#------------------------------------------------------------------------------
#$Date: 2016-03-21 01:21:50 +0200 (Mon, 21 Mar 2016) $
#$Revision: 178377 $
#$URL: svn://www.crystallography.net/cod/cif/4/00/21/4002107.cif $
#------------------------------------------------------------------------------
#
# This file is available in the Crystallography Open Database (COD),
# http://www.crystallography.net/
#
# All data on this site have been placed in the public domain by the
# contributors.
#
data_4002107
loop_
_publ_author_name
'Nanthamathee, Chompoonoot'
'Ling, Sanliang'
'Slater, Ben'
'Attfield, Martin P.'
_publ_section_title
;
 Contradistinct Thermoresponsive Behavior of Isostructural MIL-53 Type
 Metal--Organic Frameworks by Modifying the Framework Inorganic Anion
;
_journal_name_full               'Chemistry of Materials'
_journal_page_first              141223143002002
_journal_paper_doi               10.1021/cm503311x
_journal_year                    2014
_chemical_formula_sum            'C8 Al O5'
_chemical_formula_weight         203.07
_chemical_name_systematic        ' ?'
_space_group_IT_number           74
_symmetry_cell_setting           orthorhombic
_symmetry_space_group_name_Hall  '-I 2b 2'
_symmetry_space_group_name_H-M   'I m m a'
_audit_creation_date             2014-08-28T12:19
_audit_creation_method           'from EXP file using GSAS2CIF'
_audit_update_record
' 2014-08-28T12:19  Initial CIF as created by GSAS2CIF'
_cell_angle_alpha                90.0
_cell_angle_beta                 90.0
_cell_angle_gamma                90.0
_cell_formula_units_Z            4
_cell_length_a                   6.62869(6)
_cell_length_b                   16.72237(18)
_cell_length_c                   12.84063(23)
_cell_volume                     1423.35(3)
_computing_structure_refinement  GSAS
_diffrn_radiation_polarisn_ratio 0.95
_diffrn_radiation_probe          x-ray
_diffrn_radiation_wavelength     0.825993
_exptl_absorpt_correction_T_max  1.00000
_exptl_absorpt_correction_T_min  1.00000
_exptl_absorpt_process_details
;   GSAS Absorption/surface roughness correction: function number 0
 No correction is applied.
;
_pd_block_id                     2014-08-28T12:19|450K|300k|i11
_pd_calc_method                  'Rietveld Refinement'
_pd_instr_location               ' ?'
_pd_meas_2theta_range_inc        0.003
_pd_meas_2theta_range_max        149.9955
_pd_meas_2theta_range_min        0.0015
_pd_meas_number_of_points        49999
_pd_phase_name                   300K
_pd_proc_2theta_range_inc        0.003
_pd_proc_2theta_range_max        150.00414
_pd_proc_2theta_range_min        0.010135
_pd_proc_info_datetime           2014-08-28T12:19:17
_pd_proc_info_excluded_regions   ' ?'
_pd_proc_ls_background_function
;   GSAS Background function number 1 with  2 terms.
 Shifted Chebyshev function of 1st kind
      1:    0.00000     2:    0.00000    
;
_pd_proc_ls_peak_cutoff          0.00010
_pd_proc_ls_profile_function
;
 CW Profile function number 4 with  18 terms
 Pseudovoigt profile coefficients as parameterized in
 P. Thompson, D.E. Cox & J.B. Hastings (1987). J. Appl. Cryst.,20,79-83.
 Asymmetry correction of L.W. Finger, D.E. Cox & A. P. Jephcoat (1994).
 J. Appl. Cryst.,27,892-900.
 Microstrain broadening by P.W. Stephens,  (1999). J. Appl. Cryst.,32,281-289.
 Peak tails are ignored  where the intensity is below 0.0001 times the peak
   Aniso. broadening axis   1.0   0.0   1.0
;
_pd_proc_ls_prof_R_factor        0.0362
_pd_proc_ls_prof_wR_expected     0.0226
_pd_proc_ls_prof_wR_factor       0.0488
_pd_proc_number_of_points        49999
_pd_spec_mounting                ' ?'
_refine_ls_goodness_of_fit_all   2.16
_refine_ls_matrix_type           full
_refine_ls_number_parameters     27
_refine_ls_number_restraints     0
_refine_ls_R_Fsqd_factor         0.22703
_refine_ls_shift/su_max          0.05
_refine_ls_shift/su_mean         0.01
_reflns_d_resolution_high        1.210
_reflns_d_resolution_low         8.361
_reflns_limit_h_max              5
_reflns_limit_h_min              0
_reflns_limit_k_max              13
_reflns_limit_k_min              0
_reflns_limit_l_max              10
_reflns_limit_l_min              0
_reflns_number_total             252
_cod_data_source_file            aloh450K.cif
_cod_data_source_block           450K_publ
_cod_depositor_comments
;
The following automatic conversions were performed:

'_geom_bond_publ_flag' value 'N' changed to 'n' according to
/home/saulius/struct/COD-crude-data--automatic-downloads/rss-feeds/ACS/lib/dictionaries/cif_core.dic
dictionary named 'cif_core.dic' version 2.4.2 from 2011-04-26 (18
times).

'_geom_angle_publ_flag' value 'N' changed to 'n' according
to
/home/saulius/struct/COD-crude-data--automatic-downloads/rss-feeds/ACS/lib/dictionaries/cif_core.dic
dictionary named 'cif_core.dic' version 2.4.2 from 2011-04-26 (24
times).

Automatic conversion script
Id: cif_fix_values 2935 2014-11-11 08:27:57Z andrius 
;
_cod_original_cell_volume        1423.350(32)
_cod_database_code               4002107
#BEGIN Tags that were not found in dictionaries:
_gsas_exptl_extinct_corr_t_min   1.00000
_gsas_exptl_extinct_corr_t_max   1.00000
#END Tags that were not found in dictionaries
loop_
_symmetry_equiv_pos_site_id
_symmetry_equiv_pos_as_xyz
1 +x,+y,+z
2 -x,+y,+z
3 +x,-y+1/2,+z
4 -x,-y+1/2,+z
-1 -x,-y,-z
-2 +x,-y,-z
-3 -x,+y+1/2,-z
-4 +x,+y+1/2,-z
101 +x+1/2,+y+1/2,+z+1/2
102 -x+1/2,+y+1/2,+z+1/2
103 +x+1/2,-y,+z+1/2
104 -x+1/2,-y,+z+1/2
-101 -x+1/2,-y+1/2,-z+1/2
-102 +x+1/2,-y+1/2,-z+1/2
-103 -x+1/2,+y,-z+1/2
-104 +x+1/2,+y,-z+1/2
loop_
_atom_site_type_symbol
_atom_site_label
_atom_site_fract_x
_atom_site_fract_y
_atom_site_fract_z
_atom_site_occupancy
_atom_site_thermal_displace_type
_atom_site_U_iso_or_equiv
_atom_site_symmetry_multiplicity
Al Al1 0.25 0.25 0.75 1.0 Uiso 0.0202(10) 4
O O2 0.0 0.25 0.6854(4) 1.0 Uiso 0.0190(8) 4
O O1 0.16524(32) 0.16847(15) 0.84274(22) 1.0 Uiso 0.0190(8) 16
C C3 -0.1909(5) 0.03582(31) 0.9677(4) 1.0 Uiso 0.0398(15) 16
C C2 0.0 0.0621(4) 0.9474(5) 1.0 Uiso 0.0398(15) 8
C C1 0.0 0.1363(4) 0.8725(6) 1.0 Uiso 0.0398(15) 8
loop_
_atom_type_symbol
_atom_type_number_in_cell
_atom_type_scat_dispersion_real
_atom_type_scat_dispersion_imag
_atom_type_scat_Cromer_Mann_a1
_atom_type_scat_Cromer_Mann_a2
_atom_type_scat_Cromer_Mann_a3
_atom_type_scat_Cromer_Mann_a4
_atom_type_scat_Cromer_Mann_b1
_atom_type_scat_Cromer_Mann_b2
_atom_type_scat_Cromer_Mann_b3
_atom_type_scat_Cromer_Mann_b4
_atom_type_scat_Cromer_Mann_c
_atom_type_scat_source
Al 4.0 0.000 0.000 6.42020 3.03870 1.90020 0.74260 1.59360 31.5472 1.96460
85.0886 1.11510 International_Tables_Vol_C
O 20.0 0.000 0.000 3.04850 13.2771 2.28680 5.70110 1.54630 0.32390 0.86700
32.9089 0.25080 International_Tables_Vol_C
C 32.0 0.000 0.000 2.31000 20.8439 1.02000 10.2075 1.58860 0.56870 0.86500
51.6512 0.21560 International_Tables_Vol_C
loop_
_geom_angle_atom_site_label_1
_geom_angle_atom_site_label_2
_geom_angle_atom_site_label_3
_geom_angle
_geom_angle_site_symmetry_1
_geom_angle_site_symmetry_3
_geom_angle_publ_flag
O2 Al1 O2 180.0 1_555 -101_546 n
O2 Al1 O1 90.92(12) 1_555 1_555 n
O2 Al1 O1 90.92(12) 1_555 3_555 n
O2 Al1 O1 89.08(12) 1_555 -101_566 n
O2 Al1 O1 89.08(12) 1_555 -103_566 n
O2 Al1 O1 89.08(12) -101_566 1_555 n
O2 Al1 O1 89.08(12) -101_566 3_555 n
O2 Al1 O1 90.92(12) -101_566 -101_566 n
O2 Al1 O1 90.92(12) -101_566 -103_566 n
O1 Al1 O1 91.99(18) 1_555 3_555 n
O1 Al1 O1 180.0 1_555 -101_566 n
O1 Al1 O1 88.01(18) 1_555 -103_566 n
O1 Al1 O1 88.01(18) 3_555 -101_566 n
O1 Al1 O1 180.0 3_555 -103_566 n
O1 Al1 O1 91.99(18) -101_566 -103_566 n
Al1 O2 Al1 126.84(31) 1_555 2_555 n
Al1 O1 C1 138.1(4) 1_555 1_555 n
C3 C3 C2 111.9(4) -2_557 1_555 n
C3 C2 C3 136.0(7) 1_555 2_555 n
C3 C2 C1 111.8(4) 1_555 1_555 n
C3 C2 C1 111.8(4) 2_555 1_555 n
O1 C1 O1 117.8(6) 1_555 2_555 n
O1 C1 C2 121.07(31) 1_555 1_555 n
O1 C1 C2 121.07(31) 2_555 1_555 n
loop_
_geom_bond_atom_site_label_1
_geom_bond_atom_site_label_2
_geom_bond_distance
_geom_bond_site_symmetry_2
_geom_bond_publ_flag
Al1 O2 1.8530(25) 1_555 n
Al1 O2 1.8530(25) -101_445 n
Al1 O1 1.8954(21) 1_555 n
Al1 O1 1.8954(21) 3_555 n
Al1 O1 1.8954(21) -101_445 n
Al1 O1 1.8954(21) -103_445 n
O2 Al1 1.8530(25) 1_555 n
O2 Al1 1.8530(25) 2_555 n
O1 Al1 1.8954(21) 1_555 n
O1 C1 1.2792(35) 1_555 n
C3 C3 1.457(8) -2_557 n
C3 C2 1.3645(31) 1_555 n
C2 C3 1.3645(31) 1_555 n
C2 C3 1.3645(31) 2_555 n
C2 C1 1.569(7) 1_555 n
C1 O1 1.2792(35) 1_555 n
C1 O1 1.2792(35) 2_555 n
C1 C2 1.569(7) 1_555 n
loop_
_pd_meas_intensity_total
_pd_proc_ls_weight
_pd_proc_intensity_bkg_calc
_pd_calc_intensity_total
18.2(22) 0.0 0.00 .
19.3(23) 0.0 0.00 .
16.5(21) 0.0 0.00 .
16.7(21) 0.0 0.00 .
28.3(28) 0.0 0.00 .
78(5) 0.0 0.0 .
87(5) 0.0 0.0 .
541(13) 0.0 0.0 .
1029(17) 0.0 0.0 .
2052(25) 0.0 0.0 .
2392(26) 0.0 0.0 .
2357(26) 0.0 0.0 .
2408(26) 0.0 0.0 .
859(18) 0.0 0.0 .
78(5) 0.0 0.0 .
49(4) 0.0 0.0 .
39.0(32) 0.0 0.00 .
29.3(28) 0.0 0.00 .
24.8(27) 0.0 0.00 .
55(4) 0.0 0.0 .
181(8) 0.0 0.0 .
305(9) 0.0 0.0 .
662(13) 0.0 0.0 .
842(16) 0.0 0.0 .
933(17) 0.0 0.0 .
1126(18) 0.0 0.0 .
1260(18) 0.0 0.0 .
1416(20) 0.0 0.0 .
1623(22) 0.0 0.0 .
1693(23) 0.0 0.0 .
1858(23) 0.0 0.0 .
1924(23) 0.0 0.0 .
1762(22) 0.0 0.0 .
1540(21) 0.0 0.0 .
1079(18) 0.0 0.0 .
622(13) 0.0 0.0 .
354(10) 0.0 0.0 .
207(8) 0.0 0.0 .
117(6) 0.0 0.0 .
76(5) 0.0 0.0 .
60(4) 0.0 0.0 .
29.2(28) 0.0 0.00 .
36.4(34) 0.0 0.00 .
25.8(26) 0.0 0.00 .
30.7(29) 0.0 0.00 .
29.6(30) 0.0 0.00 .
30.7(29) 0.0 0.00 .
28.7(29) 0.0 0.00 .
21.9(25) 0.0 0.00 .
27.0(27) 0.0 0.00 .
33.5(30) 0.0 0.00 .
34.2(31) 0.0 0.00 .
28.5(28) 0.0 0.00 .
37.1(34) 0.0 0.00 .
25.7(27) 0.0 0.00 .
31.7(31) 0.0 0.00 .
25.9(27) 0.0 0.00 .
24.8(27) 0.0 0.00 .
33.8(32) 0.0 0.00 .
28.9(29) 0.0 0.00 .
25.2(26) 0.0 0.00 .
24.9(27) 0.0 0.00 .
25.7(28) 0.0 0.00 .
27.2(28) 0.0 0.00 .
30.8(30) 0.0 0.00 .
40.3(34) 0.0 0.00 .
28.7(28) 0.0 0.00 .
32.2(31) 0.0 0.00 .
29.4(29) 0.0 0.00 .
26.7(26) 0.0 0.00 .
32.1(29) 0.0 0.00 .
31.9(29) 0.0 0.00 .
34.3(30) 0.0 0.00 .
37.7(34) 0.0 0.00 .
42.0(35) 0.0 0.00 .
32.7(30) 0.0 0.00 .
28.9(30) 0.0 0.00 .
33.0(30) 0.0 0.00 .
38(4) 0.0 0.0 .
40.4(34) 0.0 0.00 .
36.6(32) 0.0 0.00 .
36.5(32) 0.0 0.00 .
26.1(27) 0.0 0.00 .
35.9(33) 0.0 0.00 .
42.1(34) 0.0 0.00 .
41.7(33) 0.0 0.00 .
31.6(30) 0.0 0.00 .
37.8(34) 0.0 0.00 .
35.3(34) 0.0 0.00 .
34.3(31) 0.0 0.00 .
38.1(32) 0.0 0.00 .
37.4(32) 0.0 0.00 .
44(4) 0.0 0.0 .
39.1(33) 0.0 0.00 .
49(4) 0.0 0.0 .
55(4) 0.0 0.0 .
70(4) 0.0 0.0 .
80(5) 0.0 0.0 .
77(5) 0.0 0.0 .
95(5) 0.0 0.0 .
89(5) 0.0 0.0 .
110(6) 0.0 0.0 .
125(6) 0.0 0.0 .
122(6) 0.0 0.0 .
114(6) 0.0 0.0 .
139(6) 0.0 0.0 .
138(6) 0.0 0.0 .
164(7) 0.0 0.0 .
182(7) 0.0 0.0 .
194(7) 0.0 0.0 .
186(7) 0.0 0.0 .
205(8) 0.0 0.0 .
191(7) 0.0 0.0 .
207(8) 0.0 0.0 .
226(8) 0.0 0.0 .
218(8) 0.0 0.0 .
213(8) 0.0 0.0 .
233(8) 0.0 0.0 .
272(9) 0.0 0.0 .
268(9) 0.0 0.0 .
253(8) 0.0 0.0 .
284(9) 0.0 0.0 .
281(9) 0.0 0.0 .
307(9) 0.0 0.0 .
320(9) 0.0 0.0 .
309(9) 0.0 0.0 .
322(9) 0.0 0.0 .
333(10) 0.0 0.0 .
349(10) 0.0 0.0 .
359(10) 0.0 0.0 .
358(10) 0.0 0.0 .
358(10) 0.0 0.0 .
402(11) 0.0 0.0 .
397(11) 0.0 0.0 .
406(10) 0.0 0.0 .
406(11) 0.0 0.0 .
419(11) 0.0 0.0 .
438(12) 0.0 0.0 .
432(11) 0.0 0.0 .
422(11) 0.0 0.0 .
445(11) 0.0 0.0 .
462(12) 0.0 0.0 .
485(12) 0.0 0.0 .
458(12) 0.0 0.0 .
463(11) 0.0 0.0 .
465(11) 0.0 0.0 .
509(12) 0.0 0.0 .
484(12) 0.0 0.0 .
511(12) 0.0 0.0 .
498(12) 0.0 0.0 .
519(12) 0.0 0.0 .
483(12) 0.0 0.0 .
540(13) 0.0 0.0 .
534(12) 0.0 0.0 .
549(12) 0.0 0.0 .
525(12) 0.0 0.0 .
535(13) 0.0 0.0 .
505(12) 0.0 0.0 .
519(12) 0.0 0.0 .
547(12) 0.0 0.0 .
550(13) 0.0 0.0 .
534(13) 0.0 0.0 .
547(13) 0.0 0.0 .
572(13) 0.0 0.0 .
552(12) 0.0 0.0 .
599(13) 0.0 0.0 .
576(13) 0.0 0.0 .
575(13) 0.0 0.0 .
605(13) 0.0 0.0 .
595(13) 0.0 0.0 .
569(13) 0.0 0.0 .
608(14) 0.0 0.0 .
602(13) 0.0 0.0 .
582(13) 0.0 0.0 .
577(12) 0.0 0.0 .
616(13) 0.0 0.0 .
615(14) 0.0 0.0 .
607(13) 0.0 0.0 .
634(13) 0.0 0.0 .
586(13) 0.0 0.0 .
617(13) 0.0 0.0 .
598(14) 0.0 0.0 .
617(13) 0.0 0.0 .
607(13) 0.0 0.0 .
637(13) 0.0 0.0 .
602(13) 0.0 0.0 .
640(14) 0.0 0.0 .
681(14) 0.0 0.0 .
677(13) 0.0 0.0 .
666(14) 0.0 0.0 .
665(14) 0.0 0.0 .
630(14) 0.0 0.0 .
641(14) 0.0 0.0 .
672(13) 0.0 0.0 .
685(14) 0.0 0.0 .
653(14) 0.0 0.0 .
648(14) 0.0 0.0 .
683(14) 0.0 0.0 .
674(13) 0.0 0.0 .
687(14) 0.0 0.0 .
710(14) 0.0 0.0 .
668(14) 0.0 0.0 .
689(14) 0.0 0.0 .
722(14) 0.0 0.0 .
679(14) 0.0 0.0 .
672(14) 0.0 0.0 .
695(14) 0.0 0.0 .
701(14) 0.0 0.0 .
738(14) 0.0 0.0 .
706(14) 0.0 0.0 .
718(15) 0.0 0.0 .
694(14) 0.0 0.0 .
716(14) 0.0 0.0 .
709(14) 0.0 0.0 .
733(15) 0.0 0.0 .
770(15) 0.0 0.0 .
740(15) 0.0 0.0 .
747(14) 0.0 0.0 .
775(14) 0.0 0.0 .
778(15) 0.0 0.0 .
734(15) 0.0 0.0 .
740(15) 0.0 0.0 .
775(15) 0.0 0.0 .
786(15) 0.0 0.0 .
836(16) 0.0 0.0 .
767(15) 0.0 0.0 .
757(15) 0.0 0.0 .
783(15) 0.0 0.0 .
752(14) 0.0 0.0 .
789(15) 0.0 0.0 .
800(16) 0.0 0.0 .
757(15) 0.0 0.0 .
789(15) 0.0 0.0 .
821(15) 0.0 0.0 .
843(16) 0.0 0.0 .
821(16) 0.0 0.0 .
772(15) 0.0 0.0 .
784(15) 0.0 0.0 .
809(15) 0.0 0.0 .
801(15) 0.0 0.0 .
812(16) 0.0 0.0 .
803(15) 0.0 0.0 .
785(14) 0.0 0.0 .
810(15) 0.0 0.0 .
818(15) 0.0 0.0 .
856(16) 0.0 0.0 .
837(16) 0.0 0.0 .
800(15) 0.0 0.0 .
829(15) 0.0 0.0 .
844(16) 0.0 0.0 .
878(16) 0.0 0.0 .
822(15) 0.0 0.0 .
808(15) 0.0 0.0 .
825(16) 0.0 0.0 .
856(16) 0.0 0.0 .
891(16) 0.0 0.0 .
841(15) 0.0 0.0 .
851(15) 0.0 0.0 .
876(16) 0.0 0.0 .
840(16) 0.0 0.0 .
855(16) 0.0 0.0 .
858(15) 0.0 0.0 .
850(15) 0.0 0.0 .
852(16) 0.0 0.0 .
845(16) 0.0 0.0 .
853(16) 0.0 0.0 .
847(15) 0.0 0.0 .
886(15) 0.0 0.0 .
898(16) 0.0 0.0 .
868(16) 0.0 0.0 .
871(16) 0.0 0.0 .
891(16) 0.0 0.0 .
890(15) 0.0 0.0 .
890(16) 0.0 0.0 .
878(16) 0.0 0.0 .
853(16) 0.0 0.0 .
866(15) 0.0 0.0 .
876(15) 0.0 0.0 .
864(16) 0.0 0.0 .
913(17) 0.0 0.0 .
896(16) 0.0 0.0 .
854(15) 0.0 0.0 .
899(16) 0.0 0.0 .
870(16) 0.0 0.0 .
931(17) 0.0 0.0 .
927(16) 0.0 0.0 .
933(16) 0.0 0.0 .
862(15) 0.0 0.0 .
904(16) 0.0 0.0 .
876(16) 0.0 0.0 .
938(16) 0.0 0.0 .
920(16) 0.0 0.0 .
941(16) 0.0 0.0 .
926(16) 0.0 0.0 .
941(17) 0.0 0.0 .
942(17) 0.0 0.0 .
986(16) 0.0 0.0 .
921(16) 0.0 0.0 .
965(17) 0.0 0.0 .
939(17) 0.0 0.0 .
939(16) 0.0 0.0 .
920(16) 0.0 0.0 .
939(16) 0.0 0.0 .
961(17) 0.0 0.0 .
925(17) 0.0 0.0 .
960(17) 0.0 0.0 .
923(16) 0.0 0.0 .
926(16) 0.0 0.0 .
969(17) 0.0 0.0 .
976(17) 0.0 0.0 .
928(16) 0.0 0.0 .
958(16) 0.0 0.0 .
936(16) 0.0 0.0 .
957(17) 0.0 0.0 .
939(17) 0.0 0.0 .
945(16) 0.0 0.0 .
935(16) 0.0 0.0 .
942(17) 0.0 0.0 .
978(17) 0.0 0.0 .
967(17) 0.0 0.0 .
918(16) 0.0 0.0 .
952(16) 0.0 0.0 .
970(17) 0.0 0.0 .
981(17) 0.0 0.0 .
941(16) 0.0 0.0 .
947(16) 0.0 0.0 .
950(16) 0.0 0.0 .
963(17) 0.0 0.0 .
974(17) 0.0 0.0 .
910(16) 0.0 0.0 .
983(16) 0.0 0.0 .
959(16) 0.0 0.0 .
942(17) 0.0 0.0 .
992(18) 0.0 0.0 .
954(17) 0.0 0.0 .
955(16) 0.0 0.0 .
965(16) 0.0 0.0 .
1009(17) 0.0 0.0 .
956(17) 0.0 0.0 .
975(17) 0.0 0.0 .
970(16) 0.0 0.0 .
983(16) 0.0 0.0 .
1018(17) 0.0 0.0 .
994(17) 0.0 0.0 .
1051(18) 0.0 0.0 .
1004(16) 0.0 0.0 .
1009(17) 0.0 0.0 .
1014(17) 0.0 0.0 .
1022(18) 0.0 0.0 .
1022(17) 0.0 0.0 .
1054(17) 0.0 0.0 .
1050(17) 0.0 0.0 .
982(17) 0.0 0.0 .
1043(18) 0.0 0.0 .
1062(17) 0.0 0.0 .
1071(17) 0.0 0.0 .
1074(18) 0.0 0.0 .
1058(18) 0.0 0.0 .
1059(18) 0.0 0.0 .
1099(18) 0.0 0.0 .
1099(17) 0.0 0.0 .
1073(18) 0.0 0.0 .
1070(18) 0.0 0.0 .
1065(17) 0.0 0.0 .
1060(17) 0.0 0.0 .
1081(17) 0.0 0.0 .
1059(17) 0.0 0.0 .
1084(18) 0.0 0.0 .
1108(18) 0.0 0.0 .
1087(17) 0.0 0.0 .
1091(17) 0.0 0.0 .
1073(17) 0.0 0.0 .
1121(18) 0.0 0.0 .
1100(18) 0.0 0.0 .
1126(17) 0.0 0.0 .
1153(18) 0.0 0.0 .
1096(18) 0.0 0.0 .
1151(19) 0.0 0.0 .
1155(18) 0.0 0.0 .
1192(18) 0.0 0.0 .
1155(18) 0.0 0.0 .
1182(19) 0.0 0.0 .
1173(19) 0.0 0.0 .
1194(19) 0.0 0.0 .
1135(17) 0.0 0.0 .
1138(18) 0.0 0.0 .
1145(18) 0.0 0.0 .
1222(19) 0.0 0.0 .
1206(19) 0.0 0.0 .
1140(18) 0.0 0.0 .
1167(18) 0.0 0.0 .
1136(18) 0.0 0.0 .
1163(19) 0.0 0.0 .
1179(19) 0.0 0.0 .
1125(17) 0.0 0.0 .
1155(18) 0.0 0.0 .
1189(18) 0.0 0.0 .
1245(19) 0.0 0.0 .
1151(18) 0.0 0.0 .
1159(18) 0.0 0.0 .
1217(19) 0.0 0.0 .
1198(19) 0.0 0.0 .
1210(19) 0.0 0.0 .
1210(18) 0.0 0.0 .
1193(18) 0.0 0.0 .
1237(19) 0.0 0.0 .
1198(19) 0.0 0.0 .
1238(19) 0.0 0.0 .
1217(18) 0.0 0.0 .
1208(18) 0.0 0.0 .
1208(19) 0.0 0.0 .
1198(19) 0.0 0.0 .
1234(19) 0.0 0.0 .
1201(18) 0.0 0.0 .
1180(18) 0.0 0.0 .
1258(19) 0.0 0.0 .
1255(19) 0.0 0.0 .
1258(19) 0.0 0.0 .
1231(18) 0.0 0.0 .
1205(18) 0.0 0.0 .
1248(19) 0.0 0.0 .
1218(19) 0.0 0.0 .
1240(19) 0.0 0.0 .
1239(18) 0.0 0.0 .
1220(18) 0.0 0.0 .
1247(19) 0.0 0.0 .
1268(20) 0.0 0.0 .
1197(19) 0.0 0.0 .
1266(18) 0.0 0.0 .
1273(18) 0.0 0.0 .
1198(18) 0.0 0.0 .
1223(19) 0.0 0.0 .
1245(19) 0.0 0.0 .
1228(18) 0.0 0.0 .
1213(18) 0.0 0.0 .
1263(19) 0.0 0.0 .
1249(19) 0.0 0.0 .
1257(19) 0.0 0.0 .
1250(18) 0.0 0.0 .
1293(19) 0.0 0.0 .
1256(19) 0.0 0.0 .
1285(20) 0.0 0.0 .
1241(19) 0.0 0.0 .
1259(18) 0.0 0.0 .
1259(19) 0.0 0.0 .
1232(19) 0.0 0.0 .
1243(19) 0.0 0.0 .
1258(19) 0.0 0.0 .
1267(19) 0.0 0.0 .
1244(19) 0.0 0.0 .
1254(19) 0.0 0.0 .
1278(19) 0.0 0.0 .
1260(19) 0.0 0.0 .
1290(19) 0.0 0.0 .
1231(19) 0.0 0.0 .
1263(19) 0.0 0.0 .
1236(19) 0.0 0.0 .
1209(18) 0.0 0.0 .
1231(18) 0.0 0.0 .
1276(19) 0.0 0.0 .
1261(19) 0.0 0.0 .
1256(19) 0.0 0.0 .
1244(18) 0.0 0.0 .
1240(18) 0.0 0.0 .
1274(19) 0.0 0.0 .
1200(19) 0.0 0.0 .
1220(19) 0.0 0.0 .
1232(18) 0.0 0.0 .
1219(18) 0.0 0.0 .
1242(19) 0.0 0.0 .
1242(19) 0.0 0.0 .
1265(19) 0.0 0.0 .
1230(18) 0.0 0.0 .
1212(18) 0.0 0.0 .
1237(19) 0.0 0.0 .
1201(19) 0.0 0.0 .
1245(19) 0.0 0.0 .
1292(19) 0.0 0.0 .
1241(18) 0.0 0.0 .
1235(19) 0.0 0.0 .
1288(20) 0.0 0.0 .
1254(19) 0.0 0.0 .
1220(18) 0.0 0.0 .
1218(18) 0.0 0.0 .
1215(19) 0.0 0.0 .
1213(19) 0.0 0.0 .
1266(19) 0.0 0.0 .
1239(18) 0.0 0.0 .
1310(19) 0.0 0.0 .
1275(19) 0.0 0.0 .
1251(19) 0.0 0.0 .
1258(19) 0.0 0.0 .
1215(18) 0.0 0.0 .
1253(19) 0.0 0.0 .
1274(19) 0.0 0.0 .
1215(19) 0.0 0.0 .
1261(19) 0.0 0.0 .
1192(18) 0.0 0.0 .
1229(19) 0.0 0.0 .
1226(19) 0.0 0.0 .
1200(19) 0.0 0.0 .
1213(19) 0.0 0.0 .
1237(18) 0.0 0.0 .
1252(19) 0.0 0.0 .
1227(19) 0.0 0.0 .
1230(19) 0.0 0.0 .
1235(19) 0.0 0.0 .
1220(18) 0.0 0.0 .
1256(19) 0.0 0.0 .
1287(19) 0.0 0.0 .
1306(20) 0.0 0.0 .
1260(19) 0.0 0.0 .
1242(18) 0.0 0.0 .
1211(19) 0.0 0.0 .
1206(19) 0.0 0.0 .
1193(19) 0.0 0.0 .
1227(18) 0.0 0.0 .
1221(18) 0.0 0.0 .
1195(18) 0.0 0.0 .
1267(20) 0.0 0.0 .
1266(19) 0.0 0.0 .
1199(18) 0.0 0.0 .
1224(18) 0.0 0.0 .
1210(19) 0.0 0.0 .
1220(19) 0.0 0.0 .
1212(19) 0.0 0.0 .
1202(18) 0.0 0.0 .
1216(18) 0.0 0.0 .
1184(18) 0.0 0.0 .
1248(20) 0.0 0.0 .
1231(19) 0.0 0.0 .
1207(18) 0.0 0.0 .
1258(19) 0.0 0.0 .
1188(18) 0.0 0.0 .
1183(19) 0.0 0.0 .
1248(19) 0.0 0.0 .
1242(18) 0.0 0.0 .
1261(19) 0.0 0.0 .
1232(19) 0.0 0.0 .
1247(19) 0.0 0.0 .
1197(19) 0.0 0.0 .
1219(18) 0.0 0.0 .
1221(18) 0.0 0.0 .
1232(19) 0.0 0.0 .
1191(19) 0.0 0.0 .
1222(19) 0.0 0.0 .
1210(18) 0.0 0.0 .
1233(19) 0.0 0.0 .
1236(19) 0.0 0.0 .
1214(19) 0.0 0.0 .
1200(18) 0.0 0.0 .
1237(18) 0.0 0.0 .
1214(18) 0.0 0.0 .
1205(19) 0.0 0.0 .
1169(19) 0.0 0.0 .
1205(19) 0.0 0.0 .
1184(18) 0.0 0.0 .
1190(18) 0.0 0.0 .
1265(19) 0.0 0.0 .
1251(19) 0.0 0.0 .
1217(18) 0.0 0.0 .
1183(18) 0.0 0.0 .
1210(19) 0.0 0.0 .
1271(19) 0.0 0.0 .
1260(19) 0.0 0.0 .
1161(18) 0.0 0.0 .
1210(18) 0.0 0.0 .
1168(18) 0.0 0.0 .
1203(19) 0.0 0.0 .
1195(19) 0.0 0.0 .
1155(18) 0.0 0.0 .
1189(18) 0.0 0.0 .
1192(18) 0.0 0.0 .
1207(19) 0.0 0.0 .
1192(19) 0.0 0.0 .
1181(18) 0.0 0.0 .
1197(18) 0.0 0.0 .
1200(18) 0.0 0.0 .
1181(19) 0.0 0.0 .
1181(18) 0.0 0.0 .
1177(18) 0.0 0.0 .
1186(18) 0.0 0.0 .
1193(18) 0.0 0.0 .
1178(19) 0.0 0.0 .
1167(18) 0.0 0.0 .
1171(18) 0.0 0.0 .
1208(18) 0.0 0.0 .
1205(19) 0.0 0.0 .
1191(19) 0.0 0.0 .
1200(19) 0.0 0.0 .
1230(18) 0.0 0.0 .
1202(18) 0.0 0.0 .
1179(18) 0.0 0.0 .
1173(19) 0.0 0.0 .
1187(18) 0.0 0.0 .
1167(18) 0.0 0.0 .
1140(18) 0.0 0.0 .
1175(18) 0.0 0.0 .
1161(19) 0.0 0.0 .
1179(18) 0.0 0.0 .
1193(18) 0.0 0.0 .
1204(18) 0.0 0.0 .
1194(19) 0.0 0.0 .
1228(19) 0.0 0.0 .
1163(18) 0.0 0.0 .
1170(18) 0.0 0.0 .
1191(19) 0.0 0.0 .
1143(18) 0.0 0.0 .
1148(18) 0.0 0.0 .
1150(18) 0.0 0.0 .
1197(18) 0.0 0.0 .
1155(18) 0.0 0.0 .
1128(18) 0.0 0.0 .
1133(18) 0.0 0.0 .
1124(18) 0.0 0.0 .
1134(17) 0.0 0.0 .
1147(18) 0.0 0.0 .
1133(18) 0.0 0.0 .
1185(19) 0.0 0.0 .
1121(18) 0.0 0.0 .
1169(18) 0.0 0.0 .
1145(18) 0.0 0.0 .
1166(19) 0.0 0.0 .
1198(19) 0.0 0.0 .
1167(18) 0.0 0.0 .
1177(18) 0.0 0.0 .
1166(18) 0.0 0.0 .
1149(19) 0.0 0.0 .
1167(18) 0.0 0.0 .
1158(18) 0.0 0.0 .
1134(18) 0.0 0.0 .
1144(18) 0.0 0.0 .
1131(19) 0.0 0.0 .
1126(18) 0.0 0.0 .
1117(17) 0.0 0.0 .
1166(18) 0.0 0.0 .
1141(18) 0.0 0.0 .
1157(19) 0.0 0.0 .
1169(18) 0.0 0.0 .
1153(18) 0.0 0.0 .
1139(17) 0.0 0.0 .
1128(18) 0.0 0.0 .
1130(19) 0.0 0.0 .
1125(18) 0.0 0.0 .
1122(17) 0.0 0.0 .
1173(18) 0.0 0.0 .
1165(19) 0.0 0.0 .
1101(18) 0.0 0.0 .
1148(18) 0.0 0.0 .
1172(18) 0.0 0.0 .
1180(18) 0.0 0.0 .
1177(19) 0.0 0.0 .
1153(19) 0.0 0.0 .
1125(18) 0.0 0.0 .
1147(18) 0.0 0.0 .
1142(18) 0.0 0.0 .
1161(18) 0.0 0.0 .
1099(18) 0.0 0.0 .
1091(18) 0.0 0.0 .
1160(18) 0.0 0.0 .
1078(17) 0.0 0.0 .
1067(18) 0.0 0.0 .
1111(18) 0.0 0.0 .
1120(18) 0.0 0.0 .
1132(18) 0.0 0.0 .
1080(18) 0.0 0.0 .
1141(19) 0.0 0.0 .
1082(18) 0.0 0.0 .
1090(17) 0.0 0.0 .
1103(17) 0.0 0.0 .
1107(18) 0.0 0.0 .
1132(19) 0.0 0.0 .
1135(18) 0.0 0.0 .
1124(18) 0.0 0.0 .
1095(17) 0.0 0.0 .
1125(18) 0.0 0.0 .
1106(18) 0.0 0.0 .
1118(18) 0.0 0.0 .
1097(17) 0.0 0.0 .
1070(17) 0.0 0.0 .
1096(18) 0.0 0.0 .
1109(19) 0.0 0.0 .
1057(17) 0.0 0.0 .
1125(17) 0.0 0.0 .
1095(17) 0.0 0.0 .
1093(18) 0.0 0.0 .
1056(18) 0.0 0.0 .
1064(17) 0.0 0.0 .
1120(17) 0.0 0.0 .
1068(17) 0.0 0.0 .
1093(18) 0.0 0.0 .
1084(18) 0.0 0.0 .
1090(18) 0.0 0.0 .
1094(17) 0.0 0.0 .
1101(17) 0.0 0.0 .
1068(17) 0.0 0.0 .
1076(18) 0.0 0.0 .
1052(17) 0.0 0.0 .
1085(17) 0.0 0.0 .
1066(17) 0.0 0.0 .
1071(18) 0.0 0.0 .
1077(18) 0.0 0.0 .
1056(17) 0.0 0.0 .
1052(17) 0.0 0.0 .
1067(17) 0.0 0.0 .
1087(18) 0.0 0.0 .
1064(18) 0.0 0.0 .
1097(18) 0.0 0.0 .
1080(17) 0.0 0.0 .
1065(17) 0.0 0.0 .
1078(18) 0.0 0.0 .
1052(17) 0.0 0.0 .
1133(18) 0.0 0.0 .
1099(17) 0.0 0.0 .
1052(18) 0.0 0.0 .
1070(18) 0.0 0.0 .
1085(18) 0.0 0.0 .
1052(17) 0.0 0.0 .
1030(17) 0.0 0.0 .
1040(17) 0.0 0.0 .
1041(18) 0.0 0.0 .
1082(18) 0.0 0.0 .
1083(17) 0.0 0.0 .
1071(17) 0.0 0.0 .
1055(17) 0.0 0.0 .
1055(18) 0.0 0.0 .
1034(17) 0.0 0.0 .
1082(17) 0.0 0.0 .
1079(17) 0.0 0.0 .
1021(17) 0.0 0.0 .
1036(18) 0.0 0.0 .
1074(18) 0.0 0.0 .
1080(17) 0.0 0.0 .
1000(16) 0.0 0.0 .
1041(17) 0.0 0.0 .
1051(18) 0.0 0.0 .
1032(17) 0.0 0.0 .
1035(17) 0.0 0.0 .
1031(17) 0.0 0.0 .
1029(17) 0.0 0.0 .
1015(18) 0.0 0.0 .
1074(18) 0.0 0.0 .
1060(17) 0.0 0.0 .
1019(17) 0.0 0.0 .
1033(18) 0.0 0.0 .
1053(18) 0.0 0.0 .
1016(17) 0.0 0.0 .
1045(17) 0.0 0.0 .
1018(17) 0.0 0.0 .
1039(17) 0.0 0.0 .
1051(18) 0.0 0.0 .
1001(17) 0.0 0.0 .
1048(17) 0.0 0.0 .
1061(17) 0.0 0.0 .
1051(18) 0.0 0.0 .
1050(18) 0.0 0.0 .
1036(17) 0.0 0.0 .
1033(17) 0.0 0.0 .
996(17) 0.0 0.0 .
1011(17) 0.0 0.0 .
1021(17) 0.0 0.0 .
1025(17) 0.0 0.0 .
1004(16) 0.0 0.0 .
1000(17) 0.0 0.0 .
1014(17) 0.0 0.0 .
993(17) 0.0 0.0 .
989(16) 0.0 0.0 .
999(16) 0.0 0.0 .
1012(17) 0.0 0.0 .
1003(17) 0.0 0.0 .
1030(17) 0.0 0.0 .
1062(17) 0.0 0.0 .
1010(16) 0.0 0.0 .
948(17) 0.0 0.0 .
1011(18) 0.0 0.0 .
1018(17) 0.0 0.0 .
969(16) 0.0 0.0 .
1035(17) 0.0 0.0 .
969(17) 0.0 0.0 .
1023(18) 0.0 0.0 .
1008(17) 0.0 0.0 .
1049(17) 0.0 0.0 .
988(16) 0.0 0.0 .
989(17) 0.0 0.0 .
988(18) 0.0 0.0 .
1001(17) 0.0 0.0 .
1025(17) 0.0 0.0 .
1023(17) 0.0 0.0 .
987(17) 0.0 0.0 .
996(17) 0.0 0.0 .
985(17) 0.0 0.0 .
1020(17) 0.0 0.0 .
992(17) 0.0 0.0 .
994(17) 0.0 0.0 .
996(17) 0.0 0.0 .
998(17) 0.0 0.0 .
993(16) 0.0 0.0 .
973(16) 0.0 0.0 .
976(17) 0.0 0.0 .
978(17) 0.0 0.0 .
1025(17) 0.0 0.0 .
994(16) 0.0 0.0 .
1008(17) 0.0 0.0 .
1013(17) 0.0 0.0 .
1012(17) 0.0 0.0 .
977(17) 0.0 0.0 .
977(16) 0.0 0.0 .
985(17) 0.0 0.0 .
952(17) 0.0 0.0 .
1009(17) 0.0 0.0 .
968(16) 0.0 0.0 .
974(16) 0.0 0.0 .
1003(17) 0.0 0.0 .
980(17) 0.0 0.0 .
1013(17) 0.0 0.0 .
1030(17) 0.0 0.0 .
986(16) 0.0 0.0 .
982(17) 0.0 0.0 .
957(17) 0.0 0.0 .
945(17) 0.0 0.0 .
965(16) 0.0 0.0 .
963(16) 0.0 0.0 .
969(17) 0.0 0.0 .
994(17) 0.0 0.0 .
969(17) 0.0 0.0 .
976(16) 0.0 0.0 .
957(16) 0.0 0.0 .
955(17) 0.0 0.0 .
1005(18) 0.0 0.0 .
978(17) 0.0 0.0 .
917(16) 0.0 0.0 .
914(16) 0.0 0.0 .
956(17) 0.0 0.0 .
975(18) 0.0 0.0 .
980(17) 0.0 0.0 .
967(16) 0.0 0.0 .
948(16) 0.0 0.0 .
940(17) 0.0 0.0 .
932(17) 0.0 0.0 .
933(16) 0.0 0.0 .
938(16) 0.0 0.0 .
961(16) 0.0 0.0 .
995(17) 0.0 0.0 .
988(17) 0.0 0.0 .
959(17) 0.0 0.0 .
976(16) 0.0 0.0 .
1002(17) 0.0 0.0 .
955(17) 0.0 0.0 .
927(17) 0.0 0.0 .
931(16) 0.0 0.0 .
902(16) 0.0 0.0 .
950(16) 0.0 0.0 .
936(17) 0.0 0.0 .
967(17) 0.0 0.0 .
982(17) 0.0 0.0 .
962(16) 0.0 0.0 .
944(16) 0.0 0.0 .
948(17) 0.0 0.0 .
986(17) 0.0 0.0 .
916(16) 0.0 0.0 .
932(16) 0.0 0.0 .
916(16) 0.0 0.0 .
874(16) 0.0 0.0 .
957(17) 0.0 0.0 .
948(16) 0.0 0.0 .
926(16) 0.0 0.0 .
909(16) 0.0 0.0 .
921(17) 0.0 0.0 .
962(17) 0.0 0.0 .
973(16) 0.0 0.0 .
951(16) 0.0 0.0 .
973(17) 0.0 0.0 .
971(17) 0.0 0.0 .
931(16) 0.0 0.0 .
963(16) 0.0 0.0 .
932(16) 0.0 0.0 .
948(17) 0.0 0.0 .
932(17) 0.0 0.0 .
942(17) 0.0 0.0 .
961(16) 0.0 0.0 .
943(16) 0.0 0.0 .
881(16) 0.0 0.0 .
910(17) 0.0 0.0 .
934(17) 0.0 0.0 .
898(16) 0.0 0.0 .
880(15) 0.0 0.0 .
924(16) 0.0 0.0 .
944(17) 0.0 0.0 .
945(16) 0.0 0.0 .
941(16) 0.0 0.0 .
1000(17) 0.0 0.0 .
909(16) 0.0 0.0 .
886(16) 0.0 0.0 .
902(16) 0.0 0.0 .
906(16) 0.0 0.0 .
908(16) 0.0 0.0 .
881(16) 0.0 0.0 .
908(17) 0.0 0.0 .
912(16) 0.0 0.0 .
905(16) 0.0 0.0 .
925(16) 0.0 0.0 .
917(16) 0.0 0.0 .
929(17) 0.0 0.0 .
907(16) 0.0 0.0 .
933(16) 0.0 0.0 .
875(16) 0.0 0.0 .
891(16) 0.0 0.0 .
876(16) 0.0 0.0 .
896(16) 0.0 0.0 .
887(15) 0.0 0.0 .
924(16) 0.0 0.0 .
907(16) 0.0 0.0 .
883(16) 0.0 0.0 .
919(16) 0.0 0.0 .
956(16) 0.0 0.0 .
897(16) 0.0 0.0 .
899(16) 0.0 0.0 .
858(16) 0.0 0.0 .
889(16) 0.0 0.0 .
932(16) 0.0 0.0 .
866(16) 0.0 0.0 .
871(16) 0.0 0.0 .
934(16) 0.0 0.0 .
894(16) 0.0 0.0 .
886(15) 0.0 0.0 .
893(16) 0.0 0.0 .
920(17) 0.0 0.0 .
881(16) 0.0 0.0 .
882(16) 0.0 0.0 .
890(16) 0.0 0.0 .
881(16) 0.0 0.0 .
898(16) 0.0 0.0 .
873(16) 0.0 0.0 .
852(15) 0.0 0.0 .
873(15) 0.0 0.0 .
878(16) 0.0 0.0 .
890(17) 0.0 0.0 .
880(16) 0.0 0.0 .
918(16) 0.0 0.0 .
938(16) 0.0 0.0 .
907(16) 0.0 0.0 .
917(17) 0.0 0.0 .
904(16) 0.0 0.0 .
889(15) 0.0 0.0 .
857(15) 0.0 0.0 .
894(16) 0.0 0.0 .
955(17) 0.0 0.0 .
862(16) 0.0 0.0 .
890(16) 0.0 0.0 .
904(16) 0.0 0.0 .
904(16) 0.0 0.0 .
875(16) 0.0 0.0 .
892(16) 0.0 0.0 .
842(15) 0.0 0.0 .
885(16) 0.0 0.0 .
837(16) 0.0 0.0 .
867(16) 0.0 0.0 .
882(16) 0.0 0.0 .
876(15) 0.0 0.0 .
837(15) 0.0 0.0 .
855(16) 0.0 0.0 .
863(16) 0.0 0.0 .
838(15) 0.0 0.0 .
859(15) 0.0 0.0 .
838(16) 0.0 0.0 .
888(16) 0.0 0.0 .
906(16) 0.0 0.0 .
861(15) 0.0 0.0 .
902(16) 0.0 0.0 .
849(16) 0.0 0.0 .
830(16) 0.0 0.0 .
848(16) 0.0 0.0 .
860(15) 0.0 0.0 .
865(15) 0.0 0.0 .
855(16) 0.0 0.0 .
841(16) 0.0 0.0 .
841(16) 0.0 0.0 .
851(15) 0.0 0.0 .
858(15) 0.0 0.0 .
890(16) 0.0 0.0 .
851(16) 0.0 0.0 .
843(16) 0.0 0.0 .
872(15) 0.0 0.0 .
860(15) 0.0 0.0 .
870(16) 0.0 0.0 .
830(16) 0.0 0.0 .
825(15) 0.0 0.0 .
841(15) 0.0 0.0 .
848(15) 0.0 0.0 .
828(15) 0.0 0.0 .
849(16) 0.0 0.0 .
834(16) 0.0 0.0 .
837(15) 0.0 0.0 .
867(16) 0.0 0.0 .
840(16) 0.0 0.0 .
817(16) 0.0 0.0 .
825(15) 0.0 0.0 .
830(15) 0.0 0.0 .
821(15) 0.0 0.0 .
831(16) 0.0 0.0 .
826(16) 0.0 0.0 .
818(15) 0.0 0.0 .
793(15) 0.0 0.0 .
835(15) 0.0 0.0 .
811(15) 0.0 0.0 .
830(16) 0.0 0.0 .
829(15) 0.0 0.0 .
811(15) 0.0 0.0 .
834(15) 0.0 0.0 .
842(16) 0.0 0.0 .
863(16) 0.0 0.0 .
796(15) 0.0 0.0 .
793(15) 0.0 0.0 .
842(15) 0.0 0.0 .
842(16) 0.0 0.0 .
831(16) 0.0 0.0 .
819(15) 0.0 0.0 .
839(15) 0.0 0.0 .
809(15) 0.0 0.0 .
801(16) 0.0 0.0 .
810(15) 0.0 0.0 .
810(15) 0.0 0.0 .
854(15) 0.0 0.0 .
813(15) 0.0 0.0 .
807(16) 0.0 0.0 .
775(15) 0.0 0.0 .
805(15) 0.0 0.0 .
821(15) 0.0 0.0 .
822(15) 0.0 0.0 .
820(16) 0.0 0.0 .
777(15) 0.0 0.0 .
804(15) 0.0 0.0 .
803(15) 0.0 0.0 .
768(15) 0.0 0.0 .
829(16) 0.0 0.0 .
816(15) 0.0 0.0 .
766(14) 0.0 0.0 .
847(15) 0.0 0.0 .
803(15) 0.0 0.0 .
821(16) 0.0 0.0 .
790(15) 0.0 0.0 .
784(15) 0.0 0.0 .
793(15) 0.0 0.0 .
786(15) 0.0 0.0 .
818(16) 0.0 0.0 .
807(15) 0.0 0.0 .
806(15) 0.0 0.0 .
746(14) 0.0 0.0 .
758(15) 0.0 0.0 .
825(16) 0.0 0.0 .
762(15) 0.0 0.0 .
766(14) 0.0 0.0 .
756(15) 0.0 0.0 .
731(14) 0.0 0.0 .
769(15) 0.0 0.0 .
811(15) 0.0 0.0 .
798(15) 0.0 0.0 .
810(15) 0.0 0.0 .
752(15) 0.0 0.0 .
764(15) 0.0 0.0 .
735(14) 0.0 0.0 .
786(14) 0.0 0.0 .
770(15) 0.0 0.0 .
759(15) 0.0 0.0 .
751(15) 0.0 0.0 .
752(14) 0.0 0.0 .
752(14) 0.0 0.0 .
797(15) 0.0 0.0 .
743(15) 0.0 0.0 .
768(15) 0.0 0.0 .
788(15) 0.0 0.0 .
817(15) 0.0 0.0 .
747(15) 0.0 0.0 .
783(15) 0.0 0.0 .
732(14) 0.0 0.0 .
753(14) 0.0 0.0 .
775(15) 0.0 0.0 .
789(15) 0.0 0.0 .
780(15) 0.0 0.0 .
793(15) 0.0 0.0 .
773(14) 0.0 0.0 .
718(14) 0.0 0.0 .
796(15) 0.0 0.0 .
757(15) 0.0 0.0 .
742(14) 0.0 0.0 .
774(15) 0.0 0.0 .
740(14) 0.0 0.0 .
756(15) 0.0 0.0 .
730(15) 0.0 0.0 .
736(15) 0.0 0.0 .
764(14) 0.0 0.0 .
763(14) 0.0 0.0 .
774(15) 0.0 0.0 .
723(15) 0.0 0.0 .
721(15) 0.0 0.0 .
758(14) 0.0 0.0 .
755(14) 0.0 0.0 .
742(15) 0.0 0.0 .
730(15) 0.0 0.0 .
738(15) 0.0 0.0 .
806(15) 0.0 0.0 .
742(14) 0.0 0.0 .
752(15) 0.0 0.0 .
735(15) 0.0 0.0 .
746(15) 0.0 0.0 .
760(14) 0.0 0.0 .
752(15) 0.0 0.0 .
721(15) 0.0 0.0 .
737(15) 0.0 0.0 .
776(15) 0.0 0.0 .
725(14) 0.0 0.0 .
781(15) 0.0 0.0 .
781(15) 0.0 0.0 .
764(15) 0.0 0.0 .
754(15) 0.0 0.0 .
759(14) 0.0 0.0 .
705(14) 0.0 0.0 .
725(15) 0.0 0.0 .
758(15) 0.0 0.0 .
726(14) 0.0 0.0 .
758(14) 0.0 0.0 .
731(15) 0.0 0.0 .
754(15) 0.0 0.0 .
761(15) 0.0 0.0 .
752(15) 0.0 0.0 .
737(14) 0.0 0.0 .
743(15) 0.0 0.0 .
715(15) 0.0 0.0 .
721(15) 0.0 0.0 .
761(14) 0.0 0.0 .
721(14) 0.0 0.0 .
730(14) 0.0 0.0 .
723(15) 0.0 0.0 .
681(14) 0.0 0.0 .
727(14) 0.0 0.0 .
706(14) 0.0 0.0 .
772(15) 0.0 0.0 .
744(15) 0.0 0.0 .
699(14) 0.0 0.0 .
744(14) 0.0 0.0 .
735(14) 0.0 0.0 .
740(15) 0.0 0.0 .
740(15) 0.0 0.0 .
740(15) 0.0 0.0 .
730(14) 0.0 0.0 .
742(14) 0.0 0.0 .
721(14) 0.0 0.0 .
732(15) 0.0 0.0 .
687(14) 0.0 0.0 .
763(14) 0.0 0.0 .
719(14) 0.0 0.0 .
700(14) 0.0 0.0 .
716(14) 0.0 0.0 .
748(15) 0.0 0.0 .
698(14) 0.0 0.0 .
728(14) 0.0 0.0 .
749(15) 0.0 0.0 .
720(15) 0.0 0.0 .
732(15) 0.0 0.0 .
723(14) 0.0 0.0 .
715(14) 0.0 0.0 .
719(15) 0.0 0.0 .
747(15) 0.0 0.0 .
706(14) 0.0 0.0 .
721(14) 0.0 0.0 .
704(14) 0.0 0.0 .
712(15) 0.0 0.0 .
766(15) 0.0 0.0 .
751(14) 0.0 0.0 .
749(14) 0.0 0.0 .
735(14) 0.0 0.0 .
686(14) 0.0 0.0 .
759(15) 0.0 0.0 .
704(14) 0.0 0.0 .
764(14) 0.0 0.0 .
735(15) 0.0 0.0 .
736(15) 0.0 0.0 .
716(14) 0.0 0.0 .
714(14) 0.0 0.0 .
735(14) 0.0 0.0 .
703(14) 0.0 0.0 .
755(15) 0.0 0.0 .
694(14) 0.0 0.0 .
728(14) 0.0 0.0 .
732(14) 0.0 0.0 .
693(14) 0.0 0.0 .
696(15) 0.0 0.0 .
730(15) 0.0 0.0 .
709(14) 0.0 0.0 .
703(14) 0.0 0.0 .
664(14) 0.0 0.0 .
698(15) 0.0 0.0 .
718(14) 0.0 0.0 .
711(14) 0.0 0.0 .
723(14) 0.0 0.0 .
689(14) 0.0 0.0 .
690(14) 0.0 0.0 .
723(15) 0.0 0.0 .
740(14) 0.0 0.0 .
694(14) 0.0 0.0 .
726(15) 0.0 0.0 .
693(14) 0.0 0.0 .
703(14) 0.0 0.0 .
715(14) 0.0 0.0 .
719(14) 0.0 0.0 .
707(14) 0.0 0.0 .
680(14) 0.0 0.0 .
690(14) 0.0 0.0 .
727(14) 0.0 0.0 .
703(14) 0.0 0.0 .
701(14) 0.0 0.0 .
696(14) 0.0 0.0 .
698(14) 0.0 0.0 .
701(14) 0.0 0.0 .
686(14) 0.0 0.0 .
688(14) 0.0 0.0 .
686(14) 0.0 0.0 .
688(14) 0.0 0.0 .
712(14) 0.0 0.0 .
725(15) 0.0 0.0 .
685(14) 0.0 0.0 .
681(14) 0.0 0.0 .
678(14) 0.0 0.0 .
691(14) 0.0 0.0 .
692(14) 0.0 0.0 .
692(15) 0.0 0.0 .
697(14) 0.0 0.0 .
742(14) 0.0 0.0 .
687(14) 0.0 0.0 .
716(15) 0.0 0.0 .
695(15) 0.0 0.0 .
711(14) 0.0 0.0 .
684(14) 0.0 0.0 .
708(14) 0.0 0.0 .
692(14) 0.0 0.0 .
658(14) 0.0 0.0 .
688(14) 0.0 0.0 .
703(14) 0.0 0.0 .
719(14) 0.0 0.0 .
686(14) 0.0 0.0 .
721(15) 0.0 0.0 .
705(14) 0.0 0.0 .
692(14) 0.0 0.0 .
672(14) 0.0 0.0 .
678(14) 0.0 0.0 .
686(14) 0.0 0.0 .
665(14) 0.0 0.0 .
708(14) 0.0 0.0 .
672(14) 0.0 0.0 .
680(14) 0.0 0.0 .
673(14) 0.0 0.0 .
675(14) 0.0 0.0 .
681(14) 0.0 0.0 .
712(14) 0.0 0.0 .
683(14) 0.0 0.0 .
676(14) 0.0 0.0 .
694(14) 0.0 0.0 .
687(14) 0.0 0.0 .
655(14) 0.0 0.0 .
719(15) 0.0 0.0 .
699(14) 0.0 0.0 .
681(14) 0.0 0.0 .
697(14) 0.0 0.0 .
654(14) 0.0 0.0 .
674(14) 0.0 0.0 .
694(14) 0.0 0.0 .
681(14) 0.0 0.0 .
675(14) 0.0 0.0 .
684(14) 0.0 0.0 .
687(14) 0.0 0.0 .
682(14) 0.0 0.0 .
678(14) 0.0 0.0 .
690(14) 0.0 0.0 .
667(14) 0.0 0.0 .
626(14) 0.0 0.0 .
656(14) 0.0 0.0 .
679(14) 0.0 0.0 .
674(13) 0.0 0.0 .
668(14) 0.0 0.0 .
693(14) 0.0 0.0 .
682(14) 0.0 0.0 .
690(14) 0.0 0.0 .
693(14) 0.0 0.0 .
690(14) 0.0 0.0 .
667(14) 0.0 0.0 .
686(14) 0.0 0.0 .
664(13) 0.0 0.0 .
703(14) 0.0 0.0 .
681(14) 0.0 0.0 .
678(15) 0.0 0.0 .
684(14) 0.0 0.0 .
643(13) 0.0 0.0 .
652(13) 0.0 0.0 .
642(14) 0.0 0.0 .
664(14) 0.0 0.0 .
675(14) 0.0 0.0 .
689(14) 0.0 0.0 .
672(14) 0.0 0.0 .
674(14) 0.0 0.0 .
686(14) 0.0 0.0 .
691(14) 0.0 0.0 .
685(14) 0.0 0.0 .
677(14) 0.0 0.0 .
642(14) 0.0 0.0 .
671(14) 0.0 0.0 .
685(14) 0.0 0.0 .
662(13) 0.0 0.0 .
676(14) 0.0 0.0 .
687(14) 0.0 0.0 .
678(14) 0.0 0.0 .
707(14) 0.0 0.0 .
631(13) 0.0 0.0 .
650(14) 0.0 0.0 .
686(14) 0.0 0.0 .
663(14) 0.0 0.0 .
647(13) 0.0 0.0 .
677(13) 0.0 0.0 .
655(14) 0.0 0.0 .
652(14) 0.0 0.0 .
672(14) 0.0 0.0 .
669(13) 0.0 0.0 .
693(14) 0.0 0.0 .
650(14) 0.0 0.0 .
636(14) 0.0 0.0 .
662(14) 0.0 0.0 .
643(13) 0.0 0.0 .
665(13) 0.0 0.0 .
652(14) 0.0 0.0 .
650(14) 0.0 0.0 .
688(14) 0.0 0.0 .
684(14) 0.0 0.0 .
654(13) 0.0 0.0 .
657(14) 0.0 0.0 .
681(14) 0.0 0.0 .
636(13) 0.0 0.0 .
635(13) 0.0 0.0 .
668(13) 0.0 0.0 .
703(14) 0.0 0.0 .
684(14) 0.0 0.0 .
650(14) 0.0 0.0 .
674(14) 0.0 0.0 .
657(13) 0.0 0.0 .
659(14) 0.0 0.0 .
609(13) 0.0 0.0 .
659(14) 0.0 0.0 .
655(13) 0.0 0.0 .
623(13) 0.0 0.0 .
608(13) 0.0 0.0 .
662(14) 0.0 0.0 .
661(14) 0.0 0.0 .
659(13) 0.0 0.0 .
703(14) 0.0 0.0 .
654(14) 0.0 0.0 .
637(14) 0.0 0.0 .
648(14) 0.0 0.0 .
662(13) 0.0 0.0 .
663(14) 0.0 0.0 .
669(14) 0.0 0.0 .
655(14) 0.0 0.0 .
676(14) 0.0 0.0 .
651(13) 0.0 0.0 .
638(14) 0.0 0.0 .
662(14) 0.0 0.0 .
664(14) 0.0 0.0 .
682(14) 0.0 0.0 .
624(13) 0.0 0.0 .
633(14) 0.0 0.0 .
631(14) 0.0 0.0 .
632(14) 0.0 0.0 .
623(13) 0.0 0.0 .
631(13) 0.0 0.0 .
651(14) 0.0 0.0 .
637(14) 0.0 0.0 .
659(14) 0.0 0.0 .
641(13) 0.0 0.0 .
682(14) 0.0 0.0 .
684(14) 0.0 0.0 .
670(14) 0.0 0.0 .
653(14) 0.0 0.0 .
656(13) 0.0 0.0 .
657(13) 0.0 0.0 .
652(14) 0.0 0.0 .
674(14) 0.0 0.0 .
627(13) 0.0 0.0 .
652(13) 0.0 0.0 .
632(13) 0.0 0.0 .
624(13) 0.0 0.0 .
643(14) 0.0 0.0 .
631(13) 0.0 0.0 .
642(13) 0.0 0.0 .
666(13) 0.0 0.0 .
638(13) 0.0 0.0 .
670(14) 0.0 0.0 .
653(13) 0.0 0.0 .
692(14) 0.0 0.0 .
697(14) 0.0 0.0 .
673(14) 0.0 0.0 .
677(14) 0.0 0.0 .
637(13) 0.0 0.0 .
658(13) 0.0 0.0 .
664(14) 0.0 0.0 .
687(14) 0.0 0.0 .
668(14) 0.0 0.0 .
642(14) 0.0 0.0 .
674(13) 0.0 0.0 .
693(14) 0.0 0.0 .
682(14) 0.0 0.0 .
648(14) 0.0 0.0 .
632(13) 0.0 0.0 .
646(13) 0.0 0.0 .
711(14) 0.0 0.0 .
649(14) 0.0 0.0 .
665(14) 0.0 0.0 .
644(13) 0.0 0.0 .
619(13) 0.0 0.0 .
673(14) 0.0 0.0 .
680(14) 0.0 0.0 .
677(14) 0.0 0.0 .
721(14) 0.0 0.0 .
640(13) 0.0 0.0 .
647(14) 0.0 0.0 .
663(14) 0.0 0.0 .
667(14) 0.0 0.0 .
646(13) 0.0 0.0 .
652(13) 0.0 0.0 .
676(14) 0.0 0.0 .
662(14) 0.0 0.0 .
637(14) 0.0 0.0 .
642(13) 0.0 0.0 .
639(13) 0.0 0.0 .
655(14) 0.0 0.0 .
692(15) 0.0 0.0 .
651(13) 0.0 0.0 .
639(13) 0.0 0.0 .
662(13) 0.0 0.0 .
708(14) 0.0 0.0 .
678(15) 0.0 0.0 .
680(14) 0.0 0.0 .
663(13) 0.0 0.0 .
682(14) 0.0 0.0 .
663(14) 0.0 0.0 .
688(14) 0.0 0.0 .
680(14) 0.0 0.0 .
656(13) 0.0 0.0 .
658(13) 0.0 0.0 .
670(14) 0.0 0.0 .
696(15) 0.0 0.0 .
690(14) 0.0 0.0 .
663(13) 0.0 0.0 .
666(14) 0.0 0.0 .
703(14) 0.0 0.0 .
636(14) 0.0 0.0 .
684(14) 0.0 0.0 .
690(14) 0.0 0.0 .
709(14) 0.0 0.0 .
677(14) 0.0 0.0 .
695(14) 0.0 0.0 .
688(14) 0.0 0.0 .
680(14) 0.0 0.0 .
698(14) 0.0 0.0 .
685(14) 0.0 0.0 .
667(14) 0.0 0.0 .
694(14) 0.0 0.0 .
679(14) 0.0 0.0 .
679(14) 0.0 0.0 .
683(14) 0.0 0.0 .
669(14) 0.0 0.0 .
691(14) 0.0 0.0 .
671(13) 0.0 0.0 .
674(14) 0.0 0.0 .
683(14) 0.0 0.0 .
698(14) 0.0 0.0 .
728(14) 0.0 0.0 .
742(14) 0.0 0.0 .
687(14) 0.0 0.0 .
715(15) 0.0 0.0 .
727(14) 0.0 0.0 .
748(14) 0.0 0.0 .
723(14) 0.0 0.0 .
733(14) 0.0 0.0 .
719(15) 0.0 0.0 .
703(14) 0.0 0.0 .
737(14) 0.0 0.0 .
715(14) 0.0 0.0 .
726(14) 0.0 0.0 .
777(16) 0.0 0.0 .
767(15) 0.0 0.0 .
791(15) 0.0 0.0 .
739(14) 0.0 0.0 .
784(15) 0.0 0.0 .
751(15) 0.0 0.0 .
775(15) 0.0 0.0 .
849(15) 0.0 0.0 .
813(15) 0.0 0.0 .
816(15) 0.0 0.0 .
858(16) 0.0 0.0 .
856(16) 0.0 0.0 .
822(15) 0.0 0.0 .
854(15) 0.0 0.0 .
858(16) 0.0 0.0 .
861(16) 0.0 0.0 .
883(16) 0.0 0.0 .
926(16) 0.0 0.0 .
945(16) 0.0 0.0 .
921(16) 0.0 0.0 .
906(16) 0.0 0.0 .
885(16) 0.0 0.0 .
936(16) 0.0 0.0 .
1030(17) 0.0 0.0 .
1013(17) 0.0 0.0 .
1026(18) 0.0 0.0 .
1060(17) 0.0 0.0 .
1116(17) 0.0 0.0 .
1154(18) 0.0 0.0 .
1251(19) 0.0 0.0 .
1272(19) 0.0 0.0 .
1362(20) 0.0 0.0 .
1429(20) 0.0 0.0 .
1515(21) 0.0 0.0 .
1645(22) 0.0 0.0 .
1696(22) 0.0 0.0 .
1929(23) 0.0 0.0 .
2213(24) 0.0 0.0 .
2494(27) 0.0 0.0 .
3016(30) 0.0 0.0 .
3606(32) 0.0 0.0 .
4375(35) 0.0 0.0 .
5626(39) 0.0 0. .
7090(45) 0.0 0. .
8687(52) 0.0 0. .
10559(56) 0.0 0. .
12796(60) 0.0 0. .
15000(64) 0.0 0. .
17683(72) 0.0 0. .
20104(80) 0.0 0. .
22697(82) 0.0 0. .
25044(84) 0.0 0. .
27377(88) 0.0 0. .
30110(95) 0.0 0. .
33490(110) 0.0 0. .
37120(110) 0.0 0. .
42890(110) 0.0 0. .
49730(120) 0.0 0. .
58610(140) 0.0 0. .
68950(150) 0.0 0. .
80380(160) 0.0 0. .
91160(170) 0.0 0. .
94640(170) 0.0 0. .
83530(170) 0.0 0. .
64020(150) 0.0 0. .
45990(120) 0.0 0. .
32397(96) 0.0 0. .
23584(83) 0.0 0. .
17511(72) 0.0 0. .
13857(65) 0.0 0. .
11047(57) 0.0 0. .
8747(49) 0.0 0. .
7354(46) 0.0 0. .
6245(43) 0.0 0. .
5344(40) 0.0 0. .
4606(36) 0.0 0. .
4096(33) 0.0 0.0 .
3586(32) 0.0 0.0 .
3335(31) 0.0 0.0 .
3001(30) 0.0 0.0 .
2699(27) 0.0 0.0 .
2508(26) 0.0 0.0 .
2312(26) 0.0 0.0 .
2135(25) 0.0 0.0 .
2051(24) 0.0 0.0 .
1844(22) 0.0 0.0 .
1803(22) 0.0 0.0 .
1678(22) 0.0 0.0 .
1608(22) 0.0 0.0 .
1551(21) 0.0 0.0 .
1451(20) 0.0 0.0 .
1342(19) 0.0 0.0 .
1289(19) 0.0 0.0 .
1244(19) 0.0 0.0 .
1202(19) 0.0 0.0 .
1209(18) 0.0 0.0 .
1123(17) 0.0 0.0 .
1134(18) 0.0 0.0 .
1042(18) 0.0 0.0 .
1015(17) 0.0 0.0 .
993(16) 0.0 0.0 .
1041(17) 0.0 0.0 .
933(17) 0.0 0.0 .
948(17) 0.0 0.0 .
950(16) 0.0 0.0 .
916(16) 0.0 0.0 .
880(15) 0.0 0.0 .
847(16) 0.0 0.0 .
919(17) 0.0 0.0 .
871(16) 0.0 0.0 .
840(15) 0.0 0.0 .
818(15) 0.0 0.0 .
805(15) 0.0 0.0 .
792(16) 0.0 0.0 .
788(15) 0.0 0.0 .
838(15) 0.0 0.0 .
792(15) 0.0 0.0 .
783(15) 0.0 0.0 .
787(15) 0.0 0.0 .
751(15) 0.0 0.0 .
737(14) 0.0 0.0 .
780(15) 0.0 0.0 .
758(15) 0.0 0.0 .
737(15) 0.0 0.0 .
750(15) 0.0 0.0 .
754(14) 0.0 0.0 .
770(15) 0.0 0.0 .
691(14) 0.0 0.0 .
708(14) 0.0 0.0 .
721(14) 0.0 0.0 .
705(14) 0.0 0.0 .
746(15) 0.0 0.0 .
719(15) 0.0 0.0 .
686(14) 0.0 0.0 .
699(14) 0.0 0.0 .
683(14) 0.0 0.0 .
669(14) 0.0 0.0 .
715(15) 0.0 0.0 .
680(14) 0.0 0.0 .
676(14) 0.0 0.0 .
696(14) 0.0 0.0 .
648(14) 0.0 0.0 .
668(14) 0.0 0.0 .
660(14) 0.0 0.0 .
668(14) 0.0 0.0 .
678(14) 0.0 0.0 .
670(14) 0.0 0.0 .
657(14) 0.0 0.0 .
684(14) 0.0 0.0 .
651(13) 0.0 0.0 .
662(13) 0.0 0.0 .
672(14) 0.0 0.0 .
628(14) 0.0 0.0 .
630(14) 0.0 0.0 .
637(13) 0.0 0.0 .
639(13) 0.0 0.0 .
659(14) 0.0 0.0 .
650(14) 0.0 0.0 .
694(14) 0.0 0.0 .
652(13) 0.0 0.0 .
628(13) 0.0 0.0 .
634(13) 0.0 0.0 .
687(14) 0.0 0.0 .
656(14) 0.0 0.0 .
649(13) 0.0 0.0 .
612(13) 0.0 0.0 .
599(13) 0.0 0.0 .
600(13) 0.0 0.0 .
657(14) 0.0 0.0 .
645(13) 0.0 0.0 .
636(13) 0.0 0.0 .
622(14) 0.0 0.0 .
644(14) 0.0 0.0 .
665(14) 0.0 0.0 .
633(13) 0.0 0.0 .
609(13) 0.0 0.0 .
567(13) 0.0 0.0 .
626(14) 0.0 0.0 .
629(13) 0.0 0.0 .
651(13) 0.0 0.0 .
636(13) 0.0 0.0 .
612(13) 0.0 0.0 .
659(14) 0.00503 625.4 58.8
630(13) 0.00568 625.4 57.9
604(13) 0.00604 625.4 57.0
582(13) 0.00591 625.4 56.0
629(14) 0.00529 625.4 55.2
605(13) 0.00571 625.1 54.3
607(13) 0.00596 624.6 53.5
620(13) 0.00591 624.1 52.6
621(13) 0.00557 623.6 51.8
616(14) 0.00541 623.0 51.0
633(14) 0.00530 622.5 50.3
573(12) 0.00640 622.0 49.5
642(13) 0.00578 621.5 48.8
618(13) 0.00560 621.0 48.1
584(13) 0.00553 620.4 47.4
626(13) 0.00549 619.9 46.7
642(13) 0.00578 619.4 46.0
645(13) 0.00570 618.9 45.4
560(13) 0.00629 618.3 44.7
636(14) 0.00495 617.8 44.1
604(13) 0.00598 617.3 43.5
604(13) 0.00614 616.8 42.9
579(13) 0.00640 616.3 42.3
602(13) 0.00574 615.7 41.7
631(14) 0.00511 615.2 41.1
602(13) 0.00581 614.7 40.6
599(13) 0.00613 614.2 40.1
567(12) 0.00659 613.7 39.5
617(13) 0.00576 613.1 39.0
598(13) 0.00557 612.6 38.5
610(13) 0.00562 612.1 38.0
613(13) 0.00604 611.6 37.5
606(13) 0.00600 611.1 37.0
574(13) 0.00588 610.5 36.6
563(13) 0.00567 610.0 36.1
587(13) 0.00586 609.5 35.6
596(13) 0.00623 609.0 35.2
586(13) 0.00617 608.5 34.8
607(13) 0.00565 607.9 34.3
568(13) 0.00602 607.4 33.9
559(13) 0.00611 606.9 33.5
552(12) 0.00677 606.4 33.1
575(13) 0.00615 605.8 32.7
590(13) 0.00587 605.3 32.3
566(13) 0.00603 604.8 31.9
602(13) 0.00585 604.3 31.6
558(12) 0.00661 603.8 31.2
578(13) 0.00595 603.2 30.8
580(13) 0.00587 602.7 30.5
576(13) 0.00599 602.2 30.1
579(13) 0.00616 601.7 29.8
612(13) 0.00608 601.2 29.5
562(13) 0.00637 600.6 29.1
588(13) 0.00564 600.1 28.8
604(13) 0.00564 599.6 28.5
586(13) 0.00606 599.1 28.2
585(13) 0.00632 598.6 27.9
570(13) 0.00606 598.0 27.6
565(13) 0.00590 597.5 27.3
597(13) 0.00582 597.0 27.0
609(13) 0.00594 596.5 26.7
591(13) 0.00636 596.0 26.4
587(13) 0.00594 595.4 26.2
592(13) 0.00565 594.9 25.9
585(13) 0.00592 594.4 25.6
599(13) 0.00604 593.9 25.4
568(12) 0.00655 593.3 25.1
585(13) 0.00599 592.8 24.9
574(13) 0.00571 592.3 24.6
563(13) 0.00604 591.8 24.4
551(12) 0.00673 591.3 24.1
576(13) 0.00636 590.7 23.9
562(13) 0.00619 590.2 23.7
578(13) 0.00556 589.7 23.4
588(13) 0.00579 589.2 23.2
555(12) 0.00673 588.7 23.0
583(13) 0.00620 588.1 22.8
550(12) 0.00647 587.6 22.6
581(13) 0.00562 587.1 22.3
637(14) 0.00545 586.6 22.1
586(13) 0.00633 586.1 21.9
588(13) 0.00620 585.5 21.7
590(13) 0.00605 585.0 21.5
617(14) 0.00537 584.5 21.3
559(13) 0.00630 584.0 21.2
579(12) 0.00643 583.4 21.0
579(13) 0.00625 582.9 20.8
556(13) 0.00614 582.4 20.6
532(13) 0.00637 581.9 20.4
583(13) 0.00589 581.4 20.3
564(12) 0.00660 580.8 20.1
570(13) 0.00631 580.3 19.9
587(13) 0.00589 579.8 19.7
586(13) 0.00587 579.3 19.6
571(13) 0.00606 578.8 19.4
555(12) 0.00668 578.2 19.3
593(13) 0.00593 577.7 19.1
588(13) 0.00563 577.2 19.0
573(13) 0.00593 576.7 18.8
521(12) 0.00688 576.2 18.7
585(13) 0.00638 575.6 18.5
596(13) 0.00588 575.1 18.4
545(13) 0.00611 574.6 18.2
570(13) 0.00572 574.1 18.1
569(13) 0.00622 573.6 18.0
592(13) 0.00630 573.0 17.8
551(12) 0.00649 572.5 17.7
598(14) 0.00545 572.0 17.6
550(12) 0.00644 571.5 17.5
560(12) 0.00649 570.9 17.3
587(13) 0.00638 570.4 17.2
601(13) 0.00575 569.9 17.1
549(13) 0.00599 569.4 17.0
583(13) 0.00587 568.9 16.9
569(12) 0.00642 568.3 16.8
568(12) 0.00655 567.8 16.7
559(13) 0.00619 567.3 16.5
542(13) 0.00588 566.8 16.4
528(12) 0.00653 566.3 16.3
566(12) 0.00641 565.7 16.2
576(12) 0.00641 565.2 16.1
548(13) 0.00621 564.7 16.1
550(13) 0.00572 564.2 16.0
540(12) 0.00645 563.7 15.9
527(12) 0.00704 563.1 15.8
549(12) 0.00671 562.6 15.7
549(13) 0.00639 562.1 15.6
555(13) 0.00583 561.6 15.5
552(13) 0.00624 561.1 15.5
564(12) 0.00663 560.5 15.4
583(13) 0.00621 560.0 15.3
546(12) 0.00642 559.5 15.3
575(13) 0.00558 559.0 15.2
555(13) 0.00631 558.4 15.1
580(12) 0.00641 557.9 15.1
533(12) 0.00675 557.4 15.0
571(13) 0.00610 556.9 15.0
600(14) 0.00539 556.4 14.9
548(13) 0.00613 556.3 14.9
552(12) 0.00672 556.2 14.8
602(13) 0.00582 556.1 14.8
565(13) 0.00615 555.9 14.7
572(13) 0.00596 555.8 14.7
535(12) 0.00645 555.7 14.7
548(12) 0.00678 555.6 14.6
559(12) 0.00643 555.4 14.6
558(13) 0.00629 555.3 14.6
566(13) 0.00604 555.2 14.6
546(12) 0.00651 555.1 14.6
548(12) 0.00685 554.9 14.6
545(13) 0.00636 554.8 14.6
540(12) 0.00654 554.7 14.6
595(13) 0.00573 554.6 14.6
554(12) 0.00654 554.4 14.6
592(13) 0.00625 554.3 14.6
549(13) 0.00632 554.2 14.6
540(13) 0.00626 554.1 14.6
537(12) 0.00649 553.9 14.7
520(12) 0.00700 553.8 14.7
573(12) 0.00649 553.7 14.8
544(12) 0.00646 553.6 14.8
544(13) 0.00613 553.4 14.9
557(13) 0.00629 553.3 15.0
531(12) 0.00690 553.2 15.0
545(12) 0.00683 553.1 15.1
573(13) 0.00597 552.9 15.2
525(13) 0.00625 552.8 15.3
563(13) 0.00612 552.7 15.5
569(12) 0.00652 552.6 15.6
573(12) 0.00641 552.4 15.8
508(12) 0.00700 552.3 15.9
551(13) 0.00567 552.2 16.1
571(13) 0.00593 552.1 16.3
581(13) 0.00637 551.9 16.5
568(12) 0.00653 551.8 16.8
581(13) 0.00602 551.7 17.0
557(13) 0.00600 551.6 17.3
589(13) 0.00590 551.4 17.6
586(13) 0.00630 551.3 18.0
569(13) 0.00632 551.2 18.3
570(13) 0.00603 551.1 9.3
583(13) 0.00578 550.9 9.8
564(13) 0.00626 550.8 10.3
555(12) 0.00672 550.7 10.9
557(12) 0.00656 550.6 11.6
568(13) 0.00603 550.4 12.3
541(13) 0.00609 550.3 13.1
577(13) 0.00573 550.2 14.0
563(12) 0.00659 550.1 14.9
578(13) 0.00619 549.9 16.0
552(13) 0.00636 549.8 17.1
557(13) 0.00619 549.7 18.4
566(13) 0.00620 549.6 19.9
574(12) 0.00647 549.4 21.5
592(13) 0.00587 549.3 23.3
575(13) 0.00600 549.2 25.4
571(13) 0.00610 549.1 27.7
621(13) 0.00554 548.9 30.4
634(13) 0.00586 548.8 33.5
627(13) 0.00554 548.7 37.1
655(14) 0.00525 548.6 41.3
652(14) 0.00546 548.4 46.2
647(13) 0.00555 548.3 52.2
723(14) 0.00512 548.2 59.5
693(14) 0.00503 548.1 68.9
709(14) 0.00488 547.9 81.2
770(15) 0.00459 547.8 97.9
819(15) 0.00450 547.7 121.2
846(15) 0.00439 547.6 154.0
866(16) 0.00408 547.4 199.6
926(17) 0.00364 547.3 261.7
968(17) 0.00355 547.2 343.3
1034(17) 0.00351 547.1 445.7
1045(17) 0.00358 546.9 567.1
1101(18) 0.003174 546.8 700.3
1157(19) 0.002851 546.7 830.0
1294(19) 0.002637 546.6 930.8
1233(18) 0.002989 546.4 973.4
1255(18) 0.002960 546.3 942.2
1263(19) 0.002721 546.2 848.8
1187(19) 0.002696 546.1 721.8
1003(17) 0.00355 545.9 587.8
874(15) 0.00423 545.8 463.9
805(15) 0.00456 545.7 358.3
687(14) 0.00514 545.6 273.4
648(14) 0.00507 545.5 208.4
649(14) 0.00543 545.3 160.3
621(13) 0.00597 545.2 125.8
596(13) 0.00617 545.1 101.1
565(13) 0.00636 545.0 83.5
568(13) 0.00600 544.8 70.6
571(13) 0.00602 544.7 60.8
554(12) 0.00675 544.6 53.2
561(12) 0.00652 544.5 47.1
595(13) 0.00584 544.3 42.0
560(13) 0.00597 544.2 37.7
522(12) 0.00660 544.1 34.0
527(12) 0.00706 544.0 30.9
552(12) 0.00647 543.8 28.1
569(13) 0.00604 543.7 25.7
559(13) 0.00592 543.6 23.6
512(12) 0.00685 543.5 21.8
552(12) 0.00673 543.3 20.1
564(13) 0.00613 543.2 18.6
578(13) 0.00595 543.1 17.3
553(13) 0.00621 543.0 16.1
574(13) 0.00595 542.8 15.1
558(12) 0.00665 542.7 14.1
512(12) 0.00684 542.6 13.2
549(13) 0.00608 542.5 12.4
531(13) 0.00632 542.3 11.7
523(12) 0.00678 542.2 11.0
550(12) 0.00676 542.1 10.4
528(13) 0.00638 542.0 9.9
491(12) 0.00686 541.8 9.3
524(12) 0.00661 541.7 8.9
579(13) 0.00625 541.6 8.4
530(12) 0.00707 541.5 8.0
587(13) 0.00586 541.3 7.6
558(13) 0.00587 541.2 7.3
560(13) 0.00632 541.1 6.9
547(12) 0.00673 541.0 6.6
560(12) 0.00656 540.8 6.3
564(13) 0.00617 540.7 6.1
540(13) 0.00616 540.6 5.8
544(12) 0.00645 540.5 5.6
560(12) 0.00643 540.3 5.4
540(12) 0.00691 540.2 5.1
551(13) 0.00628 540.1 4.9
558(13) 0.00579 540.0 4.8
539(12) 0.00654 539.8 4.6
552(12) 0.00671 539.7 4.4
539(12) 0.00683 539.6 4.3
567(13) 0.00598 539.5 4.1
491(12) 0.00682 539.3 4.0
524(12) 0.00670 539.2 3.8
520(12) 0.00714 539.1 3.7
534(12) 0.00681 539.0 3.6
554(13) 0.00607 538.8 3.5
543(13) 0.00591 538.7 3.4
531(12) 0.00641 538.6 3.3
504(12) 0.00735 538.5 3.2
536(12) 0.00681 538.3 3.1
542(13) 0.00630 538.2 3.0
534(13) 0.00601 538.1 2.9
528(12) 0.00673 538.0 2.8
536(12) 0.00698 537.8 2.7
522(12) 0.00699 537.7 2.6
569(13) 0.00614 537.6 2.6
538(13) 0.00626 537.5 2.5
559(13) 0.00614 537.3 2.4
532(12) 0.00694 537.2 2.4
556(12) 0.00645 537.1 2.3
568(13) 0.00602 537.0 2.2
557(13) 0.00620 536.8 2.2
534(12) 0.00675 536.7 2.1
549(12) 0.00675 536.6 2.1
564(13) 0.00616 536.5 2.0
530(13) 0.00638 536.3 2.0
536(12) 0.00657 536.2 1.9
571(13) 0.00636 536.1 1.9
564(12) 0.00649 536.0 1.8
550(12) 0.00641 535.8 1.8
559(13) 0.00600 535.7 1.7
528(12) 0.00664 535.6 1.7
547(12) 0.00642 535.5 1.7
521(12) 0.00712 535.3 1.6
493(12) 0.00692 535.2 1.6
482(12) 0.00672 535.1 1.6
535(12) 0.00646 535.0 1.5
542(12) 0.00668 534.8 1.5
567(12) 0.00645 534.7 1.5
527(12) 0.00671 534.6 1.4
497(12) 0.00673 534.5 1.4
523(12) 0.00679 534.4 1.4
520(12) 0.00699 534.4 1.3
526(12) 0.00707 534.4 1.3
524(12) 0.00667 534.3 1.3
545(13) 0.00576 534.3 1.3
533(12) 0.00661 534.3 1.2
525(12) 0.00702 534.2 1.2
524(12) 0.00700 534.2 1.2
502(12) 0.00702 534.2 1.2
553(13) 0.00584 534.1 1.2
504(12) 0.00698 534.1 1.1
518(12) 0.00711 534.1 1.1
546(12) 0.00677 534.0 1.1
547(12) 0.00643 534.0 1.1
536(13) 0.00608 534.0 1.1
541(13) 0.00627 534.0 1.0
497(12) 0.00749 533.9 1.0
526(12) 0.00694 533.9 1.0
538(12) 0.00643 533.9 1.0
553(13) 0.00616 533.8 1.0
556(13) 0.00622 533.8 0.9
548(12) 0.00673 533.8 0.9
533(12) 0.00663 533.7 0.9
548(13) 0.00634 533.7 0.9
550(13) 0.00618 533.7 0.9
528(12) 0.00644 533.6 0.9
560(12) 0.00663 533.6 0.9
526(12) 0.00683 533.6 0.8
546(13) 0.00636 533.5 0.8
531(12) 0.00660 533.5 0.8
512(12) 0.00676 533.5 0.8
575(12) 0.00646 533.4 0.8
554(13) 0.00635 533.4 0.8
572(13) 0.00592 533.4 0.8
513(12) 0.00669 533.4 0.8
491(12) 0.00722 533.3 0.7
511(12) 0.00729 533.3 0.7
503(12) 0.00695 533.3 0.7
514(12) 0.00657 533.2 0.7
522(12) 0.00654 533.2 0.7
502(12) 0.00716 533.2 0.7
521(12) 0.00714 533.1 0.7
549(13) 0.00625 533.1 0.7
531(13) 0.00630 533.1 0.7
519(12) 0.00653 533.0 0.7
539(12) 0.00673 533.0 0.6
551(12) 0.00674 533.0 0.6
526(12) 0.00660 532.9 0.6
527(13) 0.00627 532.9 0.6
517(12) 0.00687 532.9 0.6
517(12) 0.00702 532.8 0.6
512(12) 0.00724 532.8 0.6
496(12) 0.00707 532.8 0.6
520(13) 0.00625 532.8 0.6
503(12) 0.00695 532.7 0.6
522(12) 0.00687 532.7 0.6
528(12) 0.00707 532.7 0.6
543(13) 0.00629 532.6 0.5
506(13) 0.00633 532.6 0.5
543(12) 0.00641 532.6 0.5
514(12) 0.00712 532.5 0.5
538(12) 0.00696 532.5 0.5
541(12) 0.00641 532.5 0.5
567(13) 0.00566 532.4 0.5
545(12) 0.00652 532.4 0.5
542(12) 0.00684 532.4 0.5
515(12) 0.00715 532.3 0.5
516(12) 0.00675 532.3 0.5
550(13) 0.00592 532.3 0.5
516(12) 0.00675 532.3 0.5
546(12) 0.00684 532.2 0.5
528(12) 0.00701 532.2 0.5
527(12) 0.00658 532.2 0.5
483(12) 0.00697 532.1 0.4
526(12) 0.00654 532.1 0.4
521(12) 0.00708 532.1 0.4
513(12) 0.00691 532.0 0.4
509(12) 0.00678 532.0 0.4
526(12) 0.00642 532.0 0.4
541(12) 0.00650 531.9 0.4
499(12) 0.00746 531.9 0.4
491(12) 0.00720 531.9 0.4
517(12) 0.00661 531.8 0.4
543(13) 0.00617 531.8 0.4
508(12) 0.00695 531.8 0.4
529(12) 0.00703 531.7 0.4
557(13) 0.00637 531.7 0.4
560(13) 0.00592 531.7 0.4
515(12) 0.00660 531.7 0.4
512(12) 0.00707 531.6 0.4
540(12) 0.00685 531.6 0.4
542(13) 0.00639 531.6 0.4
541(13) 0.00619 531.5 0.4
518(12) 0.00678 531.5 0.4
525(12) 0.00692 531.5 0.4
534(12) 0.00700 531.4 0.4
503(12) 0.00696 531.4 0.3
539(13) 0.00623 531.4 0.3
543(12) 0.00645 531.3 0.3
515(12) 0.00717 531.3 0.3
529(12) 0.00702 531.3 0.3
501(12) 0.00691 531.2 0.3
539(13) 0.00619 531.2 0.3
521(12) 0.00667 531.2 0.3
502(12) 0.00728 531.2 0.3
544(12) 0.00679 531.1 0.3
538(12) 0.00668 531.1 0.3
497(12) 0.00672 531.1 0.3
526(12) 0.00684 531.0 0.3
551(12) 0.00677 531.0 0.3
537(12) 0.00684 531.0 0.3
504(12) 0.00682 530.9 0.3
514(13) 0.00604 530.9 0.3
521(12) 0.00662 530.9 0.3
523(12) 0.00716 530.8 0.3
502(12) 0.00722 530.8 0.3
504(12) 0.00692 530.8 0.3
503(12) 0.00668 530.7 0.3
557(13) 0.00619 530.7 0.3
534(12) 0.00695 530.7 0.3
531(12) 0.00696 530.6 0.3
574(13) 0.00603 530.6 0.3
544(13) 0.00630 530.6 0.3
526(12) 0.00664 530.6 0.3
521(12) 0.00718 530.5 0.3
505(12) 0.00717 530.5 0.3
521(12) 0.00648 530.5 0.3
544(13) 0.00603 530.4 0.3
541(13) 0.00635 530.4 0.3
547(12) 0.00680 530.4 0.3
475(12) 0.00744 530.3 0.3
533(13) 0.00631 530.3 0.3
532(12) 0.00653 530.3 0.2
526(12) 0.00682 530.2 0.2
548(12) 0.00679 530.2 0.2
530(12) 0.00661 530.2 0.2
485(12) 0.00706 530.1 0.2
510(12) 0.00676 530.1 0.2
512(12) 0.00687 530.1 0.2
522(12) 0.00710 530.0 0.2
534(12) 0.00644 530.0 0.2
568(13) 0.00573 530.0 0.2
533(12) 0.00646 530.0 0.2
522(12) 0.00696 529.9 0.2
537(12) 0.00693 529.9 0.2
510(12) 0.00698 529.9 0.2
537(13) 0.00622 529.8 0.2
536(12) 0.00653 529.8 0.2
509(12) 0.00717 529.8 0.2
518(12) 0.00724 529.7 0.2
527(12) 0.00662 529.7 0.2
501(12) 0.00656 529.7 0.2
509(12) 0.00673 529.6 0.2
543(12) 0.00674 529.6 0.2
518(12) 0.00715 529.6 0.2
530(13) 0.00638 529.5 0.2
555(13) 0.00584 529.5 0.2
523(12) 0.00675 529.5 0.2
532(12) 0.00696 529.5 0.2
545(12) 0.00670 529.4 0.2
538(12) 0.00645 529.4 0.2
530(13) 0.00601 529.4 0.2
522(12) 0.00670 529.3 0.2
538(12) 0.00698 529.3 0.2
535(12) 0.00680 529.3 0.2
532(12) 0.00663 529.2 0.2
549(13) 0.00595 529.2 0.2
520(12) 0.00676 529.2 0.2
503(12) 0.00738 529.1 0.2
512(12) 0.00717 529.1 0.2
533(12) 0.00642 529.1 0.2
522(13) 0.00621 529.0 0.2
538(13) 0.00625 529.0 0.2
558(12) 0.00659 529.0 0.2
529(12) 0.00674 528.9 0.2
519(12) 0.00667 528.9 0.2
525(13) 0.00638 528.9 0.2
511(12) 0.00674 528.9 0.2
504(12) 0.00738 528.8 0.2
538(12) 0.00649 528.8 0.2
493(12) 0.00729 528.8 0.2
535(12) 0.00643 528.7 0.2
550(13) 0.00638 528.7 0.2
529(12) 0.00709 528.7 0.2
521(12) 0.00686 528.6 0.2
535(12) 0.00641 528.6 0.2
543(13) 0.00629 528.6 0.2
520(12) 0.00690 528.5 0.2
519(12) 0.00722 528.5 0.2
491(12) 0.00711 528.5 0.2
510(12) 0.00669 528.4 0.2
511(12) 0.00675 528.4 0.2
521(12) 0.00678 528.4 0.2
548(12) 0.00675 528.3 0.2
544(13) 0.00623 528.3 0.2
494(12) 0.00677 528.3 0.2
520(12) 0.00661 528.3 0.2
502(12) 0.00725 528.2 0.2
533(12) 0.00700 528.2 0.2
521(12) 0.00677 528.2 0.2
520(12) 0.00656 528.1 0.1
520(12) 0.00677 528.1 0.1
528(12) 0.00700 528.1 0.1
527(12) 0.00704 528.0 0.1
515(12) 0.00663 528.0 0.1
522(13) 0.00591 528.0 0.1
531(13) 0.00636 527.9 0.1
559(12) 0.00658 527.9 0.1
506(12) 0.00733 527.9 0.1
524(12) 0.00676 527.8 0.1
530(13) 0.00597 527.8 0.1
522(12) 0.00648 527.8 0.1
528(12) 0.00712 527.8 0.1
526(12) 0.00703 527.7 0.1
513(12) 0.00691 527.7 0.1
495(12) 0.00659 527.7 0.1
518(12) 0.00683 527.6 0.1
562(12) 0.00660 527.6 0.1
510(12) 0.00719 527.6 0.1
519(12) 0.00668 527.5 0.1
524(13) 0.00630 527.5 0.1
511(12) 0.00675 527.5 0.1
506(12) 0.00734 527.4 0.1
543(12) 0.00660 527.4 0.1
519(12) 0.00662 527.5 0.1
489(12) 0.00688 527.5 0.1
530(12) 0.00650 527.6 0.1
505(12) 0.00738 527.7 0.1
510(12) 0.00708 527.7 0.1
534(12) 0.00654 527.8 0.1
539(12) 0.00645 527.8 0.1
536(12) 0.00656 527.9 0.1
523(12) 0.00700 528.0 0.1
523(12) 0.00695 528.0 0.1
538(13) 0.00640 528.1 0.1
527(12) 0.00641 528.1 0.1
536(12) 0.00650 528.2 0.1
505(12) 0.00739 528.3 0.1
512(12) 0.00696 528.3 0.1
528(13) 0.00633 528.4 0.1
524(12) 0.00647 528.4 0.1
517(12) 0.00701 528.5 0.1
514(12) 0.00725 528.6 0.1
528(12) 0.00647 528.6 0.1
536(13) 0.00614 528.7 0.1
515(12) 0.00682 528.7 0.1
507(12) 0.00717 528.8 0.1
517(12) 0.00724 528.9 0.1
500(12) 0.00692 528.9 0.1
542(13) 0.00577 529.0 0.1
540(13) 0.00621 529.0 0.1
515(12) 0.00703 529.1 0.1
529(12) 0.00703 529.2 0.1
498(12) 0.00701 529.2 0.1
510(13) 0.00640 529.3 0.1
562(13) 0.00609 529.3 0.1
536(12) 0.00700 529.4 0.1
510(12) 0.00723 529.5 0.1
501(12) 0.00703 529.5 0.1
531(13) 0.00592 529.6 0.1
532(12) 0.00655 529.6 0.1
521(12) 0.00715 529.7 0.1
502(12) 0.00722 529.8 0.1
551(13) 0.00623 529.8 0.1
526(13) 0.00606 529.9 0.1
507(12) 0.00688 529.9 0.1
532(12) 0.00700 530.0 0.1
511(12) 0.00706 530.1 0.1
511(12) 0.00677 530.1 0.1
490(12) 0.00698 530.2 0.1
573(13) 0.00615 530.2 0.1
512(12) 0.00724 530.3 0.1
524(12) 0.00700 530.4 0.1
522(12) 0.00652 530.4 0.1
510(12) 0.00664 530.5 0.1
513(12) 0.00661 530.5 0.1
517(12) 0.00720 530.6 0.1
509(12) 0.00714 530.7 0.1
525(12) 0.00668 530.7 0.1
527(12) 0.00642 530.8 0.0
536(13) 0.00637 530.8 0.0
500(12) 0.00737 530.9 0.0
510(12) 0.00698 531.0 0.0
557(13) 0.00614 531.0 0.0
544(13) 0.00628 531.1 0.0
532(12) 0.00655 531.1 0.0
521(12) 0.00716 531.2 0.0
505(12) 0.00687 531.3 0.0
548(13) 0.00622 531.3 0.0
543(13) 0.00620 531.4 0.0
500(12) 0.00705 531.4 0.0
509(12) 0.00736 531.5 0.0
522(12) 0.00661 531.6 0.0
539(13) 0.00616 531.6 0.0
537(12) 0.00645 531.7 0.0
514(12) 0.00710 531.7 0.0
523(12) 0.00711 531.8 0.0
526(12) 0.00653 531.9 0.0
521(12) 0.00644 531.9 0.0
528(12) 0.00664 532.0 0.0
506(12) 0.00711 532.0 0.0
530(12) 0.00694 532.1 0.0
530(12) 0.00663 532.2 0.0
549(13) 0.00591 532.2 0.0
563(13) 0.00600 532.3 0.0
542(12) 0.00687 532.4 0.0
575(13) 0.00630 532.4 0.0
554(13) 0.00610 532.5 0.0
518(13) 0.00637 532.5 0.0
543(13) 0.00633 532.6 0.0
554(12) 0.00667 532.7 0.0
543(12) 0.00681 532.7 0.0
548(13) 0.00632 532.8 0.0
543(13) 0.00587 532.8 0.0
537(12) 0.00647 532.9 0.0
553(12) 0.00666 533.0 0.0
546(12) 0.00665 533.0 0.0
527(12) 0.00675 533.1 0.0
569(13) 0.00570 533.1 0.0
570(13) 0.00598 533.2 0.0
574(12) 0.00646 533.3 0.8
534(12) 0.00661 533.3 0.8
551(13) 0.00638 533.4 0.8
569(13) 0.00592 533.4 0.8
554(13) 0.00640 533.5 0.8
539(12) 0.00678 533.6 0.8
525(12) 0.00694 533.6 0.8
531(12) 0.00657 533.7 0.8
530(13) 0.00639 533.7 0.8
549(13) 0.00635 533.8 0.8
565(12) 0.00647 533.9 0.8
551(13) 0.00640 533.9 0.8
541(13) 0.00622 534.0 0.8
519(12) 0.00660 534.0 0.8
553(13) 0.00635 534.1 0.9
556(12) 0.00663 534.2 0.9
560(13) 0.00625 534.2 0.9
534(13) 0.00633 534.3 0.9
537(12) 0.00644 534.3 0.9
511(12) 0.00696 534.4 0.9
526(12) 0.00706 534.5 0.9
518(12) 0.00674 534.5 0.9
516(12) 0.00656 534.6 0.9
529(12) 0.00663 534.6 0.9
530(12) 0.00663 534.7 0.9
517(12) 0.00708 534.8 0.9
549(13) 0.00623 534.8 0.9
561(13) 0.00591 534.9 0.9
544(12) 0.00654 534.9 0.9
542(12) 0.00658 535.0 0.9
520(12) 0.00715 535.1 0.9
542(12) 0.00655 535.1 0.9
536(13) 0.00612 535.2 0.9
518(12) 0.00674 535.2 1.0
524(12) 0.00688 535.3 1.0
555(12) 0.00661 535.4 1.0
525(12) 0.00653 535.4 1.0
524(13) 0.00635 535.5 1.0
567(13) 0.00599 535.5 1.0
548(12) 0.00680 535.6 1.0
532(12) 0.00700 535.7 1.0
539(13) 0.00637 535.7 1.0
509(13) 0.00633 535.8 1.0
536(12) 0.00662 535.8 1.0
524(12) 0.00713 535.9 1.0
540(12) 0.00688 536.0 1.0
504(12) 0.00703 536.0 1.0
496(12) 0.00668 536.1 1.0
505(12) 0.00680 536.1 1.0
545(12) 0.00687 536.2 1.0
527(12) 0.00683 536.3 1.1
518(12) 0.00667 536.3 1.1
508(12) 0.00651 536.4 1.1
499(12) 0.00700 536.4 1.1
529(12) 0.00703 536.5 1.1
548(12) 0.00658 536.6 1.1
539(13) 0.00634 536.6 1.1
543(13) 0.00616 536.7 1.1
563(13) 0.00610 536.7 1.1
568(12) 0.00662 536.8 1.1
532(12) 0.00678 536.9 1.1
531(12) 0.00652 536.9 1.1
540(13) 0.00614 537.0 1.1
525(12) 0.00670 537.0 1.1
539(12) 0.00693 537.1 1.2
532(12) 0.00670 537.2 1.2
539(13) 0.00637 537.2 1.2
557(13) 0.00615 537.3 1.2
540(12) 0.00655 537.3 1.2
522(12) 0.00715 537.4 1.2
560(13) 0.00628 537.5 1.2
529(12) 0.00658 537.5 1.2
553(13) 0.00617 537.6 1.2
529(12) 0.00681 537.6 1.2
545(12) 0.00682 537.7 1.2
558(13) 0.00615 537.8 1.2
517(12) 0.00663 537.8 1.3
543(13) 0.00630 537.9 1.3
573(13) 0.00633 537.9 1.3
540(12) 0.00687 538.0 1.3
526(12) 0.00659 538.1 1.3
520(12) 0.00643 538.1 1.3
538(12) 0.00646 538.2 1.3
550(12) 0.00672 538.2 1.3
550(12) 0.00678 538.3 1.3
569(13) 0.00617 538.4 1.3
551(13) 0.00599 538.4 1.4
520(12) 0.00670 538.5 1.4
549(12) 0.00671 538.5 1.4
559(12) 0.00663 538.6 1.4
533(12) 0.00652 538.7 1.4
550(13) 0.00580 538.7 1.4
562(13) 0.00631 538.8 1.4
532(12) 0.00708 538.8 1.4
524(12) 0.00692 538.9 1.4
504(12) 0.00706 539.0 1.5
534(13) 0.00613 539.0 1.5
575(13) 0.00589 539.1 1.5
537(12) 0.00698 539.1 1.5
536(12) 0.00693 539.2 1.5
513(12) 0.00697 539.3 1.5
535(13) 0.00625 539.3 1.5
558(13) 0.00624 539.4 1.5
575(12) 0.00645 539.4 1.6
548(12) 0.00664 539.5 1.6
579(13) 0.00597 539.6 1.6
551(13) 0.00619 539.6 1.6
539(13) 0.00639 539.7 1.6
553(12) 0.00672 539.7 1.6
528(12) 0.00680 539.8 1.6
534(12) 0.00658 539.9 1.7
526(12) 0.00643 539.9 1.7
528(13) 0.00636 540.0 1.7
520(12) 0.00720 540.0 1.7
535(12) 0.00669 540.1 1.7
519(12) 0.00676 540.2 1.7
544(13) 0.00626 540.2 1.8
532(12) 0.00664 540.3 1.8
492(11) 0.00762 540.3 1.8
533(12) 0.00651 540.4 1.8
535(13) 0.00633 540.5 1.8
554(13) 0.00607 540.5 1.9
537(12) 0.00681 540.6 1.9
538(12) 0.00685 540.6 1.9
512(12) 0.00690 540.7 1.9
540(13) 0.00623 540.8 1.9
531(12) 0.00641 540.8 2.0
562(12) 0.00646 540.9 2.0
534(12) 0.00696 540.9 2.0
529(12) 0.00650 541.0 2.1
539(13) 0.00617 541.1 2.1
549(13) 0.00633 541.1 2.1
548(12) 0.00672 541.2 2.2
559(12) 0.00669 541.2 2.2
539(12) 0.00651 541.3 2.3
529(12) 0.00641 541.4 2.3
524(12) 0.00658 541.4 2.4
539(12) 0.00676 541.5 2.5
597(13) 0.00623 541.5 2.5
542(13) 0.00629 541.6 2.6
531(13) 0.00583 541.7 2.7
571(13) 0.00604 541.7 2.8
535(12) 0.00682 541.8 3.0
541(12) 0.00693 541.8 3.1
564(13) 0.00627 541.9 3.3
522(12) 0.00645 542.0 3.4
529(12) 0.00661 542.0 3.6
535(12) 0.00690 542.1 3.9
536(12) 0.00691 542.2 4.1
533(12) 0.00641 542.2 4.3
531(13) 0.00607 542.3 4.5
531(12) 0.00670 542.3 4.7
556(12) 0.00673 542.4 4.9
542(12) 0.00668 542.5 5.1
523(12) 0.00678 542.5 5.2
538(13) 0.00623 542.6 5.2
537(13) 0.00635 542.6 5.1
556(12) 0.00662 542.7 5.0
556(12) 0.00656 542.8 4.8
556(13) 0.00619 542.8 4.7
538(13) 0.00630 542.9 4.5
525(12) 0.00678 542.9 4.3
554(12) 0.00670 543.0 4.1
562(13) 0.00634 543.1 3.9
572(13) 0.00609 543.1 3.8
572(13) 0.00602 543.2 3.7
542(12) 0.00656 543.2 3.5
526(12) 0.00711 543.3 3.4
538(12) 0.00659 543.4 3.4
548(13) 0.00621 543.4 3.3
540(13) 0.00638 543.5 3.2
544(12) 0.00662 543.5 3.2
564(12) 0.00662 543.6 3.2
545(13) 0.00635 543.7 3.1
567(13) 0.00604 543.7 3.1
574(13) 0.00592 543.8 3.1
529(12) 0.00673 543.8 3.1
543(12) 0.00687 543.9 3.1
527(12) 0.00661 544.0 3.1
560(13) 0.00584 544.0 3.1
552(13) 0.00630 544.1 3.1
535(12) 0.00680 544.1 3.1
574(12) 0.00650 544.2 3.2
539(13) 0.00638 544.3 3.2
525(13) 0.00633 544.3 3.2
553(13) 0.00625 544.4 3.2
546(12) 0.00675 544.4 3.2
557(12) 0.00668 544.5 3.3
547(13) 0.00632 544.6 3.3
524(13) 0.00624 544.6 3.3
535(12) 0.00652 544.7 3.3
529(12) 0.00708 544.7 3.4
551(12) 0.00674 544.8 3.4
558(13) 0.00631 544.9 3.4
531(13) 0.00613 544.9 3.4
551(13) 0.00623 545.0 3.5
551(12) 0.00673 545.0 3.5
535(12) 0.00696 545.1 3.5
529(12) 0.00664 545.2 3.6
538(13) 0.00617 545.2 3.6
538(13) 0.00631 545.3 3.6
545(12) 0.00683 545.3 3.7
513(12) 0.00721 545.4 3.7
556(13) 0.00629 545.5 3.8
561(13) 0.00604 545.5 3.8
570(13) 0.00611 545.6 3.8
552(12) 0.00671 545.6 3.9
553(12) 0.00660 545.7 3.9
538(12) 0.00661 545.8 4.0
542(13) 0.00630 545.8 4.0
532(12) 0.00655 545.9 4.1
566(12) 0.00657 545.9 4.1
551(12) 0.00657 546.0 4.2
557(13) 0.00622 546.1 4.2
539(13) 0.00624 546.1 4.3
525(12) 0.00652 546.2 4.3
539(12) 0.00686 546.2 4.4
563(13) 0.00611 546.3 4.4
566(13) 0.00602 546.4 4.5
539(12) 0.00661 546.4 4.5
559(12) 0.00644 546.5 4.6
543(12) 0.00689 546.5 4.6
558(13) 0.00622 546.6 4.7
591(13) 0.00555 546.7 4.8
547(12) 0.00644 546.7 4.8
572(13) 0.00632 546.8 4.9
569(12) 0.00658 547.1 4.9
551(13) 0.00631 547.3 5.0
551(13) 0.00621 547.6 5.1
581(13) 0.00602 547.8 5.1
545(12) 0.00669 548.1 5.2
568(12) 0.00656 548.4 5.3
544(12) 0.00645 548.6 5.4
550(13) 0.00598 548.9 5.4
575(13) 0.00589 549.1 5.5
531(12) 0.00696 549.4 5.6
548(12) 0.00683 549.7 5.7
560(13) 0.00610 549.9 5.7
511(12) 0.00643 550.2 5.8
563(13) 0.00601 550.4 5.9
561(12) 0.00661 550.7 6.0
560(12) 0.00662 550.9 6.1
554(13) 0.00616 551.2 6.2
542(13) 0.00599 551.5 6.3
547(12) 0.00644 551.7 6.4
536(12) 0.00685 552.0 6.5
546(12) 0.00671 552.2 7.5
595(13) 0.00578 552.5 7.6
543(13) 0.00609 552.8 7.7
564(13) 0.00621 553.0 7.8
549(12) 0.00677 553.3 7.9
560(12) 0.00657 553.5 8.0
535(12) 0.00663 553.8 8.2
570(13) 0.00568 554.1 8.3
553(13) 0.00614 554.3 8.4
578(12) 0.00644 554.6 8.5
567(13) 0.00635 554.8 8.7
556(13) 0.00627 555.1 8.8
557(13) 0.00586 555.3 8.9
554(13) 0.00594 555.6 9.1
554(12) 0.00673 555.9 9.2
557(12) 0.00644 556.1 9.4
537(12) 0.00647 556.4 9.5
548(13) 0.00638 556.6 9.7
594(13) 0.00575 556.9 9.8
569(12) 0.00660 557.2 10.0
542(12) 0.00668 557.4 10.1
540(13) 0.00628 557.7 10.3
572(13) 0.00591 557.9 10.5
548(12) 0.00654 558.2 10.7
563(12) 0.00662 558.4 10.9
588(13) 0.00593 558.7 11.0
541(13) 0.00636 559.0 11.2
577(13) 0.00587 559.2 11.4
560(12) 0.00644 559.5 11.7
541(12) 0.00685 559.7 11.9
559(13) 0.00598 560.0 12.1
598(13) 0.00554 560.3 12.3
573(13) 0.00608 560.5 12.6
589(13) 0.00617 560.8 12.8
582(13) 0.00639 561.0 13.0
573(13) 0.00593 561.3 13.3
539(13) 0.00608 561.5 13.6
546(13) 0.00632 561.8 13.8
539(12) 0.00695 562.1 14.1
551(12) 0.00677 562.3 14.4
558(13) 0.00640 562.6 14.7
557(13) 0.00585 562.8 15.0
529(12) 0.00666 563.1 15.3
583(13) 0.00624 563.4 15.7
579(12) 0.00640 563.6 16.0
596(13) 0.00564 563.9 16.4
567(13) 0.00558 564.1 16.7
595(13) 0.00581 564.4 17.1
574(12) 0.00643 564.6 17.5
551(12) 0.00680 564.9 17.9
595(13) 0.00589 565.2 18.4
592(13) 0.00553 565.4 18.8
566(13) 0.00617 565.7 19.3
556(12) 0.00660 565.9 19.7
537(12) 0.00688 566.2 20.2
567(13) 0.00589 566.5 20.7
565(13) 0.00592 566.7 21.3
567(13) 0.00615 567.0 21.8
589(13) 0.00624 567.2 22.4
583(13) 0.00633 567.5 23.0
587(13) 0.00601 567.8 23.6
584(13) 0.00574 568.0 24.3
545(13) 0.00630 568.3 25.0
534(12) 0.00693 568.5 25.7
581(13) 0.00617 568.8 26.5
581(13) 0.00596 569.0 27.2
599(13) 0.00567 569.3 28.1
584(13) 0.00592 569.6 28.9
600(13) 0.00622 569.8 29.8
592(13) 0.00605 570.1 30.8
560(13) 0.00622 570.3 31.7
555(13) 0.00619 570.6 32.8
575(13) 0.00629 570.9 33.9
595(13) 0.00627 571.1 35.0
608(13) 0.00572 571.4 36.3
609(13) 0.00565 571.6 37.5
616(13) 0.00559 571.9 38.9
583(13) 0.00616 572.1 40.3
571(12) 0.00655 572.4 41.8
591(13) 0.00589 572.7 43.4
587(13) 0.00579 572.9 45.1
608(13) 0.00575 573.2 46.9
567(12) 0.00644 573.4 48.8
575(12) 0.00645 573.7 50.9
604(13) 0.00574 574.0 53.0
610(14) 0.00539 574.2 55.3
592(13) 0.00583 574.5 57.8
586(13) 0.00624 574.7 60.4
607(13) 0.00615 575.0 63.2
629(13) 0.00550 575.2 66.3
621(14) 0.00526 575.5 69.5
644(14) 0.00525 575.8 73.0
628(13) 0.00583 576.0 76.8
611(13) 0.00611 576.3 80.9
638(14) 0.00539 576.5 85.3
587(13) 0.00557 576.8 90.1
591(13) 0.00589 577.1 95.3
636(13) 0.00575 577.3 101.0
632(13) 0.00587 577.6 107.2
664(14) 0.00520 577.8 114.0
632(14) 0.00513 578.1 121.5
647(14) 0.00528 578.4 129.7
648(13) 0.00575 578.6 138.8
664(13) 0.00554 578.9 148.9
685(14) 0.00498 579.1 160.2
645(14) 0.00526 579.4 172.8
658(14) 0.00527 579.6 186.9
690(14) 0.00535 579.9 202.8
678(14) 0.00548 580.2 220.8
722(14) 0.00477 580.4 241.4
770(15) 0.00419 580.7 264.9
757(15) 0.00446 580.9 291.9
765(14) 0.00486 581.2 323.3
822(15) 0.00447 581.5 360.0
942(17) 0.00366 581.7 403.3
958(17) 0.00357 582.0 454.9
1052(18) 0.003213 582.2 517.8
1167(18) 0.003173 582.5 596.2
1343(19) 0.002695 582.7 698.0
1688(22) 0.002046 583.0 836.3
2064(25) 0.001660 583.3 1033.1
2555(27) 0.001356 583.5 1322.5
3123(29) 0.001183 583.8 1752.2
3832(33) 0.000922 584.0 2381.5
4536(37) 0.000746 584. 3270.
5333(40) 0.000631 585. 4459.
6224(42) 0.000559 585. 5948.
7179(44) 0.000514 585. 7659.
8717(50) 0.000397 585. 9390.
10608(57) 0.0003118 586. 10772.
12247(60) 0.0002755 586. 11344.
12983(61) 0.0002719 586. 10863.
11309(56) 0.0003214 586. 9536.
8729(51) 0.000380 587. 7819.
6334(44) 0.000522 587. 6096.
4706(37) 0.000746 587. 4582.
3578(31) 0.001022 587.4 3364.7
2883(28) 0.001282 587.7 2450.8
2300(26) 0.001487 587.9 1800.4
1923(24) 0.001724 588.2 1354.9
1696(22) 0.002081 588.4 1055.0
1457(20) 0.002540 588.7 851.5
1298(19) 0.002865 588.9 709.0
1244(19) 0.002754 589.2 604.6
1121(19) 0.002861 589.5 524.4
1026(17) 0.003412 589.7 460.4
968(16) 0.00382 590.0 407.8
907(16) 0.00406 590.2 363.9
922(17) 0.00366 590.5 326.7
849(16) 0.00380 590.8 294.9
791(15) 0.00443 591.0 267.5
787(15) 0.00471 591.3 243.7
774(15) 0.00475 591.5 222.9
712(14) 0.00485 591.8 204.7
713(15) 0.00452 592.1 188.6
701(14) 0.00496 592.3 174.4
715(14) 0.00527 592.6 161.7
714(14) 0.00507 592.8 150.3
667(14) 0.00520 593.1 140.1
683(15) 0.00473 593.3 131.0
664(14) 0.00513 593.6 122.7
645(13) 0.00579 593.9 115.1
637(13) 0.00563 594.1 108.3
640(14) 0.00533 594.4 102.1
634(14) 0.00535 594.6 96.4
656(14) 0.00529 594.9 91.1
633(13) 0.00588 595.2 86.3
613(13) 0.00597 595.4 81.9
653(14) 0.00519 595.7 77.8
608(13) 0.00564 595.9 74.0
633(13) 0.00550 596.2 70.5
635(13) 0.00590 596.4 67.3
611(13) 0.00565 596.7 64.2
584(13) 0.00575 597.0 61.4
599(13) 0.00560 597.2 58.8
625(13) 0.00564 597.5 56.3
598(13) 0.00625 597.7 54.0
592(13) 0.00589 598.0 51.8
584(13) 0.00584 598.3 49.8
623(13) 0.00556 598.5 47.9
651(13) 0.00557 598.8 46.1
599(13) 0.00620 599.0 44.4
612(13) 0.00566 599.3 42.9
612(14) 0.00544 599.5 41.4
628(14) 0.00540 599.8 39.9
639(13) 0.00568 600.1 38.6
616(13) 0.00601 600.3 37.3
618(13) 0.00556 600.6 36.1
619(14) 0.00526 600.8 35.0
610(13) 0.00560 601.1 33.9
605(13) 0.00603 601.4 32.9
602(13) 0.00625 601.6 31.9
616(13) 0.00560 601.9 31.0
581(13) 0.00569 602.1 30.1
582(13) 0.00597 602.4 29.2
581(13) 0.00634 602.6 28.4
639(13) 0.00583 602.9 27.7
584(13) 0.00622 603.2 26.9
600(14) 0.00533 603.4 26.2
581(13) 0.00600 603.7 25.6
600(13) 0.00616 603.9 24.9
605(13) 0.00607 604.2 24.3
622(14) 0.00541 604.5 23.7
602(13) 0.00557 604.7 23.1
596(13) 0.00595 605.0 22.6
609(13) 0.00608 605.2 22.1
595(13) 0.00603 605.5 21.6
587(13) 0.00602 605.8 21.1
617(14) 0.00538 606.0 20.7
585(13) 0.00600 606.3 20.2
571(12) 0.00656 606.5 19.8
631(13) 0.00570 606.8 19.4
616(13) 0.00564 607.0 19.0
606(13) 0.00549 607.3 18.6
605(13) 0.00575 607.6 18.3
609(13) 0.00607 607.8 17.9
617(13) 0.00579 608.1 17.6
623(14) 0.00544 608.3 17.2
592(13) 0.00582 608.6 16.9
620(13) 0.00576 608.9 16.6
628(13) 0.00596 609.1 16.3
604(13) 0.00596 609.4 16.1
624(14) 0.00536 609.6 15.8
588(13) 0.00584 609.9 15.5
609(13) 0.00591 610.1 15.3
635(13) 0.00586 610.4 15.0
625(13) 0.00554 610.7 14.8
634(14) 0.00541 610.9 14.6
621(13) 0.00562 611.2 14.3
605(13) 0.00599 611.4 14.1
630(13) 0.00594 611.7 13.9
616(13) 0.00562 612.0 13.7
640(14) 0.00519 612.2 13.5
619(13) 0.00560 612.5 13.3
594(13) 0.00612 612.7 13.2
645(13) 0.00573 613.0 13.0
588(13) 0.00598 613.2 12.8
615(14) 0.00536 613.5 12.7
613(13) 0.00580 613.8 12.5
605(13) 0.00621 614.0 12.3
602(13) 0.00616 614.3 12.2
633(14) 0.00547 614.5 12.1
647(14) 0.00506 614.8 11.9
636(14) 0.00541 615.1 11.8
624(13) 0.00590 615.3 11.6
616(13) 0.00599 615.6 11.5
626(14) 0.00546 615.8 11.4
632(14) 0.00501 616.1 11.3
593(13) 0.00594 616.3 11.2
623(13) 0.00589 616.6 11.1
626(13) 0.00593 616.9 10.9
617(13) 0.00576 617.1 10.8
606(14) 0.00544 617.4 10.7
595(13) 0.00589 617.6 10.6
627(13) 0.00589 617.9 10.5
616(13) 0.00584 618.2 10.5
602(13) 0.00583 618.4 10.4
631(14) 0.00513 618.7 10.3
609(13) 0.00569 618.9 10.2
652(13) 0.00575 619.2 10.1
635(13) 0.00573 619.5 10.0
602(13) 0.00583 619.7 10.0
617(14) 0.00531 620.0 9.9
599(13) 0.00580 620.2 9.8
604(13) 0.00612 620.5 9.8
621(13) 0.00574 620.7 9.7
625(13) 0.00551 621.0 9.6
627(14) 0.00534 621.3 9.6
614(13) 0.00573 621.5 9.5
606(13) 0.00612 621.8 9.5
638(13) 0.00557 622.0 9.4
611(13) 0.00550 622.3 9.3
589(13) 0.00581 622.6 9.3
635(13) 0.00572 622.8 9.2
635(13) 0.00585 623.1 9.2
630(14) 0.00544 623.3 9.2
624(14) 0.00538 623.6 9.1
637(14) 0.00539 623.8 9.1
606(13) 0.00591 624.1 9.0
607(13) 0.00613 624.4 9.0
626(13) 0.00565 624.6 9.0
625(13) 0.00550 624.9 8.9
643(14) 0.00536 625.1 8.9
660(14) 0.00543 625.4 8.9
610(13) 0.00610 625.8 8.8
609(13) 0.00564 626.3 8.8
636(14) 0.00521 626.8 8.8
624(13) 0.00572 627.3 8.7
640(13) 0.00575 627.8 8.7
632(13) 0.00584 628.2 8.7
647(14) 0.00533 628.7 8.7
627(14) 0.00528 629.2 8.7
626(13) 0.00560 629.7 8.6
576(12) 0.00642 630.1 8.6
651(13) 0.00573 630.6 8.6
629(13) 0.00562 631.1 8.6
646(14) 0.00519 631.6 8.6
636(14) 0.00548 632.1 8.6
631(13) 0.00583 632.5 8.6
651(13) 0.00564 633.0 8.5
631(13) 0.00566 633.5 8.5
658(14) 0.00485 634.0 8.5
630(13) 0.00550 634.5 8.5
609(13) 0.00619 634.9 8.5
625(13) 0.00584 635.4 8.5
591(13) 0.00609 635.9 8.5
634(14) 0.00526 636.4 8.5
630(13) 0.00553 636.8 8.5
614(13) 0.00607 637.3 8.5
655(13) 0.00565 637.8 8.5
631(13) 0.00550 638.3 8.5
619(14) 0.00540 638.8 8.5
636(14) 0.00523 639.2 8.5
619(13) 0.00600 639.7 8.5
657(13) 0.00560 640.2 8.6
616(13) 0.00584 640.7 8.6
637(14) 0.00523 641.2 8.6
638(14) 0.00539 641.6 8.6
689(14) 0.00541 642.1 8.6
639(13) 0.00564 642.6 8.6
591(13) 0.00594 643.1 8.6
615(13) 0.00550 643.5 8.6
633(13) 0.00552 644.0 8.7
623(13) 0.00600 644.5 8.7
634(13) 0.00557 645.0 8.7
648(14) 0.00509 645.5 8.7
621(13) 0.00565 645.9 8.7
628(13) 0.00578 646.4 8.8
673(13) 0.00551 646.9 8.8
653(14) 0.00541 647.4 8.8
635(14) 0.00537 647.9 8.8
642(14) 0.00543 648.3 8.9
657(13) 0.00554 648.8 8.9
672(13) 0.00558 649.3 8.9
629(13) 0.00551 649.8 9.0
635(14) 0.00522 650.2 9.0
664(14) 0.00525 650.7 9.0
660(13) 0.00558 651.2 9.1
650(13) 0.00574 651.7 9.1
702(14) 0.00496 652.2 9.1
648(14) 0.00513 652.6 9.2
640(14) 0.00542 653.1 9.2
632(13) 0.00588 653.6 9.3
641(13) 0.00573 654.1 9.3
618(13) 0.00570 654.5 9.3
638(14) 0.00517 655.0 9.4
652(14) 0.00535 655.5 9.4
652(13) 0.00562 656.0 9.5
655(13) 0.00567 656.5 9.5
676(14) 0.00515 656.9 9.6
630(14) 0.00518 657.4 9.6
675(14) 0.00512 657.9 9.7
649(13) 0.00570 658.4 9.9
671(13) 0.00552 658.9 10.0
662(14) 0.00537 659.3 10.0
675(14) 0.00479 659.8 10.1
691(14) 0.00490 660.3 10.2
663(13) 0.00556 660.8 10.2
645(13) 0.00571 661.2 10.3
641(13) 0.00563 661.7 10.3
644(14) 0.00515 662.2 10.4
670(14) 0.00513 662.7 10.5
617(13) 0.00602 663.2 10.6
635(13) 0.00571 663.6 10.6
673(14) 0.00503 664.1 10.7
675(14) 0.00497 664.6 10.8
705(14) 0.00480 665.1 10.9
664(13) 0.00560 665.6 10.9
662(14) 0.00545 666.0 11.0
646(14) 0.00515 666.5 11.1
646(14) 0.00519 667.0 11.2
684(14) 0.00511 667.5 11.3
656(13) 0.00567 667.9 11.4
663(14) 0.00532 668.4 11.4
665(14) 0.00520 668.9 11.5
675(14) 0.00514 669.4 11.6
664(14) 0.00540 669.9 11.7
689(14) 0.00540 670.3 11.8
689(14) 0.00497 670.8 11.9
662(14) 0.00508 671.3 12.0
707(14) 0.00493 671.8 12.1
703(14) 0.00517 672.3 12.2
679(14) 0.00542 672.7 12.3
680(14) 0.00509 673.2 12.5
680(14) 0.00479 673.7 12.6
691(14) 0.00509 674.2 12.7
684(14) 0.00527 674.6 12.8
669(13) 0.00556 675.1 12.9
673(14) 0.00511 675.6 13.0
684(14) 0.00487 676.1 13.2
697(14) 0.00516 676.6 13.3
694(14) 0.00526 677.0 13.4
655(13) 0.00571 677.5 13.6
645(13) 0.00550 678.0 13.7
680(14) 0.00481 678.5 13.9
673(14) 0.00521 679.0 14.0
681(14) 0.00538 679.4 14.1
655(13) 0.00566 679.9 14.3
663(14) 0.00527 680.5 14.4
654(14) 0.00503 681.0 14.6
683(14) 0.00491 681.6 14.8
665(13) 0.00558 682.2 14.9
645(13) 0.00565 682.8 15.1
671(14) 0.00506 683.3 15.3
697(15) 0.00456 683.9 15.4
682(14) 0.00503 684.5 15.6
656(13) 0.00568 685.1 15.8
706(14) 0.00513 685.6 16.0
693(14) 0.00509 686.2 16.2
675(14) 0.00490 686.8 16.4
707(15) 0.00469 687.4 16.6
676(13) 0.00552 687.9 16.8
699(14) 0.00520 688.5 17.0
691(14) 0.00505 689.1 17.2
661(14) 0.00504 689.7 17.4
660(14) 0.00514 690.2 17.7
680(14) 0.00543 690.8 17.9
698(14) 0.00516 691.4 18.1
681(14) 0.00506 691.9 18.4
663(14) 0.00516 692.5 18.6
671(14) 0.00524 693.1 18.9
693(14) 0.00539 693.7 19.1
703(14) 0.00516 694.2 19.4
699(14) 0.00485 694.8 19.7
684(14) 0.00516 695.4 20.0
697(14) 0.00512 696.0 20.2
677(13) 0.00552 696.5 20.5
694(14) 0.00506 697.1 20.8
697(14) 0.00484 697.7 21.2
668(14) 0.00531 698.3 21.5
716(14) 0.00509 698.8 21.8
713(14) 0.00522 699.4 22.1
701(14) 0.00489 700.0 22.5
657(14) 0.00513 700.6 22.8
709(14) 0.00486 701.1 23.2
748(14) 0.00489 701.7 23.6
709(14) 0.00525 702.3 23.9
702(14) 0.00499 702.8 24.3
702(15) 0.00473 703.4 24.7
675(14) 0.00516 704.0 25.1
736(14) 0.00485 704.6 25.6
733(14) 0.00510 705.1 26.0
688(14) 0.00508 705.7 26.4
696(15) 0.00460 706.3 26.9
700(14) 0.00500 706.9 27.4
713(14) 0.00520 707.4 27.9
702(14) 0.00526 708.0 28.4
703(14) 0.00494 708.6 28.9
733(15) 0.00443 709.2 29.4
739(14) 0.00478 709.7 30.0
746(14) 0.00499 710.3 30.5
692(14) 0.00532 710.9 31.1
732(15) 0.00475 711.5 31.7
679(14) 0.00490 712.0 32.4
743(15) 0.00464 712.6 33.0
734(14) 0.00506 713.2 33.7
723(14) 0.00509 713.8 34.3
708(14) 0.00497 714.3 35.0
746(15) 0.00439 714.9 35.8
702(14) 0.00494 715.5 36.5
692(14) 0.00539 716.0 37.3
742(14) 0.00493 716.6 38.1
669(14) 0.00527 717.2 38.9
690(14) 0.00487 717.8 39.8
719(15) 0.00465 718.3 40.7
708(14) 0.00527 718.9 41.6
735(14) 0.00497 719.5 42.5
746(15) 0.00468 720.1 43.5
733(15) 0.00461 720.6 44.6
697(14) 0.00491 721.2 45.6
693(14) 0.00536 721.8 46.7
741(14) 0.00476 722.4 47.9
714(15) 0.00474 722.9 49.1
725(15) 0.00468 723.5 50.3
739(14) 0.00485 724.1 51.6
766(14) 0.00483 724.7 52.9
732(14) 0.00486 725.2 54.3
734(15) 0.00458 725.8 55.8
692(14) 0.00501 726.4 57.3
718(14) 0.00503 727.0 58.8
738(14) 0.00503 727.5 60.5
717(14) 0.00497 728.1 62.2
754(15) 0.00453 728.7 64.0
715(14) 0.00501 729.2 65.8
743(14) 0.00488 729.8 67.8
749(14) 0.00497 730.4 69.8
752(15) 0.00469 731.0 72.0
755(15) 0.00443 731.5 74.2
758(15) 0.00463 732.1 76.5
763(14) 0.00482 732.7 79.0
760(14) 0.00490 733.3 81.6
782(15) 0.00435 733.8 84.3
786(15) 0.00421 734.4 87.2
773(15) 0.00451 735.0 90.2
752(14) 0.00488 735.6 93.3
757(14) 0.00493 736.1 96.9
790(15) 0.00430 736.7 100.4
816(16) 0.00393 737.3 104.1
796(15) 0.00437 737.9 108.0
816(15) 0.00454 738.4 112.2
831(15) 0.00445 739.0 116.6
813(15) 0.00432 739.6 121.3
811(16) 0.00406 740.2 126.3
828(15) 0.00419 740.7 131.6
805(15) 0.00462 741.3 137.2
828(15) 0.00446 741.9 143.3
846(16) 0.00411 742.4 149.7
826(16) 0.00394 743.0 156.6
833(15) 0.00423 743.6 163.9
859(15) 0.00432 744.2 171.8
882(16) 0.00410 744.7 180.3
825(15) 0.00419 745.3 189.5
825(16) 0.00404 745.9 199.4
864(16) 0.00397 746.5 210.1
916(16) 0.00407 747.0 221.6
930(16) 0.00386 747.6 234.2
907(16) 0.00378 748.2 247.9
905(16) 0.00371 748.8 262.9
936(16) 0.00371 749.3 279.2
911(16) 0.00406 749.9 297.2
938(16) 0.00386 750.5 317.0
988(17) 0.00353 751.1 338.9
1006(17) 0.003398 751.6 363.2
1066(17) 0.003327 752.2 390.4
1064(17) 0.003488 752.8 420.9
1083(17) 0.003314 753.3 455.5
1125(18) 0.003033 753.9 495.4
1196(19) 0.002824 754.5 541.9
1263(19) 0.002778 755.1 597.2
1315(19) 0.002834 755.6 664.1
1452(20) 0.002424 756.2 746.4
1554(21) 0.002176 756.8 848.1
1672(22) 0.002030 757.4 973.8
1778(22) 0.002013 757.9 1127.2
1993(23) 0.001872 758.5 1310.9
2184(25) 0.001584 759.1 1524.8
2387(27) 0.001406 759.7 1764.9
2691(28) 0.001269 760.2 2021.0
3021(29) 0.001192 760.8 2282.3
3426(30) 0.001079 761.4 2550.3
3927(34) 0.000886 762.0 2852.6
4374(36) 0.000753 763. 3237.
4975(38) 0.000696 763. 3752.
5611(39) 0.000645 764. 4438.
6482(42) 0.000570 764. 5322.
7492(47) 0.000462 765. 6414.
8596(52) 0.000371 765. 7703.
10104(55) 0.0003358 766. 9137.
11447(56) 0.0003155 767. 10608.
13039(60) 0.0002790 767. 11931.
14225(65) 0.0002398 768. 12854.
14481(68) 0.0002184 768. 13145.
14012(64) 0.0002446 769. 12718.
12504(59) 0.0002909 769. 11690.
10756(55) 0.0003356 770. 10302.
9297(52) 0.000368 771. 8797.
7925(49) 0.000410 771. 7341.
6710(44) 0.000521 772. 6029.
5743(39) 0.000644 772. 4901.
4839(36) 0.000752 773. 3966.
4194(35) 0.000818 773.4 3212.2
3659(33) 0.000908 774.0 2617.3
3287(31) 0.001058 774.6 2155.7
2912(28) 0.001274 775.2 1800.1
2623(27) 0.001364 775.7 1526.4
2267(26) 0.001536 776.3 1314.3
2109(25) 0.001591 776.9 1147.4
1974(24) 0.001737 777.5 1013.6
1887(23) 0.001966 778.0 904.2
1723(22) 0.002059 778.6 812.9
1642(22) 0.002027 779.2 735.5
1499(21) 0.002262 779.7 669.0
1472(20) 0.002400 780.3 611.2
1464(20) 0.002542 780.9 560.6
1388(20) 0.002543 781.5 516.0
1289(19) 0.002688 782.0 476.5
1302(19) 0.002632 782.6 441.4
1181(18) 0.003000 783.2 409.9
1193(18) 0.003156 783.8 381.6
1147(18) 0.003036 784.3 356.2
1101(18) 0.003035 784.9 333.2
1091(18) 0.003186 785.5 312.3
1110(18) 0.003202 786.1 293.4
1078(17) 0.003464 786.6 276.1
1028(17) 0.003324 787.2 260.3
1031(18) 0.003211 787.8 245.8
1055(18) 0.003243 788.4 232.5
1007(17) 0.00359 788.9 220.2
956(16) 0.00386 789.5 208.9
976(17) 0.00359 790.1 198.4
946(17) 0.00351 790.7 188.7
953(17) 0.00366 791.2 179.7
937(16) 0.00390 791.8 171.4
932(16) 0.00399 792.4 163.6
967(17) 0.003497 792.9 156.3
920(17) 0.00355 793.5 149.5
898(16) 0.00390 794.1 143.1
894(15) 0.00417 794.7 137.2
932(16) 0.00397 795.2 131.6
925(16) 0.00385 795.8 126.4
895(17) 0.00367 796.4 121.4
870(16) 0.00400 797.0 116.8
859(15) 0.00429 797.5 112.4
891(15) 0.00419 798.1 108.2
886(16) 0.00389 798.7 104.3
844(16) 0.00389 799.3 100.6
843(16) 0.00404 799.8 97.1
877(15) 0.00421 800.4 93.8
904(16) 0.00409 801.0 90.7
875(16) 0.00397 801.6 87.7
844(16) 0.00390 802.1 84.9
831(15) 0.00419 802.7 82.2
861(15) 0.00431 803.3 79.6
883(16) 0.00415 803.8 77.1
852(16) 0.00409 804.4 74.8
876(16) 0.00377 805.0 72.6
824(15) 0.00424 805.6 70.5
837(15) 0.00444 806.1 68.5
839(15) 0.00428 806.7 66.5
847(16) 0.00401 807.3 64.7
799(15) 0.00426 807.9 62.9
868(16) 0.00402 808.4 61.2
833(15) 0.00449 809.0 59.6
816(15) 0.00430 809.6 58.0
816(15) 0.00422 810.2 56.5
833(16) 0.00403 810.7 55.1
839(15) 0.00421 811.3 53.7
836(15) 0.00447 811.9 52.4
842(15) 0.00420 812.5 51.1
847(16) 0.00397 813.0 49.9
833(16) 0.00416 813.6 48.8
839(15) 0.00431 814.2 47.6
833(15) 0.00445 814.8 46.5
828(15) 0.00422 815.3 45.5
799(15) 0.00417 815.9 44.5
847(16) 0.00399 816.5 43.5
857(15) 0.00429 817.0 42.6
844(15) 0.00443 817.6 41.7
863(16) 0.00401 818.2 40.8
861(16) 0.00383 818.8 40.0
824(15) 0.00427 819.3 39.2
821(15) 0.00451 819.9 38.4
855(15) 0.00438 820.5 37.7
853(16) 0.00408 821.1 36.9
850(16) 0.00377 821.6 36.2
863(16) 0.00409 822.2 35.6
865(15) 0.00427 822.8 34.9
848(15) 0.00438 823.4 34.3
818(15) 0.00438 823.9 33.7
875(17) 0.00362 824.5 33.1
812(15) 0.00432 825.1 32.5
850(15) 0.00435 825.7 32.0
833(15) 0.00450 826.2 31.5
819(15) 0.00426 826.8 31.0
843(16) 0.00375 827.4 30.5
823(15) 0.00428 828.0 30.0
837(15) 0.00446 828.5 29.5
821(15) 0.00453 829.1 29.1
864(16) 0.00408 829.7 28.7
840(16) 0.00400 830.2 28.3
833(16) 0.00412 830.8 27.9
856(15) 0.00433 831.4 27.5
847(15) 0.00433 832.0 27.1
873(16) 0.00394 832.5 26.8
872(16) 0.00378 833.1 26.5
855(16) 0.00400 833.7 26.1
828(15) 0.00451 834.3 25.8
863(15) 0.00417 834.8 25.5
804(15) 0.00431 835.4 25.3
834(16) 0.00403 836.0 25.0
886(16) 0.00383 836.6 24.8
852(15) 0.00434 837.1 24.5
905(16) 0.00385 837.7 24.3
887(16) 0.00382 838.3 24.1
870(16) 0.00392 838.9 23.9
849(15) 0.00420 839.5 23.7
863(15) 0.00433 840.1 23.5
885(16) 0.00390 840.7 23.4
870(16) 0.00395 841.3 23.3
861(16) 0.00400 841.9 23.1
849(15) 0.00426 842.5 23.0
865(15) 0.00433 843.0 22.9
840(16) 0.00405 843.6 22.9
829(16) 0.00408 844.2 22.8
852(16) 0.00406 844.8 22.8
855(15) 0.00427 845.4 22.8
871(15) 0.00428 846.0 22.8
854(16) 0.00397 846.6 22.8
823(16) 0.00408 847.2 22.9
875(16) 0.00385 847.8 23.0
845(15) 0.00431 848.4 23.1
832(15) 0.00450 849.0 23.2
852(16) 0.00406 849.6 23.4
838(16) 0.00398 850.2 23.6
844(16) 0.00407 850.7 23.8
856(15) 0.00433 851.3 24.1
871(15) 0.00424 851.9 24.4
828(15) 0.00425 852.5 24.8
828(16) 0.00392 853.1 25.3
854(16) 0.00410 853.7 25.8
856(15) 0.00431 854.3 26.4
905(16) 0.00411 854.9 27.0
875(16) 0.00402 855.5 27.8
881(17) 0.00366 856.1 28.7
860(16) 0.00412 856.7 29.6
889(15) 0.00417 857.3 30.8
827(15) 0.00445 857.8 32.1
827(15) 0.00425 858.4 33.6
846(16) 0.00389 859.0 35.3
883(16) 0.00392 859.6 37.3
850(15) 0.00439 860.2 39.6
917(16) 0.00397 860.8 42.3
898(16) 0.00384 861.4 45.4
899(17) 0.00365 862.0 49.2
882(16) 0.00387 862.6 53.7
916(16) 0.00406 863.2 59.1
945(16) 0.00386 863.8 65.6
964(17) 0.00363 864.4 73.7
956(17) 0.00353 865.0 84.1
1004(17) 0.003382 865.5 98.0
1095(17) 0.003394 866.1 118.3
1106(17) 0.003280 866.7 151.2
1193(18) 0.002925 867.3 208.2
1338(20) 0.002521 867.9 309.3
1541(21) 0.002269 868.5 481.4
1815(22) 0.002045 869.1 751.1
2017(24) 0.001744 869.7 1130.3
2239(26) 0.001504 870.3 1596.0
2525(27) 0.001344 870.9 2073.5
2910(29) 0.001202 871.5 2426.2
3470(31) 0.001066 872.1 2499.8
3740(33) 0.000915 872.7 2254.8
2947(30) 0.001129 873.2 1812.5
2153(25) 0.001603 873.8 1328.4
1561(21) 0.002354 874.4 905.0
1330(19) 0.002792 875.0 586.5
1197(19) 0.002855 875.6 373.8
1093(18) 0.003072 876.2 244.7
1037(17) 0.003343 876.8 170.9
969(16) 0.00376 877.4 129.0
975(16) 0.00379 878.0 104.0
937(16) 0.00373 878.6 87.5
947(17) 0.003480 879.2 75.6
916(16) 0.00376 879.8 66.4
897(16) 0.00408 880.3 59.0
911(16) 0.00410 880.9 52.9
928(16) 0.00371 881.5 47.9
936(17) 0.003490 882.1 43.6
946(16) 0.00370 882.7 40.0
919(16) 0.00397 883.3 36.9
888(15) 0.00417 883.9 34.2
893(16) 0.00390 884.5 31.9
912(17) 0.00358 885.1 29.9
933(16) 0.00371 885.7 28.1
946(16) 0.00387 886.3 26.5
933(16) 0.00398 886.9 25.1
891(16) 0.00391 887.5 23.8
910(17) 0.00357 888.0 22.6
900(16) 0.00392 888.6 21.6
906(16) 0.00415 889.2 20.7
885(16) 0.00408 889.8 19.8
865(16) 0.00400 890.4 19.1
910(17) 0.00358 891.0 18.4
898(16) 0.00385 891.6 17.7
930(16) 0.00400 892.2 17.1
898(16) 0.00404 892.8 16.6
892(16) 0.00393 893.4 16.1
889(16) 0.00381 894.0 15.6
903(16) 0.00378 894.6 15.2
882(15) 0.00420 895.2 14.7
898(16) 0.00401 895.7 14.4
910(16) 0.00385 896.3 14.0
931(16) 0.00370 896.9 13.7
892(16) 0.00393 897.5 13.4
901(16) 0.00411 898.1 13.1
891(16) 0.00401 898.7 12.8
889(16) 0.00386 899.3 12.5
891(16) 0.00392 899.9 12.3
904(16) 0.00387 900.5 12.1
870(15) 0.00429 901.1 11.8
864(16) 0.00402 901.7 11.6
898(16) 0.00378 902.3 11.4
963(17) 0.00352 902.9 11.2
884(16) 0.00411 903.4 11.1
899(16) 0.00414 904.0 10.6
911(16) 0.00380 904.6 10.5
940(17) 0.00356 905.2 10.3
928(16) 0.00377 905.8 10.2
912(16) 0.00401 906.4 10.0
852(15) 0.00438 907.0 9.9
899(16) 0.00388 907.6 9.8
879(16) 0.00383 908.2 9.6
900(16) 0.00395 908.8 9.5
880(15) 0.00418 909.4 9.4
887(15) 0.00421 910.0 9.3
905(16) 0.00377 910.6 9.2
906(17) 0.00363 911.2 9.1
948(17) 0.00363 911.8 9.0
895(16) 0.00415 912.4 8.9
943(16) 0.00395 913.1 8.8
929(16) 0.00381 913.7 8.8
950(17) 0.003382 914.3 8.7
952(17) 0.00365 914.9 8.6
934(16) 0.00397 915.5 8.5
917(16) 0.00398 916.2 8.5
916(16) 0.00388 916.8 8.4
932(17) 0.00354 917.4 8.3
903(16) 0.00385 918.0 8.3
889(16) 0.00415 918.7 8.2
885(15) 0.00418 919.3 8.1
936(16) 0.00368 919.9 8.1
928(17) 0.003491 920.5 8.0
926(16) 0.00370 921.2 8.0
939(16) 0.00395 921.8 7.9
966(16) 0.00380 922.4 7.9
900(16) 0.00386 923.0 7.8
944(17) 0.003465 923.7 7.8
953(17) 0.00360 924.3 7.8
927(16) 0.00405 924.9 7.7
957(16) 0.00368 925.5 7.7
925(16) 0.00370 926.2 7.7
927(17) 0.00359 926.8 7.6
922(16) 0.00378 927.4 7.6
945(16) 0.00395 928.0 7.6
942(16) 0.00383 928.7 7.5
938(17) 0.00361 929.3 7.5
923(16) 0.00376 929.9 7.5
935(16) 0.00373 930.5 7.4
927(16) 0.00404 931.2 7.4
968(17) 0.00365 931.8 7.4
933(17) 0.00363 932.4 7.4
935(17) 0.00363 933.0 7.4
946(16) 0.00375 933.7 7.3
976(16) 0.00383 934.3 7.3
934(16) 0.00382 934.9 7.3
951(17) 0.003501 935.5 7.3
957(17) 0.00358 936.1 7.3
936(16) 0.00388 936.8 7.3
943(16) 0.00397 937.4 7.3
961(17) 0.00366 938.0 7.3
967(17) 0.003499 938.6 7.3
979(17) 0.003502 939.3 7.3
963(16) 0.00379 939.9 7.3
968(16) 0.00384 940.5 7.2
966(17) 0.00356 941.1 7.2
917(17) 0.00363 941.8 7.2
923(16) 0.00382 942.4 7.2
915(16) 0.00404 943.0 7.3
999(16) 0.00370 943.6 7.3
966(17) 0.00358 944.3 7.3
944(17) 0.003443 944.9 7.3
989(17) 0.003459 945.5 7.3
944(16) 0.00393 946.1 7.3
952(16) 0.00390 946.8 7.3
952(17) 0.00354 947.4 7.3
935(17) 0.003501 948.0 7.3
958(17) 0.00359 948.6 7.3
920(16) 0.00405 949.3 7.4
991(17) 0.00365 949.9 7.4
978(17) 0.00352 950.5 7.4
968(17) 0.003397 951.1 7.4
983(17) 0.003472 951.8 7.4
957(16) 0.00389 952.4 7.5
960(16) 0.00382 953.0 7.5
996(17) 0.00352 953.6 7.5
951(17) 0.00356 954.3 7.5
945(17) 0.00364 954.9 7.6
963(16) 0.00386 955.5 7.6
940(16) 0.00383 956.1 7.6
943(17) 0.00358 956.7 7.7
918(16) 0.00369 957.4 7.7
956(17) 0.00361 958.0 7.7
967(16) 0.00385 958.6 7.8
959(16) 0.00372 959.2 7.8
909(16) 0.00387 959.9 7.9
966(17) 0.003496 960.5 7.9
925(16) 0.00379 961.1 8.0
976(16) 0.00381 961.7 8.0
938(16) 0.00373 962.4 8.1
934(17) 0.00357 963.0 8.1
971(17) 0.003441 963.6 8.2
972(17) 0.00363 964.2 8.2
990(16) 0.00377 964.9 8.3
1018(17) 0.003346 965.5 8.4
971(17) 0.003462 966.1 8.4
982(17) 0.003481 966.7 8.5
980(16) 0.00373 967.4 8.6
1026(17) 0.00361 968.0 8.6
936(16) 0.00379 968.6 8.7
1002(18) 0.003256 969.2 8.8
990(17) 0.003443 969.9 8.9
946(16) 0.00392 970.5 9.0
1001(16) 0.00368 971.1 9.1
1032(17) 0.003351 971.7 9.1
980(17) 0.003396 972.4 9.2
998(17) 0.00358 973.0 9.3
1038(17) 0.00354 973.6 9.4
995(16) 0.00374 974.2 9.5
995(17) 0.003438 974.8 9.6
997(18) 0.003173 975.5 9.8
996(17) 0.00354 976.1 9.9
984(16) 0.00377 976.7 10.0
1022(17) 0.00359 977.3 10.1
1006(17) 0.00354 978.0 10.2
974(17) 0.003467 978.6 10.4
991(17) 0.00355 979.2 10.5
1020(17) 0.00363 979.8 10.7
952(16) 0.00384 980.5 10.8
980(17) 0.00356 981.1 11.0
972(17) 0.003334 981.7 11.1
1007(17) 0.003434 982.4 11.3
1044(17) 0.00356 983.0 11.5
1041(17) 0.003494 983.6 11.6
973(17) 0.00361 984.3 11.8
1007(17) 0.003293 984.9 12.0
951(16) 0.00374 985.6 12.2
1032(17) 0.00361 986.2 12.4
1035(17) 0.003475 986.9 12.6
1008(17) 0.003420 987.5 12.9
1031(17) 0.003295 988.2 13.1
1030(17) 0.003320 988.8 13.3
1027(17) 0.00361 989.4 13.6
1025(17) 0.00355 990.1 13.8
983(17) 0.00351 990.7 14.1
1035(18) 0.003242 991.4 14.4
1030(17) 0.003393 992.0 14.7
971(16) 0.00385 992.7 15.0
988(17) 0.00357 993.3 15.3
974(17) 0.00356 994.0 15.6
964(17) 0.00359 994.6 16.0
1003(17) 0.00357 995.2 16.3
1022(17) 0.00364 995.9 16.7
977(17) 0.00360 996.5 17.1
1011(17) 0.003357 997.2 17.5
1008(17) 0.003431 997.8 17.9
1009(17) 0.00361 998.5 18.4
992(16) 0.00376 999.1 18.8
989(17) 0.003455 999.8 19.3
1019(17) 0.003272 1000.4 19.8
1002(17) 0.003465 1001.1 20.4
1037(17) 0.00351 1001.7 20.9
995(16) 0.00373 1002.3 21.5
1025(17) 0.003382 1003.0 22.1
1063(18) 0.003049 1003.6 22.8
1040(17) 0.003333 1004.3 23.4
1032(17) 0.00354 1004.9 24.2
1025(17) 0.00362 1005.6 24.9
997(17) 0.003489 1006.2 25.7
1068(18) 0.003038 1006.9 26.6
1056(17) 0.003275 1007.5 27.4
996(16) 0.00367 1008.1 28.4
1073(17) 0.003477 1008.8 29.4
1039(17) 0.003382 1009.4 30.4
1065(18) 0.003013 1010.1 31.5
999(17) 0.00354 1010.7 32.7
1032(17) 0.00360 1011.4 33.9
1010(17) 0.00366 1012.0 35.3
1016(17) 0.003483 1012.7 36.7
1052(18) 0.003098 1013.3 38.2
1042(17) 0.003300 1013.9 39.8
1045(17) 0.00356 1014.6 41.5
1060(17) 0.003486 1015.2 43.4
1058(17) 0.003305 1015.9 45.4
1067(18) 0.003078 1016.5 47.5
1036(17) 0.003382 1017.2 49.8
1084(17) 0.003454 1017.8 52.2
1093(17) 0.003301 1018.5 54.9
1061(17) 0.003279 1019.1 57.7
1068(18) 0.003161 1019.7 60.8
1075(18) 0.003198 1020.4 64.2
1120(17) 0.003324 1021.0 67.8
1098(17) 0.003270 1021.7 71.8
1086(18) 0.003148 1022.3 76.2
1092(18) 0.003087 1023.0 81.0
1129(18) 0.003113 1023.6 86.2
1119(17) 0.003311 1024.3 92.0
1105(18) 0.003190 1024.9 98.3
1088(18) 0.003167 1025.5 105.4
1109(18) 0.003090 1026.2 113.3
1092(18) 0.003239 1026.8 122.1
1170(18) 0.003203 1027.5 131.9
1171(18) 0.002984 1028.1 143.1
1193(19) 0.002895 1028.8 155.8
1189(18) 0.002928 1029.4 170.4
1178(18) 0.003035 1030.1 187.3
1225(18) 0.003058 1030.7 207.2
1203(19) 0.002897 1031.3 230.8
1265(19) 0.002645 1032.0 259.2
1288(19) 0.002665 1032.6 293.7
1271(19) 0.002885 1033.3 336.1
1414(19) 0.002633 1033.9 388.3
1436(20) 0.002398 1034.6 452.7
1516(21) 0.002195 1035.2 531.8
1639(22) 0.002096 1035.9 628.4
1716(22) 0.002146 1036.5 744.8
1922(23) 0.001926 1037.1 883.3
2107(25) 0.001658 1037.8 1044.8
2223(26) 0.001501 1038.4 1228.8
2448(26) 0.001437 1039.1 1431.9
2783(28) 0.001314 1039.7 1646.0
2947(28) 0.001261 1040.4 1856.6
3229(30) 0.001079 1041.0 2041.2
3347(32) 0.000967 1041.7 2172.4
3350(31) 0.001041 1042.3 2225.6
3149(29) 0.001174 1042.9 2189.3
2906(28) 0.001268 1043.6 2071.3
2794(28) 0.001245 1044.2 1894.6
2560(28) 0.001279 1044.9 1687.2
2375(26) 0.001458 1045.5 1472.4
2233(25) 0.001665 1046.2 1266.4
2064(24) 0.001778 1046.8 1078.3
1945(24) 0.001775 1047.5 912.3
1832(24) 0.001809 1048.1 769.5
1671(22) 0.002090 1048.7 649.0
1628(21) 0.002285 1049.4 548.8
1570(21) 0.002319 1050.0 466.5
1550(21) 0.002220 1050.7 399.4
1395(20) 0.002406 1051.3 345.1
1415(20) 0.002432 1052.0 301.0
1351(19) 0.002756 1052.6 265.1
1366(19) 0.002637 1053.3 235.6
1242(19) 0.002792 1053.9 211.1
1253(19) 0.002664 1054.6 190.6
1262(19) 0.002773 1055.2 173.2
1287(19) 0.002894 1055.8 158.1
1241(19) 0.002895 1056.5 145.1
1224(19) 0.002781 1057.1 133.7
1178(19) 0.002874 1057.8 123.5
1173(18) 0.002965 1058.4 114.6
1190(18) 0.003137 1059.1 106.5
1142(18) 0.003108 1059.7 99.3
1203(19) 0.002790 1060.4 92.8
1237(19) 0.002766 1061.0 86.9
1170(18) 0.003078 1061.6 81.5
1181(18) 0.003160 1062.3 76.7
1165(18) 0.002961 1062.9 72.2
1201(19) 0.002827 1063.6 68.1
1215(19) 0.002814 1064.2 64.4
1103(17) 0.003307 1064.9 61.0
1186(18) 0.003138 1065.5 57.8
1145(18) 0.003056 1066.2 54.9
1145(19) 0.002873 1066.8 52.2
1127(18) 0.003032 1067.4 49.7
1111(17) 0.003302 1068.1 47.4
1104(17) 0.003389 1068.7 45.2
1078(18) 0.003240 1069.4 43.2
1109(18) 0.002926 1070.0 41.3
1125(18) 0.003108 1070.7 39.5
1108(17) 0.003341 1071.3 37.9
1150(18) 0.003241 1072.0 36.4
1154(18) 0.002983 1072.6 34.9
1116(19) 0.002879 1073.2 33.5
1141(18) 0.003062 1073.9 32.3
1157(18) 0.003153 1074.5 31.1
1135(17) 0.003277 1075.2 29.9
1116(18) 0.003127 1075.8 28.8
1161(19) 0.002771 1076.5 27.8
1136(18) 0.003026 1077.1 26.9
1066(17) 0.003450 1077.8 26.0
1082(17) 0.003372 1078.4 25.1
1100(18) 0.003136 1079.0 24.3
1146(19) 0.002892 1079.7 23.5
1131(18) 0.003033 1080.3 22.8
1065(17) 0.003490 1081.0 22.1
1075(17) 0.003363 1081.6 21.4
1079(18) 0.003242 1082.3 20.8
1124(18) 0.002953 1082.9 20.2
1108(18) 0.003065 1083.6 19.6
1106(17) 0.003377 1084.2 19.0
1115(18) 0.003203 1084.8 18.5
1124(18) 0.003074 1085.5 18.0
1081(18) 0.003104 1086.1 17.5
1094(18) 0.003114 1086.8 17.0
1111(17) 0.003333 1087.4 16.6
1102(18) 0.003187 1088.1 16.2
1075(18) 0.003168 1088.7 15.8
1136(18) 0.002969 1089.4 15.4
1114(18) 0.003185 1090.0 15.0
1075(17) 0.003436 1090.6 14.6
1117(18) 0.003134 1091.3 14.3
1123(18) 0.003008 1091.9 13.9
1078(18) 0.003087 1092.6 13.6
1120(18) 0.003138 1093.2 13.3
1104(17) 0.003373 1093.9 13.0
1120(18) 0.003049 1094.5 12.7
1097(18) 0.003065 1095.2 12.5
1121(18) 0.003032 1095.8 12.2
1075(17) 0.003353 1096.4 11.9
1109(17) 0.003330 1097.1 11.7
1116(18) 0.003053 1097.7 11.4
1115(18) 0.002987 1098.4 11.2
1169(18) 0.002938 1099.0 11.0
1133(18) 0.003173 1099.7 10.8
1123(17) 0.003327 1100.3 10.6
1158(18) 0.002956 1101.0 10.4
1133(19) 0.002830 1101.6 10.2
1143(18) 0.002971 1102.3 10.0
1123(17) 0.003273 1102.9 9.8
1139(17) 0.003292 1103.5 9.6
1109(18) 0.003115 1104.2 9.4
1103(18) 0.002964 1104.8 9.3
1129(18) 0.003084 1105.5 9.1
1067(17) 0.003483 1106.1 8.0
1125(17) 0.003302 1106.8 7.9
1093(18) 0.003195 1107.4 7.7
1122(19) 0.002832 1108.1 7.6
1120(18) 0.003116 1108.7 7.5
1108(17) 0.003349 1109.3 7.3
1068(17) 0.003439 1110.0 7.2
1065(18) 0.003240 1110.6 7.1
1126(19) 0.002886 1111.3 7.0
1108(18) 0.003136 1111.9 6.8
1147(18) 0.003236 1112.6 6.7
1112(17) 0.003270 1113.2 6.6
1111(18) 0.003183 1113.9 6.5
1106(18) 0.003014 1114.5 6.4
1113(18) 0.003064 1115.1 6.3
1135(17) 0.003273 1115.8 6.2
1110(18) 0.003264 1116.4 6.1
1175(18) 0.002933 1117.1 6.0
1106(18) 0.003064 1117.7 5.9
1116(18) 0.003108 1118.4 5.8
1149(18) 0.003244 1119.0 5.8
1122(18) 0.003197 1119.7 5.7
1126(18) 0.003020 1120.3 5.6
1098(18) 0.003143 1120.9 5.5
1157(18) 0.002969 1121.6 5.5
1120(17) 0.003338 1122.2 5.4
1103(18) 0.003241 1122.9 5.3
1130(18) 0.002996 1123.5 5.2
1110(18) 0.003082 1124.2 5.2
1104(18) 0.003219 1124.8 5.1
1127(17) 0.003336 1125.5 5.0
1165(18) 0.002996 1126.1 5.0
1128(18) 0.002986 1126.7 4.9
1155(18) 0.003000 1127.4 4.9
1142(18) 0.003163 1128.0 4.8
1114(17) 0.003343 1128.7 4.8
1062(17) 0.003305 1129.3 4.7
1130(19) 0.002909 1130.0 4.7
1103(18) 0.003212 1130.6 4.6
1146(18) 0.003180 1131.3 4.6
1111(17) 0.003325 1131.7 4.5
1149(18) 0.003022 1131.8 4.5
1142(19) 0.002915 1132.0 4.4
1142(18) 0.003063 1132.2 4.4
1129(18) 0.003253 1132.4 4.4
1145(18) 0.003243 1132.6 4.3
1127(18) 0.003148 1132.7 4.3
1123(18) 0.003012 1132.9 4.3
1125(18) 0.003129 1133.1 4.2
1122(17) 0.003299 1133.3 4.2
1129(17) 0.003287 1133.5 4.2
1149(18) 0.003050 1133.6 4.1
1139(19) 0.002834 1133.8 4.1
1137(18) 0.003048 1134.0 4.1
1157(18) 0.003226 1134.2 4.1
1156(18) 0.003179 1134.4 4.0
1158(18) 0.003047 1134.5 4.0
1135(18) 0.002954 1134.7 4.0
1164(18) 0.002994 1134.9 4.0
1129(17) 0.003294 1135.1 4.0
1158(18) 0.003191 1135.3 4.0
1156(18) 0.003002 1135.4 4.0
1171(19) 0.002790 1135.6 3.9
1144(18) 0.003059 1135.8 3.9
1150(18) 0.003224 1136.0 3.9
1136(18) 0.003246 1136.2 3.9
1231(19) 0.002759 1136.3 3.9
1169(19) 0.002838 1136.5 3.9
1155(18) 0.002927 1136.7 3.9
1165(18) 0.003196 1136.9 3.9
1172(18) 0.003108 1137.1 4.0
1175(18) 0.002955 1137.2 4.0
1238(19) 0.002700 1137.4 4.0
1183(18) 0.002940 1137.6 4.0
1138(17) 0.003270 1137.8 4.0
1094(17) 0.003292 1138.0 4.0
1124(18) 0.003095 1138.1 4.1
1138(18) 0.003056 1138.3 4.1
1130(18) 0.003123 1138.5 4.1
1142(17) 0.003268 1138.7 4.2
1171(18) 0.002990 1138.9 4.2
1187(19) 0.002793 1139.0 4.3
1147(18) 0.003001 1139.2 4.3
1112(17) 0.003280 1139.4 4.4
1146(18) 0.003223 1139.6 4.5
1162(18) 0.003031 1139.8 4.5
1142(18) 0.002991 1139.9 4.6
1175(18) 0.003008 1140.1 4.7
1182(18) 0.003103 1140.3 4.8
1146(18) 0.003243 1140.5 4.9
1168(18) 0.002967 1140.7 5.0
1148(19) 0.002915 1140.8 5.1
1159(18) 0.003047 1141.0 5.3
1123(17) 0.003286 1141.2 5.4
1182(18) 0.003149 1141.4 5.6
1173(18) 0.002981 1141.6 5.8
1123(18) 0.002993 1141.7 6.0
1162(18) 0.003007 1141.9 6.2
1159(18) 0.003179 1142.1 6.5
1187(18) 0.003148 1142.3 6.8
1150(18) 0.003082 1142.5 7.1
1156(19) 0.002815 1142.6 7.4
1192(18) 0.002944 1142.8 7.8
1197(18) 0.003099 1143.0 8.2
1149(18) 0.003204 1143.2 8.7
1202(19) 0.002914 1143.4 9.3
1182(19) 0.002796 1143.5 9.9
1156(18) 0.003006 1143.7 10.7
1163(18) 0.003216 1143.9 11.5
1148(18) 0.003194 1144.1 12.6
1167(19) 0.002899 1144.3 13.8
1165(19) 0.002771 1144.4 15.3
1158(18) 0.003033 1144.6 17.0
1205(18) 0.003083 1144.8 19.1
1176(18) 0.003108 1145.0 21.7
1190(18) 0.002940 1145.2 24.8
1233(19) 0.002713 1145.3 28.4
1199(19) 0.002889 1145.5 32.8
1197(18) 0.003111 1145.7 37.8
1169(18) 0.003063 1145.9 43.6
1213(19) 0.002815 1146.1 50.2
1222(19) 0.002794 1146.2 57.5
1263(19) 0.002760 1146.4 65.2
1245(18) 0.003001 1146.6 73.2
1240(19) 0.002879 1146.8 80.9
1238(19) 0.002803 1147.0 87.5
1250(19) 0.002727 1147.1 92.3
1203(18) 0.002956 1147.3 94.5
1219(18) 0.003056 1147.5 93.7
1279(19) 0.002765 1147.7 90.0
1251(19) 0.002756 1147.9 84.2
1307(20) 0.002594 1148.0 76.9
1213(18) 0.002925 1148.2 69.0
1224(18) 0.003041 1148.4 61.1
1237(19) 0.002729 1148.6 53.6
1179(19) 0.002862 1148.8 46.7
1251(19) 0.002716 1148.9 40.6
1197(18) 0.003048 1149.1 35.2
1212(18) 0.003077 1149.3 30.6
1214(19) 0.002845 1149.5 26.7
1213(19) 0.002788 1149.7 23.4
1208(19) 0.002886 1149.8 20.7
1139(18) 0.003214 1150.0 18.4
1138(17) 0.003282 1150.2 16.6
1204(19) 0.002915 1150.4 15.1
1198(19) 0.002698 1150.6 13.9
1188(19) 0.002914 1150.8 12.9
1185(18) 0.003071 1150.9 12.1
1176(18) 0.003175 1151.1 11.4
1161(18) 0.003009 1151.3 10.8
1159(19) 0.002818 1151.5 10.4
1170(18) 0.002978 1151.6 10.0
1181(18) 0.003142 1151.8 9.7
1219(18) 0.003019 1152.0 9.4
1199(19) 0.002877 1152.2 9.2
1191(19) 0.002670 1152.4 9.0
1106(18) 0.003134 1152.5 8.8
1190(18) 0.003089 1152.7 8.6
1184(18) 0.003116 1152.9 8.3
1157(18) 0.002992 1153.1 8.1
1204(19) 0.002653 1153.3 7.8
1192(19) 0.002881 1153.4 7.5
1207(18) 0.003089 1153.6 7.2
1155(18) 0.003201 1153.8 6.9
1167(18) 0.003005 1154.0 6.6
1183(19) 0.002813 1154.2 6.3
1154(18) 0.003013 1154.3 6.0
1190(18) 0.003117 1154.5 5.7
1150(18) 0.003158 1154.7 5.4
1143(18) 0.003057 1154.9 5.1
1138(18) 0.003026 1155.1 4.8
1183(18) 0.002944 1155.3 4.6
1178(18) 0.003143 1155.4 4.4
1186(18) 0.003003 1155.6 4.2
1197(19) 0.002879 1155.8 4.0
1153(18) 0.002973 1156.0 3.8
1146(18) 0.003065 1156.1 3.6
1170(18) 0.003191 1156.3 3.5
1141(18) 0.003065 1156.5 3.3
1168(19) 0.002915 1156.7 3.2
1138(18) 0.003076 1156.9 3.1
1183(18) 0.002984 1157.0 3.0
1120(17) 0.003335 1157.2 2.9
1164(18) 0.003014 1157.4 2.8
1131(18) 0.002980 1157.6 2.7
1155(18) 0.003015 1157.8 2.6
1138(18) 0.003202 1157.9 2.5
1177(18) 0.003175 1158.1 2.5
1165(18) 0.002958 1158.3 2.4
1181(19) 0.002868 1158.5 2.3
1226(19) 0.002837 1158.7 2.3
1216(18) 0.003014 1158.8 2.2
1139(18) 0.003240 1159.0 2.2
1232(19) 0.002793 1159.2 2.1
1222(19) 0.002725 1159.4 2.1
1196(18) 0.002945 1159.6 2.0
1148(18) 0.003194 1159.8 2.0
1194(18) 0.003139 1159.9 2.0
1141(18) 0.003101 1160.1 1.9
1181(19) 0.002757 1160.3 1.9
1172(18) 0.002991 1160.5 1.8
1170(18) 0.003167 1160.7 1.8
1166(18) 0.003180 1160.8 1.8
1172(18) 0.003014 1161.0 1.8
1172(19) 0.002746 1161.2 1.7
1207(19) 0.002887 1161.4 1.7
1197(18) 0.003093 1161.5 1.7
1168(18) 0.003175 1161.7 1.6
1190(18) 0.002970 1161.9 1.6
1156(19) 0.002911 1162.1 1.6
1173(18) 0.002958 1162.3 1.6
1151(18) 0.003244 1162.4 1.5
1181(18) 0.003090 1162.6 1.5
1150(18) 0.003049 1162.8 1.5
1145(18) 0.002946 1163.0 1.5
1153(18) 0.003017 1163.2 1.4
1156(18) 0.003226 1163.3 1.4
1155(18) 0.003144 1163.5 1.4
1157(18) 0.003084 1163.7 1.4
1224(19) 0.002750 1163.9 1.4
1169(18) 0.002987 1164.1 1.4
1176(18) 0.003156 1164.3 1.3
1158(18) 0.003128 1164.4 1.3
1164(18) 0.002981 1164.6 1.3
1222(19) 0.002730 1164.8 1.3
1131(18) 0.003124 1165.0 1.3
1141(17) 0.003272 1165.2 1.3
1146(18) 0.003123 1165.3 1.2
1128(18) 0.003125 1165.5 1.2
1252(19) 0.002714 1165.7 1.2
1223(18) 0.002933 1165.9 1.2
1162(18) 0.003205 1165.6 1.2
1096(18) 0.003198 1165.3 1.2
1182(19) 0.002837 1165.0 1.2
1174(18) 0.002925 1164.7 1.2
1185(18) 0.003046 1164.4 1.1
1212(18) 0.003057 1164.1 1.1
1153(18) 0.002993 1163.8 1.1
1161(19) 0.002845 1163.4 1.1
1124(18) 0.003076 1163.1 1.1
1152(18) 0.003161 1162.8 1.1
1203(18) 0.003103 1162.5 1.1
1139(18) 0.003064 1162.2 1.1
1168(19) 0.002780 1161.9 1.1
1191(18) 0.002923 1161.6 1.0
1136(18) 0.003260 1161.2 1.0
1169(18) 0.003181 1160.9 1.1
1201(19) 0.002880 1160.6 1.1
1174(19) 0.002808 1160.3 1.1
1119(18) 0.003126 1160.0 1.1
1176(18) 0.003149 1159.7 1.1
1214(18) 0.003023 1159.4 1.1
1191(19) 0.002897 1159.0 1.1
1177(19) 0.002707 1158.7 1.1
1227(19) 0.002772 1158.4 1.1
1229(18) 0.003020 1158.1 1.1
1166(18) 0.003168 1157.8 1.1
1162(18) 0.003009 1157.5 1.0
1161(19) 0.002801 1157.2 1.0
1145(18) 0.002999 1156.9 1.0
1139(17) 0.003277 1156.5 1.0
1174(18) 0.003117 1156.2 1.0
1201(19) 0.002886 1155.9 1.0
1193(19) 0.002780 1155.6 1.0
1175(18) 0.002964 1155.3 1.0
1136(17) 0.003287 1155.0 1.0
1161(18) 0.003148 1154.7 1.0
1135(18) 0.003079 1154.3 1.0
1145(18) 0.002939 1154.0 1.0
1179(19) 0.002895 1153.7 1.0
1171(18) 0.003176 1153.4 1.0
1140(18) 0.003107 1153.1 1.0
1130(18) 0.003050 1152.8 1.0
1180(19) 0.002864 1152.5 1.0
1208(19) 0.002884 1152.1 1.0
1222(18) 0.003037 1151.8 1.0
1195(18) 0.002991 1151.5 1.0
1195(19) 0.002890 1151.2 0.9
1181(19) 0.002887 1150.9 0.9
1185(18) 0.002991 1150.6 0.9
1185(18) 0.003150 1150.3 0.9
1223(19) 0.002867 1149.9 0.9
1144(18) 0.003095 1149.6 0.9
1170(18) 0.002940 1149.3 0.9
1154(18) 0.003093 1149.0 0.9
1192(18) 0.003121 1148.7 0.9
1218(19) 0.002770 1148.4 0.9
1188(19) 0.002799 1148.1 0.9
1169(19) 0.002911 1147.8 0.9
1165(18) 0.003097 1147.4 0.9
1185(18) 0.003159 1147.1 0.9
1198(18) 0.002950 1146.8 0.9
1182(19) 0.002801 1146.5 0.9
1140(18) 0.003085 1146.2 0.9
1165(18) 0.003128 1145.9 0.9
1250(18) 0.002988 1145.6 0.9
1222(19) 0.002836 1145.2 0.9
1126(19) 0.002895 1144.9 0.9
1133(18) 0.003011 1144.6 0.9
1231(18) 0.003014 1144.3 0.8
1201(18) 0.003073 1144.0 0.8
1199(19) 0.002886 1143.7 0.8
1206(19) 0.002642 1143.4 0.8
1135(18) 0.003091 1143.0 0.8
1145(18) 0.003242 1142.7 0.8
1155(18) 0.003197 1142.4 0.8
1137(18) 0.003074 1142.1 0.8
1165(19) 0.002760 1141.8 0.8
1178(18) 0.002989 1141.5 0.8
1223(18) 0.003042 1141.2 0.8
1160(18) 0.003170 1140.8 0.8
1168(18) 0.002972 1140.5 0.8
1172(19) 0.002824 1140.2 0.8
1137(18) 0.003090 1139.9 0.8
1173(18) 0.003175 1139.6 0.8
1196(18) 0.003067 1139.3 0.8
1168(18) 0.002998 1139.0 0.8
1213(19) 0.002714 1138.7 0.8
1159(18) 0.003004 1138.3 0.8
1145(18) 0.003253 1138.0 0.8
1191(18) 0.003047 1137.7 0.8
1170(18) 0.002972 1137.4 0.8
1221(19) 0.002710 1137.1 0.8
1212(19) 0.002828 1136.8 0.8
1148(17) 0.003267 1136.5 0.8
1166(18) 0.003060 1136.1 0.8
1122(18) 0.003081 1135.8 0.8
1139(18) 0.002997 1135.5 0.8
1156(18) 0.003037 1135.2 0.8
1155(18) 0.003224 1134.9 0.8
1138(18) 0.003086 1134.6 0.8
1225(19) 0.002754 1134.3 0.7
1230(19) 0.002817 1133.9 0.7
1131(18) 0.003175 1133.6 0.7
1172(18) 0.003179 1133.3 0.7
1172(18) 0.003037 1133.0 0.7
1180(19) 0.002872 1132.7 0.7
1143(18) 0.003064 1132.4 0.7
1138(18) 0.003169 1132.1 0.7
1185(18) 0.003117 1131.7 0.7
1145(18) 0.003018 1131.4 0.7
1130(18) 0.002963 1131.1 0.7
1156(18) 0.003059 1130.8 0.7
1151(18) 0.003190 1130.5 0.7
1170(18) 0.003165 1130.2 0.7
1185(18) 0.002928 1129.9 0.7
1174(19) 0.002782 1129.6 0.7
1127(18) 0.003076 1129.2 0.7
1188(18) 0.003087 1128.9 0.7
1133(17) 0.003309 1128.6 0.7
1166(18) 0.003004 1128.3 0.7
1137(19) 0.002831 1128.0 0.7
1138(18) 0.003079 1127.7 0.7
1167(18) 0.003192 1127.4 0.7
1152(18) 0.003220 1127.0 0.7
1151(18) 0.003045 1126.7 0.7
1119(19) 0.002895 1126.4 0.7
1169(18) 0.002937 1126.1 0.7
1168(18) 0.003165 1125.8 0.7
1219(18) 0.003027 1125.5 0.7
1136(18) 0.003113 1125.2 0.7
1211(19) 0.002697 1124.8 0.7
1188(18) 0.002990 1124.5 0.7
1223(18) 0.003056 1124.2 0.7
1193(18) 0.003059 1123.9 0.7
1200(19) 0.002878 1123.6 0.7
1126(18) 0.003030 1123.3 0.7
1160(18) 0.002971 1123.0 0.7
1151(18) 0.003241 1122.6 0.7
1142(18) 0.003192 1122.3 0.7
1117(18) 0.003143 1122.0 0.7
1144(18) 0.002935 1121.7 0.7
1162(18) 0.003003 1121.4 0.7
1152(18) 0.003220 1121.1 0.7
1188(18) 0.003035 1120.8 0.7
1096(18) 0.003206 1120.5 0.7
1186(19) 0.002850 1120.1 0.7
1155(18) 0.003068 1119.8 0.7
1207(18) 0.003089 1119.5 0.7
1196(18) 0.002939 1119.2 0.7
1140(18) 0.002996 1118.9 0.7
1148(18) 0.003002 1118.6 0.7
1160(18) 0.003071 1118.3 0.7
1173(18) 0.003173 1117.9 0.7
1138(18) 0.003033 1117.6 0.7
1129(18) 0.003022 1117.3 0.7
1133(18) 0.003099 1117.0 0.7
1154(18) 0.003064 1116.7 0.7
1139(18) 0.003261 1116.4 0.7
1160(19) 0.002922 1116.1 0.6
1106(18) 0.003045 1115.7 0.6
1147(18) 0.003039 1115.4 0.6
1127(18) 0.003263 1115.1 0.6
1146(18) 0.003250 1114.8 0.6
1173(19) 0.002877 1114.5 0.6
1092(18) 0.003048 1114.2 0.6
1138(18) 0.003017 1113.9 0.6
1176(18) 0.003105 1113.5 0.6
1158(18) 0.003197 1113.2 0.6
1145(18) 0.003059 1112.9 0.6
1167(19) 0.002798 1112.6 0.6
1175(18) 0.002949 1112.3 0.6
1091(17) 0.003445 1112.0 0.6
1126(17) 0.003300 1111.7 0.6
1160(18) 0.003037 1111.4 0.6
1152(19) 0.002851 1111.0 0.6
1192(18) 0.002960 1110.7 0.6
1130(17) 0.003313 1110.4 0.6
1161(18) 0.003176 1110.1 0.6
1112(18) 0.003166 1109.8 0.6
1138(19) 0.002857 1109.5 0.6
1118(18) 0.003123 1109.2 0.6
1162(18) 0.003201 1108.8 0.6
1126(17) 0.003272 1108.5 0.6
1122(18) 0.003192 1108.2 0.6
1126(18) 0.002958 1107.9 0.6
1110(18) 0.003153 1107.6 0.6
1107(17) 0.003362 1107.3 0.6
1138(18) 0.003215 1107.0 0.6
1173(18) 0.002924 1106.6 0.6
1129(18) 0.003024 1106.3 0.6
1135(18) 0.003040 1106.0 0.6
1109(17) 0.003351 1105.7 0.6
1132(18) 0.003186 1105.4 0.6
1092(18) 0.003154 1105.1 0.6
1077(18) 0.003172 1104.8 0.6
1094(18) 0.003201 1104.5 0.6
1111(17) 0.003347 1104.1 0.6
1112(18) 0.003230 1103.8 0.6
1111(18) 0.003109 1103.5 0.6
1147(18) 0.002955 1103.2 0.6
1117(18) 0.003157 1102.9 0.6
1107(17) 0.003360 1102.6 0.6
1140(18) 0.003046 1102.3 0.6
1131(18) 0.002963 1101.9 0.6
1099(18) 0.003213 1101.6 0.6
1135(18) 0.003171 1101.3 0.6
1121(17) 0.003340 1101.0 0.6
1117(18) 0.003051 1100.7 0.6
1105(18) 0.003005 1100.4 0.6
1122(18) 0.003077 1100.1 0.6
1172(18) 0.003033 1099.7 0.6
1110(17) 0.003376 1099.4 0.6
1155(18) 0.002964 1099.1 0.6
1113(18) 0.002971 1098.8 0.6
1155(18) 0.003002 1098.5 0.6
1111(17) 0.003273 1098.2 0.6
1091(17) 0.003436 1097.9 0.6
1069(18) 0.003210 1097.5 0.6
1109(18) 0.002953 1097.2 0.6
1110(18) 0.003088 1096.9 0.6
1049(17) 0.00354 1096.6 0.6
1112(17) 0.003374 1096.3 0.6
1131(18) 0.003126 1096.0 0.6
1091(18) 0.002966 1095.7 0.6
1073(18) 0.003260 1095.4 0.6
1083(17) 0.003411 1095.0 0.6
1091(17) 0.003391 1094.7 0.6
1083(18) 0.003230 1094.4 0.6
1095(18) 0.002991 1094.1 0.6
1122(18) 0.003072 1093.8 0.6
1113(17) 0.003371 1093.5 0.6
1092(17) 0.003358 1093.2 0.6
1097(18) 0.003175 1092.8 0.6
1135(19) 0.002844 1092.5 0.6
1093(18) 0.003136 1092.2 0.6
1129(17) 0.003291 1091.9 0.6
1109(17) 0.003335 1091.6 0.6
1123(18) 0.003107 1091.3 0.6
1115(18) 0.003004 1091.0 0.6
1092(18) 0.003137 1090.6 0.6
1095(17) 0.003403 1090.3 0.6
1067(17) 0.003354 1090.0 0.6
1097(18) 0.003202 1089.7 0.6
1109(18) 0.003078 1089.4 0.6
1075(17) 0.003285 1089.1 0.6
1099(17) 0.003383 1088.8 0.6
1069(17) 0.003395 1088.4 0.6
1063(18) 0.003257 1088.1 0.6
1044(17) 0.003296 1087.8 0.6
1093(18) 0.003183 1087.5 0.6
1089(17) 0.003437 1087.2 0.6
1116(18) 0.003156 1086.9 0.6
1079(18) 0.003155 1086.6 0.6
1010(17) 0.003426 1086.3 0.6
1042(17) 0.003465 1085.9 0.7
1049(17) 0.00354 1085.6 0.7
1094(18) 0.003104 1085.3 0.7
1059(18) 0.003200 1085.0 0.7
1100(18) 0.003079 1084.7 0.7
1075(17) 0.003367 1084.4 0.7
1062(17) 0.00353 1084.1 0.7
1112(18) 0.003048 1083.7 0.7
1090(18) 0.003054 1083.4 0.7
1087(18) 0.003211 1083.1 0.7
1092(17) 0.003328 1082.8 0.7
1062(17) 0.003504 1082.5 0.8
1045(17) 0.003317 1082.2 0.8
1044(18) 0.003175 1081.9 0.8
1056(17) 0.003352 1081.5 0.8
1088(17) 0.003352 1081.2 0.8
1041(17) 0.00357 1080.9 0.8
1028(17) 0.003388 1080.6 0.8
1071(18) 0.003003 1080.0 0.8
1091(18) 0.003200 1079.3 0.8
1110(17) 0.003353 1078.7 0.8
1045(17) 0.00354 1078.0 0.9
1096(18) 0.003219 1077.3 0.9
1058(18) 0.003185 1076.7 0.9
1080(18) 0.003177 1076.0 0.9
1078(17) 0.003442 1075.4 0.9
1056(17) 0.003490 1074.7 0.9
1055(17) 0.003298 1074.0 0.9
1009(17) 0.003297 1073.4 0.9
1023(17) 0.003423 1072.7 0.9
1059(17) 0.00352 1072.0 0.9
1106(17) 0.003284 1071.4 0.9
1069(18) 0.003174 1070.7 0.9
1059(18) 0.003069 1070.0 0.9
1023(17) 0.003425 1069.4 0.9
1049(17) 0.00355 1068.7 0.9
1077(17) 0.003359 1068.1 0.9
1089(18) 0.003144 1067.4 0.9
1074(18) 0.003111 1066.7 0.9
1095(18) 0.003151 1066.1 0.9
1090(17) 0.003407 1065.4 0.9
1037(17) 0.003472 1064.7 0.9
1041(17) 0.003300 1064.1 0.9
1071(18) 0.003183 1063.4 0.9
1069(17) 0.003315 1062.7 0.9
1058(17) 0.00352 1062.1 0.9
1056(17) 0.003343 1061.4 0.9
1104(18) 0.003024 1060.8 0.9
1067(17) 0.003281 1060.1 0.9
1127(18) 0.003155 1059.4 0.9
1106(17) 0.003359 1058.8 0.9
1092(18) 0.003143 1058.1 0.9
1069(18) 0.003174 1057.4 0.9
1076(18) 0.003230 1056.8 0.9
1055(17) 0.003446 1056.1 0.9
1086(17) 0.003425 1055.4 0.9
1039(18) 0.003262 1054.8 0.9
1046(18) 0.003158 1054.1 0.9
1030(17) 0.003348 1053.4 1.0
1069(17) 0.003400 1052.8 1.0
1052(17) 0.00354 1052.1 1.0
1077(18) 0.003245 1051.5 1.0
1093(18) 0.002944 1050.8 1.0
1038(17) 0.003269 1050.1 1.0
1090(17) 0.003376 1049.5 1.0
1076(17) 0.003466 1048.8 1.0
1102(18) 0.003124 1048.1 1.0
1067(18) 0.003000 1047.5 1.0
1083(18) 0.003202 1046.8 1.0
1065(17) 0.003480 1046.1 1.0
1047(17) 0.00352 1045.5 1.0
1053(17) 0.003315 1044.8 1.0
1056(18) 0.003023 1044.2 1.0
1011(17) 0.00352 1043.5 1.0
1048(17) 0.00358 1042.8 1.0
1013(17) 0.00361 1042.2 1.0
1023(17) 0.003368 1041.5 1.0
1044(18) 0.003112 1040.8 1.0
1033(17) 0.003369 1040.2 1.0
1000(16) 0.00376 1039.5 1.0
1052(17) 0.003505 1038.8 1.0
1059(17) 0.003287 1038.2 1.0
1032(17) 0.003276 1037.5 1.1
1070(18) 0.003260 1036.9 1.1
1061(17) 0.003506 1036.2 1.1
1005(17) 0.00365 1035.5 1.1
1038(17) 0.003301 1034.9 1.1
1035(18) 0.003223 1034.2 1.1
1040(17) 0.003358 1033.5 1.1
1069(17) 0.003477 1032.9 1.1
1046(17) 0.003477 1032.2 1.1
1027(17) 0.003379 1031.5 1.1
1035(18) 0.003260 1030.9 1.1
1037(17) 0.003395 1030.2 1.1
1057(17) 0.00352 1029.6 1.1
1023(17) 0.003465 1028.9 1.1
1023(17) 0.003301 1028.2 1.1
1032(17) 0.003294 1027.6 1.1
1014(17) 0.00356 1026.9 1.1
1054(17) 0.00351 1026.2 1.1
1048(17) 0.003374 1025.6 1.1
1005(17) 0.003377 1024.9 1.2
1013(17) 0.003366 1024.2 1.2
1009(17) 0.00363 1023.6 1.2
1020(17) 0.00363 1022.9 1.2
1004(17) 0.003417 1022.3 1.2
1023(18) 0.003148 1021.6 1.2
982(17) 0.00357 1020.9 1.2
1007(17) 0.00359 1020.3 1.2
1035(17) 0.00363 1019.6 1.2
1006(17) 0.003452 1018.9 1.2
1000(17) 0.003348 1018.3 1.2
1013(17) 0.003491 1017.6 1.2
1031(17) 0.00358 1016.9 1.2
1034(17) 0.00358 1016.3 1.2
1009(17) 0.003448 1015.6 1.2
1010(18) 0.003238 1015.0 1.3
1046(17) 0.003303 1014.3 1.3
977(16) 0.00377 1013.6 1.3
1029(17) 0.00357 1013.0 1.3
1056(17) 0.003311 1012.3 1.3
985(17) 0.003332 1011.6 1.3
997(17) 0.00352 1011.0 1.3
996(16) 0.00375 1010.3 1.3
1016(17) 0.00363 1009.6 1.3
1011(17) 0.003494 1009.0 1.3
1003(17) 0.003278 1008.3 1.3
1039(17) 0.003324 1007.7 1.3
999(16) 0.00369 1007.0 1.4
1032(17) 0.00353 1006.3 1.4
1021(17) 0.003358 1005.7 1.4
989(17) 0.003367 1005.0 1.4
1000(17) 0.003465 1004.3 1.4
976(16) 0.00383 1003.7 1.4
1015(17) 0.00356 1003.0 1.4
1032(17) 0.003303 1002.3 1.4
979(17) 0.003374 1001.7 1.4
1054(18) 0.003201 1001.0 1.4
1044(17) 0.00351 1000.4 1.5
1013(17) 0.00352 999.7 1.5
1011(17) 0.003367 999.0 1.5
994(17) 0.003405 998.4 1.5
973(17) 0.00366 997.7 1.5
993(16) 0.00375 997.0 1.5
1020(17) 0.003429 996.4 1.5
1003(17) 0.003314 995.7 1.5
996(17) 0.003417 995.0 1.5
1009(17) 0.003485 994.4 1.6
981(16) 0.00377 993.7 1.6
996(17) 0.003433 993.1 1.6
990(17) 0.003394 992.4 1.6
989(17) 0.00352 991.7 1.6
977(17) 0.00366 991.1 1.6
1007(16) 0.00369 990.4 1.6
1012(17) 0.003428 989.7 1.7
985(17) 0.003408 989.1 1.7
997(17) 0.003411 988.4 1.7
923(16) 0.00397 987.7 1.7
1003(16) 0.00370 987.1 1.7
968(17) 0.00355 986.4 1.7
969(17) 0.003415 985.8 1.7
993(17) 0.003476 985.1 1.8
977(16) 0.00375 984.4 1.8
1008(17) 0.00366 983.8 1.8
992(17) 0.00351 983.1 1.8
991(17) 0.003342 982.4 1.8
974(17) 0.00361 981.8 1.8
1020(17) 0.00362 981.1 1.9
968(16) 0.00382 980.4 1.9
971(17) 0.00355 979.8 1.9
1029(18) 0.003119 979.1 1.9
988(17) 0.00354 978.5 1.9
974(16) 0.00385 977.8 2.0
971(16) 0.00382 977.1 2.0
1009(17) 0.003438 976.5 2.0
1018(18) 0.003228 975.8 2.0
1001(17) 0.003486 975.1 2.1
982(16) 0.00379 974.5 2.1
1025(17) 0.00357 973.8 2.1
963(17) 0.00362 973.1 2.1
995(17) 0.003324 972.5 2.2
984(17) 0.00356 971.8 2.2
1001(16) 0.00373 971.2 2.2
989(16) 0.00371 970.5 2.2
985(17) 0.00356 969.8 2.3
982(17) 0.003471 969.2 2.3
992(17) 0.00353 968.5 2.3
992(16) 0.00374 967.8 2.3
1011(17) 0.00355 967.2 2.4
974(17) 0.00356 966.5 2.4
981(17) 0.003448 965.8 2.4
963(17) 0.00358 965.2 2.5
963(16) 0.00387 964.5 2.5
1011(17) 0.003493 963.9 2.5
993(17) 0.003324 963.2 2.6
961(17) 0.003465 962.5 2.6
924(16) 0.00385 961.9 2.7
961(16) 0.00390 961.2 2.7
948(16) 0.00369 960.6 2.7
946(17) 0.00361 960.0 2.8
973(17) 0.00357 959.5 2.8
961(16) 0.00373 958.9 2.9
970(16) 0.00385 958.3 2.9
1001(17) 0.003413 957.7 3.0
977(17) 0.003478 957.1 3.0
988(17) 0.003480 956.5 3.1
930(16) 0.00398 955.9 3.1
992(16) 0.00374 955.4 3.2
943(16) 0.00371 954.8 3.2
954(17) 0.003460 954.2 3.3
966(17) 0.00364 953.6 3.4
1004(17) 0.00365 953.0 3.4
1004(16) 0.00372 952.4 3.5
991(17) 0.003497 951.8 3.6
892(17) 0.00366 951.2 3.6
931(16) 0.00373 950.7 3.7
936(16) 0.00394 950.1 3.8
938(16) 0.00395 949.5 3.9
943(16) 0.00370 948.9 4.0
979(18) 0.003217 948.3 4.1
930(16) 0.00373 947.7 4.2
953(16) 0.00388 947.1 4.3
946(16) 0.00390 946.6 4.4
950(17) 0.00358 946.0 4.5
934(17) 0.003387 945.4 4.6
937(16) 0.00377 944.8 4.8
958(16) 0.00388 944.2 4.9
946(16) 0.00393 943.6 5.1
985(17) 0.003495 943.0 5.2
949(17) 0.00356 942.5 5.4
923(16) 0.00383 941.9 5.6
926(16) 0.00403 941.3 5.8
950(16) 0.00382 940.7 6.0
959(17) 0.00362 940.1 6.2
954(17) 0.00354 939.5 6.5
970(17) 0.00354 938.9 6.7
988(16) 0.00375 938.4 7.1
937(16) 0.00389 937.8 7.4
980(17) 0.00351 937.2 7.8
990(17) 0.003445 936.6 8.2
969(17) 0.00364 936.0 8.6
976(16) 0.00382 935.4 9.1
912(16) 0.00388 934.8 9.7
942(17) 0.00366 934.3 10.3
951(17) 0.00357 933.7 11.0
936(16) 0.00373 933.1 11.8
945(16) 0.00395 932.5 12.6
953(16) 0.00373 931.9 13.5
952(17) 0.00360 931.3 14.5
940(16) 0.00369 930.7 15.5
973(16) 0.00369 930.1 16.7
924(16) 0.00404 929.6 17.8
941(16) 0.00376 929.0 19.1
980(17) 0.003466 928.4 20.4
914(16) 0.00380 927.8 21.6
935(16) 0.00388 927.2 22.9
916(16) 0.00406 926.6 24.0
923(16) 0.00380 926.0 24.9
949(17) 0.003504 925.5 25.7
948(16) 0.00373 924.9 26.2
937(16) 0.00392 924.3 26.4
927(16) 0.00401 923.7 26.4
1024(17) 0.003367 923.1 26.1
956(17) 0.003431 922.5 25.6
918(16) 0.00375 921.9 24.9
932(16) 0.00386 921.4 24.2
971(16) 0.00386 920.8 23.4
944(16) 0.00372 920.2 22.6
966(17) 0.003336 919.6 21.9
913(16) 0.00386 919.0 21.2
981(16) 0.00377 918.4 20.6
957(16) 0.00389 917.8 20.1
950(16) 0.00369 917.3 19.7
964(17) 0.003336 916.7 19.5
930(16) 0.00373 916.1 19.3
922(16) 0.00399 915.5 19.2
931(16) 0.00401 914.9 19.3
928(16) 0.00370 914.3 19.5
924(17) 0.00354 913.7 19.7
939(17) 0.00363 913.2 20.1
890(15) 0.00420 912.6 20.7
907(16) 0.00406 912.0 21.3
945(17) 0.00364 911.4 22.1
879(16) 0.00379 910.8 23.0
928(16) 0.00376 910.2 24.1
896(15) 0.00418 909.6 25.3
948(16) 0.00378 909.0 26.7
925(16) 0.00373 908.5 28.4
906(16) 0.00378 907.9 30.2
935(17) 0.00367 907.3 32.3
928(16) 0.00402 906.7 34.8
975(17) 0.00364 906.1 37.6
884(16) 0.00399 905.5 40.8
958(17) 0.00356 904.9 44.6
955(17) 0.00366 904.4 48.9
930(16) 0.00397 903.8 54.0
971(17) 0.00361 903.2 60.1
969(17) 0.00358 902.6 67.2
1020(17) 0.003371 902.0 75.9
984(17) 0.00362 901.4 86.5
993(16) 0.00374 900.8 100.0
1067(18) 0.003224 900.3 117.7
1055(18) 0.003224 899.7 142.7
1124(18) 0.003065 899.1 180.4
1168(18) 0.003101 898.5 240.3
1265(18) 0.002944 897.9 336.7
1394(20) 0.002509 897.3 488.0
1567(22) 0.002109 896.7 712.7
1830(23) 0.001869 896.2 1021.4
2114(24) 0.001719 895.6 1406.0
2474(26) 0.001500 895.0 1827.9
2843(28) 0.001238 894.4 2205.2
3327(32) 0.000994 893.8 2415.1
3577(32) 0.000961 893.2 2361.9
3298(30) 0.001113 892.6 2072.0
2606(26) 0.001425 892.0 1664.6
2169(25) 0.001574 891.5 1250.0
1757(23) 0.001830 890.9 892.2
1488(21) 0.002350 890.3 616.2
1311(19) 0.002810 889.7 421.7
1272(19) 0.002916 889.1 293.9
1186(19) 0.002908 888.5 213.6
1146(19) 0.002864 887.9 163.7
1117(18) 0.003129 887.4 131.7
1035(17) 0.00359 886.8 110.0
1037(17) 0.00359 886.2 94.1
987(17) 0.00356 885.6 81.9
1004(18) 0.003176 885.0 72.1
986(17) 0.00357 884.4 64.0
961(16) 0.00388 883.8 57.2
946(16) 0.00388 883.3 51.5
939(16) 0.00373 882.7 46.7
935(17) 0.00359 882.1 42.5
926(17) 0.00367 881.5 38.9
903(16) 0.00413 880.9 35.8
917(16) 0.00397 880.3 33.0
934(17) 0.00364 879.7 30.6
885(16) 0.00383 879.2 28.5
901(16) 0.00384 878.6 26.6
908(16) 0.00410 878.0 24.9
910(16) 0.00397 877.4 23.4
862(16) 0.00402 876.8 22.1
865(16) 0.00392 876.2 20.9
894(16) 0.00389 875.6 19.8
893(15) 0.00418 875.1 18.8
921(16) 0.00385 874.5 17.9
894(16) 0.00385 873.9 17.0
936(17) 0.00366 873.3 16.3
928(16) 0.00390 872.7 15.6
880(15) 0.00422 872.1 15.0
897(16) 0.00389 871.5 14.4
899(16) 0.00371 870.9 13.8
897(16) 0.00382 870.4 13.4
927(16) 0.00388 869.8 12.9
915(16) 0.00408 869.2 12.5
905(16) 0.00373 868.6 12.1
875(16) 0.00384 868.0 11.7
876(16) 0.00395 867.4 11.4
907(16) 0.00399 866.8 11.1
873(15) 0.00427 866.3 10.8
869(16) 0.00397 865.7 10.6
850(16) 0.00401 865.1 10.3
893(16) 0.00395 864.5 10.1
877(15) 0.00417 863.9 9.9
853(15) 0.00435 863.3 9.7
852(16) 0.00412 862.7 9.5
861(16) 0.00383 862.2 9.3
858(16) 0.00405 861.6 9.2
815(15) 0.00449 861.0 9.0
842(15) 0.00440 860.4 8.9
844(15) 0.00417 859.8 8.8
896(17) 0.00351 859.2 8.7
852(16) 0.00405 858.6 8.6
855(15) 0.00432 858.1 8.5
893(16) 0.00415 857.5 8.5
851(16) 0.00413 856.9 8.4
830(16) 0.00402 856.3 8.3
884(16) 0.00389 855.7 8.3
837(15) 0.00445 855.1 8.2
867(15) 0.00425 854.5 8.1
884(16) 0.00397 854.0 8.0
826(16) 0.00409 853.4 8.0
864(16) 0.00398 852.8 7.9
891(15) 0.00417 852.2 7.9
870(15) 0.00424 851.6 7.8
892(16) 0.00382 851.0 7.8
867(16) 0.00386 850.4 7.8
870(16) 0.00397 849.8 7.8
835(15) 0.00444 849.3 7.8
862(15) 0.00422 848.7 7.8
866(16) 0.00394 848.1 7.8
862(16) 0.00387 847.5 7.8
830(15) 0.00429 846.9 7.8
864(15) 0.00432 846.3 7.8
871(16) 0.00408 845.7 7.8
876(16) 0.00386 845.2 7.9
833(16) 0.00405 844.6 7.9
818(15) 0.00438 844.0 7.9
853(15) 0.00435 843.4 8.0
855(16) 0.00409 842.8 8.0
829(16) 0.00409 842.2 8.0
857(16) 0.00399 841.6 8.1
843(15) 0.00428 841.1 8.1
847(15) 0.00440 840.5 8.2
834(16) 0.00410 839.9 8.3
846(16) 0.00393 839.3 8.3
807(15) 0.00433 838.7 8.4
851(15) 0.00427 838.2 8.5
850(15) 0.00437 837.6 8.5
864(16) 0.00406 837.1 8.6
861(16) 0.00389 836.5 8.7
819(15) 0.00431 835.9 8.8
875(15) 0.00421 835.4 8.9
837(15) 0.00440 834.8 9.0
840(15) 0.00422 834.3 9.1
860(16) 0.00385 833.7 9.2
843(15) 0.00423 833.2 9.3
855(15) 0.00433 832.6 9.4
834(15) 0.00448 832.1 9.6
798(15) 0.00432 831.5 9.7
820(16) 0.00396 831.0 9.8
838(16) 0.00416 830.4 10.0
842(15) 0.00437 829.8 10.1
842(15) 0.00439 829.3 10.3
824(15) 0.00428 828.7 10.4
840(16) 0.00388 828.2 10.6
816(15) 0.00429 827.6 10.8
811(15) 0.00457 827.1 10.9
874(15) 0.00421 826.5 11.1
840(16) 0.00416 826.0 11.3
858(16) 0.00383 825.4 11.5
831(15) 0.00427 824.8 11.7
856(15) 0.00436 824.3 12.0
874(15) 0.00421 823.7 12.2
850(16) 0.00416 823.2 12.4
811(15) 0.00417 822.6 12.7
871(16) 0.00401 822.1 12.9
864(15) 0.00432 821.5 13.2
823(15) 0.00441 821.0 13.5
853(16) 0.00407 820.4 13.8
846(16) 0.00403 819.9 14.1
840(15) 0.00419 819.3 14.4
832(15) 0.00448 818.7 14.7
834(15) 0.00428 818.2 15.1
795(15) 0.00435 817.6 15.4
810(15) 0.00419 817.1 15.8
837(15) 0.00425 816.5 16.2
843(15) 0.00441 816.0 16.6
820(16) 0.00415 815.4 17.0
777(15) 0.00432 814.9 17.5
810(15) 0.00418 814.3 18.0
837(15) 0.00424 813.8 18.4
813(15) 0.00458 813.2 19.0
852(16) 0.00406 812.6 19.5
851(16) 0.00398 812.1 20.1
828(15) 0.00423 811.5 20.7
806(15) 0.00444 811.0 21.3
822(15) 0.00454 810.4 22.0
847(16) 0.00410 809.9 22.7
842(16) 0.00396 809.3 23.4
836(16) 0.00413 808.8 24.2
801(15) 0.00453 808.2 25.0
838(15) 0.00443 807.7 25.9
818(15) 0.00430 807.1 26.8
848(16) 0.00388 806.5 27.8
841(16) 0.00410 806.0 28.9
834(15) 0.00446 805.4 30.0
874(15) 0.00425 804.9 31.1
830(15) 0.00420 804.3 32.4
831(16) 0.00389 803.8 33.7
816(15) 0.00433 803.2 35.2
841(15) 0.00442 802.7 36.7
869(15) 0.00428 802.1 38.3
843(15) 0.00417 801.6 40.1
869(16) 0.00376 801.0 42.0
838(16) 0.00414 800.4 44.1
820(15) 0.00453 799.9 46.3
848(15) 0.00434 799.3 48.7
820(15) 0.00432 798.8 51.4
826(16) 0.00395 798.2 54.3
829(15) 0.00426 797.7 57.4
835(15) 0.00443 797.1 60.9
864(15) 0.00417 796.6 64.8
873(16) 0.00400 796.0 69.1
843(16) 0.00402 795.4 74.0
898(16) 0.00391 794.9 79.5
882(15) 0.00421 794.3 85.9
842(15) 0.00438 793.8 93.5
877(16) 0.00394 793.2 102.4
901(16) 0.00370 792.7 113.2
867(16) 0.00407 792.1 126.2
938(16) 0.00397 791.6 142.2
949(16) 0.00375 791.0 161.6
957(17) 0.00357 790.5 185.0
974(17) 0.00351 789.9 213.0
1053(17) 0.003306 789.3 245.8
1084(17) 0.003429 788.8 283.4
1098(18) 0.003227 788.2 324.9
1133(18) 0.002953 787.7 368.7
1154(18) 0.002932 787.1 411.5
1196(18) 0.002926 786.6 448.4
1300(19) 0.002864 786.0 474.6
1328(19) 0.002672 785.5 487.3
1329(20) 0.002522 784.9 487.7
1298(19) 0.002672 784.4 480.9
1269(19) 0.002821 783.8 473.1
1229(18) 0.003021 783.2 469.8
1229(19) 0.002857 782.7 475.0
1214(19) 0.002784 782.1 491.5
1256(19) 0.002765 781.6 521.2
1264(19) 0.002895 781.0 565.4
1373(19) 0.002706 780.5 625.1
1420(20) 0.002486 779.9 700.9
1521(21) 0.002174 779.4 792.8
1687(22) 0.002034 778.8 900.1
1785(22) 0.002050 778.3 1020.9
1956(23) 0.001896 777.7 1151.3
2099(24) 0.001688 777.1 1284.9
2260(26) 0.001442 776.6 1411.7
2407(26) 0.001450 776.0 1518.1
2490(26) 0.001487 775.5 1589.6
2452(26) 0.001503 774.9 1614.1
2351(26) 0.001484 774.4 1587.0
2287(27) 0.001406 773.8 1512.6
2150(25) 0.001619 773.3 1402.6
2037(23) 0.001827 772.7 1271.8
1849(22) 0.001992 772.2 1133.1
1755(23) 0.001953 771.6 996.5
1615(22) 0.002016 771.0 868.1
1555(21) 0.002234 770.5 751.4
1441(20) 0.002581 769.9 648.0
1304(19) 0.002806 769.4 557.9
1276(19) 0.002715 768.8 480.5
1195(19) 0.002792 768.3 414.9
1195(19) 0.002821 767.7 359.7
1110(17) 0.003371 767.2 313.6
1070(17) 0.003371 766.6 275.2
1024(17) 0.003372 766.1 243.3
983(17) 0.003451 765.5 216.8
1001(17) 0.003423 764.9 194.5
1002(16) 0.00371 764.4 175.8
947(16) 0.00385 763.8 159.9
976(17) 0.003485 763.3 146.2
903(16) 0.00374 762.7 134.4
908(16) 0.00381 762.2 124.1
884(15) 0.00423 761.6 115.0
964(17) 0.00360 761.1 106.9
875(16) 0.00397 760.5 99.7
862(16) 0.00389 759.9 93.2
850(16) 0.00414 759.4 87.3
863(15) 0.00434 758.8 82.0
881(16) 0.00402 758.3 77.2
865(16) 0.00402 757.7 72.8
838(16) 0.00411 757.2 68.8
862(15) 0.00420 756.6 65.1
862(15) 0.00430 756.1 61.8
853(16) 0.00410 755.5 58.7
815(15) 0.00421 755.0 55.8
851(16) 0.00406 754.4 53.2
844(15) 0.00429 753.8 50.7
837(15) 0.00448 753.3 48.5
810(15) 0.00436 752.7 46.4
789(15) 0.00426 752.2 44.4
811(15) 0.00431 751.6 42.6
802(15) 0.00454 751.1 40.9
770(14) 0.00490 750.5 39.3
772(15) 0.00453 750.0 37.9
786(16) 0.00414 749.4 36.5
770(15) 0.00463 748.9 35.2
794(15) 0.00469 748.3 34.0
809(15) 0.00457 747.7 32.9
780(15) 0.00448 747.2 31.8
777(15) 0.00420 746.6 30.8
785(15) 0.00444 746.1 29.9
739(14) 0.00502 745.5 29.0
819(15) 0.00451 745.0 28.2
786(15) 0.00451 744.4 27.5
775(15) 0.00430 743.9 26.7
792(15) 0.00441 743.3 26.1
776(14) 0.00481 742.8 25.4
766(15) 0.00473 742.2 24.8
782(15) 0.00436 741.6 24.3
781(16) 0.00415 741.1 23.8
781(15) 0.00441 740.5 23.3
767(14) 0.00484 740.0 22.8
727(14) 0.00501 739.4 22.4
766(15) 0.00451 738.9 22.0
755(15) 0.00444 738.3 21.7
735(15) 0.00465 737.8 21.3
745(14) 0.00502 737.2 21.0
749(14) 0.00482 736.7 20.8
792(15) 0.00433 736.1 20.5
771(15) 0.00442 735.5 20.3
746(15) 0.00471 735.0 20.1
776(14) 0.00481 734.4 19.9
756(15) 0.00467 733.9 19.8
737(15) 0.00455 733.3 19.6
751(15) 0.00441 732.8 19.6
751(15) 0.00463 732.2 19.5
736(14) 0.00506 731.7 19.4
734(14) 0.00489 731.2 19.4
719(15) 0.00474 730.8 19.5
734(15) 0.00463 730.3 19.5
713(14) 0.00502 729.8 19.6
754(14) 0.00493 729.3 19.7
737(14) 0.00476 728.8 19.8
746(15) 0.00471 728.3 20.0
741(15) 0.00463 727.9 20.2
746(14) 0.00482 727.4 20.5
747(14) 0.00495 726.9 20.8
743(15) 0.00468 726.4 21.1
747(15) 0.00457 725.9 21.5
741(14) 0.00479 725.5 22.0
757(14) 0.00481 725.0 22.5
733(14) 0.00505 724.5 23.1
738(15) 0.00458 724.0 23.8
687(14) 0.00479 723.5 24.5
720(15) 0.00464 723.1 25.4
746(14) 0.00494 722.6 26.3
752(14) 0.00496 722.1 27.4
733(15) 0.00475 721.6 28.7
722(15) 0.00443 721.1 30.1
742(15) 0.00464 720.6 31.8
740(14) 0.00501 720.2 33.8
767(14) 0.00483 719.7 36.1
775(15) 0.00450 719.2 39.1
776(15) 0.00419 718.7 43.2
750(15) 0.00456 718.2 49.9
772(15) 0.00472 717.8 62.3
868(15) 0.00423 717.3 85.9
861(16) 0.00403 716.8 128.2
853(16) 0.00386 716.3 195.2
944(17) 0.00364 715.8 284.8
1005(16) 0.00370 715.3 381.9
1130(17) 0.003270 714.9 456.9
1321(19) 0.002673 714.4 477.5
1363(20) 0.002430 713.9 435.6
1109(18) 0.003180 713.4 357.0
959(16) 0.00388 712.9 274.9
877(16) 0.00412 712.5 211.5
811(15) 0.00429 712.0 174.2
832(16) 0.00409 711.5 159.7
848(16) 0.00413 711.0 160.7
849(15) 0.00437 710.5 170.6
873(16) 0.00409 710.0 185.1
846(15) 0.00418 709.6 201.7
882(16) 0.00392 709.1 219.1
937(16) 0.00373 708.6 235.9
927(16) 0.00403 708.1 251.0
962(17) 0.00363 707.6 262.7
950(17) 0.00358 707.2 269.8
934(17) 0.00367 706.7 271.4
910(16) 0.00390 706.2 267.1
896(15) 0.00416 705.7 257.6
898(16) 0.00379 705.2 243.7
859(16) 0.00396 704.8 227.0
886(16) 0.00389 704.3 208.6
846(15) 0.00428 703.8 189.7
830(15) 0.00452 703.3 171.2
800(15) 0.00433 702.8 153.6
827(16) 0.00398 702.3 137.3
779(15) 0.00441 701.9 122.4
768(15) 0.00469 701.4 109.0
757(14) 0.00495 700.9 97.1
806(15) 0.00420 700.4 86.6
759(15) 0.00448 699.9 77.4
776(15) 0.00443 699.5 69.3
747(14) 0.00488 699.0 62.3
743(14) 0.00498 698.5 56.3
756(15) 0.00458 698.0 51.0
754(15) 0.00431 697.5 46.5
729(14) 0.00486 697.0 42.6
708(14) 0.00516 696.6 39.2
724(14) 0.00515 696.1 36.2
698(14) 0.00501 695.6 33.6
719(15) 0.00438 695.1 31.3
740(15) 0.00473 694.6 29.3
744(14) 0.00505 694.2 27.4
679(14) 0.00548 693.7 25.8
733(15) 0.00474 693.2 24.3
704(14) 0.00477 692.7 23.0
698(14) 0.00497 692.2 21.8
719(14) 0.00513 691.8 20.7
703(14) 0.00517 691.3 19.7
691(14) 0.00510 690.8 18.8
712(15) 0.00465 690.3 17.9
716(14) 0.00488 689.8 17.1
715(14) 0.00521 689.3 16.4
681(14) 0.00533 688.9 15.7
677(14) 0.00514 688.4 15.1
702(15) 0.00475 687.9 14.5
691(14) 0.00493 687.4 13.9
743(14) 0.00501 686.9 13.4
731(14) 0.00486 686.5 12.9
678(14) 0.00521 686.0 12.5
724(15) 0.00464 685.5 12.0
707(14) 0.00492 685.0 11.6
712(14) 0.00520 684.5 11.3
709(14) 0.00507 684.0 10.9
706(14) 0.00488 683.6 10.6
686(14) 0.00502 683.1 10.3
688(14) 0.00524 682.6 10.0
681(14) 0.00547 682.1 9.7
692(14) 0.00500 681.6 9.4
664(14) 0.00523 681.2 9.2
679(14) 0.00516 680.7 8.9
703(14) 0.00510 680.2 8.7
680(14) 0.00548 679.7 8.5
658(14) 0.00526 679.2 8.3
678(14) 0.00508 678.7 8.1
680(14) 0.00518 678.3 7.9
659(13) 0.00563 677.8 7.8
695(14) 0.00535 677.3 7.6
725(15) 0.00470 676.8 7.4
703(15) 0.00470 676.3 7.3
662(14) 0.00537 675.9 7.2
664(14) 0.00541 675.4 7.0
695(14) 0.00539 674.9 6.9
692(14) 0.00516 674.4 6.8
700(15) 0.00472 673.9 6.7
711(15) 0.00475 673.5 6.6
723(14) 0.00507 673.0 6.5
683(14) 0.00548 672.5 6.4
708(14) 0.00488 672.0 6.3
646(14) 0.00497 671.5 6.2
637(13) 0.00555 671.0 6.2
717(14) 0.00513 670.6 6.1
685(14) 0.00537 670.1 6.0
666(14) 0.00528 669.6 6.0
675(14) 0.00493 669.1 6.0
679(14) 0.00518 668.6 6.0
699(14) 0.00532 668.2 6.0
693(14) 0.00534 667.7 6.0
674(14) 0.00522 667.2 6.0
709(15) 0.00457 666.7 6.0
666(14) 0.00526 666.2 6.1
658(13) 0.00560 665.7 6.2
665(13) 0.00555 665.3 6.4
675(14) 0.00507 664.8 6.5
691(14) 0.00482 664.3 6.8
668(14) 0.00518 663.8 7.0
684(14) 0.00542 663.3 7.4
715(14) 0.00509 662.9 7.7
706(14) 0.00490 662.4 8.2
649(14) 0.00513 661.9 8.6
647(14) 0.00532 661.4 9.1
693(14) 0.00541 660.9 9.6
639(13) 0.00565 660.4 10.1
692(14) 0.00488 660.0 10.5
668(14) 0.00506 659.5 10.7
642(13) 0.00553 659.0 10.8
628(13) 0.00596 658.5 10.7
695(14) 0.00502 658.0 10.4
668(14) 0.00514 657.6 10.0
647(14) 0.00529 657.1 9.5
679(14) 0.00523 656.6 9.0
689(14) 0.00539 656.1 8.4
656(14) 0.00530 655.6 7.9
734(15) 0.00448 655.2 7.4
644(14) 0.00537 654.7 7.0
649(13) 0.00550 654.2 6.6
677(13) 0.00549 653.7 6.3
666(14) 0.00521 653.2 6.0
644(14) 0.00513 652.7 5.8
665(14) 0.00528 652.3 5.6
660(13) 0.00553 651.8 5.4
646(13) 0.00582 651.3 5.3
681(14) 0.00509 651.0 5.2
668(14) 0.00498 650.7 5.2
665(14) 0.00519 650.4 5.1
622(13) 0.00592 650.1 5.1
642(13) 0.00580 649.7 5.1
645(14) 0.00538 649.4 5.1
617(14) 0.00533 649.1 5.2
644(14) 0.00537 648.8 5.2
641(13) 0.00580 648.5 5.2
652(13) 0.00566 648.2 5.3
694(14) 0.00511 647.9 5.4
699(15) 0.00465 647.5 5.5
670(14) 0.00510 647.2 5.6
691(14) 0.00538 646.9 5.6
706(14) 0.00526 646.6 5.7
690(14) 0.00514 646.3 5.8
685(15) 0.00475 646.0 5.9
659(14) 0.00523 645.6 6.0
671(13) 0.00557 645.3 6.1
664(14) 0.00534 645.0 6.2
712(15) 0.00466 644.7 6.2
642(14) 0.00541 644.4 6.3
685(14) 0.00505 644.1 6.3
659(13) 0.00569 643.8 6.3
648(13) 0.00562 643.4 6.3
654(14) 0.00523 643.1 6.2
689(14) 0.00492 642.8 6.2
683(14) 0.00522 642.5 6.1
667(13) 0.00556 642.2 6.0
702(14) 0.00502 641.9 5.8
674(14) 0.00506 641.5 5.7
647(14) 0.00523 641.2 5.6
633(13) 0.00550 640.9 5.4
686(14) 0.00541 640.6 5.3
625(13) 0.00560 640.3 5.1
660(14) 0.00516 640.0 5.0
666(14) 0.00514 639.7 4.9
682(14) 0.00513 639.3 4.7
624(13) 0.00601 639.0 4.6
627(13) 0.00554 638.7 4.5
677(14) 0.00488 638.4 4.3
674(14) 0.00513 638.1 4.2
689(14) 0.00527 637.8 4.1
685(14) 0.00541 637.4 4.0
669(14) 0.00511 637.1 3.9
673(14) 0.00500 636.8 3.8
673(14) 0.00517 636.5 3.7
669(14) 0.00540 636.2 3.7
617(13) 0.00604 635.9 3.6
624(13) 0.00553 635.6 3.5
623(14) 0.00541 635.2 3.5
646(13) 0.00551 634.9 3.4
650(13) 0.00571 634.6 3.4
642(13) 0.00575 634.3 3.4
617(13) 0.00555 634.0 3.3
635(14) 0.00505 633.7 3.3
637(13) 0.00555 633.3 3.3
693(14) 0.00532 633.0 3.2
613(13) 0.00602 632.7 3.2
632(13) 0.00551 632.4 3.2
643(14) 0.00501 632.1 3.2
634(13) 0.00554 631.8 3.2
662(13) 0.00559 631.4 3.2
650(13) 0.00564 631.1 3.2
659(14) 0.00533 630.8 3.2
654(14) 0.00497 630.5 3.3
641(14) 0.00542 630.2 3.3
642(13) 0.00570 629.9 3.3
634(13) 0.00573 629.6 3.3
625(13) 0.00563 629.2 3.4
599(13) 0.00569 628.9 3.4
619(13) 0.00578 628.6 3.4
643(13) 0.00583 628.3 3.5
645(14) 0.00546 628.0 3.5
635(13) 0.00557 627.7 3.6
626(14) 0.00541 627.3 3.7
641(14) 0.00548 627.0 3.7
627(13) 0.00593 626.7 3.8
648(13) 0.00555 626.4 3.9
654(14) 0.00532 626.1 4.0
637(14) 0.00546 625.8 4.1
643(14) 0.00548 625.5 4.2
633(13) 0.00589 625.1 4.3
597(13) 0.00599 624.8 4.5
631(14) 0.00547 624.5 4.7
627(14) 0.00547 624.2 4.8
644(14) 0.00541 623.9 5.0
639(13) 0.00582 623.6 5.3
617(13) 0.00571 623.2 5.5
647(14) 0.00509 622.9 5.8
640(14) 0.00546 622.6 6.1
640(13) 0.00561 622.3 6.5
623(13) 0.00597 622.0 6.9
648(14) 0.00529 621.7 7.3
631(14) 0.00543 621.4 7.8
692(14) 0.00491 621.0 8.4
654(13) 0.00562 620.7 9.1
639(13) 0.00584 620.4 9.9
640(13) 0.00563 620.1 10.8
673(14) 0.00490 619.8 11.9
642(13) 0.00549 619.5 13.3
649(13) 0.00568 619.1 14.8
649(13) 0.00578 618.8 16.8
670(14) 0.00526 618.5 19.1
636(14) 0.00513 618.2 22.2
669(14) 0.00524 617.9 26.5
640(13) 0.00573 617.6 32.9
679(13) 0.00552 617.2 43.4
683(14) 0.00518 616.9 60.9
719(15) 0.00450 616.6 90.3
748(15) 0.00467 616.3 137.1
756(14) 0.00494 616.0 205.5
857(15) 0.00430 615.7 295.4
916(16) 0.00380 615.4 398.9
991(17) 0.003369 615.0 496.9
1149(18) 0.002991 614.7 558.3
1214(18) 0.003063 614.4 554.6
1195(18) 0.003055 614.1 487.8
974(17) 0.00357 613.8 388.0
855(16) 0.00386 613.5 285.2
755(15) 0.00469 613.1 197.3
757(14) 0.00498 612.8 131.2
700(14) 0.00516 612.5 86.5
689(14) 0.00503 612.2 58.6
639(14) 0.00535 611.9 41.9
660(14) 0.00516 611.6 32.0
619(13) 0.00600 611.3 25.9
650(14) 0.00546 610.9 21.7
613(13) 0.00560 610.6 18.7
603(13) 0.00557 610.3 16.4
621(13) 0.00568 610.0 14.5
616(13) 0.00603 609.7 12.9
625(13) 0.00551 609.4 11.6
627(14) 0.00541 609.0 10.5
618(14) 0.00546 608.7 9.6
631(13) 0.00578 608.4 8.8
609(13) 0.00616 608.1 8.1
625(13) 0.00554 607.8 7.5
603(13) 0.00555 607.5 7.0
631(14) 0.00541 607.2 6.5
640(13) 0.00559 606.8 6.1
620(13) 0.00603 606.5 5.7
668(14) 0.00505 606.2 5.4
633(14) 0.00544 605.9 5.1
580(13) 0.00630 605.6 4.9
594(13) 0.00614 605.3 4.6
612(13) 0.00606 604.9 4.4
639(14) 0.00530 604.6 4.2
616(14) 0.00529 604.3 4.1
612(13) 0.00570 604.0 3.9
633(13) 0.00569 603.7 3.8
601(13) 0.00621 603.4 3.6
589(13) 0.00577 603.0 3.5
583(13) 0.00565 602.7 3.4
611(13) 0.00583 602.4 3.3
633(13) 0.00575 602.1 3.2
629(13) 0.00591 601.8 3.1
638(13) 0.00552 601.5 3.0
634(14) 0.00508 601.2 2.9
572(13) 0.00610 600.8 2.9
622(13) 0.00594 600.5 2.8
649(13) 0.00563 600.2 2.7
632(13) 0.00554 599.9 2.7
599(13) 0.00551 599.6 2.6
571(13) 0.00607 599.3 2.6
606(13) 0.00608 598.9 2.5
589(13) 0.00619 598.6 2.5
601(13) 0.00585 598.3 2.4
599(14) 0.00547 598.0 2.4
610(13) 0.00570 597.7 2.4
613(13) 0.00615 597.4 2.3
587(13) 0.00617 597.1 2.3
587(13) 0.00596 596.7 2.3
563(13) 0.00607 596.4 2.2
591(13) 0.00590 596.1 2.2
578(12) 0.00644 595.8 2.2
631(13) 0.00570 595.5 2.2
630(14) 0.00536 595.2 2.1
560(13) 0.00616 594.8 2.1
596(13) 0.00583 594.5 2.1
617(13) 0.00605 594.2 2.1
587(13) 0.00610 593.9 2.1
619(14) 0.00538 593.6 2.1
570(13) 0.00590 593.3 2.0
577(13) 0.00626 593.0 2.0
556(12) 0.00669 592.6 2.0
603(13) 0.00579 592.3 2.0
617(14) 0.00548 592.0 2.0
603(13) 0.00579 591.7 2.0
636(13) 0.00561 591.4 2.0
558(12) 0.00673 591.1 2.0
612(13) 0.00573 590.7 2.0
596(13) 0.00591 590.4 2.0
594(13) 0.00593 590.1 2.0
569(13) 0.00639 589.8 2.0
618(13) 0.00604 589.5 2.0
612(13) 0.00578 589.2 2.0
609(13) 0.00565 588.8 2.0
611(13) 0.00570 588.5 2.0
585(13) 0.00631 588.2 2.1
618(13) 0.00595 587.9 2.1
614(13) 0.00569 587.6 2.1
589(13) 0.00578 587.3 2.1
591(13) 0.00598 587.0 2.1
584(13) 0.00625 586.6 2.2
614(13) 0.00608 586.3 2.2
611(13) 0.00568 586.0 2.2
575(13) 0.00563 585.7 2.3
571(13) 0.00610 585.4 2.3
574(12) 0.00650 585.1 2.4
590(13) 0.00631 584.7 2.5
595(13) 0.00577 584.4 2.6
572(13) 0.00562 584.1 2.6
575(13) 0.00616 583.8 2.8
598(13) 0.00631 583.5 2.9
623(13) 0.00588 583.2 3.0
573(13) 0.00623 582.9 3.2
572(13) 0.00574 582.5 3.4
589(13) 0.00571 582.2 3.7
566(12) 0.00662 581.9 4.0
600(13) 0.00610 581.6 4.5
599(13) 0.00583 581.3 5.1
565(13) 0.00615 581.0 6.1
585(13) 0.00614 580.6 7.7
604(13) 0.00614 580.3 10.1
572(13) 0.00631 580.0 14.0
605(13) 0.00567 579.7 19.5
610(14) 0.00540 579.4 26.9
608(13) 0.00582 579.1 35.8
604(13) 0.00614 578.8 45.2
618(13) 0.00568 578.4 53.1
606(13) 0.00572 578.1 56.5
636(14) 0.00530 577.8 54.0
596(13) 0.00599 577.5 46.7
596(13) 0.00624 577.2 37.4
595(13) 0.00585 576.9 28.3
565(13) 0.00609 576.5 20.6
595(13) 0.00578 576.2 14.8
581(13) 0.00619 575.9 10.7
600(13) 0.00624 575.6 8.1
577(13) 0.00611 575.3 6.4
610(13) 0.00558 575.0 5.4
606(13) 0.00576 574.6 4.7
586(13) 0.00619 574.3 4.2
559(12) 0.00667 574.0 3.9
564(13) 0.00627 573.7 3.6
576(13) 0.00589 573.4 3.4
569(13) 0.00623 573.1 3.2
564(12) 0.00646 572.8 3.1
594(13) 0.00625 572.4 3.0
596(13) 0.00583 572.1 2.9
568(13) 0.00589 571.8 2.8
570(13) 0.00627 571.5 2.7
568(12) 0.00650 571.2 2.7
602(13) 0.00620 570.9 2.6
571(13) 0.00626 570.5 2.6
602(14) 0.00545 570.2 2.6
570(13) 0.00618 569.9 2.5
574(12) 0.00655 569.6 2.5
573(12) 0.00650 569.3 2.5
529(12) 0.00665 569.0 2.5
567(13) 0.00560 568.7 2.5
551(13) 0.00632 568.3 2.5
574(12) 0.00647 568.0 2.5
587(13) 0.00622 567.7 2.5
554(12) 0.00645 567.5 2.5
585(13) 0.00559 567.3 2.5
583(13) 0.00601 567.0 2.5
606(13) 0.00613 566.8 2.5
581(13) 0.00634 566.6 2.5
599(13) 0.00583 566.4 2.5
576(13) 0.00587 566.1 2.5
597(13) 0.00586 565.9 2.5
584(13) 0.00640 565.7 2.6
549(12) 0.00665 565.5 2.6
544(13) 0.00630 565.2 2.6
555(13) 0.00593 565.0 2.6
554(13) 0.00620 564.8 2.7
569(12) 0.00657 564.5 2.7
579(13) 0.00622 564.3 2.7
584(13) 0.00604 564.1 2.7
608(13) 0.00563 563.9 2.8
530(12) 0.00664 563.6 2.8
581(13) 0.00638 563.4 2.8
587(13) 0.00604 563.2 2.9
571(13) 0.00599 563.0 2.9
538(12) 0.00642 562.7 3.0
582(13) 0.00602 562.5 3.0
543(12) 0.00685 562.3 3.0
536(12) 0.00659 562.0 3.1
570(13) 0.00601 561.8 3.1
580(13) 0.00612 561.6 3.2
583(13) 0.00617 561.4 3.2
587(13) 0.00632 561.1 3.3
553(12) 0.00641 560.9 3.3
545(13) 0.00623 560.7 3.4
556(13) 0.00628 560.5 3.5
572(13) 0.00629 560.2 3.5
569(12) 0.00662 560.0 3.6
593(13) 0.00584 559.8 3.7
587(13) 0.00561 559.5 3.7
546(13) 0.00632 559.3 3.8
573(12) 0.00643 559.1 3.9
570(12) 0.00646 558.9 4.0
582(13) 0.00586 558.6 4.1
558(13) 0.00593 558.4 4.1
567(13) 0.00619 558.2 4.2
530(12) 0.00703 558.0 4.3
550(12) 0.00676 557.7 4.4
558(13) 0.00635 557.5 4.5
569(13) 0.00572 557.3 4.7
568(13) 0.00608 557.0 4.8
568(12) 0.00661 556.8 4.9
569(12) 0.00647 556.6 5.0
574(13) 0.00602 556.4 5.1
548(13) 0.00589 556.1 5.3
543(13) 0.00619 555.9 5.4
557(12) 0.00664 555.7 5.6
552(12) 0.00662 555.5 5.7
565(13) 0.00593 555.2 5.9
558(13) 0.00580 555.0 6.1
568(13) 0.00607 554.8 6.3
571(12) 0.00646 554.5 6.5
606(13) 0.00597 554.3 6.7
568(13) 0.00612 554.1 6.9
531(13) 0.00634 553.9 7.1
552(13) 0.00629 553.6 7.4
562(12) 0.00663 553.4 7.6
549(12) 0.00640 553.2 7.9
559(13) 0.00607 553.0 8.2
585(13) 0.00573 552.7 8.5
595(13) 0.00592 552.5 8.8
557(12) 0.00665 552.3 9.1
588(13) 0.00606 552.0 9.5
591(13) 0.00570 551.8 9.9
557(13) 0.00620 551.6 10.3
570(13) 0.00619 551.4 10.7
567(12) 0.00662 551.1 11.2
548(13) 0.00636 550.9 11.7
560(13) 0.00607 550.7 12.3
580(13) 0.00575 550.5 12.9
547(12) 0.00653 550.2 13.6
563(12) 0.00661 550.0 14.3
591(13) 0.00598 549.8 15.0
574(13) 0.00598 549.5 15.9
558(13) 0.00612 549.3 16.8
535(12) 0.00663 549.1 17.8
529(12) 0.00703 548.9 18.9
564(13) 0.00600 548.6 20.0
544(13) 0.00618 548.4 21.3
581(13) 0.00594 548.2 22.8
558(12) 0.00665 548.0 24.3
568(12) 0.00655 547.7 26.0
532(12) 0.00649 547.5 27.9
568(13) 0.00567 547.3 29.9
585(13) 0.00597 547.0 32.2
556(12) 0.00662 546.8 34.6
561(12) 0.00664 546.6 37.2
534(12) 0.00662 546.4 40.1
584(13) 0.00556 546.1 43.2
583(13) 0.00588 545.9 46.5
599(13) 0.00609 545.7 50.1
606(13) 0.00615 545.5 53.9
622(13) 0.00565 545.2 58.0
593(13) 0.00561 545.0 62.3
630(13) 0.00549 544.8 66.8
604(13) 0.00616 544.5 71.5
623(13) 0.00587 544.3 76.3
590(13) 0.00584 544.1 81.1
641(14) 0.00499 543.9 85.9
648(14) 0.00541 543.6 90.5
643(13) 0.00580 543.4 94.9
629(13) 0.00571 543.2 98.8
619(13) 0.00569 543.0 102.2
655(14) 0.00509 542.7 104.8
639(14) 0.00530 542.5 106.6
608(13) 0.00610 542.3 107.4
647(13) 0.00551 542.0 107.2
642(13) 0.00550 541.8 106.1
632(14) 0.00538 541.6 104.1
624(13) 0.00567 541.4 101.2
615(13) 0.00605 541.1 97.7
647(13) 0.00549 540.9 93.6
606(13) 0.00576 540.7 89.1
608(13) 0.00577 540.5 84.4
581(13) 0.00617 540.2 79.6
574(12) 0.00648 540.0 74.8
607(13) 0.00569 539.8 70.0
596(13) 0.00565 539.5 65.4
579(13) 0.00593 539.3 61.0
580(13) 0.00616 539.1 56.7
590(13) 0.00628 538.9 52.8
567(13) 0.00608 538.6 49.0
546(13) 0.00628 538.4 45.5
572(13) 0.00600 538.2 42.3
582(13) 0.00615 538.0 39.2
572(12) 0.00652 537.7 36.5
542(12) 0.00647 537.5 33.9
566(13) 0.00586 537.3 31.5
575(13) 0.00603 537.0 29.4
578(13) 0.00633 536.8 27.4
554(12) 0.00670 536.6 25.6
541(12) 0.00649 536.4 23.9
577(13) 0.00557 536.1 22.4
545(12) 0.00643 535.9 21.1
545(12) 0.00677 535.7 19.8
558(12) 0.00671 535.5 18.7
570(13) 0.00610 535.2 17.6
561(13) 0.00577 535.0 16.7
537(12) 0.00666 534.8 15.8
519(12) 0.00718 534.5 15.0
560(12) 0.00666 534.3 14.3
546(13) 0.00631 534.1 13.6
535(13) 0.00599 533.9 13.0
519(12) 0.00670 533.6 12.4
546(12) 0.00680 533.4 11.9
530(12) 0.00700 533.2 11.4
547(13) 0.00637 533.0 11.0
545(13) 0.00607 532.7 10.5
508(12) 0.00698 532.5 10.2
538(12) 0.00684 532.3 9.9
527(12) 0.00691 532.0 9.5
543(12) 0.00643 531.8 9.2
524(13) 0.00635 531.6 8.9
511(12) 0.00685 531.4 8.6
518(12) 0.00714 531.1 8.4
535(12) 0.00665 530.9 8.2
563(13) 0.00595 530.7 7.9
544(13) 0.00612 530.5 7.7
554(13) 0.00629 530.2 7.6
563(12) 0.00661 530.0 7.4
549(12) 0.00659 529.8 7.2
541(13) 0.00637 529.5 7.1
552(13) 0.00600 529.3 6.9
537(12) 0.00660 529.1 6.8
577(12) 0.00647 528.9 6.7
528(13) 0.00640 528.6 6.6
499(12) 0.00677 528.4 6.5
519(12) 0.00651 528.2 6.5
541(12) 0.00644 528.0 6.4
525(12) 0.00713 527.7 6.4
527(12) 0.00671 527.5 6.4
519(12) 0.00663 527.3 6.4
520(12) 0.00667 527.1 6.4
513(12) 0.00709 526.8 6.5
539(12) 0.00688 526.6 6.6
529(12) 0.00664 526.4 6.7
540(13) 0.00618 526.1 6.8
535(12) 0.00641 525.9 7.0
554(12) 0.00654 525.7 7.1
485(11) 0.00771 525.5 7.3
556(13) 0.00624 525.2 7.6
552(13) 0.00588 525.0 7.9
507(12) 0.00677 524.8 8.3
512(12) 0.00720 524.6 8.8
537(12) 0.00691 524.3 9.5
521(12) 0.00650 524.1 10.3
504(12) 0.00658 523.9 11.3
530(12) 0.00661 523.6 12.7
534(12) 0.00696 523.4 14.5
546(12) 0.00681 523.2 16.8
540(12) 0.00649 523.0 19.9
530(13) 0.00622 522.7 23.7
543(12) 0.00650 522.5 28.4
551(12) 0.00672 522.3 34.1
563(12) 0.00651 522.1 40.6
558(13) 0.00629 521.8 47.7
576(13) 0.00561 521.6 54.9
550(12) 0.00645 521.4 61.3
601(13) 0.00620 521.1 65.6
563(12) 0.00647 520.9 66.7
604(13) 0.00551 520.7 64.3
542(13) 0.00606 520.5 59.0
577(13) 0.00581 520.2 52.2
548(12) 0.00678 520.0 44.8
532(12) 0.00691 519.8 37.7
547(12) 0.00651 519.6 31.4
557(13) 0.00603 519.3 26.0
543(13) 0.00618 519.1 21.5
601(13) 0.00618 518.9 17.9
534(12) 0.00665 518.6 15.1
559(13) 0.00617 518.4 12.8
531(12) 0.00652 518.2 11.1
529(12) 0.00665 518.0 9.8
506(12) 0.00734 517.7 8.7
506(12) 0.00702 517.5 7.9
526(12) 0.00654 517.3 7.3
526(12) 0.00650 517.1 6.7
539(12) 0.00656 516.8 6.2
510(12) 0.00729 516.6 5.8
523(12) 0.00654 516.4 5.5
525(12) 0.00662 516.1 5.2
506(12) 0.00691 515.9 4.9
536(12) 0.00661 515.7 4.7
491(11) 0.00758 515.5 4.4
499(12) 0.00683 515.2 4.2
500(12) 0.00663 515.0 4.1
554(13) 0.00618 514.8 3.9
503(12) 0.00735 514.6 3.8
494(12) 0.00752 514.3 3.6
506(12) 0.00698 514.1 3.5
523(13) 0.00621 513.9 3.4
494(12) 0.00709 513.6 3.3
521(12) 0.00710 513.4 3.2
505(12) 0.00736 513.2 3.1
542(13) 0.00630 513.0 3.1
553(13) 0.00591 512.7 3.0
518(12) 0.00686 512.5 2.9
554(12) 0.00670 512.3 2.8
526(12) 0.00706 512.1 2.8
516(12) 0.00667 511.8 2.7
518(13) 0.00627 511.6 2.7
521(12) 0.00673 511.4 2.6
490(11) 0.00758 511.1 2.6
499(12) 0.00746 510.9 2.5
483(12) 0.00740 510.7 2.5
521(13) 0.00623 510.5 2.5
534(12) 0.00645 510.2 2.4
539(12) 0.00699 510.0 2.4
521(12) 0.00705 509.8 2.3
537(12) 0.00658 509.6 2.3
537(13) 0.00627 509.3 2.3
474(11) 0.00760 509.1 2.3
500(12) 0.00749 508.9 2.2
506(12) 0.00714 508.6 2.2
533(12) 0.00650 508.4 2.2
497(12) 0.00683 508.2 2.2
527(12) 0.00646 508.0 2.1
496(12) 0.00751 507.7 2.1
522(12) 0.00682 507.5 2.1
495(12) 0.00722 507.3 2.1
518(12) 0.00669 507.1 2.1
520(12) 0.00663 506.8 2.0
516(12) 0.00720 506.6 2.0
521(12) 0.00664 506.4 2.0
523(12) 0.00645 506.1 2.0
543(13) 0.00636 505.9 2.0
546(13) 0.00639 505.7 2.0
517(12) 0.00725 505.5 1.9
506(12) 0.00684 505.2 1.9
514(12) 0.00647 505.0 1.9
497(12) 0.00711 504.8 1.9
510(12) 0.00710 504.6 1.9
500(12) 0.00748 504.3 1.9
515(12) 0.00673 504.1 1.9
482(12) 0.00721 503.9 1.9
514(12) 0.00658 503.6 1.8
494(12) 0.00726 503.4 1.8
476(11) 0.00775 503.2 1.8
505(12) 0.00671 503.0 1.8
495(12) 0.00669 502.7 1.8
515(12) 0.00661 502.5 1.8
487(12) 0.00745 502.3 1.8
491(11) 0.00763 502.1 1.8
497(12) 0.00706 501.8 1.8
498(12) 0.00661 501.6 1.8
491(12) 0.00693 501.4 1.8
496(11) 0.00758 501.1 1.8
482(11) 0.00757 500.9 1.8
479(12) 0.00751 500.7 1.8
501(12) 0.00649 500.5 1.8
501(12) 0.00698 500.2 1.7
497(12) 0.00746 500.0 1.7
502(12) 0.00745 499.8 1.7
508(12) 0.00695 499.6 1.7
499(12) 0.00655 499.3 1.7
499(12) 0.00692 499.1 1.7
500(12) 0.00750 498.9 1.7
523(12) 0.00707 498.6 1.7
503(12) 0.00700 498.4 1.7
498(13) 0.00638 498.2 1.7
485(12) 0.00717 498.0 1.7
539(12) 0.00694 497.7 1.7
504(12) 0.00733 497.5 1.7
472(12) 0.00735 497.3 1.7
485(12) 0.00675 497.1 1.7
507(12) 0.00685 496.8 1.7
521(12) 0.00714 496.6 1.7
472(11) 0.00792 496.4 1.7
513(12) 0.00676 496.1 1.7
481(12) 0.00711 495.9 1.7
503(12) 0.00687 495.7 1.7
520(12) 0.00718 495.5 1.7
494(12) 0.00721 495.2 1.7
509(12) 0.00670 495.0 1.7
486(12) 0.00696 494.8 1.7
487(12) 0.00724 494.6 1.7
473(11) 0.00780 494.3 1.7
498(12) 0.00707 494.1 1.8
503(12) 0.00673 493.9 1.8
493(12) 0.00691 493.6 1.8
470(11) 0.00767 493.4 1.8
488(11) 0.00768 493.2 1.8
487(12) 0.00724 493.0 1.8
479(12) 0.00724 492.7 1.8
506(12) 0.00666 492.5 1.8
465(11) 0.00770 492.3 1.8
490(12) 0.00755 492.1 1.8
501(12) 0.00700 491.8 1.8
490(12) 0.00676 491.6 1.8
494(12) 0.00694 491.4 1.8
496(12) 0.00744 491.1 1.8
478(11) 0.00774 490.9 1.8
513(12) 0.00660 490.7 1.9
503(12) 0.00649 490.5 1.9
483(12) 0.00733 490.2 1.9
506(12) 0.00723 490.0 1.9
502(12) 0.00743 489.8 1.9
524(12) 0.00670 489.7 1.9
483(12) 0.00677 489.6 1.9
491(12) 0.00716 489.5 1.9
547(12) 0.00677 489.4 2.0
529(12) 0.00702 489.2 2.0
512(12) 0.00696 489.1 2.0
469(12) 0.00687 489.0 2.0
484(12) 0.00698 488.9 2.0
491(11) 0.00760 488.8 2.1
504(12) 0.00730 488.6 2.1
493(12) 0.00706 488.5 2.1
509(12) 0.00666 488.4 2.1
513(12) 0.00673 488.3 2.1
464(11) 0.00805 488.2 2.2
470(11) 0.00767 488.1 2.2
484(12) 0.00702 487.9 2.2
473(12) 0.00703 487.8 2.3
483(12) 0.00736 487.7 2.3
532(12) 0.00700 487.6 2.4
495(12) 0.00736 487.5 2.4
498(12) 0.00698 487.3 2.4
495(12) 0.00687 487.2 2.5
460(12) 0.00754 487.1 2.5
449(11) 0.00824 487.0 2.6
489(12) 0.00749 486.9 2.7
496(12) 0.00708 486.7 2.7
492(12) 0.00683 486.6 2.8
498(12) 0.00720 486.5 2.9
478(11) 0.00781 486.4 3.0
475(12) 0.00745 486.3 3.1
493(12) 0.00675 486.1 3.2
502(12) 0.00683 486.0 3.3
510(12) 0.00709 485.9 3.4
493(12) 0.00756 485.8 3.5
507(12) 0.00706 485.7 3.7
469(11) 0.00766 485.5 3.8
477(12) 0.00722 485.4 4.0
470(12) 0.00755 485.3 4.1
459(11) 0.00810 485.2 4.3
509(12) 0.00654 485.1 4.4
507(12) 0.00656 484.9 4.6
500(12) 0.00700 484.8 4.8
518(12) 0.00695 484.7 4.9
508(12) 0.00730 484.6 5.1
529(12) 0.00655 484.5 5.2
522(12) 0.00642 484.4 5.3
486(12) 0.00730 484.2 5.4
503(12) 0.00728 484.1 5.5
500(12) 0.00735 484.0 5.5
475(12) 0.00718 483.9 5.5
503(13) 0.00636 483.8 5.5
498(12) 0.00696 483.6 5.4
498(12) 0.00740 483.5 5.4
474(11) 0.00779 483.4 5.3
495(12) 0.00698 483.3 5.2
518(13) 0.00613 483.2 5.1
494(12) 0.00723 483.0 4.9
485(11) 0.00760 482.9 4.8
463(11) 0.00792 482.8 4.7
482(12) 0.00728 482.7 4.6
482(12) 0.00675 482.6 4.4
517(12) 0.00659 482.4 4.3
475(11) 0.00781 482.3 4.2
482(12) 0.00750 482.2 4.1
471(12) 0.00752 482.1 4.0
497(12) 0.00668 482.0 3.9
482(12) 0.00721 481.8 3.9
505(12) 0.00738 481.7 3.8
479(11) 0.00777 481.6 3.7
509(12) 0.00693 481.5 3.7
522(13) 0.00627 481.4 3.6
507(12) 0.00667 481.3 3.6
505(12) 0.00739 481.1 3.6
518(12) 0.00686 481.0 3.5
470(11) 0.00765 480.9 3.5
481(12) 0.00710 480.8 3.5
475(12) 0.00732 480.7 3.5
472(11) 0.00788 480.5 3.5
478(12) 0.00732 480.4 3.5
499(12) 0.00680 480.3 3.5
491(12) 0.00716 480.2 3.5
494(12) 0.00702 480.1 3.5
464(11) 0.00803 479.9 3.5
480(12) 0.00735 479.8 3.5
492(12) 0.00691 479.7 3.5
493(12) 0.00684 479.6 3.6
499(12) 0.00700 479.5 3.6
486(11) 0.00758 479.3 3.6
481(12) 0.00690 479.2 3.6
499(12) 0.00647 479.1 3.7
483(12) 0.00713 479.0 3.7
482(11) 0.00760 478.9 3.7
472(11) 0.00792 478.7 3.8
478(12) 0.00720 478.6 3.8
503(12) 0.00648 478.5 3.9
463(12) 0.00756 478.4 3.9
485(11) 0.00760 478.3 4.0
486(11) 0.00761 478.1 4.0
501(12) 0.00688 478.0 4.1
499(12) 0.00650 477.9 4.1
460(11) 0.00762 477.8 4.2
469(11) 0.00781 477.7 4.3
481(11) 0.00770 477.6 4.3
462(12) 0.00751 477.4 4.4
478(12) 0.00651 477.3 4.5
491(12) 0.00706 477.2 4.6
478(11) 0.00768 477.1 4.6
495(12) 0.00747 477.0 4.7
481(12) 0.00738 476.8 4.8
499(12) 0.00653 476.7 4.9
493(12) 0.00727 476.6 5.0
489(12) 0.00754 476.5 5.1
483(11) 0.00768 476.4 5.2
464(11) 0.00774 476.2 5.3
478(12) 0.00710 476.1 5.4
482(12) 0.00709 476.0 5.6
498(12) 0.00752 475.9 5.7
467(11) 0.00769 475.8 5.8
494(12) 0.00675 475.6 6.0
494(12) 0.00678 475.5 6.1
467(12) 0.00732 475.4 6.3
439(11) 0.00841 475.3 6.4
462(11) 0.00781 475.2 6.6
484(12) 0.00709 475.0 6.8
476(12) 0.00699 474.9 7.0
474(12) 0.00724 474.8 7.2
461(11) 0.00807 474.7 7.4
491(12) 0.00736 474.6 7.6
509(12) 0.00672 474.5 7.8
493(12) 0.00718 474.3 8.1
488(12) 0.00733 474.2 8.3
432(11) 0.00861 474.1 8.6
463(12) 0.00748 474.0 8.9
473(12) 0.00709 473.9 9.2
479(12) 0.00698 473.7 9.6
477(12) 0.00738 473.6 9.9
472(11) 0.00787 473.5 10.3
457(11) 0.00759 473.4 10.8
470(12) 0.00704 473.3 11.2
468(12) 0.00753 473.1 11.7
513(12) 0.00703 473.0 12.2
505(12) 0.00738 472.9 12.8
489(12) 0.00704 472.8 13.4
480(12) 0.00693 472.7 14.1
476(12) 0.00749 472.5 14.9
484(12) 0.00752 472.4 15.7
520(12) 0.00715 472.3 16.6
499(12) 0.00670 472.2 17.6
479(12) 0.00704 472.1 18.7
496(12) 0.00707 471.9 20.0
497(12) 0.00732 471.8 21.4
494(11) 0.00761 471.7 22.9
475(11) 0.00759 471.6 24.6
533(13) 0.00594 471.5 26.5
517(12) 0.00678 471.3 28.7
469(11) 0.00795 471.2 31.0
509(12) 0.00724 471.1 33.6
502(12) 0.00697 471.0 36.5
501(12) 0.00641 470.9 39.7
491(12) 0.00695 470.8 43.2
519(12) 0.00715 470.6 47.0
514(12) 0.00704 470.5 51.1
502(12) 0.00688 470.4 55.5
517(13) 0.00633 470.3 60.1
546(13) 0.00640 470.2 64.9
526(12) 0.00712 470.0 69.9
520(12) 0.00713 469.9 75.0
530(12) 0.00674 469.8 80.2
532(13) 0.00640 469.7 85.5
553(13) 0.00630 469.6 91.1
549(12) 0.00667 469.4 97.6
563(12) 0.00649 469.3 105.8
582(13) 0.00598 469.2 117.0
603(13) 0.00560 469.1 133.0
630(13) 0.00556 469.0 156.0
603(13) 0.00619 468.8 188.5
690(14) 0.00524 468.7 232.4
719(14) 0.00488 468.6 288.4
774(15) 0.00433 468.5 355.5
807(15) 0.00436 468.4 428.9
936(16) 0.00398 468.2 499.2
1028(17) 0.003412 468.1 555.8
1057(18) 0.003244 468.0 596.1
1051(17) 0.003353 467.9 629.2
1067(17) 0.003302 467.8 666.9
1049(17) 0.00356 467.7 713.1
1184(18) 0.002965 467.5 760.2
1278(19) 0.002664 467.4 789.8
1343(20) 0.002536 467.3 781.2
1247(18) 0.002925 467.2 726.4
1098(17) 0.003385 467.1 636.9
972(17) 0.003492 466.9 533.1
903(16) 0.00373 466.8 431.4
829(15) 0.00424 466.7 341.1
699(14) 0.00526 466.6 266.1
678(14) 0.00548 466.5 206.9
646(14) 0.00543 466.3 161.9
622(14) 0.00526 466.2 128.7
582(13) 0.00612 466.1 104.6
561(12) 0.00655 466.0 87.2
542(12) 0.00689 465.9 74.4
555(13) 0.00608 465.7 64.8
511(13) 0.00640 465.6 57.4
513(12) 0.00680 465.5 51.4
496(12) 0.00747 465.4 46.5
504(12) 0.00731 465.3 42.4
534(12) 0.00654 465.1 38.9
513(13) 0.00617 465.0 35.9
486(12) 0.00733 464.9 33.3
509(12) 0.00727 464.8 31.0
499(12) 0.00734 464.7 29.0
477(12) 0.00714 464.5 27.3
477(12) 0.00688 464.4 25.7
473(12) 0.00738 464.3 24.4
487(11) 0.00772 464.2 23.1
492(12) 0.00747 464.1 22.1
490(12) 0.00723 464.0 21.1
509(12) 0.00662 463.8 20.2
479(12) 0.00735 463.7 19.5
472(11) 0.00784 463.6 18.8
475(12) 0.00747 463.5 18.1
489(12) 0.00714 463.4 17.6
464(12) 0.00742 463.2 17.1
463(12) 0.00737 463.1 16.7
472(11) 0.00791 463.0 16.3
477(12) 0.00748 462.9 15.9
481(12) 0.00709 462.8 15.6
467(12) 0.00722 462.6 15.3
468(12) 0.00753 462.5 15.1
450(11) 0.00823 462.4 14.9
469(12) 0.00752 462.3 14.7
480(12) 0.00714 462.2 14.6
457(11) 0.00757 462.0 14.5
471(11) 0.00765 461.9 14.4
480(11) 0.00779 461.8 14.3
472(12) 0.00733 461.7 14.3
490(12) 0.00679 461.6 14.3
474(12) 0.00740 461.4 14.3
485(12) 0.00755 461.3 14.4
478(11) 0.00768 461.2 14.4
444(11) 0.00767 461.1 14.5
490(12) 0.00668 460.9 14.6
483(12) 0.00703 460.7 14.8
452(11) 0.00803 460.5 14.9
469(11) 0.00799 460.3 15.1
483(12) 0.00688 460.2 15.3
462(12) 0.00717 460.0 15.6
484(12) 0.00714 459.8 15.8
488(12) 0.00750 459.6 16.1
461(11) 0.00811 459.4 16.5
467(12) 0.00720 459.2 16.8
450(12) 0.00738 459.0 17.2
452(11) 0.00766 458.8 17.7
444(11) 0.00828 458.6 18.1
449(11) 0.00830 458.4 18.7
476(12) 0.00730 458.3 19.2
470(12) 0.00691 458.1 19.8
467(12) 0.00735 457.9 20.5
459(11) 0.00810 457.7 21.2
423(11) 0.00880 457.5 22.0
457(11) 0.00766 457.3 22.9
460(12) 0.00708 457.1 23.8
464(11) 0.00761 456.9 24.9
485(11) 0.00771 456.7 26.0
462(11) 0.00797 456.5 27.2
476(12) 0.00754 456.4 28.6
483(12) 0.00688 456.2 30.0
470(12) 0.00717 456.0 31.7
487(11) 0.00764 455.8 33.5
489(12) 0.00750 455.6 35.5
478(12) 0.00732 455.4 37.7
487(12) 0.00707 455.2 40.1
489(12) 0.00720 455.0 42.9
497(12) 0.00747 454.8 46.0
495(12) 0.00725 454.6 49.5
491(12) 0.00713 454.5 53.4
505(12) 0.00678 454.3 57.9
492(12) 0.00702 454.1 63.0
478(11) 0.00774 453.9 68.9
504(12) 0.00702 453.7 75.8
512(12) 0.00668 453.5 83.8
515(12) 0.00678 453.3 93.5
538(12) 0.00644 453.1 105.2
522(12) 0.00718 452.9 119.9
566(13) 0.00629 452.7 138.8
593(13) 0.00575 452.6 163.6
617(13) 0.00568 452.4 196.8
680(14) 0.00531 452.2 241.7
691(14) 0.00535 452.0 301.8
759(15) 0.00462 451.8 381.2
861(16) 0.00399 451.6 483.3
989(17) 0.00353 451.4 610.2
1124(18) 0.003196 451.2 761.5
1316(19) 0.002840 451.0 931.8
1487(21) 0.002369 450.8 1108.1
1707(23) 0.001958 450.7 1266.3
1917(24) 0.001787 450.5 1372.2
1884(23) 0.001943 450.3 1394.8
1808(22) 0.002054 450.1 1326.7
1668(22) 0.002071 449.9 1189.8
1460(21) 0.002244 449.7 1019.2
1255(19) 0.002805 449.5 844.6
1064(17) 0.00352 449.3 684.0
986(16) 0.00379 449.1 545.9
904(16) 0.00388 448.9 432.9
771(15) 0.00431 448.8 343.9
763(15) 0.00454 448.6 276.1
699(14) 0.00534 448.4 225.4
700(14) 0.00522 448.2 188.2
647(13) 0.00553 448.0 160.8
664(14) 0.00484 447.8 140.7
602(13) 0.00591 447.6 125.6
570(12) 0.00655 447.4 114.2
607(13) 0.00608 447.2 105.3
544(12) 0.00657 447.0 98.5
565(13) 0.00582 446.9 93.3
577(13) 0.00606 446.7 89.4
582(13) 0.00636 446.5 86.7
586(13) 0.00617 446.3 85.1
540(12) 0.00642 446.1 84.6
580(13) 0.00561 445.9 85.2
552(13) 0.00634 445.7 87.0
590(13) 0.00628 445.5 90.3
573(13) 0.00631 445.3 95.4
614(13) 0.00557 445.1 102.8
593(13) 0.00557 445.0 113.5
574(13) 0.00608 444.8 128.5
669(13) 0.00560 444.6 149.5
679(14) 0.00514 444.4 178.3
709(14) 0.00488 444.2 216.8
735(15) 0.00474 444.0 266.9
768(15) 0.00467 443.8 329.9
887(15) 0.00423 443.6 405.8
973(17) 0.00359 443.4 492.7
1062(18) 0.003219 443.2 585.0
1136(18) 0.003041 443.1 672.1
1285(19) 0.002755 442.9 737.4
1330(19) 0.002800 442.7 763.5
1367(20) 0.002518 442.5 741.7
1356(20) 0.002416 442.3 678.9
1107(18) 0.003151 442.1 592.1
949(16) 0.00389 441.9 498.3
826(15) 0.00451 441.7 408.8
716(14) 0.00477 441.5 329.8
666(14) 0.00495 441.3 263.6
617(13) 0.00574 441.2 210.3
584(13) 0.00607 441.0 168.7
590(13) 0.00637 440.8 136.9
539(13) 0.00632 440.6 113.0
521(13) 0.00635 440.4 95.2
502(12) 0.00711 440.2 81.7
533(12) 0.00688 440.0 71.3
541(12) 0.00684 439.8 63.2
524(12) 0.00647 439.6 56.6
486(12) 0.00649 439.4 51.2
482(12) 0.00706 439.3 46.6
465(11) 0.00801 439.1 42.7
449(11) 0.00809 438.9 39.3
486(12) 0.00700 438.7 36.4
512(13) 0.00610 438.5 33.8
488(12) 0.00695 438.3 31.4
458(11) 0.00811 438.1 29.4
484(12) 0.00754 437.9 27.6
465(11) 0.00767 437.7 25.9
474(12) 0.00696 437.5 24.4
467(12) 0.00744 437.4 23.1
458(11) 0.00807 437.2 21.8
439(11) 0.00810 437.0 20.7
442(11) 0.00796 436.8 19.7
485(12) 0.00674 436.6 18.8
441(11) 0.00798 436.4 17.9
415(11) 0.00901 436.2 17.1
435(11) 0.00806 436.0 16.4
439(11) 0.00782 435.8 15.7
456(12) 0.00739 435.6 15.1
446(11) 0.00774 435.5 14.5
468(11) 0.00795 435.3 13.9
446(11) 0.00788 435.1 13.4
434(11) 0.00827 434.9 13.0
431(11) 0.00805 434.7 12.5
418(11) 0.00847 434.5 12.1
426(11) 0.00879 434.3 11.7
458(11) 0.00772 434.1 11.3
447(12) 0.00754 433.9 11.0
463(12) 0.00739 433.7 10.7
468(12) 0.00747 433.6 10.4
404(10) 0.00924 433.4 10.1
430(11) 0.00816 433.2 9.8
447(12) 0.00753 433.0 9.5
445(11) 0.00794 432.8 9.3
456(11) 0.00785 432.6 9.0
445(11) 0.00831 432.4 8.8
426(11) 0.00814 432.2 8.6
436(11) 0.00776 432.0 8.4
456(11) 0.00773 431.8 8.2
437(11) 0.00819 431.7 8.0
428(11) 0.00881 431.5 7.9
440(11) 0.00799 431.3 7.7
438(12) 0.00754 431.1 7.5
439(11) 0.00772 430.9 7.4
417(11) 0.00876 430.7 7.2
441(11) 0.00836 430.5 7.1
455(11) 0.00768 430.3 7.0
452(12) 0.00729 430.1 6.8
437(11) 0.00809 429.9 6.7
441(11) 0.00841 429.8 6.6
432(11) 0.00853 429.6 6.5
433(11) 0.00807 429.4 6.4
452(12) 0.00724 429.2 6.3
438(11) 0.00833 429.0 6.2
449(11) 0.00835 428.8 6.1
421(11) 0.00873 428.6 6.0
461(12) 0.00751 428.4 5.9
454(12) 0.00722 428.2 5.8
422(11) 0.00833 428.0 5.7
436(11) 0.00860 427.9 5.7
457(11) 0.00805 427.7 5.6
439(11) 0.00795 427.5 5.5
476(12) 0.00688 427.3 5.5
437(11) 0.00802 427.1 5.4
458(11) 0.00810 426.9 5.3
435(11) 0.00837 426.7 5.3
430(11) 0.00800 426.5 5.2
421(11) 0.00790 426.3 5.2
424(11) 0.00818 426.1 5.1
409(11) 0.00903 426.0 5.0
454(11) 0.00765 425.8 5.0
424(11) 0.00799 425.6 5.0
425(11) 0.00808 425.4 4.9
436(11) 0.00808 425.2 4.9
426(11) 0.00881 425.0 4.8
434(11) 0.00805 424.8 4.8
441(11) 0.00766 424.6 4.7
432(11) 0.00799 424.4 4.7
429(11) 0.00836 424.2 4.7
445(11) 0.00831 424.1 4.6
432(11) 0.00807 423.9 4.6
438(12) 0.00754 423.7 4.6
427(11) 0.00829 423.5 4.5
433(11) 0.00823 423.5 4.5
410(10) 0.00914 423.4 4.5
419(11) 0.00827 423.4 4.5
433(11) 0.00782 423.3 4.5
443(11) 0.00782 423.2 4.4
435(11) 0.00848 423.2 4.4
424(11) 0.00879 423.1 4.4
434(11) 0.00800 423.1 4.4
440(12) 0.00753 423.0 4.4
435(11) 0.00786 422.9 4.3
438(11) 0.00844 422.9 4.3
431(11) 0.00856 422.8 4.3
458(12) 0.00746 422.8 4.3
416(11) 0.00788 422.7 4.3
397(11) 0.00895 422.6 4.3
436(11) 0.00858 422.6 4.3
452(11) 0.00812 422.5 4.3
420(11) 0.00835 422.5 4.3
449(12) 0.00693 422.4 4.3
420(11) 0.00826 422.3 4.3
428(11) 0.00873 422.3 4.3
421(11) 0.00877 422.2 4.3
418(11) 0.00855 422.1 4.3
424(11) 0.00773 422.1 4.3
445(11) 0.00769 422.0 4.3
444(11) 0.00834 422.0 4.3
438(11) 0.00843 421.9 4.3
418(11) 0.00858 421.8 4.3
433(11) 0.00778 421.8 4.4
431(11) 0.00812 421.7 4.4
445(11) 0.00838 421.7 4.4
423(11) 0.00866 421.6 4.4
433(11) 0.00794 421.5 4.4
440(11) 0.00756 421.5 4.5
434(11) 0.00811 421.4 4.5
435(11) 0.00856 421.4 4.6
426(11) 0.00861 421.3 4.6
428(11) 0.00812 421.2 4.7
430(11) 0.00811 421.2 4.7
424(11) 0.00850 421.1 4.8
422(11) 0.00883 421.1 4.9
423(11) 0.00833 421.0 4.9
414(11) 0.00849 420.9 5.1
427(11) 0.00801 420.9 5.2
442(11) 0.00787 420.8 5.3
422(11) 0.00885 420.7 5.5
456(11) 0.00768 420.7 5.7
454(12) 0.00743 420.6 5.9
454(11) 0.00757 420.6 6.3
413(11) 0.00882 420.5 6.7
432(11) 0.00863 420.4 7.3
407(11) 0.00859 420.4 8.4
431(11) 0.00788 420.3 10.5
439(11) 0.00775 420.3 15.2
434(11) 0.00842 420.2 24.6
438(11) 0.00850 420.1 41.5
457(11) 0.00776 420.1 67.3
483(12) 0.00698 420.0 100.0
506(12) 0.00687 420.0 132.2
569(13) 0.00637 419.9 152.2
605(13) 0.00619 419.8 149.8
558(12) 0.00641 419.8 126.5
520(13) 0.00633 419.7 93.4
444(11) 0.00805 419.6 61.7
452(11) 0.00822 419.6 37.7
434(11) 0.00857 419.5 22.6
442(11) 0.00795 419.5 14.4
442(12) 0.00751 419.4 10.5
452(11) 0.00788 419.3 8.6
443(11) 0.00823 419.3 7.8
426(11) 0.00868 419.2 7.3
434(11) 0.00806 419.2 7.0
447(12) 0.00727 419.1 6.7
416(11) 0.00896 419.0 6.6
425(11) 0.00881 419.0 6.4
435(11) 0.00843 418.9 6.3
438(11) 0.00791 418.9 6.3
408(11) 0.00826 418.8 6.2
425(11) 0.00808 418.7 6.2
405(10) 0.00925 418.7 6.2
434(11) 0.00850 418.6 6.2
397(11) 0.00899 418.6 6.2
426(11) 0.00776 418.5 6.2
435(11) 0.00781 418.4 6.3
431(11) 0.00853 418.4 6.3
447(11) 0.00813 418.3 6.4
416(11) 0.00828 418.2 6.4
438(12) 0.00752 418.2 6.5
437(11) 0.00790 418.1 6.6
445(11) 0.00830 418.1 6.7
419(11) 0.00870 418.0 6.7
410(11) 0.00829 417.9 6.8
421(11) 0.00809 417.9 6.9
412(11) 0.00866 417.8 7.0
432(11) 0.00868 417.8 7.1
401(11) 0.00897 417.9 7.3
419(11) 0.00819 417.9 7.4
449(12) 0.00750 417.9 7.5
418(11) 0.00854 417.9 7.7
427(11) 0.00872 417.9 7.8
439(11) 0.00796 418.0 8.0
447(11) 0.00759 418.0 8.1
418(11) 0.00834 418.0 8.3
408(11) 0.00898 418.0 8.5
422(11) 0.00888 418.1 8.7
406(11) 0.00860 418.1 8.9
423(11) 0.00764 418.1 9.1
442(11) 0.00769 418.1 9.4
418(11) 0.00875 418.2 9.6
433(11) 0.00873 418.2 9.9
414(11) 0.00842 418.2 10.2
436(11) 0.00766 418.2 10.5
440(11) 0.00794 418.2 10.8
453(11) 0.00822 418.3 11.1
418(11) 0.00881 418.3 11.5
403(10) 0.00908 418.3 11.9
431(11) 0.00781 418.3 12.3
426(11) 0.00846 418.4 12.8
444(11) 0.00823 418.4 13.3
419(11) 0.00871 418.4 13.8
424(11) 0.00814 418.4 14.4
401(11) 0.00831 418.5 15.0
416(11) 0.00818 418.5 15.7
448(11) 0.00827 418.5 16.4
420(11) 0.00863 418.5 17.2
431(11) 0.00785 418.5 18.1
431(11) 0.00771 418.6 19.1
440(11) 0.00797 418.6 20.2
441(11) 0.00853 418.6 21.5
413(11) 0.00886 418.6 22.8
434(11) 0.00801 418.7 24.4
445(12) 0.00755 418.7 26.2
443(11) 0.00797 418.7 28.3
466(11) 0.00802 418.7 30.8
430(11) 0.00855 418.8 33.8
437(11) 0.00778 418.8 37.5
480(12) 0.00679 418.8 42.1
461(11) 0.00778 418.8 47.8
471(11) 0.00792 418.8 54.9
458(11) 0.00798 418.9 63.9
527(12) 0.00643 418.9 74.9
504(12) 0.00693 418.9 88.3
493(12) 0.00724 418.9 104.3
514(12) 0.00727 419.0 122.9
552(12) 0.00654 419.0 143.7
600(13) 0.00564 419.0 165.7
591(13) 0.00576 419.0 187.1
606(13) 0.00582 419.1 205.3
636(13) 0.00585 419.1 217.0
631(14) 0.00542 419.1 219.9
625(14) 0.00539 419.1 214.1
602(13) 0.00578 419.1 201.7
607(13) 0.00579 419.2 186.3
560(12) 0.00667 419.2 170.6
531(13) 0.00630 419.2 156.7
518(13) 0.00629 419.2 145.7
502(12) 0.00683 419.3 138.2
510(12) 0.00704 419.3 134.3
551(12) 0.00677 419.3 133.9
565(13) 0.00628 419.3 136.9
595(13) 0.00553 419.4 142.9
557(13) 0.00619 419.4 151.4
580(13) 0.00632 419.4 161.9
613(13) 0.00612 419.4 173.8
618(13) 0.00559 419.4 186.2
671(15) 0.00471 419.5 197.8
683(14) 0.00503 419.5 207.4
668(13) 0.00554 419.5 213.7
680(14) 0.00543 419.5 215.5
645(14) 0.00536 419.6 212.5
586(13) 0.00562 419.6 204.9
626(13) 0.00558 419.6 193.6
610(13) 0.00613 419.6 179.8
614(13) 0.00602 419.7 164.7
544(13) 0.00628 419.7 149.4
552(13) 0.00583 419.7 134.5
537(12) 0.00668 419.7 120.5
535(12) 0.00700 419.7 107.7
525(12) 0.00704 419.8 96.2
500(12) 0.00699 419.8 86.0
489(12) 0.00686 419.8 77.0
452(11) 0.00788 419.8 69.2
493(12) 0.00754 419.9 62.6
490(12) 0.00738 419.9 56.8
462(11) 0.00763 419.9 51.9
479(12) 0.00704 419.9 47.8
465(12) 0.00753 420.0 44.3
454(11) 0.00821 420.0 41.3
441(11) 0.00810 420.0 38.8
451(11) 0.00772 420.0 36.6
452(11) 0.00757 420.0 34.8
429(11) 0.00836 420.1 33.3
436(11) 0.00857 420.1 31.9
483(12) 0.00749 420.1 30.8
465(12) 0.00747 420.1 29.8
455(11) 0.00767 420.2 29.0
452(11) 0.00790 420.2 28.3
440(11) 0.00848 420.2 27.7
442(11) 0.00780 420.2 27.2
453(12) 0.00739 420.3 26.8
417(11) 0.00838 420.3 26.5
438(11) 0.00811 420.3 26.3
413(10) 0.00911 420.3 26.2
405(11) 0.00836 420.3 26.1
392(11) 0.00852 420.4 26.1
434(11) 0.00808 420.4 26.2
428(11) 0.00860 420.4 26.4
423(11) 0.00888 420.4 26.6
398(11) 0.00848 420.5 26.9
423(11) 0.00771 420.5 27.3
423(11) 0.00842 420.5 27.7
434(11) 0.00850 420.5 28.3
458(11) 0.00810 420.6 28.9
432(11) 0.00813 420.6 29.6
406(11) 0.00819 420.6 30.3
416(11) 0.00834 420.6 31.2
402(10) 0.00922 420.6 32.1
423(11) 0.00873 420.7 33.1
437(11) 0.00783 420.7 34.2
426(12) 0.00752 420.6 35.3
420(11) 0.00835 420.4 36.5
429(11) 0.00875 420.2 37.7
424(11) 0.00862 420.0 38.9
438(11) 0.00788 419.8 40.1
432(12) 0.00720 419.6 41.2
424(11) 0.00817 419.4 42.2
417(11) 0.00882 419.2 43.2
450(11) 0.00821 418.9 44.1
429(11) 0.00802 418.7 45.0
449(12) 0.00739 418.5 45.9
423(11) 0.00845 418.3 46.8
438(11) 0.00860 418.1 47.7
453(11) 0.00815 417.9 48.8
445(11) 0.00799 417.7 50.0
434(11) 0.00776 417.5 51.4
433(11) 0.00786 417.3 53.1
422(11) 0.00887 417.1 54.9
416(11) 0.00879 416.9 57.1
434(11) 0.00775 416.7 59.6
443(12) 0.00749 416.5 62.4
432(11) 0.00802 416.3 65.6
454(11) 0.00826 416.1 69.2
450(11) 0.00783 415.9 73.1
450(12) 0.00746 415.6 77.3
431(11) 0.00788 415.4 81.8
471(12) 0.00746 415.2 86.5
455(11) 0.00820 415.0 91.4
474(11) 0.00756 414.8 96.5
479(12) 0.00714 414.6 101.9
502(12) 0.00669 414.4 107.8
520(12) 0.00687 414.2 114.5
467(11) 0.00806 414.0 122.2
492(12) 0.00669 413.8 131.2
474(12) 0.00702 413.6 141.8
505(12) 0.00675 413.4 154.2
518(12) 0.00716 413.2 168.8
501(12) 0.00744 413.0 185.7
543(13) 0.00632 412.8 205.3
582(13) 0.00565 412.6 227.9
564(13) 0.00607 412.3 253.7
599(13) 0.00611 412.1 283.0
628(13) 0.00591 411.9 316.0
634(14) 0.00542 411.7 352.8
696(15) 0.00467 411.5 393.3
765(15) 0.00446 411.3 437.2
819(15) 0.00446 411.1 484.0
903(16) 0.00414 410.9 532.5
953(17) 0.00362 410.7 581.2
992(17) 0.003295 410.5 627.7
1020(17) 0.003406 410.3 669.1
1012(17) 0.00366 410.1 702.0
1013(17) 0.00366 409.9 723.3
1002(17) 0.003479 409.7 730.9
988(18) 0.003250 409.5 724.0
963(17) 0.00365 409.3 703.5
909(16) 0.00409 409.0 671.9
894(16) 0.00413 408.8 632.3
870(16) 0.00402 408.6 588.0
799(15) 0.00423 408.4 541.8
803(15) 0.00443 408.2 495.9
771(14) 0.00484 408.0 451.9
757(14) 0.00480 407.8 410.9
702(14) 0.00497 407.6 373.2
693(14) 0.00484 407.4 339.0
689(14) 0.00495 407.2 308.5
687(14) 0.00542 407.0 281.4
634(13) 0.00565 406.8 257.5
619(13) 0.00558 406.6 236.5
595(13) 0.00572 406.4 218.1
617(13) 0.00557 406.2 202.0
596(13) 0.00625 406.0 187.9
536(12) 0.00659 405.7 175.5
551(13) 0.00615 405.5 164.5
580(13) 0.00572 405.3 154.7
556(13) 0.00620 405.1 145.9
541(12) 0.00692 404.9 137.9
513(12) 0.00693 404.7 130.7
522(12) 0.00648 404.5 124.0
508(12) 0.00688 404.3 117.8
517(12) 0.00691 404.1 112.0
525(12) 0.00712 403.9 106.6
506(12) 0.00691 403.7 101.5
512(12) 0.00656 403.5 96.8
486(12) 0.00732 403.3 92.3
467(11) 0.00793 403.1 88.1
490(11) 0.00756 402.9 84.2
468(11) 0.00759 402.7 80.5
478(12) 0.00700 402.4 77.1
481(12) 0.00723 402.2 73.9
442(11) 0.00838 402.0 70.9
499(12) 0.00744 401.8 68.2
477(12) 0.00724 401.6 65.6
481(12) 0.00674 401.4 63.3
462(12) 0.00753 401.2 61.2
490(12) 0.00749 401.0 59.3
457(11) 0.00816 400.8 57.6
454(11) 0.00800 400.6 56.2
471(12) 0.00715 400.4 55.0
445(11) 0.00814 400.2 54.1
469(11) 0.00790 400.0 53.4
481(11) 0.00769 399.8 53.0
433(11) 0.00816 399.6 52.9
485(12) 0.00668 399.4 53.2
489(12) 0.00712 399.1 53.8
452(11) 0.00827 398.9 54.8
437(11) 0.00829 398.7 56.2
435(11) 0.00783 398.5 58.2
455(12) 0.00718 398.3 60.6
466(12) 0.00751 398.1 63.5
494(11) 0.00758 397.9 66.9
472(11) 0.00769 397.7 70.9
460(11) 0.00763 397.5 75.3
481(12) 0.00680 397.3 80.1
462(12) 0.00736 397.1 85.2
482(11) 0.00771 396.9 90.3
480(11) 0.00767 396.7 95.2
502(12) 0.00682 396.5 99.5
516(13) 0.00639 396.3 102.7
544(13) 0.00619 396.1 104.5
531(12) 0.00699 395.8 104.5
534(12) 0.00677 395.6 102.8
504(12) 0.00714 395.4 99.4
511(12) 0.00669 395.2 94.6
514(12) 0.00681 395.0 88.9
487(11) 0.00757 394.8 82.7
452(11) 0.00797 394.6 76.3
466(12) 0.00734 394.4 70.0
443(11) 0.00767 394.2 64.0
430(11) 0.00827 394.0 58.4
433(11) 0.00856 393.8 53.2
440(11) 0.00780 393.6 48.5
414(11) 0.00841 393.4 44.2
455(11) 0.00764 393.2 40.5
425(11) 0.00864 393.0 37.1
417(11) 0.00888 392.8 34.2
428(11) 0.00775 392.5 31.6
402(11) 0.00824 392.3 29.3
417(11) 0.00819 392.1 27.3
398(10) 0.00918 391.9 25.5
411(10) 0.00918 391.7 23.9
409(11) 0.00837 391.5 22.6
421(11) 0.00757 391.3 21.3
402(11) 0.00874 391.1 20.2
408(11) 0.00900 390.9 19.3
383(10) 0.00981 390.7 18.4
371(10) 0.00927 390.5 17.6
378(11) 0.00876 390.3 16.8
414(11) 0.00809 390.1 16.2
376(10) 0.00997 389.9 15.5
404(10) 0.00918 389.7 15.0
372(10) 0.00951 389.5 14.4
414(11) 0.00757 389.2 13.9
402(11) 0.00843 389.0 13.5
394(10) 0.00943 388.8 13.0
372(10) 0.00982 388.6 12.6
408(11) 0.00833 388.4 12.2
419(11) 0.00780 388.2 11.9
430(11) 0.00825 388.0 11.5
410(10) 0.00913 387.8 11.2
383(10) 0.00950 387.6 10.9
409(11) 0.00855 387.4 10.6
412(11) 0.00819 387.2 10.3
416(11) 0.00824 387.0 10.1
375(10) 0.00990 386.8 9.8
380(10) 0.00945 386.6 9.6
406(11) 0.00833 386.4 9.3
414(11) 0.00792 386.2 9.1
428(11) 0.00803 385.9 8.9
411(11) 0.00906 385.7 8.7
379(10) 0.00972 385.5 8.5
401(11) 0.00853 385.3 8.3
376(11) 0.00888 385.1 8.1
382(11) 0.00902 384.9 8.0
381(10) 0.00968 384.7 7.8
394(11) 0.00897 384.5 7.7
383(11) 0.00871 384.3 7.5
388(11) 0.00880 384.1 7.3
393(10) 0.00911 383.9 7.2
412(10) 0.00908 383.7 7.1
412(11) 0.00850 383.5 6.9
388(11) 0.00896 383.3 6.8
379(10) 0.00935 383.1 6.7
405(11) 0.00881 382.9 6.6
385(10) 0.00959 382.6 6.4
399(11) 0.00866 382.4 6.3
392(11) 0.00842 382.2 6.2
385(11) 0.00884 382.0 6.1
387(10) 0.00933 381.8 6.0
393(10) 0.00949 381.6 5.9
383(11) 0.00894 381.4 5.8
399(11) 0.00800 381.2 5.7
383(10) 0.00933 381.0 5.6
375(10) 0.00992 380.8 5.5
351(10) 0.01046 380.6 5.5
392(11) 0.00868 380.4 5.4
379(11) 0.00862 380.2 5.3
403(11) 0.00861 380.0 5.2
386(10) 0.00975 379.8 5.1
402(10) 0.00913 379.6 5.1
382(10) 0.00918 379.3 5.0
379(11) 0.00859 379.1 4.9
370(10) 0.00975 378.9 4.8
402(10) 0.00922 378.7 4.8
396(10) 0.00937 378.5 4.7
385(11) 0.00896 378.3 4.6
376(11) 0.00872 378.1 4.6
369(10) 0.00952 377.9 4.5
399(10) 0.00933 377.7 4.5
362(10) 0.01019 377.5 4.4
402(11) 0.00873 377.3 4.3
422(11) 0.00760 377.1 4.3
447(12) 0.00733 376.9 4.2
403(10) 0.00939 376.7 4.2
393(10) 0.00908 376.5 4.1
372(10) 0.00926 376.3 4.1
390(11) 0.00848 376.0 4.0
384(11) 0.00885 375.8 4.0
392(10) 0.00949 375.6 3.9
403(11) 0.00890 375.4 3.9
371(10) 0.00918 375.2 3.8
360(10) 0.00927 375.0 3.8
389(11) 0.00893 374.8 3.7
357(10) 0.01041 374.6 3.7
389(10) 0.00924 374.4 3.7
369(10) 0.00936 374.2 3.6
354(10) 0.00977 374.0 3.6
402(11) 0.00870 373.8 3.5
380(10) 0.00969 373.6 3.5
371(10) 0.00923 373.4 3.5
373(10) 0.00934 373.2 3.4
383(10) 0.00921 373.0 3.4
393(10) 0.00915 372.8 3.3
372(10) 0.00989 372.5 3.3
347(10) 0.00964 372.3 3.3
391(11) 0.00847 372.1 3.2
415(11) 0.00813 371.9 3.2
385(10) 0.00927 371.7 3.2
404(10) 0.00929 371.5 3.1
415(11) 0.00844 371.3 3.1
382(11) 0.00868 371.1 3.1
352(10) 0.00998 370.9 3.1
352(10) 0.01049 370.7 3.0
399(10) 0.00938 370.5 3.0
364(10) 0.00990 370.3 3.0
357(10) 0.00908 370.1 2.9
378(10) 0.00929 369.9 2.9
368(10) 0.01005 369.7 2.9
363(10) 0.01031 369.5 2.9
356(10) 0.00982 369.2 2.8
379(11) 0.00845 369.0 2.8
367(10) 0.00967 368.8 2.8
362(10) 0.01037 368.6 2.8
397(10) 0.00931 368.4 2.7
401(11) 0.00876 368.2 2.7
384(11) 0.00871 368.0 2.7
371(10) 0.00920 367.8 2.7
372(10) 0.00997 367.6 2.6
387(10) 0.00953 367.4 2.6
405(11) 0.00871 367.2 2.6
388(11) 0.00886 367.0 2.6
388(10) 0.00932 366.8 2.6
377(10) 0.00978 366.6 2.5
378(10) 0.00969 366.4 2.5
365(10) 0.00968 366.2 2.5
376(11) 0.00876 365.9 2.5
375(10) 0.00933 365.9 2.5
377(10) 0.00983 365.8 2.4
371(10) 0.00977 365.8 2.4
372(10) 0.00932 365.7 2.4
378(10) 0.00924 365.6 2.4
345(10) 0.01029 365.6 2.4
370(10) 0.01016 365.5 2.3
402(11) 0.00887 365.5 2.3
383(11) 0.00887 365.4 2.3
356(10) 0.00967 365.4 2.3
354(10) 0.01009 365.3 2.3
366(10) 0.01030 365.3 2.3
380(11) 0.00906 365.2 2.3
393(11) 0.00866 365.1 2.2
377(10) 0.00941 365.1 2.2
376(10) 0.00959 365.0 2.2
371(10) 0.01011 365.0 2.2
409(11) 0.00866 364.9 2.2
367(10) 0.00933 364.9 2.2
349(10) 0.01036 364.8 2.1
374(10) 0.00962 364.8 2.1
369(10) 0.01013 364.7 2.1
364(10) 0.00948 364.6 2.1
374(11) 0.00886 364.6 2.1
356(10) 0.01006 364.5 2.1
394(10) 0.00920 364.5 2.1
361(10) 0.01025 364.4 2.1
378(10) 0.00921 364.4 2.0
365(11) 0.00882 364.3 2.0
370(10) 0.00926 364.3 2.0
378(10) 0.00957 364.2 2.0
376(10) 0.01002 364.1 2.0
384(10) 0.00915 364.1 2.0
348(10) 0.00965 364.0 2.0
372(10) 0.00927 364.0 2.0
359(10) 0.01023 363.9 2.0
361(10) 0.01029 363.9 1.9
364(10) 0.00970 363.8 1.9
380(11) 0.00851 363.8 1.9
380(10) 0.00919 363.7 1.9
381(10) 0.00959 363.6 1.9
380(10) 0.00977 363.6 1.9
396(11) 0.00858 363.5 1.9
384(11) 0.00826 363.5 1.9
378(10) 0.00932 363.4 1.9
381(10) 0.00983 363.4 1.9
367(10) 0.00983 363.3 1.9
372(10) 0.00936 363.3 1.8
378(11) 0.00865 363.2 1.8
380(11) 0.00902 363.1 1.8
386(10) 0.00962 363.1 1.8
400(11) 0.00902 363.0 1.8
362(10) 0.00962 363.0 1.8
374(11) 0.00906 362.9 1.8
367(10) 0.00961 362.9 1.8
396(10) 0.00941 362.8 1.8
360(10) 0.00976 362.7 1.8
377(11) 0.00905 362.7 1.8
377(11) 0.00865 362.6 1.8
369(10) 0.00924 362.6 1.8
341(10) 0.01085 362.5 1.8
363(10) 0.00976 362.5 1.8
368(10) 0.00932 362.4 1.7
374(11) 0.00894 362.4 1.7
344(10) 0.01055 362.3 1.7
342(10) 0.01090 362.2 1.7
338(10) 0.01043 362.2 1.7
368(10) 0.00936 362.1 1.7
388(10) 0.00918 362.1 1.7
391(10) 0.00934 362.0 1.7
368(10) 0.01007 362.0 1.7
382(11) 0.00900 361.9 1.7
382(11) 0.00894 361.9 1.7
383(11) 0.00905 361.8 1.7
355(10) 0.01034 361.7 1.7
364(10) 0.01032 361.7 1.7
381(10) 0.00910 361.6 1.7
364(10) 0.00934 361.6 1.7
367(10) 0.00925 361.5 1.7
354(10) 0.01031 361.5 1.7
350(10) 0.01062 361.4 1.7
341(10) 0.01026 361.4 1.7
364(11) 0.00853 361.3 1.7
346(10) 0.00996 361.2 1.7
362(10) 0.01035 361.2 1.7
366(10) 0.01011 361.1 1.7
373(10) 0.00909 361.1 1.7
370(11) 0.00850 361.0 1.7
354(10) 0.00987 361.0 1.7
353(10) 0.01057 360.9 1.7
367(10) 0.00999 360.9 1.7
367(10) 0.00951 360.8 1.7
364(11) 0.00899 360.7 1.7
375(11) 0.00897 360.7 1.7
372(10) 0.00995 360.6 1.7
366(10) 0.01013 360.6 1.7
354(10) 0.01014 360.5 1.7
388(11) 0.00855 360.5 1.7
366(10) 0.00969 360.4 1.7
353(10) 0.01066 360.4 1.7
360(10) 0.01003 360.3 1.7
363(10) 0.00963 360.2 1.7
388(11) 0.00838 360.2 1.7
363(10) 0.00944 360.1 1.7
368(10) 0.01001 360.1 1.7
368(10) 0.00966 360.0 1.7
397(11) 0.00834 360.0 1.8
346(10) 0.01032 359.9 1.8
363(10) 0.00987 359.9 1.8
362(10) 0.01027 359.8 1.8
358(10) 0.01020 359.7 1.8
366(10) 0.00940 359.7 1.8
365(10) 0.00962 359.6 1.8
364(10) 0.01002 359.6 1.8
358(10) 0.01041 359.5 1.8
361(10) 0.00992 359.5 1.9
379(11) 0.00899 359.4 1.9
383(11) 0.00888 359.4 1.9
366(10) 0.00974 359.3 1.9
381(10) 0.00981 359.2 1.9
348(10) 0.01024 359.2 2.0
349(10) 0.00997 359.1 2.0
373(10) 0.00950 359.1 2.0
356(10) 0.01007 359.0 2.0
362(10) 0.01030 359.0 2.1
384(10) 0.00922 358.9 2.1
373(10) 0.00908 358.9 2.1
339(10) 0.01053 358.8 2.2
367(10) 0.00989 358.7 2.2
369(10) 0.01007 358.7 2.3
360(10) 0.00982 358.6 2.3
392(11) 0.00801 358.6 2.4
375(10) 0.00953 358.5 2.4
390(10) 0.00959 358.5 2.5
364(10) 0.01028 358.4 2.6
353(10) 0.00945 358.4 2.7
356(11) 0.00894 358.3 2.8
347(10) 0.01036 358.2 3.0
380(10) 0.00975 358.2 3.2
366(10) 0.01003 358.1 3.5
397(11) 0.00865 358.1 4.0
370(11) 0.00877 358.0 4.6
369(10) 0.00911 358.0 5.6
366(10) 0.01018 357.9 7.0
377(10) 0.00975 357.9 8.9
367(10) 0.00927 357.8 11.2
363(11) 0.00900 357.7 13.7
405(11) 0.00841 357.7 15.9
379(10) 0.00979 357.6 17.2
411(11) 0.00886 357.6 17.1
367(10) 0.00956 357.5 15.6
367(10) 0.00928 357.5 13.4
381(11) 0.00897 357.4 11.1
358(10) 0.01042 357.4 9.1
368(10) 0.00991 357.3 7.5
378(10) 0.00917 357.2 6.4
383(11) 0.00851 357.2 5.6
379(10) 0.00914 357.1 5.2
349(10) 0.01073 357.1 5.0
329(10) 0.01065 357.0 4.9
346(10) 0.01003 357.0 4.9
344(10) 0.01010 356.9 5.0
346(10) 0.01020 356.9 5.1
396(10) 0.00947 356.8 5.2
372(10) 0.00928 356.7 5.3
360(10) 0.00947 356.7 5.5
356(10) 0.00963 356.6 5.7
371(10) 0.00956 356.6 5.9
370(10) 0.01002 356.5 6.1
377(10) 0.00929 356.5 6.3
343(10) 0.00973 356.4 6.5
342(10) 0.01038 356.4 6.8
399(11) 0.00880 356.3 7.1
369(10) 0.01017 356.2 7.3
396(11) 0.00899 356.2 7.6
390(11) 0.00878 356.1 7.8
379(11) 0.00903 356.1 8.0
369(10) 0.01009 356.0 8.3
389(10) 0.00959 356.0 8.5
395(11) 0.00893 355.9 8.7
367(10) 0.00908 355.9 8.8
350(10) 0.01006 355.8 9.0
362(10) 0.01013 355.7 9.1
383(10) 0.00969 355.7 9.2
380(11) 0.00887 355.6 9.2
368(11) 0.00905 355.6 9.2
388(11) 0.00901 355.5 9.1
378(10) 0.00983 355.5 9.1
403(10) 0.00912 355.4 8.9
363(10) 0.00958 355.4 8.8
374(11) 0.00852 355.3 8.6
363(10) 0.00979 355.2 8.4
414(11) 0.00897 355.2 8.2
378(10) 0.00960 355.1 8.0
345(10) 0.01028 355.1 7.7
372(11) 0.00843 355.0 7.5
354(10) 0.00957 355.0 7.2
367(10) 0.01019 354.9 7.0
361(10) 0.01014 354.9 6.7
354(10) 0.00973 354.8 6.5
354(10) 0.00964 354.7 6.3
356(10) 0.01001 354.7 6.0
358(10) 0.01030 354.6 5.8
383(10) 0.00932 354.6 5.6
347(10) 0.01006 354.5 5.4
373(11) 0.00902 354.5 5.2
355(10) 0.01008 354.4 5.0
354(10) 0.01058 354.4 4.9
362(10) 0.00987 354.3 4.7
380(11) 0.00878 354.2 4.6
364(10) 0.00917 354.2 4.5
346(10) 0.00998 354.1 4.3
354(10) 0.01067 354.1 4.2
363(10) 0.00944 354.0 4.1
327(10) 0.01072 354.0 4.0
334(10) 0.01006 353.9 3.9
345(10) 0.01019 353.9 3.9
348(10) 0.01074 353.8 3.8
344(10) 0.01006 353.7 3.8
349(10) 0.00946 353.7 3.7
363(10) 0.00950 353.6 3.7
367(10) 0.00997 353.6 3.7
349(10) 0.01067 353.5 3.6
368(10) 0.00936 353.5 3.6
359(10) 0.00958 353.4 3.6
363(10) 0.00968 353.4 3.7
381(10) 0.00944 353.3 3.7
354(10) 0.01051 353.2 3.7
362(10) 0.00952 353.2 3.9
365(11) 0.00882 353.1 3.9
364(10) 0.00942 353.1 4.1
356(10) 0.01029 353.0 4.2
336(9) 0.01111 353.0 4.3
356(10) 0.00970 352.9 4.5
347(10) 0.00935 352.9 4.8
364(10) 0.00956 352.8 5.1
352(10) 0.01053 352.7 5.5
357(10) 0.01051 352.7 6.0
350(10) 0.01025 352.6 6.7
357(10) 0.00927 352.6 7.5
384(11) 0.00881 352.5 8.5
361(10) 0.01024 352.5 9.7
355(10) 0.01055 352.4 11.1
345(10) 0.01038 352.4 12.9
365(11) 0.00888 352.3 14.8
340(10) 0.01072 352.2 17.0
362(10) 0.01042 352.2 19.2
332(10) 0.01090 352.1 21.4
358(10) 0.00942 352.1 23.2
369(11) 0.00894 352.0 24.2
387(11) 0.00886 352.0 24.3
416(11) 0.00895 351.9 23.5
366(10) 0.01008 351.9 21.9
362(10) 0.00964 351.8 19.8
356(10) 0.00953 351.7 17.6
365(10) 0.00949 351.7 15.4
333(9) 0.01123 351.6 13.3
335(10) 0.01066 351.6 11.5
351(10) 0.00945 351.5 10.0
335(10) 0.01026 351.5 8.7
351(10) 0.01017 351.4 7.6
354(10) 0.01055 351.3 6.8
357(10) 0.01020 351.3 6.1
335(10) 0.01044 351.2 5.6
333(10) 0.01065 351.2 5.1
368(10) 0.00979 351.1 4.8
352(10) 0.01056 351.1 4.5
338(10) 0.01016 351.0 4.3
348(10) 0.00968 350.9 4.1
324(10) 0.01087 350.9 4.0
335(10) 0.01090 350.8 3.8
371(10) 0.01016 350.8 3.7
360(10) 0.00952 350.7 3.6
344(10) 0.00987 350.7 3.6
350(10) 0.01004 350.6 3.5
359(10) 0.01018 350.5 3.5
383(10) 0.00982 350.5 3.4
374(10) 0.00920 350.4 3.4
342(10) 0.00997 350.4 3.4
370(10) 0.00932 350.3 3.4
335(10) 0.01100 350.2 3.4
362(10) 0.01038 350.2 3.4
339(10) 0.01063 350.1 3.5
342(10) 0.00993 350.1 3.5
318(10) 0.01099 350.0 3.5
352(10) 0.01039 350.0 3.6
349(10) 0.01064 349.9 3.6
341(10) 0.01017 349.8 3.7
350(10) 0.00911 349.8 3.8
341(10) 0.01002 349.7 3.9
352(10) 0.01049 349.7 4.0
335(10) 0.01106 349.6 4.1
333(10) 0.01040 349.6 4.3
371(11) 0.00886 349.5 4.4
332(10) 0.01047 349.4 4.6
325(9) 0.01150 349.4 4.8
344(10) 0.01072 349.3 5.0
341(10) 0.01044 349.3 5.3
351(10) 0.00937 349.2 5.6
333(10) 0.01057 349.1 5.9
360(10) 0.01032 349.1 6.3
330(9) 0.01109 349.0 6.7
343(10) 0.01012 349.0 7.2
385(11) 0.00868 348.9 7.7
378(10) 0.00932 348.9 8.2
334(10) 0.01107 348.8 8.8
369(10) 0.00980 348.7 9.4
364(10) 0.00973 348.7 10.1
379(11) 0.00901 348.6 10.7
357(10) 0.00995 348.6 11.4
362(10) 0.01024 348.5 12.1
371(10) 0.00947 348.5 12.8
344(10) 0.01011 348.4 13.3
345(10) 0.01026 348.3 13.8
377(10) 0.00929 348.3 14.2
374(10) 0.01004 348.2 14.4
358(10) 0.00994 348.2 14.5
361(10) 0.00944 348.1 14.3
354(10) 0.00979 348.0 14.1
350(10) 0.01028 348.0 13.7
352(10) 0.01059 347.9 13.1
375(10) 0.00937 347.9 12.6
348(10) 0.01016 347.8 12.0
357(10) 0.00974 347.8 11.3
374(10) 0.00963 347.7 10.7
352(10) 0.01072 347.6 10.1
331(10) 0.01084 347.6 9.6
363(10) 0.00912 347.5 9.1
358(10) 0.00973 347.5 8.6
349(10) 0.01076 347.4 8.2
347(10) 0.01060 347.4 7.8
360(10) 0.00956 347.3 7.5
336(10) 0.00990 347.2 7.2
344(10) 0.00993 347.2 7.0
359(10) 0.01001 347.1 6.8
356(10) 0.01056 347.1 6.7
358(10) 0.00979 347.0 6.5
368(11) 0.00881 347.0 6.5
370(10) 0.00945 346.9 6.4
333(10) 0.01096 346.8 6.4
332(9) 0.01135 346.8 6.4
338(10) 0.01059 346.7 6.4
358(11) 0.00892 346.7 6.5
349(10) 0.01013 346.6 6.6
353(10) 0.01056 346.5 6.7
353(10) 0.01044 346.5 6.8
356(10) 0.00984 346.4 7.0
342(10) 0.00960 346.4 7.1
324(10) 0.01046 346.3 7.3
317(9) 0.01181 346.3 7.5
329(9) 0.01114 346.2 7.7
320(10) 0.01089 346.1 7.9
347(10) 0.00947 346.1 8.2
336(10) 0.01035 346.0 8.4
331(9) 0.01124 346.0 8.7
347(10) 0.01032 345.9 8.9
319(9) 0.01116 345.9 9.2
336(10) 0.01028 345.8 9.4
340(10) 0.01032 345.7 9.6
347(10) 0.01071 345.7 9.8
356(10) 0.01004 345.6 10.0
360(10) 0.00931 345.6 10.1
340(10) 0.01045 345.5 10.2
354(10) 0.00987 345.4 10.2
340(10) 0.01099 345.4 10.2
372(10) 0.00933 345.3 10.2
370(10) 0.00925 345.3 10.1
376(10) 0.00914 345.2 10.0
346(10) 0.01060 345.2 9.9
350(10) 0.01057 345.1 9.8
331(10) 0.01007 345.0 9.6
328(10) 0.01012 345.0 9.4
333(10) 0.01050 344.9 9.3
373(10) 0.00946 344.9 9.1
329(9) 0.01126 344.8 8.9
319(9) 0.01108 344.8 8.8
350(10) 0.00925 344.7 8.6
322(10) 0.01076 344.6 8.5
337(10) 0.01063 344.6 8.4
350(10) 0.01053 344.5 8.3
353(10) 0.01021 344.5 8.2
340(10) 0.00985 344.4 8.1
336(10) 0.01017 344.3 8.0
358(10) 0.01001 344.3 8.0
342(10) 0.01093 344.2 8.0
327(10) 0.01071 344.2 8.0
346(10) 0.00949 344.1 8.0
346(10) 0.01004 344.1 8.0
371(10) 0.00992 344.0 8.0
369(10) 0.00999 343.9 8.1
330(10) 0.01054 343.9 8.2
343(10) 0.00936 343.8 8.3
340(10) 0.01045 343.8 8.4
338(10) 0.01089 343.7 8.5
331(10) 0.01095 343.7 8.7
350(10) 0.00964 343.6 8.9
348(10) 0.00939 343.5 9.1
342(10) 0.01016 343.5 9.3
345(10) 0.01080 343.4 9.5
346(10) 0.01075 343.4 9.8
367(10) 0.00921 343.3 10.1
349(10) 0.00957 343.3 10.4
363(10) 0.00984 343.2 10.7
340(10) 0.01097 343.1 11.1
380(10) 0.00946 343.1 11.6
378(10) 0.00922 343.0 12.0
358(10) 0.00944 343.0 12.5
350(10) 0.00996 342.9 13.1
339(10) 0.01099 342.8 13.7
375(10) 0.00950 342.8 14.3
353(10) 0.00979 342.7 15.0
330(10) 0.01056 342.7 15.8
341(10) 0.01027 342.6 16.6
338(10) 0.01098 342.6 17.4
307(9) 0.01189 342.5 18.4
379(11) 0.00876 342.4 19.4
374(11) 0.00898 342.4 20.5
364(10) 0.00976 342.3 21.7
378(10) 0.00987 342.3 23.0
364(10) 0.00981 342.2 24.5
366(10) 0.00950 342.2 26.1
347(10) 0.00974 342.1 27.9
347(10) 0.01041 342.0 29.9
379(10) 0.00985 342.0 32.2
378(11) 0.00873 341.9 34.7
362(10) 0.00940 341.9 37.4
383(11) 0.00906 341.8 40.3
376(10) 0.00976 341.7 43.6
372(10) 0.00996 341.7 47.1
413(11) 0.00830 341.6 50.9
370(11) 0.00894 341.6 55.0
404(11) 0.00834 341.5 59.3
384(10) 0.00953 341.5 63.9
420(11) 0.00887 341.4 68.7
400(11) 0.00882 341.3 73.7
441(12) 0.00716 341.3 78.7
449(11) 0.00763 341.2 83.7
441(11) 0.00840 341.2 88.4
418(11) 0.00887 341.1 92.9
451(12) 0.00734 341.1 96.8
442(12) 0.00743 341.0 100.0
457(11) 0.00767 340.9 102.4
451(11) 0.00824 340.9 103.9
494(12) 0.00745 340.8 104.4
465(11) 0.00758 340.8 103.9
453(12) 0.00706 340.7 102.5
429(11) 0.00805 340.6 100.3
438(11) 0.00841 340.6 97.5
444(11) 0.00820 340.5 94.2
467(12) 0.00745 340.5 90.6
425(11) 0.00810 340.4 86.8
457(12) 0.00736 340.4 82.9
400(10) 0.00939 340.3 78.9
397(10) 0.00914 340.2 75.0
442(11) 0.00765 340.2 71.1
451(12) 0.00723 340.1 67.4
396(11) 0.00873 340.1 63.7
388(10) 0.00949 340.0 60.1
402(11) 0.00895 340.0 56.7
397(11) 0.00883 339.9 53.4
407(11) 0.00847 339.8 50.2
387(10) 0.00933 339.8 47.2
399(10) 0.00937 339.7 44.4
383(10) 0.00937 339.7 41.7
374(10) 0.00913 339.6 39.1
381(11) 0.00904 339.5 36.8
391(10) 0.00910 339.5 34.6
358(10) 0.01028 339.4 32.6
345(10) 0.01015 339.4 30.6
364(10) 0.00910 339.3 28.8
361(10) 0.00940 339.3 27.1
382(10) 0.00921 339.2 25.6
374(10) 0.00989 339.1 24.1
382(11) 0.00893 339.1 22.8
350(10) 0.00953 339.0 21.5
349(10) 0.00966 339.0 20.3
368(10) 0.00978 338.9 19.2
368(10) 0.01008 338.9 18.2
361(10) 0.01008 338.8 17.3
370(11) 0.00877 338.7 16.4
342(10) 0.01009 338.7 15.6
337(10) 0.01093 338.6 14.9
359(10) 0.01050 338.6 14.2
350(10) 0.01001 338.5 13.5
356(10) 0.00915 338.5 12.9
346(10) 0.01010 338.4 12.3
343(10) 0.01079 338.3 11.8
348(10) 0.01074 338.3 11.3
350(10) 0.01006 338.2 10.8
361(11) 0.00899 338.2 10.4
346(10) 0.01039 338.1 10.0
346(10) 0.01079 338.0 9.6
316(9) 0.01162 338.0 9.3
353(10) 0.01012 337.9 8.9
348(10) 0.00951 337.9 8.6
337(10) 0.01069 337.8 8.3
357(10) 0.01044 337.8 8.0
354(10) 0.01031 337.7 7.8
340(10) 0.01043 337.6 7.5
336(10) 0.00962 337.6 7.3
331(10) 0.01057 337.5 7.1
372(10) 0.00985 337.5 6.8
339(10) 0.01093 337.4 6.6
326(10) 0.01068 337.4 6.5
339(10) 0.00996 337.3 6.3
326(10) 0.01071 337.2 6.1
340(10) 0.01079 337.2 6.0
346(10) 0.01032 337.1 5.8
340(10) 0.01007 337.1 5.7
322(10) 0.01073 337.0 5.5
330(10) 0.01064 336.9 5.4
346(10) 0.01077 336.9 5.3
359(10) 0.01008 336.8 5.1
319(10) 0.01086 336.8 5.0
319(10) 0.01068 336.7 4.9
342(10) 0.01044 336.7 4.8
377(10) 0.00984 336.6 4.7
345(10) 0.00987 336.5 4.6
366(11) 0.00884 336.5 4.5
330(10) 0.01045 336.4 4.4
320(9) 0.01133 336.4 4.3
358(10) 0.01045 336.3 4.2
326(10) 0.01024 336.3 4.2
316(10) 0.01063 336.2 4.1
343(10) 0.01011 336.1 4.0
344(10) 0.01016 336.1 3.9
350(10) 0.01063 336.0 3.9
353(10) 0.00935 336.0 3.8
326(10) 0.01029 335.9 3.8
324(10) 0.01074 335.8 3.7
310(9) 0.01178 335.8 3.6
358(10) 0.01025 335.7 3.6
359(10) 0.00979 335.7 3.5
336(10) 0.01009 335.6 3.5
332(10) 0.01030 335.6 3.4
350(10) 0.01059 335.5 3.4
326(9) 0.01128 335.4 3.3
340(10) 0.01013 335.4 3.3
340(10) 0.00930 335.3 3.2
343(10) 0.00986 335.3 3.2
315(9) 0.01175 335.2 3.2
311(9) 0.01204 335.2 3.1
323(10) 0.01067 335.1 3.1
328(10) 0.01018 335.0 3.0
332(10) 0.01028 335.0 3.0
315(9) 0.01173 334.9 3.0
330(9) 0.01122 334.9 2.9
334(10) 0.01036 334.8 2.9
334(10) 0.00985 334.8 2.9
329(10) 0.01052 334.7 2.9
330(9) 0.01122 334.6 2.8
332(10) 0.01085 334.6 2.8
335(10) 0.01053 334.5 2.8
329(10) 0.01025 334.5 2.7
321(10) 0.01094 334.4 2.7
364(10) 0.01027 334.3 2.7
358(10) 0.00993 334.3 2.7
334(10) 0.01053 334.2 2.7
327(10) 0.01059 334.2 2.6
332(10) 0.01010 334.1 2.6
316(9) 0.01162 334.1 2.6
350(10) 0.01038 334.0 2.6
361(10) 0.00935 333.9 2.6
318(10) 0.01081 333.9 2.5
330(10) 0.01065 333.8 2.5
342(10) 0.01089 333.8 2.5
319(9) 0.01118 333.7 2.5
331(10) 0.01044 333.7 2.5
341(10) 0.01009 333.6 2.5
361(10) 0.00990 333.5 2.4
364(10) 0.01022 333.5 2.4
317(10) 0.01094 333.4 2.4
348(10) 0.00930 333.4 2.4
362(10) 0.00980 333.3 2.4
342(10) 0.01057 333.2 2.4
325(9) 0.01144 333.2 2.4
332(10) 0.01012 333.1 2.4
330(10) 0.01011 333.1 2.3
334(10) 0.01075 333.0 2.3
330(9) 0.01138 333.0 2.3
340(10) 0.01092 332.9 2.3
346(10) 0.00980 332.8 2.3
323(10) 0.01024 332.8 2.3
318(10) 0.01076 332.7 2.3
318(9) 0.01150 332.7 2.3
343(10) 0.01083 332.6 2.3
326(10) 0.01087 332.6 2.3
334(10) 0.00974 332.5 2.3
335(10) 0.01040 332.4 2.3
339(10) 0.01083 332.4 2.3
331(9) 0.01128 332.3 2.3
338(10) 0.00998 332.3 2.3
317(10) 0.01017 332.2 2.3
333(10) 0.01026 332.1 2.3
348(10) 0.01051 332.1 2.2
355(10) 0.01051 332.0 2.2
353(10) 0.01001 332.0 2.2
366(11) 0.00890 331.9 2.2
350(10) 0.00998 331.9 2.2
342(10) 0.01091 331.8 2.2
361(10) 0.01002 331.7 2.2
325(10) 0.01038 331.7 2.2
323(10) 0.01032 331.6 2.2
357(10) 0.00960 331.6 2.2
329(9) 0.01140 331.5 2.2
336(10) 0.01043 331.5 2.2
312(10) 0.01096 331.4 2.2
311(10) 0.01099 331.3 2.2
355(10) 0.00946 331.3 2.2
343(10) 0.01082 331.4 2.3
325(10) 0.01086 331.4 2.3
317(10) 0.01088 331.5 2.3
357(10) 0.00941 331.5 2.3
345(10) 0.01009 331.6 2.3
314(9) 0.01188 331.6 2.3
337(10) 0.01024 331.6 2.3
312(9) 0.01141 331.7 2.3
370(11) 0.00902 331.7 2.3
346(10) 0.01012 331.8 2.3
350(10) 0.01063 331.8 2.3
319(10) 0.01107 331.9 2.3
342(10) 0.00986 331.9 2.3
334(10) 0.01034 332.0 2.4
345(10) 0.01043 332.0 2.4
324(9) 0.01144 332.0 2.4
352(10) 0.01011 332.1 2.4
342(10) 0.00948 332.1 2.4
331(10) 0.01026 332.2 2.4
320(9) 0.01159 332.2 2.4
333(9) 0.01112 332.3 2.4
337(10) 0.01035 332.3 2.5
337(10) 0.00953 332.4 2.5
312(10) 0.01095 332.4 2.5
304(9) 0.01203 332.4 2.5
319(9) 0.01151 332.5 2.5
330(10) 0.01086 332.5 2.5
330(10) 0.00982 332.6 2.5
323(10) 0.01049 332.6 2.6
322(9) 0.01133 332.7 2.6
318(9) 0.01151 332.7 2.6
332(10) 0.01050 332.8 2.6
340(10) 0.00940 332.8 2.6
361(10) 0.00936 332.8 2.6
337(9) 0.01113 332.9 2.7
330(9) 0.01130 332.9 2.7
343(10) 0.00995 333.0 2.7
322(10) 0.01036 333.0 2.7
357(10) 0.00981 333.1 2.7
363(10) 0.01021 333.1 2.8
325(9) 0.01142 333.2 2.8
317(10) 0.01090 333.2 2.8
337(10) 0.00990 333.2 2.8
375(11) 0.00886 333.3 2.8
357(10) 0.01044 333.3 2.9
326(9) 0.01114 333.4 2.9
343(10) 0.00998 333.4 2.9
344(10) 0.00966 333.5 3.0
336(10) 0.01049 333.5 3.0
364(10) 0.01033 333.6 3.0
328(10) 0.01108 333.6 3.0
317(10) 0.01108 333.6 3.1
317(10) 0.01100 333.7 3.1
379(10) 0.00927 333.7 3.2
328(9) 0.01132 333.8 3.2
327(10) 0.01092 333.8 3.2
334(10) 0.01009 333.9 3.3
374(10) 0.00914 333.9 3.3
380(10) 0.00921 333.9 3.4
349(10) 0.01072 334.0 3.4
330(10) 0.01041 334.0 3.5
350(10) 0.00964 334.1 3.5
359(10) 0.00939 334.1 3.6
353(10) 0.01016 334.2 3.6
358(10) 0.01039 334.2 3.7
340(10) 0.01031 334.3 3.7
325(10) 0.01031 334.3 3.8
359(10) 0.00972 334.3 3.9
349(10) 0.01032 334.4 4.0
332(9) 0.01125 334.4 4.1
341(10) 0.01022 334.5 4.1
347(10) 0.00970 334.5 4.2
331(10) 0.01079 334.6 4.3
333(10) 0.01107 334.6 4.5
340(10) 0.01091 334.7 4.6
341(10) 0.01015 334.7 4.7
339(10) 0.00954 334.7 4.9
322(9) 0.01110 334.8 5.0
318(9) 0.01175 334.8 5.2
359(10) 0.01034 334.9 5.4
346(10) 0.01014 334.9 5.6
345(10) 0.00946 335.0 5.8
358(11) 0.00906 335.0 6.0
354(10) 0.01039 335.1 6.3
363(10) 0.01021 335.1 6.5
319(10) 0.01081 335.1 6.8
322(10) 0.01021 335.2 7.1
343(10) 0.01011 335.2 7.4
351(10) 0.01055 335.3 7.6
333(10) 0.01101 335.3 7.9
346(10) 0.00986 335.4 8.1
343(10) 0.00989 335.4 8.3
358(10) 0.00960 335.5 8.5
341(10) 0.01097 335.5 8.6
336(10) 0.01081 335.5 8.6
333(10) 0.01056 335.6 8.7
331(10) 0.01018 335.6 8.6
347(10) 0.01000 335.7 8.6
343(10) 0.01084 335.7 8.5
369(10) 0.00968 335.8 8.4
334(10) 0.01036 335.8 8.4
340(10) 0.01026 335.9 8.3
361(10) 0.00983 335.9 8.2
341(10) 0.01092 335.9 8.2
340(10) 0.01062 336.0 8.1
329(10) 0.01074 336.0 8.1
352(10) 0.00948 336.1 8.1
327(10) 0.01026 336.1 8.2
330(9) 0.01122 336.2 8.2
342(10) 0.01006 336.2 8.3
344(10) 0.00989 336.3 8.4
336(10) 0.01049 336.3 8.5
337(10) 0.01058 336.3 8.6
343(10) 0.01091 336.4 8.8
339(10) 0.01023 336.4 9.0
338(10) 0.00985 336.5 9.2
355(10) 0.00961 336.5 9.4
313(9) 0.01151 336.6 9.7
341(10) 0.01090 336.6 9.9
346(10) 0.01008 336.7 10.2
362(10) 0.00919 336.7 10.6
347(10) 0.01002 336.7 10.9
363(10) 0.00989 336.8 11.3
355(10) 0.01045 336.8 11.8
378(11) 0.00906 336.9 12.3
350(10) 0.00931 336.9 12.8
350(10) 0.00982 337.0 13.3
337(10) 0.01086 337.0 13.9
355(10) 0.01051 337.1 14.6
330(10) 0.01055 337.1 15.3
346(10) 0.00931 337.1 16.1
372(10) 0.00920 337.2 16.9
358(10) 0.01029 337.2 17.9
341(10) 0.01080 337.3 19.0
377(10) 0.00937 337.3 20.2
373(11) 0.00863 337.4 21.5
362(10) 0.00963 337.4 23.0
363(10) 0.01022 337.5 24.7
379(10) 0.00967 337.5 26.6
387(11) 0.00894 337.5 28.8
385(11) 0.00864 337.6 31.4
398(11) 0.00872 337.6 34.3
358(10) 0.01035 337.7 37.7
366(10) 0.01011 337.7 41.8
402(11) 0.00846 337.8 46.6
430(11) 0.00784 337.8 52.5
450(11) 0.00774 337.9 59.9
458(11) 0.00814 337.9 69.6
462(11) 0.00790 337.9 82.9
488(12) 0.00708 338.0 102.5
500(12) 0.00677 338.0 132.2
557(13) 0.00629 338.1 177.5
669(13) 0.00553 338.1 245.5
727(14) 0.00500 338.2 342.6
833(16) 0.00414 338.2 472.7
963(17) 0.00354 338.3 634.1
1134(18) 0.003079 338.3 813.8
1257(18) 0.002977 338.3 984.3
1501(21) 0.002348 338.4 1099.4
1639(22) 0.002095 338.4 1114.3
1521(21) 0.002262 338.5 1022.0
1284(19) 0.002786 338.5 861.6
926(16) 0.00405 338.6 681.2
739(15) 0.00462 338.6 514.2
621(14) 0.00547 338.7 376.1
594(13) 0.00595 338.7 271.2
514(12) 0.00700 338.7 197.0
468(11) 0.00792 338.8 147.2
492(12) 0.00689 338.8 114.7
441(11) 0.00760 338.9 93.7
403(11) 0.00890 338.9 79.7
442(11) 0.00847 339.0 70.0
425(11) 0.00878 339.0 62.9
406(11) 0.00867 339.1 57.5
397(11) 0.00839 339.1 53.3
366(10) 0.00949 339.1 50.0
392(10) 0.00939 339.2 47.4
394(10) 0.00947 339.2 45.4
367(10) 0.00982 339.3 43.8
364(11) 0.00873 339.3 42.7
353(10) 0.00977 339.4 42.0
390(10) 0.00960 339.4 41.6
368(10) 0.01020 339.5 41.5
371(10) 0.00956 339.5 41.7
353(10) 0.00912 339.5 42.1
354(10) 0.00982 339.6 42.9
359(10) 0.01024 339.6 43.9
372(10) 0.00996 339.7 45.3
383(11) 0.00899 339.7 47.0
362(10) 0.00914 339.8 49.0
377(10) 0.00916 339.8 51.4
374(10) 0.00993 339.9 54.2
387(10) 0.00948 339.9 57.5
369(10) 0.00951 339.9 61.5
371(11) 0.00895 340.0 66.1
411(11) 0.00843 340.0 71.6
404(10) 0.00909 340.1 78.2
397(10) 0.00922 340.1 86.3
418(11) 0.00856 340.2 96.1
435(11) 0.00801 340.2 108.1
431(11) 0.00822 340.3 123.0
466(11) 0.00797 340.3 141.3
482(12) 0.00743 340.3 163.8
514(12) 0.00665 340.4 191.3
515(12) 0.00659 340.4 224.4
557(13) 0.00623 340.5 264.0
635(13) 0.00586 340.5 310.3
672(14) 0.00532 340.6 363.6
709(14) 0.00492 340.6 422.8
812(16) 0.00414 340.6 486.5
902(16) 0.00389 340.7 551.2
1016(17) 0.00365 340.7 611.2
1034(17) 0.003407 340.8 659.1
1063(18) 0.003177 340.8 686.8
977(17) 0.00363 340.9 689.1
929(16) 0.00392 340.9 665.3
895(15) 0.00418 341.0 620.3
788(15) 0.00433 341.0 561.8
787(15) 0.00421 341.0 497.6
698(14) 0.00499 341.1 433.6
678(14) 0.00539 341.1 373.5
633(13) 0.00589 341.2 319.5
578(13) 0.00608 341.2 272.1
554(13) 0.00586 341.3 231.7
532(12) 0.00659 341.3 197.8
538(12) 0.00679 341.4 169.8
510(12) 0.00732 341.4 146.9
476(12) 0.00735 341.4 128.5
460(12) 0.00722 341.5 113.7
458(11) 0.00786 341.5 102.1
446(11) 0.00832 341.6 92.9
415(11) 0.00893 341.6 85.9
441(11) 0.00796 341.7 80.8
432(11) 0.00769 341.7 77.7
418(11) 0.00870 341.8 77.0
442(11) 0.00832 341.8 79.9
464(11) 0.00793 341.8 88.5
460(11) 0.00763 341.9 106.0
504(12) 0.00653 341.9 136.0
537(13) 0.00635 342.0 180.9
567(12) 0.00660 342.0 240.0
654(13) 0.00566 342.1 306.6
752(15) 0.00465 342.1 366.5
825(16) 0.00407 342.2 397.9
860(16) 0.00397 342.2 384.9
704(14) 0.00527 342.2 333.1
583(13) 0.00619 342.3 264.2
533(13) 0.00634 342.3 196.4
450(11) 0.00757 342.4 140.3
450(11) 0.00764 342.4 99.0
442(11) 0.00845 342.5 71.4
430(11) 0.00823 342.5 54.2
394(10) 0.00915 342.6 43.7
403(11) 0.00872 342.6 37.3
363(10) 0.00968 342.6 33.0
389(10) 0.00964 342.7 29.8
375(10) 0.00972 342.7 27.4
364(10) 0.00936 342.8 25.4
379(11) 0.00860 342.8 23.7
374(10) 0.00946 342.9 22.3
350(10) 0.01073 342.9 21.0
358(10) 0.01006 343.0 19.9
356(10) 0.00985 343.0 18.9
361(10) 0.00942 343.0 18.0
381(10) 0.00918 343.1 17.3
382(10) 0.00971 343.1 16.6
374(10) 0.00936 343.2 15.9
374(11) 0.00883 343.2 15.3
329(10) 0.01066 343.3 14.8
376(10) 0.00931 343.3 14.3
353(10) 0.01045 343.4 13.9
369(10) 0.00973 343.4 13.5
372(11) 0.00869 343.4 13.1
356(10) 0.00951 343.5 12.8
332(10) 0.01093 343.5 12.4
363(10) 0.01019 343.6 12.1
327(10) 0.01084 343.6 11.9
364(11) 0.00894 343.7 11.6
346(10) 0.00994 343.7 11.4
328(9) 0.01124 343.8 11.2
351(10) 0.01054 343.8 11.0
339(10) 0.01025 343.8 10.8
328(10) 0.01004 343.9 10.6
363(10) 0.00948 343.9 10.4
354(10) 0.01033 344.0 10.3
337(10) 0.01096 344.0 10.2
354(10) 0.00962 344.1 10.0
367(11) 0.00871 344.1 9.9
350(10) 0.01029 344.2 9.8
336(10) 0.01106 344.2 9.7
354(10) 0.01041 344.2 9.6
334(10) 0.01042 344.3 9.5
356(10) 0.00914 344.3 9.5
335(10) 0.01054 344.4 9.4
338(10) 0.01095 344.4 9.3
365(10) 0.00997 344.5 9.3
347(10) 0.01022 344.5 9.3
341(10) 0.00997 344.6 9.2
346(10) 0.00996 344.6 9.2
358(10) 0.01031 344.6 9.2
333(10) 0.01066 344.7 9.2
341(10) 0.01008 344.7 9.2
347(10) 0.00985 344.8 9.2
353(10) 0.01000 344.8 9.2
360(10) 0.01023 344.9 9.2
331(10) 0.01084 344.9 9.2
356(10) 0.00952 345.0 9.2
367(10) 0.00956 345.0 9.3
356(10) 0.00982 345.0 9.3
358(10) 0.01042 345.1 9.4
364(10) 0.00950 345.1 9.4
369(11) 0.00900 345.2 9.5
329(10) 0.01062 345.2 9.5
360(10) 0.00980 345.3 9.6
346(10) 0.01076 345.3 9.7
347(10) 0.00980 345.4 9.8
322(10) 0.01088 345.4 9.9
351(10) 0.00996 345.4 10.0
359(10) 0.01025 345.5 10.2
349(10) 0.01058 345.5 10.3
347(10) 0.00994 345.6 10.4
350(10) 0.00980 345.6 10.6
361(10) 0.00986 345.7 10.8
367(10) 0.01009 345.7 11.0
373(10) 0.01001 345.7 11.2
360(10) 0.00999 345.8 11.4
360(10) 0.00910 345.8 11.6
352(10) 0.01026 345.8 11.8
338(10) 0.01100 345.8 12.1
337(9) 0.01116 345.9 12.3
361(10) 0.00972 345.9 12.6
318(10) 0.01044 345.9 12.9
315(10) 0.01081 345.9 13.2
356(10) 0.01015 346.0 13.6
352(10) 0.01051 346.0 13.9
354(10) 0.00937 346.0 14.3
345(10) 0.00929 346.0 14.7
362(10) 0.00966 346.0 15.1
364(10) 0.01007 346.1 15.6
346(10) 0.01065 346.1 16.0
356(10) 0.00948 346.1 16.5
374(11) 0.00860 346.1 17.0
340(10) 0.01043 346.2 17.6
361(10) 0.01021 346.2 18.2
367(10) 0.00991 346.2 18.7
348(10) 0.01023 346.2 19.4
376(11) 0.00891 346.3 20.0
356(10) 0.00982 346.3 20.7
347(10) 0.01066 346.3 21.4
357(10) 0.01026 346.3 22.2
348(10) 0.01011 346.4 22.9
366(11) 0.00902 346.4 23.7
343(10) 0.01058 346.4 24.5
329(9) 0.01133 346.4 25.4
365(10) 0.00972 346.5 26.3
373(10) 0.00938 346.5 27.1
373(10) 0.00926 346.5 28.1
372(10) 0.00947 346.5 29.0
367(10) 0.01018 346.5 29.9
380(10) 0.00936 346.6 30.9
387(11) 0.00894 346.6 31.8
352(10) 0.00983 346.6 32.8
389(11) 0.00899 346.6 33.7
395(10) 0.00951 346.7 34.6
380(10) 0.00931 346.7 35.5
375(11) 0.00905 346.7 36.4
369(10) 0.00927 346.7 37.2
377(10) 0.00950 346.8 38.0
390(10) 0.00952 346.8 38.8
373(10) 0.00922 346.8 39.5
374(10) 0.00907 346.8 40.1
378(11) 0.00885 346.9 40.7
368(10) 0.00956 346.9 41.3
368(10) 0.01003 346.9 41.8
395(11) 0.00836 346.9 42.2
375(11) 0.00903 346.9 42.7
401(11) 0.00875 347.0 43.1
369(10) 0.00990 347.0 43.6
362(10) 0.01031 347.0 44.1
368(10) 0.00965 347.0 44.6
371(11) 0.00856 347.1 45.3
362(10) 0.00913 347.1 46.1
403(10) 0.00923 347.1 47.0
391(10) 0.00958 347.1 48.2
382(11) 0.00900 347.2 49.6
378(11) 0.00863 347.2 51.2
398(11) 0.00849 347.2 53.2
386(10) 0.00959 347.2 55.5
414(11) 0.00880 347.3 58.2
391(11) 0.00902 347.3 61.1
395(11) 0.00845 347.3 64.4
396(11) 0.00859 347.3 67.9
412(11) 0.00895 347.4 71.5
407(11) 0.00880 347.4 75.1
441(11) 0.00771 347.4 78.2
409(11) 0.00831 347.4 80.8
409(11) 0.00857 347.4 82.4
409(11) 0.00904 347.5 82.8
454(11) 0.00803 347.5 82.0
423(11) 0.00801 347.5 80.0
429(11) 0.00760 347.5 77.0
433(11) 0.00783 347.6 73.3
435(11) 0.00850 347.6 69.3
435(11) 0.00829 347.6 65.2
410(11) 0.00850 347.6 61.2
401(11) 0.00840 347.7 57.5
402(11) 0.00865 347.7 54.1
401(10) 0.00925 347.7 51.1
424(11) 0.00818 347.7 48.6
396(11) 0.00875 347.8 46.4
387(10) 0.00927 347.8 44.7
399(11) 0.00878 347.8 43.4
388(10) 0.00955 347.8 42.4
386(10) 0.00912 347.8 41.9
355(10) 0.00975 347.9 41.7
398(11) 0.00843 347.9 41.8
397(10) 0.00911 347.9 42.4
420(11) 0.00881 347.9 43.3
408(11) 0.00856 348.0 44.6
391(11) 0.00865 348.0 46.4
405(11) 0.00858 348.0 48.7
397(10) 0.00929 348.0 51.5
398(10) 0.00928 348.1 55.0
394(11) 0.00880 348.1 59.2
401(11) 0.00827 348.1 64.3
444(12) 0.00754 348.1 70.2
402(11) 0.00891 348.2 77.2
434(11) 0.00857 348.2 85.3
433(11) 0.00813 348.2 94.7
459(12) 0.00701 348.2 105.3
502(12) 0.00682 348.2 117.4
501(12) 0.00745 348.3 130.7
513(12) 0.00727 348.3 145.2
494(12) 0.00701 348.3 160.8
537(13) 0.00587 348.3 176.8
527(12) 0.00671 348.4 192.7
543(12) 0.00689 348.4 207.4
570(12) 0.00650 348.4 219.9
654(14) 0.00526 348.4 228.8
638(14) 0.00511 348.5 233.1
641(14) 0.00543 348.5 232.3
642(13) 0.00581 348.5 226.3
624(13) 0.00580 348.5 216.1
577(13) 0.00584 348.6 202.7
528(13) 0.00632 348.6 187.3
531(12) 0.00651 348.6 171.1
503(12) 0.00749 348.6 155.0
484(12) 0.00753 348.7 139.5
441(11) 0.00792 348.7 125.1
459(12) 0.00717 348.7 111.9
432(11) 0.00794 348.7 100.1
402(10) 0.00933 348.7 89.6
420(11) 0.00832 348.8 80.3
395(11) 0.00885 348.8 72.3
401(11) 0.00867 348.8 65.3
396(11) 0.00875 348.8 59.3
377(10) 0.00994 348.9 54.2
404(11) 0.00859 348.9 49.8
371(10) 0.00955 348.9 46.1
377(10) 0.00933 348.9 43.0
383(11) 0.00894 349.0 40.3
366(10) 0.01019 349.0 38.0
375(10) 0.00947 349.0 36.1
393(11) 0.00848 349.0 34.5
380(10) 0.00916 349.1 33.1
355(10) 0.01034 349.1 32.0
392(10) 0.00942 349.1 31.1
382(11) 0.00901 349.1 30.3
364(10) 0.00921 349.1 29.7
379(10) 0.00907 349.2 29.3
355(10) 0.01044 349.2 29.0
383(10) 0.00965 349.2 28.9
370(10) 0.00937 349.2 28.9
380(11) 0.00849 349.3 29.0
368(10) 0.00969 349.3 29.3
380(10) 0.00964 349.3 29.8
359(10) 0.01046 349.3 30.5
356(10) 0.00967 349.4 31.3
380(11) 0.00851 349.4 32.4
368(10) 0.00981 349.4 33.8
390(10) 0.00951 349.4 35.4
400(10) 0.00931 349.5 37.6
386(10) 0.00934 349.5 40.2
414(11) 0.00787 349.5 43.7
419(11) 0.00812 349.5 48.2
390(10) 0.00951 349.6 54.0
395(10) 0.00945 349.6 61.5
442(11) 0.00792 349.6 71.0
445(12) 0.00733 349.6 83.0
440(11) 0.00804 349.6 98.0
472(11) 0.00792 349.7 117.2
483(11) 0.00759 349.7 143.3
518(12) 0.00672 349.7 180.1
589(13) 0.00549 349.7 231.5
668(14) 0.00505 349.8 300.0
757(14) 0.00492 349.8 386.0
920(16) 0.00399 349.8 485.8
1071(17) 0.003311 349.8 589.7
1227(19) 0.002700 349.9 679.3
1315(20) 0.002610 349.9 729.5
1293(19) 0.002885 349.9 721.6
1165(18) 0.003073 349.9 658.5
1047(18) 0.003203 350.0 562.3
936(17) 0.00357 350.0 457.1
823(16) 0.00414 350.0 358.8
684(14) 0.00539 350.0 274.9
640(13) 0.00558 350.0 208.3
598(13) 0.00587 350.1 158.1
541(12) 0.00648 350.1 121.9
522(12) 0.00664 350.1 96.5
493(12) 0.00755 350.1 78.8
448(11) 0.00766 350.2 66.4
435(11) 0.00772 350.2 57.5
449(11) 0.00763 350.2 50.9
418(11) 0.00850 350.2 45.7
397(10) 0.00929 350.3 41.5
410(11) 0.00850 350.3 38.1
423(11) 0.00789 350.3 35.3
400(11) 0.00860 350.3 32.9
393(10) 0.00910 350.4 30.8
428(11) 0.00868 350.4 29.1
394(10) 0.00917 350.4 27.6
396(11) 0.00836 350.4 26.3
359(10) 0.00958 350.4 25.3
391(10) 0.00928 350.5 24.3
375(10) 0.00989 350.5 23.5
410(11) 0.00822 350.5 22.9
385(11) 0.00859 350.5 22.3
362(10) 0.00973 350.6 21.9
390(10) 0.00929 350.6 21.5
373(10) 0.00995 350.6 21.2
340(10) 0.01027 350.6 21.1
364(11) 0.00880 350.7 21.0
355(10) 0.01002 350.7 20.9
406(11) 0.00903 350.7 21.0
391(10) 0.00935 350.7 21.1
375(11) 0.00893 350.8 21.3
375(11) 0.00845 350.8 21.6
382(11) 0.00893 350.8 21.9
388(10) 0.00946 350.8 22.4
386(10) 0.00953 350.9 22.9
380(10) 0.00927 350.9 23.6
378(11) 0.00900 350.9 24.4
372(10) 0.00918 350.9 25.3
393(10) 0.00939 350.9 26.3
394(10) 0.00941 351.0 27.5
408(11) 0.00846 351.0 29.0
422(11) 0.00763 351.0 30.6
381(11) 0.00896 351.0 32.5
360(10) 0.01039 351.1 34.7
408(11) 0.00869 351.1 37.4
404(11) 0.00859 351.1 40.6
412(11) 0.00798 351.1 44.5
403(11) 0.00865 351.2 49.4
416(11) 0.00888 351.2 55.7
427(11) 0.00841 351.2 63.7
449(11) 0.00767 351.2 74.0
448(11) 0.00761 351.3 87.5
503(12) 0.00705 351.3 104.8
477(11) 0.00767 351.3 126.7
544(13) 0.00614 351.3 154.0
541(13) 0.00638 351.3 187.0
599(13) 0.00569 351.4 225.6
666(14) 0.00543 351.4 268.9
729(14) 0.00502 351.4 314.5
800(15) 0.00430 351.4 358.1
867(16) 0.00386 351.5 392.9
884(16) 0.00386 351.5 411.5
844(15) 0.00434 351.5 408.9
879(15) 0.00423 351.5 386.0
796(15) 0.00437 351.6 348.4
677(14) 0.00509 351.6 304.0
634(14) 0.00541 351.6 258.8
555(12) 0.00665 351.6 216.7
513(12) 0.00721 351.7 179.6
483(12) 0.00741 351.7 148.3
477(12) 0.00703 351.7 122.6
465(12) 0.00739 351.7 102.1
443(11) 0.00842 351.8 86.0
427(11) 0.00863 351.8 73.7
385(11) 0.00895 351.8 64.2
407(11) 0.00808 351.8 57.0
410(11) 0.00838 351.8 51.5
387(10) 0.00959 351.9 47.3
399(10) 0.00932 351.9 43.9
383(10) 0.00918 351.9 41.3
361(11) 0.00858 351.9 39.3
390(11) 0.00866 352.0 37.7
376(10) 0.01009 352.0 36.4
363(10) 0.00995 352.0 35.5
361(10) 0.00960 352.0 34.9
375(11) 0.00873 352.1 34.5
375(10) 0.00941 352.1 34.5
394(10) 0.00934 352.1 34.6
401(10) 0.00922 352.1 35.1
389(10) 0.00913 352.2 35.8
390(11) 0.00840 352.2 36.8
375(10) 0.00946 352.2 38.2
426(11) 0.00877 352.2 39.9
420(11) 0.00870 352.2 42.2
395(11) 0.00871 352.3 45.0
405(11) 0.00823 352.3 48.6
402(11) 0.00870 352.3 53.4
413(11) 0.00893 352.3 59.7
432(11) 0.00838 352.4 68.4
415(11) 0.00842 352.4 80.6
440(11) 0.00777 352.4 97.6
436(11) 0.00790 352.4 121.2
482(11) 0.00772 352.5 153.1
536(12) 0.00666 352.5 194.9
546(13) 0.00637 352.5 247.3
622(13) 0.00562 352.5 309.4
703(14) 0.00503 352.6 377.9
786(15) 0.00474 352.6 444.8
917(16) 0.00379 352.6 497.1
899(16) 0.00381 352.6 519.8
843(15) 0.00418 352.6 504.5
795(15) 0.00447 352.7 456.7
692(14) 0.00539 352.7 391.4
681(14) 0.00510 352.7 322.3
620(14) 0.00529 352.7 258.1
522(12) 0.00678 352.8 203.4
508(12) 0.00726 352.8 159.1
499(12) 0.00744 352.8 125.0
475(12) 0.00723 352.8 99.6
441(11) 0.00769 352.9 81.1
447(11) 0.00793 352.9 67.8
429(11) 0.00854 352.9 58.1
466(11) 0.00808 352.9 51.0
423(11) 0.00825 353.0 45.6
391(11) 0.00846 353.0 41.4
410(11) 0.00857 353.0 38.0
386(10) 0.00952 353.0 35.2
388(10) 0.00965 353.1 32.8
369(10) 0.00959 353.1 30.9
394(11) 0.00825 353.1 29.2
376(10) 0.00946 353.1 27.8
373(10) 0.00977 353.1 26.6
380(10) 0.00990 353.2 25.6
387(11) 0.00878 353.2 24.8
382(11) 0.00827 353.2 24.2
373(10) 0.00926 353.2 23.8
382(10) 0.00967 353.3 23.5
377(10) 0.00968 353.3 23.5
375(10) 0.00915 353.3 23.8
386(11) 0.00883 353.3 24.5
410(11) 0.00861 353.4 26.1
402(10) 0.00933 353.4 28.7
418(11) 0.00865 353.4 33.0
400(11) 0.00862 353.4 39.3
422(11) 0.00807 353.5 47.9
410(11) 0.00849 353.5 58.5
415(11) 0.00896 353.5 70.0
423(11) 0.00835 353.5 80.3
460(11) 0.00758 353.5 86.1
452(11) 0.00770 353.6 84.8
432(11) 0.00794 353.6 77.0
416(11) 0.00896 353.6 65.7
419(11) 0.00849 353.6 54.0
422(11) 0.00806 353.7 43.7
397(11) 0.00891 353.7 35.5
385(10) 0.00930 353.7 29.5
407(10) 0.00919 353.7 25.4
367(10) 0.00964 353.8 22.8
388(11) 0.00882 353.8 21.1
371(10) 0.00948 353.8 20.0
417(11) 0.00849 353.8 19.3
365(10) 0.01012 353.9 18.9
369(10) 0.00985 353.9 18.5
368(10) 0.00913 353.9 18.3
345(10) 0.01026 353.9 18.2
369(10) 0.00981 354.0 18.1
357(10) 0.01039 354.0 18.1
386(11) 0.00878 354.0 18.1
367(10) 0.00924 354.0 18.1
389(11) 0.00884 354.0 18.2
368(10) 0.01007 354.1 18.3
348(10) 0.01071 354.1 18.4
355(10) 0.00958 354.1 18.6
372(11) 0.00862 354.1 18.8
352(10) 0.01012 354.2 19.0
384(10) 0.00955 354.2 19.2
356(10) 0.01043 354.2 19.5
339(10) 0.00993 354.2 19.8
335(10) 0.01003 354.3 20.1
381(10) 0.00910 354.3 20.4
383(10) 0.00959 354.3 20.8
373(10) 0.00975 354.3 21.2
376(10) 0.00919 354.4 21.6
375(11) 0.00883 354.4 22.0
371(10) 0.00953 354.4 22.5
361(10) 0.01038 354.3 23.0
341(10) 0.01072 354.3 23.5
351(10) 0.00979 354.3 24.0
344(10) 0.00987 354.3 24.6
377(10) 0.00922 354.2 25.2
366(10) 0.01018 354.2 25.9
375(10) 0.00987 354.2 26.6
390(11) 0.00842 354.1 27.3
377(11) 0.00873 354.1 28.1
379(11) 0.00880 354.1 28.9
382(10) 0.00980 354.1 29.8
382(10) 0.00954 354.0 30.7
388(11) 0.00874 354.0 31.7
392(11) 0.00853 354.0 32.7
384(11) 0.00907 354.0 33.8
399(10) 0.00932 353.9 35.0
353(10) 0.01035 353.9 36.2
373(10) 0.00911 353.9 37.5
351(10) 0.00983 353.9 38.9
378(10) 0.00929 353.8 40.4
368(10) 0.01016 353.8 42.0
399(11) 0.00883 353.8 43.7
425(11) 0.00784 353.8 45.6
400(11) 0.00869 353.7 47.5
394(10) 0.00931 353.7 49.6
405(10) 0.00916 353.7 51.9
433(11) 0.00777 353.6 54.3
405(11) 0.00838 353.6 56.9
394(11) 0.00882 353.6 59.8
411(11) 0.00875 353.6 62.9
403(10) 0.00921 353.5 66.2
400(11) 0.00864 353.5 69.9
417(11) 0.00783 353.5 74.0
432(11) 0.00810 353.5 78.4
429(11) 0.00851 353.4 83.3
430(11) 0.00865 353.4 88.7
435(11) 0.00803 353.4 94.8
418(11) 0.00800 353.4 101.5
439(11) 0.00814 353.3 109.0
445(11) 0.00827 353.3 117.4
495(12) 0.00751 353.3 126.9
481(12) 0.00742 353.3 137.4
494(12) 0.00664 353.2 149.2
509(12) 0.00698 353.2 162.5
496(12) 0.00756 353.2 177.3
487(11) 0.00760 353.1 193.8
510(12) 0.00686 353.1 212.3
536(13) 0.00606 353.1 232.7
582(13) 0.00576 353.1 255.2
602(13) 0.00610 353.0 280.1
618(13) 0.00582 353.0 307.2
678(14) 0.00512 353.0 336.7
691(14) 0.00480 353.0 368.4
774(15) 0.00439 352.9 402.2
786(15) 0.00470 352.9 437.8
845(15) 0.00437 352.9 474.5
878(16) 0.00400 352.9 511.5
925(17) 0.00359 352.8 547.8
1010(17) 0.003392 352.8 581.9
991(16) 0.00376 352.8 612.2
1018(17) 0.00359 352.8 636.9
1017(17) 0.003459 352.7 654.4
1032(18) 0.003256 352.7 663.4
988(17) 0.00360 352.7 663.2
940(16) 0.00397 352.7 653.8
923(16) 0.00386 352.6 636.0
898(16) 0.00381 352.6 611.1
881(16) 0.00386 352.6 580.8
833(15) 0.00421 352.5 546.8
808(15) 0.00458 352.5 510.7
757(15) 0.00472 352.5 474.0
759(15) 0.00449 352.5 437.6
693(14) 0.00512 352.4 402.6
722(14) 0.00497 352.4 369.3
693(14) 0.00539 352.4 338.0
660(14) 0.00521 352.4 309.1
613(14) 0.00542 352.3 282.5
582(13) 0.00604 352.3 258.3
592(13) 0.00598 352.3 236.3
561(12) 0.00665 352.3 216.4
560(13) 0.00611 352.2 198.7
530(12) 0.00641 352.2 182.7
505(12) 0.00698 352.2 168.6
525(12) 0.00697 352.2 156.0
509(12) 0.00733 352.1 144.8
502(12) 0.00711 352.1 134.9
492(12) 0.00657 352.1 126.2
481(12) 0.00702 352.0 118.6
475(11) 0.00770 352.0 111.9
478(11) 0.00775 352.0 106.0
478(12) 0.00732 352.0 100.8
442(11) 0.00762 351.9 96.3
461(12) 0.00745 351.9 92.4
464(11) 0.00803 351.9 89.1
467(11) 0.00788 351.9 86.3
458(11) 0.00775 351.8 83.9
439(12) 0.00745 351.8 82.1
450(12) 0.00755 351.8 80.7
425(11) 0.00862 351.8 79.8
449(11) 0.00822 351.7 79.4
424(11) 0.00834 351.7 79.6
464(12) 0.00688 351.7 80.5
421(11) 0.00844 351.7 82.0
447(11) 0.00838 351.6 84.2
476(11) 0.00776 351.6 87.3
457(11) 0.00791 351.6 91.1
451(12) 0.00746 351.5 95.6
468(12) 0.00753 351.5 100.8
489(11) 0.00760 351.5 106.3
469(11) 0.00775 351.5 111.7
467(12) 0.00745 351.4 116.4
475(12) 0.00731 351.4 119.6
488(12) 0.00713 351.4 120.7
509(12) 0.00730 351.4 119.9
483(12) 0.00729 351.3 117.4
455(11) 0.00759 351.3 114.1
463(12) 0.00716 351.3 110.6
473(12) 0.00717 351.3 107.6
488(11) 0.00767 351.2 105.4
463(11) 0.00765 351.2 104.3
459(12) 0.00750 351.2 104.4
434(11) 0.00804 351.2 105.7
468(12) 0.00730 351.1 108.2
474(11) 0.00785 351.1 111.9
471(12) 0.00744 351.1 116.8
464(12) 0.00730 351.0 122.7
474(12) 0.00710 351.0 129.5
488(12) 0.00738 351.0 136.8
496(12) 0.00748 351.0 144.2
525(13) 0.00634 350.9 151.2
533(13) 0.00619 350.9 156.9
486(12) 0.00736 350.9 160.6
540(12) 0.00679 350.9 161.6
528(12) 0.00705 350.8 159.8
505(12) 0.00690 350.8 155.1
471(12) 0.00699 350.8 148.2
484(12) 0.00726 350.8 139.8
463(11) 0.00797 350.7 130.7
458(11) 0.00820 350.7 121.3
479(12) 0.00723 350.7 112.3
471(12) 0.00675 350.7 103.8
429(11) 0.00785 350.6 96.0
438(11) 0.00816 350.6 88.9
417(10) 0.00912 350.6 82.6
413(11) 0.00860 350.5 77.0
420(12) 0.00753 350.5 72.0
437(11) 0.00764 350.5 67.6
423(11) 0.00874 350.5 63.6
418(11) 0.00881 350.4 60.1
403(11) 0.00891 350.4 56.9
394(11) 0.00824 350.4 54.0
419(11) 0.00791 350.4 51.3
398(10) 0.00936 350.3 48.8
409(11) 0.00902 350.3 46.5
387(10) 0.00920 350.3 44.3
409(11) 0.00783 350.3 42.3
394(11) 0.00881 350.2 40.4
393(10) 0.00951 350.2 38.5
401(11) 0.00903 350.2 36.8
387(10) 0.00924 350.2 35.2
398(11) 0.00855 350.1 33.6
387(11) 0.00891 350.1 32.2
386(10) 0.00970 350.1 30.8
389(11) 0.00900 350.1 29.5
366(10) 0.00949 350.0 28.3
404(11) 0.00811 350.0 27.2
394(11) 0.00887 350.0 26.1
373(10) 0.01000 349.9 25.1
358(10) 0.00986 349.9 24.2
358(10) 0.00972 349.9 23.3
375(11) 0.00894 349.9 22.5
360(10) 0.00985 349.8 21.7
390(10) 0.00951 349.8 20.9
387(11) 0.00895 349.8 20.3
369(11) 0.00892 349.8 19.6
374(10) 0.00911 349.7 19.0
392(10) 0.00912 349.7 18.5
357(10) 0.01040 349.7 18.0
378(10) 0.00922 349.7 17.5
356(10) 0.00953 349.6 17.0
364(10) 0.00948 349.6 16.6
361(10) 0.01017 349.6 16.2
377(10) 0.00997 349.6 15.8
360(10) 0.00925 349.5 15.4
381(11) 0.00868 349.5 15.1
364(10) 0.00963 349.5 14.8
377(10) 0.00944 349.4 14.5
364(10) 0.01038 349.4 14.2
364(10) 0.00966 349.4 14.0
358(10) 0.00912 349.4 13.7
372(10) 0.00910 349.3 13.5
362(10) 0.01020 349.3 13.3
376(10) 0.00990 349.3 13.1
381(10) 0.00928 349.3 12.9
367(10) 0.00917 349.2 12.7
380(10) 0.00926 349.2 12.6
335(9) 0.01112 349.2 12.4
339(9) 0.01111 349.2 12.3
360(10) 0.00971 349.1 12.2
355(10) 0.00923 349.1 12.1
358(10) 0.00992 349.1 12.0
405(10) 0.00918 349.1 11.9
356(10) 0.01057 349.0 11.8
357(10) 0.00990 349.0 11.7
355(10) 0.00927 349.0 11.6
351(10) 0.00990 348.9 11.6
350(10) 0.01071 348.9 11.5
364(10) 0.01019 348.9 11.5
329(10) 0.01084 348.9 11.5
363(10) 0.00926 348.8 11.5
361(10) 0.01009 348.8 11.5
383(10) 0.00978 348.8 11.5
347(10) 0.01045 348.8 11.5
375(10) 0.00938 348.7 11.6
364(10) 0.00918 348.7 11.6
347(10) 0.01034 348.7 11.7
367(10) 0.01020 348.7 11.8
360(10) 0.01014 348.6 11.9
347(10) 0.01063 348.6 12.0
379(11) 0.00886 348.6 12.1
325(10) 0.01054 348.6 12.2
342(10) 0.01087 348.5 12.4
362(10) 0.00966 348.5 12.6
361(10) 0.00927 348.5 12.8
400(11) 0.00830 348.4 13.1
361(10) 0.01013 348.4 13.3
384(10) 0.00963 348.4 13.6
374(10) 0.00924 348.4 14.0
354(10) 0.00938 348.3 14.3
409(11) 0.00807 348.3 14.8
359(10) 0.01019 348.3 15.2
395(10) 0.00943 348.3 15.8
369(10) 0.00974 348.2 16.4
390(11) 0.00863 348.2 17.1
381(11) 0.00893 348.2 17.8
380(10) 0.00967 348.2 18.7
374(10) 0.00989 348.1 19.7
391(11) 0.00833 348.1 20.8
387(11) 0.00848 348.1 22.1
409(11) 0.00833 348.1 23.6
385(10) 0.00959 348.0 25.2
391(10) 0.00956 348.0 27.1
368(10) 0.00976 348.0 29.2
396(11) 0.00821 347.9 31.5
405(11) 0.00838 347.9 34.1
408(10) 0.00924 347.9 37.0
408(11) 0.00898 347.9 40.3
422(11) 0.00833 347.8 43.8
416(11) 0.00780 347.8 47.6
447(11) 0.00775 347.8 51.8
444(11) 0.00847 347.8 56.2
425(11) 0.00878 347.7 60.8
442(11) 0.00800 347.7 65.5
450(12) 0.00731 347.7 70.2
418(11) 0.00837 347.7 74.7
440(11) 0.00848 347.6 78.8
460(11) 0.00803 347.6 82.3
440(11) 0.00809 347.6 84.8
454(12) 0.00734 347.6 86.3
478(12) 0.00710 347.5 86.6
482(11) 0.00776 347.5 85.6
465(11) 0.00800 347.5 83.4
464(11) 0.00763 347.4 80.3
467(12) 0.00713 347.4 76.5
433(11) 0.00801 347.4 72.1
420(11) 0.00886 347.4 67.4
416(11) 0.00845 347.3 62.7
393(11) 0.00887 347.3 58.0
382(11) 0.00869 347.3 53.6
399(11) 0.00872 347.3 49.3
409(10) 0.00912 347.2 45.3
381(10) 0.00961 347.2 41.7
385(11) 0.00896 347.2 38.4
379(10) 0.00932 347.2 35.3
390(11) 0.00900 347.1 32.6
383(10) 0.00978 347.1 30.2
374(10) 0.00923 347.1 28.0
362(10) 0.00931 347.1 26.1
350(10) 0.00975 347.0 24.4
350(10) 0.01018 347.0 22.9
358(10) 0.01043 347.0 21.6
351(10) 0.00985 347.0 20.4
368(11) 0.00879 346.9 19.4
369(10) 0.00918 346.9 18.5
358(10) 0.01014 346.9 17.8
358(10) 0.01043 346.8 17.1
355(10) 0.00970 346.8 16.5
350(10) 0.00925 346.8 16.0
351(10) 0.00991 346.8 15.6
364(10) 0.01014 346.7 15.2
369(10) 0.01007 346.7 14.9
357(10) 0.00961 346.7 14.6
348(10) 0.00947 346.7 14.4
364(10) 0.00981 346.6 14.2
373(10) 0.00990 346.6 14.1
371(10) 0.01004 346.6 14.0
355(10) 0.00994 346.6 14.0
383(11) 0.00839 346.5 13.9
379(11) 0.00904 346.5 14.0
381(10) 0.00978 346.5 14.0
355(10) 0.01038 346.5 14.2
370(10) 0.00942 346.4 14.3
366(10) 0.00934 346.4 14.5
366(10) 0.00952 346.4 14.8
351(10) 0.01057 346.3 15.1
381(10) 0.00967 346.3 15.4
385(11) 0.00899 346.3 15.8
365(10) 0.00930 346.3 16.3
385(11) 0.00883 346.2 16.9
363(10) 0.01026 346.2 17.5
377(10) 0.00954 346.2 18.2
356(10) 0.00960 346.2 19.1
367(11) 0.00891 346.1 20.0
368(10) 0.00949 346.1 21.0
359(10) 0.01031 346.1 22.1
383(10) 0.00945 346.1 23.4
360(10) 0.00962 346.0 24.7
336(10) 0.01044 346.0 26.2
360(10) 0.00961 346.0 27.8
385(10) 0.00958 346.0 29.6
369(10) 0.01000 345.9 31.5
397(11) 0.00881 345.9 33.5
426(11) 0.00790 345.9 35.6
379(10) 0.00936 345.8 37.8
384(10) 0.00972 345.8 40.0
386(11) 0.00905 345.8 42.3
382(10) 0.00917 345.8 44.5
397(11) 0.00856 345.7 46.5
375(10) 0.00963 345.7 48.4
353(10) 0.01056 345.7 50.0
410(11) 0.00830 345.7 51.2
419(11) 0.00777 345.6 52.1
370(10) 0.00948 345.6 52.5
421(11) 0.00870 345.6 52.6
402(10) 0.00930 345.6 52.2
413(11) 0.00835 345.5 51.6
403(11) 0.00802 345.5 50.7
385(11) 0.00900 345.5 49.7
412(11) 0.00900 345.5 48.6
400(10) 0.00921 345.4 47.6
395(11) 0.00878 345.4 46.8
391(11) 0.00831 345.4 46.3
413(11) 0.00820 345.3 46.0
373(10) 0.00985 345.3 46.2
363(10) 0.01029 345.3 47.0
392(11) 0.00886 345.3 48.4
393(11) 0.00820 345.2 50.5
357(10) 0.00975 345.2 53.5
375(10) 0.00982 345.2 57.5
384(10) 0.00959 345.2 62.6
385(11) 0.00879 345.1 68.9
396(11) 0.00804 345.1 76.4
397(11) 0.00903 345.1 85.1
441(11) 0.00843 345.1 94.9
437(11) 0.00853 345.0 105.4
457(11) 0.00760 345.0 116.2
467(12) 0.00686 345.0 126.2
445(11) 0.00777 345.0 134.5
480(11) 0.00771 344.9 139.6
444(11) 0.00827 344.9 140.6
446(11) 0.00777 344.9 137.4
427(11) 0.00790 344.8 130.3
434(11) 0.00804 344.8 120.5
424(11) 0.00886 344.8 109.3
448(11) 0.00787 344.8 97.6
394(11) 0.00889 344.7 86.4
417(11) 0.00804 344.7 76.1
407(11) 0.00870 344.7 66.8
425(11) 0.00872 344.7 58.7
393(10) 0.00919 344.6 51.8
374(10) 0.00930 344.6 46.0
410(11) 0.00814 344.6 41.1
393(11) 0.00901 344.6 37.2
361(10) 0.01030 344.5 34.1
402(11) 0.00871 344.5 31.7
399(11) 0.00887 344.5 29.9
384(11) 0.00899 344.5 28.8
402(11) 0.00843 344.4 28.3
398(10) 0.00939 344.4 28.6
389(10) 0.00925 344.4 30.1
397(11) 0.00877 344.4 33.2
401(11) 0.00882 344.3 38.7
399(11) 0.00890 344.3 47.5
440(11) 0.00849 344.3 60.4
458(12) 0.00753 344.2 77.8
512(12) 0.00653 344.2 98.8
564(13) 0.00619 344.2 121.4
626(13) 0.00584 344.2 140.8
631(13) 0.00593 344.1 150.7
600(13) 0.00591 344.1 146.4
552(13) 0.00578 344.1 129.9
527(12) 0.00665 344.1 107.1
473(11) 0.00775 344.0 84.1
420(11) 0.00893 344.0 63.8
434(11) 0.00809 344.0 47.7
378(11) 0.00880 344.0 36.0
394(11) 0.00870 343.9 27.8
408(10) 0.00909 343.9 22.4
381(10) 0.00974 343.9 18.8
364(10) 0.00970 343.9 16.4
354(10) 0.00957 343.8 14.7
370(10) 0.00951 343.8 13.4
368(10) 0.01020 343.8 12.4
359(10) 0.01016 343.7 11.6
357(10) 0.00977 343.7 10.9
373(11) 0.00852 343.7 10.3
401(11) 0.00853 343.7 9.8
342(10) 0.01095 343.6 9.3
328(9) 0.01119 343.6 8.9
348(10) 0.01010 343.6 8.6
348(10) 0.00991 343.6 8.2
344(10) 0.01033 343.5 8.0
362(10) 0.01028 343.5 7.7
333(9) 0.01115 343.5 7.5
365(10) 0.00938 343.5 7.3
352(10) 0.00964 343.4 7.1
358(10) 0.00991 343.4 6.9
334(10) 0.01107 343.4 6.7
351(10) 0.01015 343.4 6.6
341(10) 0.01014 343.3 6.5
343(10) 0.00988 343.3 6.3
372(10) 0.00914 343.3 6.2
357(10) 0.01045 343.2 6.1
356(10) 0.00986 343.2 6.0
344(10) 0.00944 343.2 5.9
309(10) 0.01100 343.2 5.9
326(10) 0.01074 343.1 5.8
336(10) 0.01097 343.1 5.7
348(10) 0.01014 343.1 5.6
356(10) 0.00953 343.1 5.6
362(10) 0.00961 343.0 5.5
343(10) 0.01069 343.0 5.5
352(10) 0.01055 343.0 5.4
350(10) 0.00991 343.0 5.4
359(10) 0.00909 342.9 5.4
327(10) 0.01090 342.9 5.3
349(10) 0.01017 342.9 5.3
344(10) 0.01079 342.9 5.3
326(10) 0.01095 342.8 5.2
350(11) 0.00901 342.8 5.2
329(10) 0.01018 342.8 5.2
317(9) 0.01130 342.7 5.2
325(9) 0.01155 342.7 5.2
348(10) 0.00969 342.6 5.2
357(10) 0.00912 342.6 5.2
331(10) 0.01045 342.6 5.2
363(10) 0.01017 342.5 5.2
343(10) 0.01095 342.5 5.2
349(10) 0.01007 342.5 5.2
370(11) 0.00871 342.4 5.2
345(10) 0.01015 342.4 5.2
350(10) 0.01058 342.4 5.2
329(9) 0.01129 342.3 5.2
334(10) 0.01041 342.3 5.3
336(10) 0.00946 342.3 5.3
350(10) 0.00984 342.2 5.3
369(10) 0.01000 342.2 5.4
333(9) 0.01119 342.2 5.4
325(10) 0.01099 342.1 5.4
337(10) 0.00990 342.1 5.5
341(10) 0.00999 342.1 5.5
353(10) 0.01057 342.0 5.6
333(10) 0.01087 342.0 5.7
321(10) 0.01098 341.9 5.7
337(10) 0.01015 341.9 5.8
356(10) 0.00999 341.9 5.9
373(10) 0.00997 341.8 6.0
360(10) 0.00959 341.8 6.1
332(10) 0.01072 341.8 6.2
343(10) 0.00982 341.7 6.3
336(10) 0.01041 341.7 6.5
310(9) 0.01185 341.7 6.6
349(10) 0.01013 341.6 6.8
352(10) 0.00984 341.6 7.0
339(10) 0.01001 341.6 7.2
360(10) 0.00981 341.5 7.4
357(10) 0.01035 341.5 7.7
355(10) 0.00967 341.5 8.0
344(10) 0.00982 341.4 8.4
359(10) 0.00937 341.4 8.8
373(10) 0.00969 341.4 9.3
363(10) 0.01026 341.3 9.9
370(10) 0.00951 341.3 10.6
374(11) 0.00888 341.3 11.5
371(10) 0.00939 341.2 12.8
377(10) 0.00961 341.2 14.4
349(10) 0.01055 341.1 16.7
351(10) 0.00990 341.1 19.7
398(11) 0.00812 341.1 23.8
377(10) 0.00947 341.0 29.2
409(11) 0.00878 341.0 35.9
422(11) 0.00859 341.0 44.0
434(11) 0.00776 340.9 53.1
452(12) 0.00711 340.9 62.4
481(12) 0.00716 340.9 70.6
519(12) 0.00699 340.8 75.5
545(12) 0.00679 340.8 75.7
486(12) 0.00695 340.8 71.1
465(12) 0.00666 340.7 63.2
438(11) 0.00814 340.7 54.1
410(10) 0.00910 340.7 45.1
424(11) 0.00870 340.6 37.2
411(11) 0.00834 340.6 30.6
368(11) 0.00895 340.6 25.3
365(10) 0.00938 340.5 21.4
357(10) 0.01033 340.5 18.4
362(10) 0.01013 340.4 16.3
390(11) 0.00876 340.4 14.9
365(11) 0.00904 340.4 13.8
353(10) 0.00992 340.3 13.1
353(10) 0.01067 340.3 12.5
352(10) 0.01008 340.3 12.1
347(10) 0.01045 340.2 11.9
383(11) 0.00874 340.2 11.7
341(10) 0.01027 340.2 11.5
361(10) 0.01038 340.1 11.5
349(10) 0.01056 340.1 11.4
338(10) 0.01046 340.1 11.4
347(10) 0.00985 340.0 11.5
353(10) 0.01003 340.0 11.5
391(10) 0.00954 340.0 11.7
357(10) 0.00973 339.9 11.8
350(10) 0.00996 339.9 12.0
354(10) 0.00977 339.9 12.1
363(10) 0.00973 339.8 12.4
335(9) 0.01117 339.8 12.6
337(10) 0.01031 339.8 12.9
326(10) 0.01042 339.7 13.2
342(10) 0.01049 339.7 13.5
345(10) 0.01032 339.6 13.8
351(10) 0.01057 339.6 14.2
334(10) 0.01019 339.6 14.6
356(10) 0.00929 339.5 15.1
369(10) 0.00912 339.5 15.5
356(10) 0.01026 339.5 16.1
350(10) 0.01057 339.4 16.6
345(10) 0.01028 339.4 17.2
353(10) 0.00959 339.4 17.9
344(10) 0.01040 339.3 18.6
364(10) 0.00991 339.3 19.4
345(10) 0.01082 339.3 20.3
348(10) 0.01010 339.2 21.2
381(11) 0.00859 339.2 22.2
357(10) 0.00994 339.2 23.3
349(10) 0.01068 339.1 24.5
347(10) 0.01061 339.1 25.9
382(11) 0.00871 339.1 27.3
372(11) 0.00858 339.0 28.9
359(10) 0.00973 339.0 30.7
386(10) 0.00957 338.9 32.6
391(10) 0.00958 338.9 34.6
365(10) 0.00984 338.9 36.9
354(10) 0.00959 338.8 39.3
393(11) 0.00865 338.8 42.0
381(10) 0.00973 338.8 44.8
385(10) 0.00939 338.7 47.7
392(11) 0.00879 338.7 50.9
385(11) 0.00853 338.7 54.1
394(11) 0.00879 338.6 57.4
406(10) 0.00920 338.6 60.7
397(10) 0.00923 338.6 64.0
403(11) 0.00894 338.5 67.3
411(11) 0.00811 338.5 70.6
421(11) 0.00835 338.5 74.0
395(10) 0.00947 338.4 77.7
416(11) 0.00868 338.4 81.7
431(11) 0.00793 338.4 86.5
460(12) 0.00730 338.3 92.2
445(11) 0.00804 338.3 99.3
474(11) 0.00794 338.3 108.1
415(11) 0.00866 338.2 119.0
485(12) 0.00677 338.2 132.7
479(12) 0.00714 338.1 149.5
509(12) 0.00695 338.1 170.1
554(12) 0.00668 338.1 195.0
630(13) 0.00554 338.0 224.4
653(14) 0.00523 338.0 258.5
685(14) 0.00497 338.0 296.9
737(15) 0.00470 337.9 338.5
777(14) 0.00479 337.9 381.1
875(16) 0.00400 337.9 421.0
907(16) 0.00380 337.8 453.0
919(16) 0.00382 337.8 471.5
928(16) 0.00393 337.8 472.9
828(15) 0.00450 337.7 457.1
835(16) 0.00409 337.7 427.6
750(15) 0.00455 337.7 390.0
730(15) 0.00466 337.6 349.6
683(14) 0.00531 337.6 310.0
664(13) 0.00556 337.6 273.6
632(14) 0.00548 337.5 241.6
597(13) 0.00552 337.5 214.2
615(13) 0.00555 337.4 191.4
592(13) 0.00624 337.4 172.9
547(12) 0.00686 337.4 158.0
539(12) 0.00646 337.3 146.1
539(13) 0.00600 337.3 136.8
552(13) 0.00630 337.3 129.4
532(12) 0.00700 337.2 123.4
510(12) 0.00735 337.2 118.5
532(12) 0.00652 337.2 114.2
487(12) 0.00663 337.1 110.3
528(12) 0.00642 337.1 106.7
494(11) 0.00761 337.1 103.2
482(11) 0.00768 337.0 99.8
489(12) 0.00710 337.0 96.4
486(12) 0.00681 337.0 93.0
474(12) 0.00740 336.9 89.6
456(11) 0.00819 336.9 86.3
469(11) 0.00774 336.9 83.0
476(12) 0.00735 336.8 79.7
468(12) 0.00717 336.8 76.4
417(11) 0.00853 336.7 73.2
430(11) 0.00861 336.7 70.1
426(11) 0.00851 336.7 67.0
408(11) 0.00836 336.6 64.0
430(11) 0.00776 336.6 61.0
399(11) 0.00886 336.6 58.1
407(10) 0.00916 336.5 55.3
412(11) 0.00865 336.5 52.6
399(11) 0.00855 336.5 50.0
393(11) 0.00834 336.4 47.5
385(10) 0.00912 336.4 45.1
384(10) 0.00960 336.4 42.8
389(11) 0.00888 336.3 40.7
389(11) 0.00896 336.3 38.6
372(10) 0.00925 336.3 36.7
381(11) 0.00900 336.2 34.8
381(10) 0.00971 336.2 33.1
367(10) 0.00973 336.2 31.4
355(10) 0.00978 336.1 29.9
345(10) 0.01023 336.1 28.4
367(10) 0.00990 336.1 27.1
359(10) 0.01029 336.0 25.8
371(10) 0.00927 336.0 24.6
386(11) 0.00868 335.9 23.5
397(11) 0.00867 335.9 22.4
393(10) 0.00928 335.9 21.4
359(10) 0.01047 335.8 20.5
333(10) 0.01054 335.8 19.6
360(11) 0.00891 335.8 18.8
382(10) 0.00912 335.7 18.0
388(10) 0.00966 335.7 17.3
347(10) 0.01073 335.7 16.6
351(10) 0.00983 335.6 16.0
346(10) 0.00944 335.6 15.4
367(10) 0.00957 335.6 14.8
367(10) 0.01000 335.5 14.3
350(10) 0.01051 335.5 13.8
346(10) 0.01004 335.5 13.3
378(11) 0.00838 335.4 12.8
374(10) 0.00935 335.4 12.4
351(10) 0.01056 335.4 12.0
346(10) 0.01065 335.3 11.6
338(10) 0.01019 335.3 11.3
336(10) 0.00986 335.2 10.9
350(10) 0.00995 335.2 10.6
369(10) 0.01002 335.2 10.3
339(10) 0.01102 335.1 10.0
360(10) 0.00973 335.1 9.7
364(11) 0.00903 335.1 9.5
338(10) 0.01012 335.0 9.2
342(10) 0.01086 335.0 9.0
337(10) 0.01088 335.0 8.8
352(10) 0.01007 334.9 8.5
324(10) 0.01058 334.9 8.3
363(10) 0.00918 334.9 8.1
350(10) 0.01062 334.8 7.9
349(10) 0.01015 334.8 7.8
330(10) 0.01067 334.8 7.6
338(10) 0.01013 334.7 7.4
347(10) 0.01026 334.7 7.3
334(9) 0.01126 334.7 7.1
334(10) 0.01009 334.6 7.0
311(9) 0.01120 334.6 6.8
356(10) 0.00981 334.6 6.7
347(10) 0.01037 334.5 6.5
331(9) 0.01133 334.5 6.4
373(10) 0.00928 334.4 6.3
349(10) 0.00986 334.4 6.2
376(11) 0.00906 334.4 6.1
319(9) 0.01148 334.3 5.9
320(9) 0.01161 334.3 5.8
334(10) 0.01014 334.3 5.7
328(10) 0.01041 334.2 5.6
332(10) 0.01056 334.2 5.5
322(9) 0.01112 334.2 5.4
343(10) 0.01088 334.1 5.4
358(10) 0.01009 334.1 5.3
346(10) 0.01002 334.1 5.2
327(10) 0.01088 334.0 5.1
329(10) 0.01102 334.0 5.0
326(9) 0.01123 334.0 4.9
329(10) 0.00996 333.9 4.9
319(10) 0.00971 333.9 4.8
297(9) 0.01136 333.9 4.7
322(9) 0.01155 333.8 4.7
329(9) 0.01130 333.8 4.6
313(9) 0.01142 333.7 4.5
332(10) 0.00973 333.7 4.5
323(10) 0.01091 333.7 4.4
328(9) 0.01135 333.6 4.4
308(9) 0.01212 333.6 4.3
344(10) 0.00981 333.6 4.2
334(10) 0.00953 333.5 4.2
329(10) 0.01048 333.5 4.1
340(10) 0.01095 333.5 4.1
329(10) 0.01106 333.4 4.0
340(10) 0.01018 333.4 4.0
350(10) 0.00950 333.4 4.0
345(10) 0.01040 333.3 3.9
355(10) 0.01060 333.3 3.9
329(10) 0.01097 333.3 3.8
339(10) 0.01024 333.2 3.8
367(10) 0.00909 333.2 3.7
351(10) 0.00977 333.2 3.7
350(10) 0.01066 333.1 3.7
312(9) 0.01158 333.1 3.6
320(10) 0.01053 333.0 3.6
305(10) 0.01099 333.0 3.6
348(10) 0.00968 333.0 3.5
338(9) 0.01110 332.9 3.5
333(10) 0.01063 332.9 3.5
343(10) 0.01014 332.9 3.4
333(10) 0.01090 332.8 3.4
340(10) 0.01026 332.8 3.4
339(10) 0.01098 332.8 3.3
336(10) 0.01021 332.7 3.3
316(10) 0.01040 332.7 3.3
318(10) 0.01067 332.7 3.3
331(10) 0.01051 332.6 3.2
326(9) 0.01129 332.6 3.2
324(10) 0.01096 332.6 3.2
315(10) 0.01058 332.5 3.2
311(9) 0.01133 332.5 3.2
323(9) 0.01118 332.5 3.1
313(9) 0.01212 332.4 3.1
318(10) 0.01081 332.4 3.1
317(10) 0.01038 332.4 3.1
302(9) 0.01178 332.3 3.1
307(9) 0.01203 332.3 3.0
317(9) 0.01175 332.2 3.0
326(10) 0.01076 332.2 3.0
355(11) 0.00896 332.2 3.0
328(10) 0.01073 332.1 3.0
311(9) 0.01203 332.1 3.0
311(9) 0.01188 332.1 2.9
315(9) 0.01145 332.0 2.9
334(10) 0.00953 332.0 2.9
331(10) 0.01079 332.0 2.9
335(9) 0.01122 331.9 2.9
338(10) 0.01095 331.9 2.9
329(10) 0.01056 331.9 2.9
332(10) 0.00978 331.8 2.8
329(10) 0.01068 331.8 2.8
333(9) 0.01111 331.8 2.8
317(9) 0.01157 331.7 2.8
335(10) 0.01004 331.7 2.8
351(10) 0.00943 331.7 2.8
337(10) 0.01015 331.6 2.8
309(9) 0.01210 331.6 2.8
333(10) 0.01073 331.5 2.8
310(10) 0.01061 331.5 2.8
327(10) 0.00946 331.5 2.8
323(10) 0.01025 331.4 2.7
322(9) 0.01149 331.4 2.8
337(10) 0.01092 331.4 2.7
338(10) 0.01014 331.3 2.7
332(10) 0.00991 331.3 2.7
323(10) 0.01066 331.3 2.7
322(9) 0.01165 331.2 2.7
311(9) 0.01174 331.2 2.7
316(10) 0.01097 331.2 2.7
324(10) 0.01050 331.1 2.7
326(10) 0.01104 331.1 2.7
328(9) 0.01129 331.0 2.7
315(10) 0.01090 331.0 2.7
348(10) 0.00971 331.0 2.7
340(10) 0.00999 330.9 2.7
325(10) 0.01106 330.9 2.7
329(9) 0.01137 330.9 2.7
333(10) 0.01000 330.8 2.7
336(10) 0.01011 330.8 2.7
332(10) 0.01067 330.7 2.7
336(10) 0.01062 330.7 2.7
330(9) 0.01130 330.7 2.7
306(9) 0.01120 330.6 2.7
331(10) 0.00952 330.6 2.7
336(10) 0.01032 330.6 2.7
358(10) 0.01021 330.5 2.7
357(10) 0.01054 330.5 2.7
341(10) 0.01003 330.4 2.7
335(10) 0.01012 330.4 2.7
332(10) 0.01070 330.4 2.8
350(10) 0.01050 330.3 2.8
301(9) 0.01249 330.3 2.8
322(10) 0.01069 330.3 2.8
335(10) 0.00998 330.2 2.8
316(9) 0.01141 330.2 2.8
329(9) 0.01109 330.1 2.8
305(9) 0.01218 330.1 2.8
340(10) 0.00963 330.1 2.8
315(10) 0.00997 330.0 2.8
323(10) 0.01042 330.0 2.8
335(9) 0.01118 330.0 2.8
334(10) 0.01087 329.9 2.9
316(9) 0.01111 329.9 2.9
343(10) 0.00915 329.9 2.9
350(10) 0.00977 329.8 2.9
319(9) 0.01158 329.8 2.9
332(9) 0.01111 329.7 2.9
327(10) 0.01098 329.7 2.9
314(10) 0.01079 329.7 3.0
322(10) 0.01094 329.6 3.0
336(10) 0.01100 329.6 3.0
335(10) 0.01078 329.6 3.0
323(10) 0.01079 329.5 3.0
334(10) 0.01009 329.5 3.1
321(10) 0.01091 329.4 3.1
308(9) 0.01215 329.4 3.1
318(9) 0.01115 329.4 3.1
316(9) 0.01123 329.3 3.1
337(10) 0.00992 329.3 3.2
330(10) 0.01060 329.3 3.2
330(9) 0.01135 329.2 3.2
357(10) 0.01019 329.2 3.3
332(10) 0.01063 329.1 3.3
330(10) 0.01029 329.1 3.3
322(10) 0.01087 329.1 3.3
322(9) 0.01148 329.0 3.4
296(9) 0.01198 329.0 3.4
334(10) 0.00970 329.0 3.4
338(10) 0.01009 328.9 3.5
327(9) 0.01113 328.9 3.5
342(10) 0.01085 328.8 3.6
338(10) 0.00981 328.8 3.6
321(10) 0.01031 328.8 3.6
316(9) 0.01123 328.7 3.7
330(9) 0.01131 328.7 3.7
310(9) 0.01190 328.7 3.8
320(10) 0.01086 328.6 3.8
337(10) 0.01025 328.6 3.9
327(10) 0.01101 328.5 3.9
324(9) 0.01147 328.5 4.0
349(10) 0.01057 328.5 4.1
314(9) 0.01114 328.4 4.1
328(10) 0.00976 328.4 4.2
337(10) 0.01038 328.4 4.2
331(9) 0.01115 328.3 4.3
336(10) 0.01093 328.3 4.4
333(10) 0.01067 328.3 4.5
323(10) 0.00989 328.2 4.5
315(10) 0.01106 328.2 4.6
334(9) 0.01116 328.1 4.7
347(10) 0.01065 328.1 4.8
334(10) 0.01075 328.1 4.9
332(10) 0.00958 328.0 5.0
336(10) 0.01026 328.0 5.1
327(9) 0.01156 328.0 5.2
339(10) 0.01057 327.9 5.3
313(10) 0.01058 327.9 5.4
321(10) 0.01017 327.8 5.6
328(10) 0.01070 327.8 5.7
343(10) 0.01078 327.8 5.8
356(10) 0.01028 327.7 6.0
358(10) 0.00969 327.7 6.1
354(10) 0.00929 327.7 6.3
327(10) 0.01031 327.6 6.5
329(9) 0.01120 327.6 6.7
337(10) 0.01079 327.5 6.9
348(10) 0.01009 327.5 7.1
347(10) 0.01030 327.5 7.3
351(10) 0.01004 327.4 7.5
348(10) 0.01081 327.4 7.8
355(10) 0.01019 327.4 8.0
321(10) 0.01095 327.3 8.3
339(10) 0.00985 327.3 8.6
336(10) 0.01024 327.2 9.0
330(9) 0.01132 327.2 9.3
371(10) 0.00923 327.2 9.7
332(10) 0.01051 327.1 10.1
333(10) 0.01044 327.1 10.6
352(10) 0.01026 327.1 11.1
318(9) 0.01166 327.0 11.6
345(10) 0.01033 327.0 12.2
343(10) 0.00983 326.9 12.8
344(10) 0.00977 326.9 13.5
341(10) 0.01074 326.9 14.3
339(10) 0.01097 326.8 15.1
350(10) 0.01016 326.8 16.0
348(10) 0.00949 326.8 17.1
349(10) 0.01007 326.7 18.2
344(10) 0.01053 326.7 19.4
334(9) 0.01115 326.7 20.8
333(10) 0.01020 326.6 22.3
377(11) 0.00860 326.6 24.1
384(11) 0.00880 326.5 26.1
351(10) 0.01056 326.5 28.6
393(10) 0.00947 326.5 32.1
352(10) 0.01016 326.4 37.3
369(11) 0.00867 326.4 45.5
384(10) 0.00914 326.4 58.3
380(10) 0.00976 326.3 76.6
416(11) 0.00897 326.3 99.4
454(11) 0.00767 326.2 123.3
431(11) 0.00780 326.2 141.7
476(12) 0.00737 326.2 147.3
478(11) 0.00775 326.1 138.4
437(11) 0.00821 326.1 120.8
395(11) 0.00879 326.1 101.9
362(10) 0.00929 326.0 86.3
377(11) 0.00899 326.0 75.7
393(10) 0.00953 325.9 69.9
404(11) 0.00891 325.9 67.2
413(11) 0.00825 325.9 66.2
411(11) 0.00825 325.8 65.9
423(11) 0.00800 325.8 65.6
438(11) 0.00848 325.8 64.9
394(10) 0.00923 325.7 64.0
401(11) 0.00835 325.7 62.6
382(11) 0.00884 325.6 60.8
383(11) 0.00890 325.6 58.8
396(10) 0.00945 325.6 56.5
383(10) 0.00913 325.5 54.0
390(11) 0.00859 325.5 51.4
388(11) 0.00873 325.5 48.8
376(10) 0.00965 325.4 46.1
360(10) 0.01027 325.4 43.5
372(10) 0.00944 325.3 41.0
350(10) 0.00965 325.3 38.6
353(10) 0.00980 325.3 36.2
377(10) 0.00958 325.2 34.0
333(9) 0.01113 325.2 32.0
360(10) 0.00970 325.2 30.0
376(11) 0.00890 325.1 28.2
367(10) 0.00951 325.1 26.5
345(10) 0.01029 325.0 25.0
330(9) 0.01129 325.0 23.5
367(10) 0.00931 325.0 22.2
375(11) 0.00892 324.9 21.0
349(10) 0.00972 324.9 19.9
329(9) 0.01120 324.9 18.9
340(10) 0.01104 324.8 18.0
339(10) 0.01040 324.8 17.2
340(10) 0.00974 324.8 16.4
318(9) 0.01114 324.7 15.7
321(9) 0.01154 324.7 15.1
338(10) 0.01100 324.6 14.6
313(9) 0.01127 324.6 14.1
331(10) 0.00948 324.6 13.6
361(10) 0.00973 324.5 13.2
349(10) 0.01069 324.5 12.8
311(9) 0.01188 324.5 12.5
334(10) 0.01042 324.4 12.2
324(10) 0.01016 324.4 12.0
309(9) 0.01154 324.3 11.8
331(9) 0.01112 324.3 11.6
333(9) 0.01109 324.3 11.4
313(9) 0.01158 324.2 11.3
333(10) 0.00971 324.2 11.2
317(10) 0.01103 324.2 11.1
296(9) 0.01267 324.1 11.0
331(10) 0.01102 324.1 10.9
322(10) 0.01059 324.0 10.9
293(9) 0.01146 324.0 10.8
326(10) 0.01006 324.0 10.8
332(9) 0.01119 323.9 10.8
340(10) 0.01088 323.9 10.8
351(10) 0.00998 323.9 10.9
334(10) 0.01043 323.8 10.9
323(10) 0.01078 323.8 11.0
345(10) 0.01085 323.7 11.0
344(10) 0.01027 323.7 11.1
329(10) 0.01055 323.7 11.2
337(10) 0.01005 323.6 11.3
340(10) 0.01061 323.6 11.4
351(10) 0.01060 323.6 11.5
330(10) 0.01093 323.5 11.6
314(10) 0.01095 323.5 11.7
330(10) 0.01025 323.4 11.8
311(9) 0.01170 323.4 11.9
311(9) 0.01191 323.4 12.1
316(10) 0.01075 323.3 12.2
335(10) 0.00989 323.3 12.3
315(10) 0.01053 323.3 12.4
343(10) 0.01029 323.2 12.6
341(10) 0.01097 323.2 12.7
339(10) 0.01050 323.2 12.8
325(10) 0.01051 323.1 12.9
348(10) 0.00922 323.1 13.0
324(9) 0.01148 323.0 13.2
318(9) 0.01162 323.0 13.3
312(9) 0.01112 323.0 13.4
321(10) 0.01027 322.9 13.5
312(9) 0.01138 322.9 13.6
340(10) 0.01060 322.9 13.7
338(10) 0.01104 322.8 13.8
325(10) 0.01080 322.8 13.9
342(10) 0.00948 322.7 14.0
315(9) 0.01127 322.7 14.2
348(10) 0.01054 322.7 14.3
316(9) 0.01169 322.6 14.5
315(10) 0.01100 322.6 14.7
320(10) 0.01021 322.6 14.9
331(10) 0.01070 322.5 15.2
333(9) 0.01119 322.5 15.5
336(9) 0.01109 322.4 15.8
330(10) 0.01044 322.4 16.2
331(10) 0.00998 322.4 16.7
364(10) 0.00922 322.3 17.3
329(9) 0.01141 322.3 18.0
333(10) 0.01090 322.3 18.7
322(10) 0.01098 322.2 19.6
342(10) 0.00993 322.2 20.7
344(10) 0.01029 322.1 21.9
356(10) 0.01042 322.1 23.3
333(10) 0.01085 322.1 24.8
340(10) 0.01045 322.0 26.5
361(10) 0.00920 322.0 28.4
326(10) 0.01051 322.0 30.4
328(9) 0.01147 321.9 32.6
351(10) 0.01006 321.9 34.8
333(10) 0.01005 321.8 36.9
317(10) 0.01074 321.8 38.8
339(10) 0.01024 321.8 40.4
353(10) 0.01062 321.7 41.6
354(10) 0.01005 321.7 42.2
349(10) 0.00966 321.7 42.3
330(10) 0.01066 321.6 41.9
353(10) 0.01004 321.6 41.3
351(10) 0.01059 321.5 40.4
338(10) 0.01053 321.5 39.6
372(11) 0.00884 321.5 38.8
353(10) 0.01005 321.4 38.3
349(10) 0.01022 321.4 38.0
354(10) 0.01043 321.4 38.1
349(10) 0.00974 321.3 38.5
355(10) 0.00958 321.3 39.3
349(10) 0.01003 321.3 40.5
354(10) 0.01032 321.2 42.2
376(10) 0.00977 321.2 44.3
359(10) 0.00970 321.1 47.0
371(11) 0.00875 321.1 50.2
353(10) 0.00985 321.1 54.0
370(10) 0.00994 321.0 58.5
385(10) 0.00961 321.0 63.7
383(10) 0.00923 321.0 69.5
401(11) 0.00806 320.9 76.2
381(10) 0.00912 320.9 83.6
440(11) 0.00836 320.8 91.9
442(11) 0.00839 320.8 100.9
439(11) 0.00789 320.8 110.6
464(12) 0.00701 320.7 121.0
464(12) 0.00738 320.7 131.8
507(12) 0.00737 320.7 142.7
523(12) 0.00699 320.6 153.2
507(12) 0.00694 320.6 163.0
516(13) 0.00634 320.5 171.3
522(12) 0.00664 320.5 177.6
524(12) 0.00712 320.5 181.3
521(12) 0.00699 320.4 182.1
496(12) 0.00710 320.4 179.9
496(12) 0.00659 320.4 175.0
482(12) 0.00716 320.3 167.9
437(11) 0.00843 320.3 159.2
452(11) 0.00807 320.2 149.4
495(12) 0.00699 320.2 139.2
478(12) 0.00698 320.2 129.0
442(11) 0.00792 320.1 119.0
453(11) 0.00823 320.1 109.5
416(11) 0.00876 320.1 100.4
424(11) 0.00807 320.0 91.8
403(11) 0.00849 320.0 83.7
409(11) 0.00856 319.9 76.1
405(10) 0.00917 319.9 69.1
384(10) 0.00953 319.9 62.6
394(11) 0.00864 319.8 56.8
387(11) 0.00889 319.8 51.5
378(10) 0.00937 319.8 46.8
366(10) 0.01021 319.7 42.7
366(10) 0.00946 319.7 39.0
367(10) 0.00924 319.7 35.7
341(10) 0.01000 319.6 32.9
358(10) 0.00981 319.6 30.3
346(10) 0.01071 319.5 28.1
385(10) 0.00912 319.5 26.2
350(10) 0.00954 319.5 24.4
316(9) 0.01127 319.4 22.9
329(10) 0.01090 319.4 21.5
347(10) 0.01083 319.4 20.3
357(10) 0.00948 319.3 19.2
337(10) 0.01003 319.3 18.2
330(10) 0.01038 319.2 17.3
338(10) 0.01091 319.2 16.5
358(10) 0.01034 319.2 15.7
351(10) 0.00987 319.1 15.0
323(10) 0.01011 319.1 14.4
341(10) 0.01002 319.1 13.8
335(10) 0.01093 319.0 13.2
352(10) 0.01028 319.0 12.7
357(10) 0.00957 318.9 12.3
354(10) 0.00919 318.9 11.8
341(10) 0.01040 318.9 11.4
325(9) 0.01136 318.8 11.0
334(10) 0.01104 318.8 10.7
334(10) 0.01013 318.8 10.3
337(10) 0.00950 318.7 10.0
336(10) 0.01073 318.7 9.7
325(9) 0.01143 318.6 9.5
319(9) 0.01152 318.6 9.2
351(10) 0.00970 318.6 8.9
319(10) 0.01029 318.5 8.7
330(10) 0.01027 318.5 8.5
313(9) 0.01191 318.5 8.3
307(9) 0.01186 318.4 8.1
322(10) 0.01104 318.4 7.9
335(10) 0.00995 318.3 7.7
333(10) 0.01049 318.3 7.6
318(9) 0.01179 318.3 7.4
312(9) 0.01140 318.2 7.3
342(10) 0.01008 318.2 7.1
322(10) 0.01106 318.2 7.0
340(10) 0.00980 318.1 6.9
315(9) 0.01182 318.1 6.8
299(9) 0.01156 318.1 6.7
304(9) 0.01134 318.0 6.6
329(10) 0.01041 318.0 6.5
322(10) 0.01097 317.9 6.4
316(9) 0.01184 317.9 6.3
311(9) 0.01137 317.9 6.2
324(10) 0.01057 317.8 6.1
328(10) 0.01029 317.8 6.0
310(9) 0.01154 317.8 6.0
332(9) 0.01117 317.7 5.9
318(10) 0.01104 317.7 5.8
317(10) 0.01085 317.6 5.8
315(10) 0.01072 317.6 5.7
316(9) 0.01137 317.6 5.7
333(9) 0.01112 317.5 5.6
329(10) 0.01073 317.5 5.6
333(10) 0.01038 317.5 5.5
333(10) 0.01077 317.4 5.5
337(10) 0.01100 317.4 5.5
338(10) 0.01092 317.3 5.4
311(9) 0.01153 317.3 5.4
352(10) 0.00938 317.3 5.4
341(10) 0.01022 317.2 5.3
354(10) 0.01019 317.2 5.3
328(9) 0.01117 317.2 5.3
307(9) 0.01156 317.1 5.3
340(10) 0.00949 317.1 5.3
296(9) 0.01212 317.0 5.3
330(10) 0.01105 317.0 5.2
295(9) 0.01238 317.0 5.2
314(10) 0.01093 316.9 5.2
308(10) 0.01067 316.9 5.2
330(10) 0.01078 316.9 5.2
313(9) 0.01169 316.9 5.2
293(9) 0.01245 316.9 5.2
332(10) 0.01059 316.9 5.2
323(10) 0.01059 316.9 5.3
307(9) 0.01118 316.9 5.3
330(9) 0.01109 316.8 5.3
340(10) 0.01092 316.8 5.3
342(10) 0.01021 316.8 5.3
322(10) 0.01029 316.8 5.4
330(10) 0.01040 316.8 5.4
328(9) 0.01123 316.8 5.4
332(10) 0.01107 316.8 5.4
309(10) 0.01092 316.8 5.5
320(10) 0.01014 316.8 5.5
309(9) 0.01115 316.8 5.6
319(9) 0.01178 316.8 5.6
338(10) 0.01054 316.8 5.7
312(9) 0.01118 316.8 5.7
340(10) 0.00980 316.8 5.8
313(9) 0.01117 316.8 5.8
315(9) 0.01202 316.7 5.9
305(9) 0.01162 316.7 6.0
300(9) 0.01164 316.7 6.1
331(10) 0.00999 316.7 6.1
297(9) 0.01209 316.7 6.2
328(9) 0.01142 316.7 6.3
333(10) 0.00999 316.7 6.4
313(10) 0.01076 316.7 6.6
308(10) 0.01081 316.7 6.7
316(10) 0.01098 316.7 6.8
323(9) 0.01156 316.7 6.9
304(9) 0.01158 316.7 7.1
329(10) 0.01022 316.7 7.3
323(10) 0.01104 316.7 7.4
323(9) 0.01154 316.6 7.6
313(9) 0.01184 316.6 7.8
343(10) 0.01015 316.6 8.0
307(10) 0.01096 316.6 8.3
303(9) 0.01110 316.6 8.6
298(9) 0.01235 316.6 8.8
332(9) 0.01114 316.6 9.2
342(10) 0.01043 316.6 9.5
321(10) 0.01033 316.6 9.9
317(10) 0.01073 316.6 10.3
305(9) 0.01212 316.6 10.8
317(9) 0.01173 316.6 11.3
340(10) 0.01050 316.6 11.9
341(10) 0.00954 316.6 12.6
329(10) 0.01066 316.6 13.4
328(9) 0.01131 316.5 14.2
334(9) 0.01125 316.5 15.3
347(10) 0.01002 316.5 16.4
333(10) 0.00999 316.5 17.9
308(9) 0.01127 316.5 19.6
331(9) 0.01115 316.5 21.8
325(9) 0.01153 316.5 24.7
353(10) 0.00966 316.5 28.4
371(11) 0.00866 316.5 33.5
357(10) 0.00974 316.5 40.4
377(10) 0.00987 316.5 49.6
387(10) 0.00950 316.5 61.8
398(11) 0.00890 316.5 77.5
440(11) 0.00760 316.5 96.9
445(11) 0.00775 316.5 119.6
492(12) 0.00751 316.4 144.3
518(12) 0.00698 316.4 168.6
530(12) 0.00646 316.4 189.0
555(13) 0.00612 316.4 201.3
569(13) 0.00623 316.4 202.0
524(12) 0.00715 316.4 190.2
493(12) 0.00727 316.4 169.3
450(11) 0.00784 316.4 144.3
463(12) 0.00726 316.4 119.3
422(11) 0.00835 316.4 97.1
383(10) 0.00970 316.4 78.5
413(11) 0.00838 316.4 63.7
359(10) 0.00947 316.4 52.6
379(10) 0.00908 316.4 44.5
376(10) 0.00967 316.4 38.8
390(10) 0.00946 316.3 35.0
378(11) 0.00905 316.3 32.6
364(10) 0.00925 316.3 31.3
380(10) 0.00928 316.3 31.0
366(10) 0.01009 316.3 31.5
370(10) 0.00988 316.3 33.1
352(10) 0.00992 316.3 35.6
353(10) 0.00971 316.3 39.3
389(10) 0.00907 316.3 44.1
394(10) 0.00931 316.3 49.9
362(10) 0.01036 316.3 56.3
377(10) 0.00915 316.3 62.5
391(11) 0.00804 316.3 67.2
383(10) 0.00910 316.3 69.1
394(10) 0.00933 316.3 67.6
407(10) 0.00920 316.2 63.2
393(11) 0.00871 316.2 57.2
373(11) 0.00852 316.2 51.0
364(10) 0.00944 316.2 45.4
340(10) 0.01093 316.2 40.6
392(10) 0.00941 316.2 36.9
373(10) 0.00926 316.2 34.2
372(11) 0.00865 316.2 32.4
343(10) 0.01034 316.2 31.2
370(10) 0.01005 316.2 30.6
372(10) 0.00979 316.2 30.5
349(10) 0.00973 316.2 30.7
340(10) 0.00992 316.2 31.1
353(10) 0.00998 316.2 31.8
354(10) 0.01049 316.2 32.6
347(10) 0.01035 316.1 33.8
374(10) 0.00934 316.1 35.1
370(10) 0.00918 316.1 36.8
367(10) 0.00921 316.1 39.0
376(10) 0.00987 316.1 41.8
358(10) 0.00972 316.1 45.3
364(10) 0.00966 316.1 49.9
376(11) 0.00894 316.1 55.8
368(10) 0.00950 316.1 63.4
420(11) 0.00886 316.1 72.8
379(10) 0.00942 316.1 84.3
401(11) 0.00868 316.1 98.1
421(11) 0.00810 316.1 113.8
431(11) 0.00834 316.1 130.9
444(11) 0.00837 316.1 148.1
475(12) 0.00739 316.0 163.3
500(12) 0.00675 316.0 173.4
529(12) 0.00652 316.0 176.2
517(12) 0.00702 316.0 170.7
511(12) 0.00726 316.0 158.5
483(12) 0.00709 316.0 142.4
445(11) 0.00762 316.0 125.1
415(11) 0.00844 316.0 108.4
405(11) 0.00886 316.0 93.3
408(10) 0.00919 316.0 80.4
385(11) 0.00900 316.0 69.7
400(11) 0.00818 316.0 61.1
376(10) 0.00931 316.0 54.4
368(10) 0.00999 316.0 49.2
369(10) 0.00994 316.0 45.4
367(10) 0.00937 315.9 42.5
370(11) 0.00853 315.9 40.4
361(10) 0.00968 315.9 39.0
346(10) 0.01067 315.9 37.9
370(10) 0.01004 315.9 37.2
344(10) 0.01031 315.9 36.8
364(11) 0.00864 315.9 36.7
404(11) 0.00816 315.9 36.7
375(10) 0.00999 315.9 36.9
346(10) 0.01079 315.9 37.2
335(10) 0.01062 315.9 37.6
349(10) 0.00934 315.9 38.2
344(10) 0.00988 315.9 38.8
353(10) 0.01059 315.9 39.6
359(10) 0.01052 315.9 40.4
386(11) 0.00893 315.8 41.2
371(11) 0.00881 315.8 42.1
381(11) 0.00879 315.8 43.0
362(10) 0.01035 315.8 44.0
380(10) 0.00963 315.8 44.9
366(10) 0.00946 315.8 45.7
382(11) 0.00890 315.8 46.6
364(10) 0.00972 315.8 47.3
371(10) 0.00997 315.8 47.9
357(10) 0.01028 315.8 48.5
375(10) 0.00937 315.8 48.9
388(11) 0.00847 315.8 49.1
377(10) 0.00946 315.8 49.2
370(10) 0.00996 315.8 49.1
376(10) 0.00929 315.7 48.9
371(10) 0.00918 315.7 48.5
375(11) 0.00907 315.7 47.9
371(10) 0.00951 315.7 47.2
364(10) 0.01017 315.7 46.5
370(10) 0.00929 315.7 45.6
371(11) 0.00898 315.7 44.6
379(11) 0.00874 315.7 43.6
345(10) 0.01031 315.7 42.6
323(9) 0.01142 315.7 41.6
347(10) 0.01005 315.7 40.5
348(10) 0.00973 315.7 39.5
372(10) 0.00944 315.7 38.6
361(10) 0.01016 315.7 37.7
367(10) 0.01014 315.7 36.8
365(10) 0.00963 315.6 36.1
373(11) 0.00906 315.6 35.5
371(10) 0.00960 315.6 35.0
361(10) 0.01024 315.6 34.8
386(10) 0.00968 315.6 34.8
372(10) 0.00914 315.6 35.1
390(11) 0.00809 315.6 36.1
384(11) 0.00898 315.6 37.9
367(10) 0.01013 315.6 40.8
381(10) 0.00981 315.6 45.2
383(10) 0.00927 315.6 51.3
376(11) 0.00884 315.6 59.1
399(11) 0.00873 315.6 68.2
408(10) 0.00913 315.6 77.6
437(11) 0.00847 315.6 85.3
424(11) 0.00825 315.5 89.1
443(12) 0.00700 315.5 87.9
407(11) 0.00865 315.5 82.6
405(10) 0.00920 315.5 75.8
404(10) 0.00935 315.5 69.5
394(11) 0.00874 315.5 64.9
416(12) 0.00754 315.5 62.6
376(10) 0.00908 315.5 62.8
379(10) 0.00989 315.5 65.1
415(11) 0.00878 315.5 69.1
444(11) 0.00782 315.5 74.1
424(11) 0.00762 315.5 79.2
432(11) 0.00808 315.5 83.5
444(11) 0.00838 315.5 85.7
433(11) 0.00825 315.5 85.4
406(11) 0.00846 315.4 82.3
413(11) 0.00795 315.4 77.2
384(11) 0.00887 315.4 70.9
407(10) 0.00911 315.4 64.4
381(10) 0.00923 315.4 58.2
364(10) 0.00971 315.4 52.6
371(10) 0.00927 315.4 47.8
373(10) 0.00932 315.4 43.8
370(10) 0.00999 315.4 40.6
374(10) 0.00940 315.4 38.1
370(11) 0.00896 315.4 36.3
362(10) 0.00969 315.4 34.9
374(10) 0.00949 315.4 34.0
361(10) 0.01026 315.4 33.4
356(10) 0.01006 315.4 33.1
342(10) 0.01033 315.3 33.0
361(10) 0.00944 315.3 33.2
376(10) 0.00941 315.3 33.4
348(10) 0.01068 315.3 33.8
369(11) 0.00907 315.3 34.3
343(10) 0.00956 315.3 35.0
337(10) 0.01030 315.3 35.7
370(10) 0.00980 315.3 36.5
344(10) 0.01081 315.3 37.4
340(10) 0.01042 315.3 38.4
377(11) 0.00864 315.3 39.4
338(10) 0.01050 315.3 40.6
364(10) 0.01003 315.3 41.8
382(10) 0.00965 315.3 43.1
361(10) 0.00997 315.3 44.4
361(11) 0.00891 315.2 45.9
369(10) 0.00939 315.2 47.4
382(10) 0.00958 315.2 49.0
348(10) 0.01082 315.2 50.6
349(10) 0.00985 315.2 52.4
381(11) 0.00853 315.2 54.2
364(10) 0.00952 315.2 56.1
372(10) 0.01004 315.2 58.0
359(10) 0.01036 315.2 60.1
383(10) 0.00914 315.2 62.2
373(11) 0.00873 315.2 64.3
387(11) 0.00878 315.2 66.5
371(10) 0.01009 315.2 68.7
354(10) 0.01041 315.2 70.9
385(10) 0.00909 315.2 73.1
381(11) 0.00883 315.1 75.2
379(10) 0.00926 315.1 77.2
389(10) 0.00953 315.1 79.1
388(10) 0.00951 315.1 80.9
384(10) 0.00929 315.1 82.6
370(11) 0.00900 315.1 84.1
385(11) 0.00902 315.1 85.5
400(10) 0.00933 315.1 86.8
390(10) 0.00942 315.1 88.2
391(11) 0.00882 315.1 89.6
369(10) 0.00932 315.1 91.1
388(11) 0.00892 315.1 92.8
380(10) 0.00973 315.1 94.8
381(10) 0.00927 315.1 97.3
385(10) 0.00907 315.1 100.1
408(11) 0.00813 315.0 103.6
397(10) 0.00916 315.0 107.5
411(11) 0.00899 315.0 112.1
408(11) 0.00845 315.0 117.3
431(11) 0.00796 315.0 123.0
452(11) 0.00765 315.0 129.1
445(11) 0.00810 315.0 135.5
493(12) 0.00754 315.0 141.9
441(11) 0.00791 315.0 147.9
442(11) 0.00756 315.0 153.1
430(11) 0.00822 315.0 157.2
455(11) 0.00778 315.0 159.6
434(11) 0.00864 315.0 160.0
415(11) 0.00839 315.0 158.3
444(12) 0.00732 315.0 154.6
456(12) 0.00732 314.9 149.1
404(11) 0.00905 314.9 142.3
414(11) 0.00894 314.9 134.5
436(11) 0.00777 314.9 126.3
416(11) 0.00769 314.9 117.9
404(11) 0.00868 314.9 109.7
390(10) 0.00959 314.9 101.9
395(10) 0.00939 314.9 94.6
404(11) 0.00835 314.9 87.9
389(11) 0.00804 314.9 81.8
377(10) 0.00949 314.9 76.4
410(10) 0.00913 314.9 71.6
390(10) 0.00954 314.9 67.5
385(11) 0.00885 314.9 63.9
368(11) 0.00871 314.9 60.9
371(10) 0.00925 314.8 58.4
367(10) 0.01029 314.8 56.4
378(10) 0.00979 314.8 54.8
367(10) 0.00949 314.8 53.6
373(11) 0.00861 314.8 52.7
394(11) 0.00864 314.8 52.1
354(10) 0.01054 314.8 51.6
350(10) 0.01055 314.8 51.3
349(10) 0.00986 314.8 50.8
368(11) 0.00896 314.8 50.3
362(10) 0.00940 314.8 49.5
351(10) 0.01058 314.8 48.4
326(9) 0.01119 314.8 47.1
343(10) 0.01011 314.8 45.5
351(10) 0.00952 314.7 43.7
357(10) 0.00994 314.7 41.9
375(10) 0.00992 314.7 40.0
347(10) 0.00999 314.7 38.2
344(10) 0.01000 314.7 36.5
372(10) 0.00916 314.7 34.8
371(10) 0.00926 314.7 33.3
327(9) 0.01145 314.7 31.8
334(10) 0.01070 314.7 30.5
373(10) 0.00915 314.7 29.2
339(10) 0.01003 314.7 28.1
312(9) 0.01158 314.7 27.0
346(10) 0.01078 314.7 26.0
342(10) 0.00969 314.7 25.1
355(10) 0.00939 314.7 24.2
366(10) 0.00946 314.6 23.4
327(9) 0.01123 314.6 22.7
337(10) 0.01100 314.6 22.0
327(10) 0.01071 314.6 21.3
330(10) 0.00989 314.6 20.7
333(10) 0.01018 314.6 20.2
350(10) 0.01023 314.6 19.6
363(10) 0.01023 314.6 19.1
350(10) 0.00994 314.6 18.6
339(10) 0.00964 314.6 18.2
325(10) 0.01052 314.6 17.8
311(9) 0.01161 314.6 17.4
327(9) 0.01130 314.6 17.0
328(10) 0.01051 314.6 16.7
339(10) 0.00962 314.6 16.4
347(10) 0.01055 314.5 16.1
321(9) 0.01146 314.5 15.8
334(9) 0.01117 314.5 15.6
348(10) 0.01012 314.5 15.4
328(10) 0.01002 314.5 15.2
334(10) 0.01001 314.5 15.0
331(9) 0.01129 314.5 14.8
319(9) 0.01157 314.5 14.7
357(10) 0.00970 314.5 14.6
347(10) 0.00945 314.5 14.5
328(10) 0.01087 314.5 14.4
350(10) 0.01057 314.5 14.4
349(10) 0.01036 314.5 14.4
335(10) 0.01035 314.5 14.4
366(11) 0.00895 314.5 14.5
340(10) 0.01063 314.4 14.6
337(10) 0.01106 314.4 14.7
328(9) 0.01108 314.4 14.9
324(10) 0.01081 314.4 15.2
327(10) 0.01073 314.4 15.4
328(10) 0.01079 314.4 15.8
348(10) 0.01074 314.4 16.2
352(10) 0.01028 314.4 16.7
330(10) 0.01047 314.4 17.3
331(10) 0.01031 314.4 18.1
357(10) 0.00959 314.4 19.0
301(9) 0.01228 314.4 20.0
326(10) 0.01093 314.4 21.3
359(11) 0.00906 314.4 22.8
361(10) 0.00955 314.4 24.7
357(10) 0.01033 314.3 27.0
373(10) 0.00994 314.3 29.8
343(10) 0.01006 314.3 33.2
371(11) 0.00904 314.3 37.2
403(11) 0.00837 314.3 42.0
379(10) 0.00975 314.3 47.7
408(10) 0.00909 314.3 54.2
379(10) 0.00920 314.3 61.6
401(11) 0.00813 314.3 69.9
432(11) 0.00797 314.3 78.8
409(11) 0.00905 314.3 88.0
460(11) 0.00808 314.3 96.9
464(12) 0.00754 314.3 104.7
470(12) 0.00698 314.3 110.3
480(12) 0.00726 314.3 112.9
484(11) 0.00765 314.2 112.1
473(11) 0.00785 314.2 107.9
465(12) 0.00735 314.2 101.1
415(11) 0.00774 314.2 92.7
443(11) 0.00776 314.2 83.5
420(11) 0.00887 314.2 74.3
400(10) 0.00928 314.2 65.6
381(10) 0.00916 314.2 57.6
364(11) 0.00904 314.2 50.5
374(10) 0.00943 314.2 44.3
348(10) 0.01081 314.2 39.0
351(10) 0.01032 314.2 34.5
373(10) 0.00932 314.2 30.7
350(10) 0.00944 314.2 27.5
319(9) 0.01131 314.2 24.9
333(10) 0.01107 314.1 22.7
349(10) 0.01055 314.1 20.9
349(10) 0.00984 314.1 19.4
315(10) 0.01094 314.1 18.1
336(10) 0.01036 314.1 17.0
324(9) 0.01139 314.1 16.1
339(10) 0.01054 314.1 15.4
334(10) 0.01053 314.1 14.7
336(10) 0.01013 314.1 14.1
331(10) 0.01061 314.1 13.6
328(9) 0.01115 314.1 13.2
329(10) 0.01064 314.1 12.8
328(10) 0.01048 314.1 12.5
310(9) 0.01142 314.1 12.2
309(9) 0.01157 314.1 11.9
323(9) 0.01143 314.0 11.7
323(10) 0.01101 314.0 11.5
311(9) 0.01115 314.0 11.4
307(10) 0.01081 314.0 11.2
310(9) 0.01144 314.0 11.1
369(10) 0.01002 314.0 11.0
327(10) 0.01088 314.0 11.0
314(10) 0.01078 314.0 10.9
343(10) 0.00979 314.0 10.9
326(9) 0.01125 314.1 10.9
318(9) 0.01157 314.1 11.0
323(10) 0.01091 314.1 11.0
342(10) 0.00986 314.1 11.1
348(10) 0.00997 314.1 11.2
356(10) 0.01016 314.1 11.3
335(10) 0.01105 314.1 11.4
330(10) 0.01070 314.1 11.6
337(10) 0.01002 314.1 11.8
349(10) 0.00976 314.1 12.0
332(9) 0.01120 314.2 12.3
331(9) 0.01119 314.2 12.5
332(10) 0.01044 314.2 12.9
338(10) 0.00968 314.2 13.2
341(10) 0.01039 314.2 13.6
356(10) 0.01051 314.2 14.1
339(10) 0.01058 314.2 14.6
331(10) 0.01017 314.2 15.1
335(10) 0.00968 314.2 15.6
329(10) 0.01102 314.3 16.2
327(9) 0.01139 314.3 16.8
338(10) 0.01093 314.3 17.3
353(10) 0.00991 314.3 17.9
339(10) 0.00954 314.3 18.4
345(10) 0.00973 314.3 18.9
353(10) 0.01053 314.3 19.4
356(10) 0.01028 314.3 19.8
353(10) 0.00991 314.3 20.1
317(10) 0.01025 314.3 20.5
313(10) 0.01078 314.4 20.9
341(10) 0.01097 314.4 21.3
342(10) 0.01070 314.4 21.8
325(10) 0.01067 314.4 22.4
357(10) 0.00919 314.4 23.1
315(10) 0.01091 314.4 23.8
346(10) 0.01061 314.4 24.7
320(9) 0.01142 314.4 25.8
320(10) 0.01090 314.4 27.0
343(10) 0.01010 314.5 28.3
338(10) 0.01007 314.5 29.8
311(9) 0.01205 314.5 31.6
334(10) 0.01057 314.5 33.5
344(10) 0.00977 314.5 35.6
342(10) 0.00996 314.5 37.9
338(10) 0.01071 314.5 40.5
348(10) 0.01073 314.5 43.4
342(10) 0.01034 314.5 46.5
347(10) 0.00992 314.5 49.9
368(10) 0.00924 314.6 53.7
364(10) 0.01005 314.6 57.6
374(10) 0.00987 314.6 61.9
361(10) 0.00973 314.6 66.5
354(10) 0.00944 314.6 71.3
377(11) 0.00883 314.6 76.4
383(10) 0.00945 314.6 81.7
382(10) 0.00979 314.6 87.1
368(10) 0.00955 314.6 92.5
389(11) 0.00873 314.7 97.7
400(11) 0.00898 314.7 102.8
418(11) 0.00891 314.7 107.4
422(11) 0.00877 314.7 111.5
399(11) 0.00861 314.7 114.7
384(11) 0.00866 314.7 117.0
404(11) 0.00870 314.7 118.2
420(11) 0.00865 314.7 118.3
404(10) 0.00919 314.7 117.2
423(11) 0.00787 314.7 115.1
396(11) 0.00840 314.8 112.0
411(11) 0.00851 314.8 108.0
382(10) 0.00972 314.8 103.5
396(10) 0.00930 314.8 98.5
399(11) 0.00862 314.8 93.2
379(11) 0.00847 314.8 87.8
387(11) 0.00884 314.8 82.4
395(10) 0.00936 314.8 77.1
392(10) 0.00925 314.8 71.9
355(10) 0.01009 314.9 67.0
379(11) 0.00874 314.9 62.4
374(10) 0.00954 314.9 58.0
357(10) 0.01029 314.9 53.9
375(10) 0.00995 314.9 50.1
364(10) 0.00967 314.9 46.6
363(10) 0.00923 314.9 43.4
365(10) 0.00949 314.9 40.4
345(10) 0.01077 314.9 37.7
352(10) 0.01028 314.9 35.3
358(10) 0.00956 315.0 33.0
342(10) 0.00979 315.0 30.9
341(10) 0.01053 315.0 29.1
359(10) 0.01042 315.0 27.4
356(10) 0.01006 315.0 25.8
344(10) 0.00998 315.0 24.4
328(10) 0.00981 315.0 23.2
332(10) 0.01050 315.0 22.0
303(9) 0.01226 315.0 21.0
337(10) 0.01049 315.1 20.0
344(10) 0.00994 315.1 19.2
371(10) 0.00920 315.1 18.4
353(10) 0.01048 315.1 17.7
342(10) 0.01079 315.1 17.0
326(10) 0.01067 315.1 16.4
332(10) 0.01004 315.1 15.9
334(10) 0.01023 315.1 15.4
337(10) 0.01099 315.1 14.9
347(10) 0.01065 315.2 14.5
311(9) 0.01154 315.2 14.1
320(10) 0.01026 315.2 13.8
339(10) 0.00999 315.2 13.4
347(10) 0.01077 315.2 13.1
328(9) 0.01114 315.2 12.8
309(10) 0.01052 315.2 12.6
324(10) 0.00985 315.2 12.3
316(10) 0.01085 315.2 12.1
315(9) 0.01161 315.2 11.9
316(9) 0.01161 315.3 11.7
326(10) 0.01083 315.3 11.6
342(10) 0.00916 315.3 11.4
333(10) 0.01032 315.3 11.3
329(9) 0.01134 315.3 11.2
335(9) 0.01114 315.3 11.0
338(10) 0.01001 315.3 11.0
317(10) 0.01034 315.3 10.9
326(10) 0.01072 315.3 10.8
329(9) 0.01131 315.4 10.7
347(10) 0.01066 315.4 10.7
351(10) 0.00942 315.4 10.6
314(10) 0.01064 315.4 10.6
305(9) 0.01161 315.4 10.6
332(9) 0.01118 315.4 10.6
317(9) 0.01175 315.4 10.6
342(10) 0.01023 315.4 10.6
330(10) 0.01009 315.4 10.6
316(10) 0.01071 315.4 10.7
327(9) 0.01131 315.5 10.7
319(9) 0.01145 315.5 10.8
316(9) 0.01113 315.5 10.8
316(10) 0.01079 315.5 10.9
301(9) 0.01196 315.5 11.0
338(10) 0.01096 315.5 11.1
320(9) 0.01119 315.5 11.2
325(10) 0.01078 315.5 11.4
323(10) 0.01074 315.5 11.5
337(10) 0.01047 315.6 11.6
345(10) 0.01085 315.6 11.8
347(10) 0.01037 315.6 12.0
327(10) 0.01058 315.6 12.2
343(10) 0.00990 315.6 12.4
342(10) 0.01048 315.6 12.6
321(9) 0.01169 315.6 12.9
314(10) 0.01102 315.6 13.1
347(10) 0.00969 315.6 13.4
339(10) 0.01041 315.6 13.7
324(9) 0.01109 315.7 14.1
296(9) 0.01262 315.7 14.4
326(10) 0.01021 315.7 14.8
343(10) 0.00942 315.7 15.2
332(10) 0.01022 315.7 15.7
336(10) 0.01065 315.7 16.2
331(9) 0.01119 315.7 16.7
332(10) 0.01032 315.7 17.3
315(10) 0.01050 315.7 17.9
353(10) 0.00930 315.8 18.5
336(10) 0.01069 315.8 19.3
355(10) 0.01057 315.8 20.0
347(10) 0.01018 315.8 20.9
346(10) 0.00940 315.8 21.8
337(10) 0.01038 315.8 22.8
323(9) 0.01114 315.8 23.9
337(10) 0.01107 315.8 25.1
337(10) 0.01021 315.8 26.4
349(11) 0.00904 315.8 27.8
373(10) 0.00934 315.9 29.4
369(10) 0.01017 315.9 31.0
362(10) 0.01009 315.9 32.8
350(10) 0.01023 315.9 34.8
366(11) 0.00892 315.9 36.9
366(10) 0.00968 315.9 39.1
353(10) 0.01061 315.9 41.6
357(10) 0.01017 315.9 44.2
392(11) 0.00872 315.9 46.9
355(10) 0.00960 316.0 49.9
379(10) 0.00934 316.0 53.0
375(10) 0.00994 316.0 56.3
402(11) 0.00903 316.0 59.7
405(11) 0.00852 316.0 63.3
390(10) 0.00912 316.0 66.9
412(11) 0.00856 316.0 70.6
414(11) 0.00896 316.0 74.2
417(11) 0.00864 316.0 77.8
377(10) 0.00948 316.0 81.2
408(11) 0.00845 316.1 84.4
420(11) 0.00850 316.1 87.5
419(11) 0.00884 316.1 90.2
437(11) 0.00802 316.1 92.6
434(11) 0.00783 316.1 94.8
441(11) 0.00772 316.1 96.6
413(11) 0.00871 316.1 98.2
408(10) 0.00917 316.1 99.6
413(11) 0.00839 316.1 100.7
417(11) 0.00824 316.2 101.7
390(11) 0.00860 316.2 102.5
407(11) 0.00876 316.2 103.1
440(11) 0.00836 316.2 103.6
396(11) 0.00875 316.2 103.8
412(11) 0.00810 316.2 103.8
424(11) 0.00816 316.2 103.5
427(11) 0.00871 316.2 102.9
388(10) 0.00957 316.2 101.9
413(11) 0.00823 316.3 100.5
402(11) 0.00815 316.3 98.8
410(11) 0.00840 316.3 96.7
404(10) 0.00918 316.3 94.2
415(11) 0.00905 316.3 91.4
436(11) 0.00785 316.3 88.4
448(12) 0.00710 316.3 85.1
406(11) 0.00851 316.3 81.7
376(10) 0.00988 316.3 78.2
404(10) 0.00918 316.3 74.7
412(11) 0.00857 316.4 71.1
402(11) 0.00817 316.4 67.6
389(11) 0.00905 316.4 64.1
363(10) 0.01025 316.4 60.8
356(10) 0.01048 316.4 57.6
387(11) 0.00904 316.4 54.5
361(11) 0.00888 316.4 51.5
347(10) 0.00967 316.4 48.7
368(10) 0.01012 316.4 46.0
338(10) 0.01075 316.5 43.5
360(10) 0.00934 316.5 41.2
344(10) 0.00964 316.5 38.9
344(10) 0.00988 316.5 36.9
323(9) 0.01150 316.5 34.9
323(10) 0.01094 316.5 33.1
344(10) 0.00993 316.5 31.4
334(10) 0.00992 316.5 29.8
353(10) 0.00931 316.5 28.3
348(10) 0.01081 316.5 27.0
330(10) 0.01095 316.6 25.7
341(10) 0.00975 316.6 24.5
316(10) 0.01089 316.6 23.4
364(10) 0.00962 316.6 22.4
332(9) 0.01124 316.6 21.5
326(10) 0.01082 316.6 20.6
352(10) 0.00959 316.6 19.8
335(10) 0.00997 316.6 19.0
336(10) 0.01045 316.6 18.3
327(9) 0.01122 316.7 17.7
302(9) 0.01143 316.7 17.1
340(10) 0.00954 316.7 16.6
331(10) 0.01030 316.7 16.0
338(10) 0.01070 316.7 15.6
342(10) 0.01075 316.7 15.1
330(10) 0.01049 316.7 14.7
346(10) 0.00985 316.7 14.4
315(10) 0.01107 316.7 14.0
335(10) 0.01061 316.7 13.7
358(10) 0.01030 316.8 13.4
331(10) 0.01072 316.8 13.1
339(10) 0.00954 316.8 12.8
321(10) 0.01086 316.8 12.6
338(10) 0.01092 316.8 12.4
337(10) 0.01097 316.8 12.2
331(10) 0.01039 316.8 12.0
335(10) 0.00953 316.8 11.9
327(10) 0.01040 316.8 11.7
314(9) 0.01170 316.9 11.6
325(9) 0.01148 316.9 11.5
352(10) 0.00972 316.9 11.4
322(10) 0.01025 316.9 11.3
322(10) 0.01097 316.9 11.2
340(10) 0.01074 316.9 11.1
315(9) 0.01184 317.0 11.1
333(10) 0.01057 317.0 11.1
332(10) 0.00986 317.0 11.1
317(9) 0.01117 317.1 11.1
341(10) 0.01073 317.1 11.1
329(9) 0.01111 317.1 11.1
322(10) 0.01089 317.2 11.2
322(10) 0.01026 317.2 11.3
332(10) 0.01036 317.2 11.4
309(9) 0.01217 317.3 11.5
319(9) 0.01141 317.3 11.6
332(10) 0.01058 317.3 11.8
322(10) 0.01046 317.3 12.1
315(9) 0.01113 317.4 12.3
341(10) 0.01085 317.4 12.7
320(9) 0.01116 317.4 13.1
336(10) 0.01048 317.5 13.7
343(10) 0.00990 317.5 14.6
331(10) 0.01052 317.5 16.2
348(10) 0.01070 317.6 19.5
349(10) 0.01022 317.6 25.8
357(10) 0.00962 317.6 36.9
382(11) 0.00896 317.7 53.8
412(11) 0.00865 317.7 75.1
411(11) 0.00899 317.7 96.4
433(11) 0.00823 317.8 110.0
436(11) 0.00794 317.8 109.4
387(11) 0.00891 317.8 95.1
348(10) 0.01006 317.8 74.5
381(10) 0.00973 317.9 54.5
322(10) 0.01104 317.9 39.5
370(11) 0.00891 317.9 30.2
325(10) 0.01046 318.0 25.5
340(10) 0.01043 318.0 23.7
347(10) 0.01073 318.0 23.4
320(10) 0.01069 318.1 23.8
353(10) 0.00914 318.1 24.5
325(10) 0.01080 318.1 25.4
328(10) 0.01091 318.2 26.5
340(10) 0.01102 318.2 27.7
344(10) 0.01006 318.2 29.0
331(10) 0.00994 318.3 30.5
319(9) 0.01133 318.3 32.0
378(10) 0.00972 318.3 33.6
359(10) 0.01042 318.4 35.4
353(10) 0.01002 318.4 37.2
380(11) 0.00854 318.4 39.1
358(10) 0.00986 318.4 41.0
376(10) 0.00993 318.5 42.9
371(10) 0.00993 318.5 44.9
390(11) 0.00894 318.5 46.9
380(11) 0.00845 318.6 48.7
400(11) 0.00853 318.6 50.5
404(10) 0.00916 318.6 52.2
395(10) 0.00922 318.7 53.6
381(11) 0.00902 318.7 54.8
366(11) 0.00891 318.7 55.8
371(10) 0.00925 318.8 56.4
390(10) 0.00953 318.8 56.7
358(10) 0.01033 318.8 56.7
375(10) 0.00923 318.9 56.3
365(10) 0.00914 318.9 55.6
364(10) 0.00947 318.9 54.6
350(10) 0.01058 319.0 53.3
358(10) 0.01010 319.0 51.7
380(11) 0.00879 319.0 50.0
372(11) 0.00869 319.0 48.1
372(11) 0.00873 319.1 46.2
332(9) 0.01115 319.1 44.1
361(10) 0.00980 319.1 42.1
356(10) 0.00965 319.2 40.0
357(10) 0.00975 319.2 38.0
371(10) 0.00956 319.2 36.0
358(10) 0.01037 319.3 34.1
323(10) 0.01104 319.3 32.3
370(11) 0.00899 319.3 30.5
348(10) 0.00986 319.4 28.9
347(10) 0.01026 319.4 27.3
365(10) 0.01031 319.4 25.8
338(10) 0.01024 319.5 24.4
344(10) 0.00969 319.5 23.1
342(10) 0.01012 319.5 21.8
364(10) 0.00995 319.5 20.7
348(10) 0.01065 319.6 19.6
339(10) 0.01023 319.6 18.6
350(10) 0.00927 319.6 17.7
336(10) 0.01034 319.7 16.8
338(10) 0.01073 319.7 16.0
330(9) 0.01128 319.7 15.3
338(10) 0.01043 319.8 14.6
356(10) 0.00907 319.8 14.0
347(10) 0.01000 319.8 13.4
317(9) 0.01149 319.9 12.9
315(9) 0.01174 319.9 12.4
333(10) 0.01036 319.9 12.0
333(10) 0.00946 320.0 11.6
316(9) 0.01116 320.0 11.2
337(10) 0.01094 320.0 10.9
335(10) 0.01089 320.1 10.6
336(10) 0.01064 320.1 10.3
345(10) 0.00936 320.1 10.0
340(10) 0.01051 320.1 9.8
314(9) 0.01180 320.2 9.6
317(9) 0.01155 320.2 9.4
329(10) 0.01057 320.2 9.3
344(10) 0.00952 320.3 9.1
338(10) 0.01062 320.3 9.0
334(10) 0.01101 320.3 8.9
326(9) 0.01117 320.4 8.8
368(10) 0.00941 320.4 8.7
336(10) 0.01026 320.4 8.6
294(9) 0.01208 320.5 8.6
310(9) 0.01202 320.5 8.5
320(9) 0.01139 320.5 8.4
316(10) 0.01078 320.6 8.3
339(10) 0.00989 320.6 8.2
323(10) 0.01067 320.6 8.0
308(9) 0.01219 320.6 7.9
332(10) 0.01040 320.7 7.8
301(9) 0.01151 320.7 7.6
301(9) 0.01133 320.7 7.5
338(10) 0.01065 320.8 7.3
332(9) 0.01118 320.8 7.2
322(9) 0.01124 320.8 7.0
329(10) 0.00993 320.9 6.9
291(9) 0.01195 320.9 6.8
315(9) 0.01146 320.9 6.7
322(9) 0.01155 321.0 6.6
335(10) 0.01019 321.0 6.5
326(10) 0.00993 321.0 6.4
320(10) 0.01055 321.1 6.4
297(9) 0.01185 321.1 6.3
300(9) 0.01245 321.1 6.3
323(10) 0.01052 321.2 6.3
339(10) 0.00977 321.2 6.3
341(10) 0.00992 321.2 6.4
305(9) 0.01185 321.2 6.4
346(10) 0.01068 321.3 6.6
329(10) 0.01037 321.3 6.7
326(10) 0.01025 321.3 6.9
339(10) 0.01053 321.4 7.1
331(9) 0.01112 321.4 7.4
371(10) 0.01004 321.4 7.8
353(10) 0.00994 321.5 8.4
355(11) 0.00905 321.5 9.1
355(10) 0.00965 321.5 10.2
309(9) 0.01186 321.6 11.9
355(10) 0.01050 321.6 14.9
345(10) 0.01034 321.6 20.2
359(10) 0.00914 321.7 28.9
406(11) 0.00830 321.7 42.5
430(11) 0.00854 321.7 61.4
456(11) 0.00809 321.7 84.6
511(12) 0.00688 321.8 108.4
543(13) 0.00578 321.8 126.3
511(12) 0.00695 321.8 130.6
500(12) 0.00733 321.9 119.0
446(11) 0.00815 321.9 97.3
386(10) 0.00943 321.9 73.2
376(11) 0.00885 322.0 51.8
350(10) 0.01023 322.0 35.4
344(10) 0.01083 322.0 24.3
350(10) 0.01043 322.1 17.4
342(10) 0.01026 322.1 13.4
318(10) 0.01038 322.1 11.1
317(10) 0.01088 322.2 9.7
326(9) 0.01139 322.2 8.9
330(10) 0.01070 322.2 8.3
314(10) 0.01082 322.3 7.8
352(10) 0.00936 322.3 7.5
314(9) 0.01121 322.3 7.2
321(9) 0.01161 322.3 7.0
328(10) 0.01091 322.4 6.9
327(10) 0.01066 322.4 6.7
319(10) 0.01039 322.4 6.7
315(9) 0.01118 322.5 6.6
343(10) 0.01068 322.5 6.6
333(10) 0.01068 322.5 6.6
361(11) 0.00902 322.6 6.6
319(10) 0.01098 322.6 6.7
314(9) 0.01130 322.6 6.7
340(10) 0.01083 322.7 6.8
316(10) 0.01107 322.7 6.9
331(10) 0.01008 322.7 7.0
315(10) 0.01070 322.8 7.0
301(9) 0.01193 322.8 7.1
342(10) 0.01095 322.8 7.3
335(10) 0.01038 322.9 7.4
318(10) 0.01065 322.9 7.5
361(10) 0.00933 322.9 7.6
324(9) 0.01144 322.9 7.7
295(9) 0.01254 323.0 7.8
320(10) 0.01052 323.0 7.9
307(10) 0.01105 323.0 8.0
330(10) 0.01067 323.1 8.1
333(10) 0.01096 323.1 8.2
327(9) 0.01130 323.1 8.3
326(10) 0.01081 323.2 8.4
329(10) 0.00958 323.2 8.4
327(10) 0.01049 323.2 8.4
321(9) 0.01154 323.3 8.5
295(9) 0.01251 323.3 8.5
322(10) 0.01011 323.3 8.5
331(10) 0.00995 323.4 8.5
342(10) 0.00997 323.4 8.5
319(9) 0.01137 323.4 8.5
343(10) 0.01066 323.4 8.5
355(10) 0.00963 323.5 8.6
355(10) 0.00941 323.5 8.7
351(10) 0.00982 323.5 9.1
337(10) 0.01095 323.6 9.7
363(10) 0.00989 323.6 10.8
345(10) 0.00972 323.6 12.5
350(10) 0.00914 323.7 14.9
346(10) 0.00944 323.7 17.7
338(9) 0.01110 323.7 20.7
392(10) 0.00920 323.8 22.8
381(11) 0.00907 323.8 23.2
364(10) 0.00937 323.8 21.6
377(10) 0.00927 323.9 18.7
370(10) 0.01015 323.9 15.5
341(10) 0.00981 323.9 12.6
333(10) 0.01030 324.0 10.3
329(10) 0.01034 324.0 8.6
317(9) 0.01148 324.0 7.6
336(10) 0.01104 324.0 6.9
322(10) 0.01060 324.1 6.5
321(10) 0.01060 324.1 6.2
339(10) 0.00982 324.1 6.0
321(9) 0.01125 324.2 5.8
346(10) 0.01075 324.2 5.7
318(9) 0.01112 324.2 5.7
330(10) 0.01043 324.3 5.6
336(10) 0.01031 324.3 5.5
331(10) 0.01088 324.3 5.5
328(9) 0.01134 324.4 5.5
314(9) 0.01131 324.4 5.5
316(10) 0.01083 324.4 5.5
322(10) 0.01090 324.5 5.6
332(9) 0.01112 324.5 5.6
309(9) 0.01205 324.5 5.7
324(10) 0.01026 324.5 5.8
315(10) 0.01025 324.6 5.9
303(9) 0.01172 324.6 6.0
324(9) 0.01126 324.6 6.2
338(10) 0.01099 324.7 6.3
304(9) 0.01135 324.7 6.5
321(10) 0.00997 324.7 6.7
315(9) 0.01114 324.8 6.9
307(9) 0.01229 324.8 7.1
313(9) 0.01195 324.8 7.3
323(10) 0.01083 324.9 7.6
322(10) 0.01010 324.9 7.8
317(9) 0.01112 324.9 8.1
322(9) 0.01140 325.0 8.4
312(9) 0.01179 325.0 8.6
303(9) 0.01129 325.0 8.9
320(10) 0.00971 325.1 9.1
311(10) 0.01097 325.1 9.3
352(10) 0.01033 325.1 9.5
322(9) 0.01150 325.1 9.7
329(10) 0.01107 325.2 9.8
323(10) 0.01019 325.2 9.8
334(10) 0.01012 325.2 9.8
330(9) 0.01125 325.3 9.7
360(10) 0.00984 325.3 9.6
329(10) 0.01041 325.3 9.5
338(10) 0.00995 325.4 9.3
358(10) 0.00954 325.4 9.1
352(10) 0.01051 325.4 8.9
331(10) 0.01048 325.5 8.7
340(10) 0.00987 325.5 8.4
321(10) 0.01083 325.5 8.2
332(10) 0.01070 325.5 8.0
323(9) 0.01173 325.5 7.8
321(10) 0.01086 325.5 7.6
335(10) 0.01032 325.5 7.4
328(10) 0.01084 325.5 7.2
326(9) 0.01117 325.5 7.0
327(9) 0.01150 325.4 6.9
332(10) 0.01034 325.4 6.8
310(9) 0.01126 325.4 6.7
322(10) 0.01090 325.4 6.6
319(9) 0.01131 325.4 6.6
326(9) 0.01120 325.4 6.6
317(10) 0.01095 325.3 6.5
314(10) 0.01077 325.3 6.5
318(10) 0.01056 325.3 6.6
324(9) 0.01132 325.3 6.6
338(10) 0.01097 325.3 6.7
335(10) 0.00995 325.3 6.8
318(10) 0.01052 325.3 6.9
326(10) 0.01066 325.2 7.0
325(10) 0.01094 325.2 7.2
343(10) 0.01086 325.2 7.4
305(9) 0.01148 325.2 7.6
293(10) 0.01102 325.2 7.8
314(10) 0.01070 325.2 8.1
306(9) 0.01214 325.1 8.3
339(9) 0.01111 325.1 8.7
349(10) 0.00995 325.1 9.0
339(10) 0.00937 325.1 9.4
300(9) 0.01156 325.1 9.8
336(10) 0.01099 325.1 10.2
335(10) 0.01093 325.1 10.7
344(10) 0.01010 325.0 11.2
356(11) 0.00901 325.0 11.7
329(10) 0.01034 325.0 12.3
317(9) 0.01174 325.0 12.9
347(10) 0.01029 325.0 13.5
320(10) 0.01090 325.0 14.2
318(10) 0.01049 324.9 14.9
324(10) 0.01052 324.9 15.6
346(10) 0.01079 324.9 16.3
333(10) 0.01105 324.9 17.0
331(10) 0.01050 324.9 17.7
334(10) 0.00964 324.9 18.4
327(10) 0.01043 324.8 19.1
328(9) 0.01141 324.8 19.7
321(10) 0.01098 324.8 20.3
323(10) 0.01093 324.8 20.7
328(10) 0.01026 324.8 21.1
344(10) 0.01006 324.8 21.4
369(10) 0.00998 324.8 21.6
361(10) 0.00974 324.7 21.8
330(10) 0.01068 324.7 21.8
311(9) 0.01176 324.7 21.8
368(10) 0.00990 324.7 21.7
354(10) 0.01041 324.7 21.6
307(9) 0.01120 324.7 21.5
354(10) 0.00936 324.6 21.4
323(10) 0.01091 324.6 21.4
314(9) 0.01127 324.6 21.5
325(9) 0.01138 324.6 21.9
336(10) 0.01026 324.6 22.7
357(10) 0.00939 324.6 24.1
324(10) 0.01089 324.6 26.3
346(10) 0.01045 324.5 29.6
370(10) 0.01000 324.5 34.5
344(10) 0.01006 324.5 41.2
356(10) 0.00966 324.5 49.7
359(10) 0.01035 324.5 59.9
367(10) 0.01014 324.5 71.1
334(9) 0.01119 324.4 81.6
403(11) 0.00841 324.4 89.1
383(11) 0.00841 324.4 91.1
400(11) 0.00838 324.4 87.0
385(10) 0.00967 324.4 78.3
353(10) 0.01044 324.4 67.5
366(10) 0.00949 324.4 56.3
395(11) 0.00783 324.3 46.0
394(11) 0.00895 324.3 37.2
367(10) 0.00997 324.3 30.2
352(10) 0.01053 324.3 24.9
348(10) 0.00948 324.3 20.9
330(10) 0.00975 324.3 18.1
347(10) 0.00991 324.2 16.1
361(10) 0.01036 324.2 14.6
339(10) 0.01069 324.2 13.6
315(9) 0.01114 324.2 12.9
332(10) 0.01009 324.2 12.3
327(10) 0.01094 324.2 11.9
344(10) 0.01082 324.2 11.7
350(10) 0.01058 324.1 11.5
339(10) 0.00999 324.1 11.4
319(10) 0.01086 324.1 11.3
327(10) 0.01047 324.1 11.4
349(10) 0.01060 324.1 11.5
323(9) 0.01118 324.1 11.7
300(9) 0.01190 324.0 12.0
323(10) 0.01051 324.0 12.4
343(10) 0.00986 324.0 12.9
336(10) 0.01108 324.0 13.6
345(10) 0.01053 324.0 14.5
316(9) 0.01121 324.0 15.6
322(10) 0.01072 323.9 17.1
338(10) 0.01022 323.9 18.9
333(10) 0.01104 323.9 21.1
318(9) 0.01154 323.9 23.7
320(9) 0.01115 323.9 26.8
347(10) 0.01005 323.9 30.3
345(10) 0.01027 323.9 34.2
359(10) 0.01028 323.8 38.2
338(10) 0.01025 323.8 42.0
333(10) 0.01016 323.8 45.1
343(10) 0.00989 323.8 46.8
336(10) 0.01067 323.8 46.8
360(10) 0.01038 323.8 45.1
358(10) 0.00984 323.7 42.1
357(10) 0.00939 323.7 38.4
328(10) 0.01057 323.7 34.4
331(10) 0.01090 323.7 30.6
356(10) 0.01042 323.7 27.1
337(10) 0.01007 323.7 24.1
329(10) 0.00987 323.7 21.5
358(10) 0.00974 323.6 19.3
364(10) 0.01003 323.6 17.5
327(9) 0.01127 323.6 16.0
324(10) 0.01061 323.6 14.7
346(10) 0.00939 323.6 13.7
324(10) 0.01093 323.6 12.9
328(9) 0.01118 323.5 12.2
336(10) 0.01082 323.5 11.6
308(10) 0.01098 323.5 11.0
316(10) 0.00997 323.5 10.6
360(10) 0.00938 323.5 10.1
354(10) 0.01060 323.5 9.7
334(10) 0.01080 323.5 9.4
363(11) 0.00869 323.4 9.0
331(10) 0.01067 323.4 8.7
315(9) 0.01180 323.4 8.4
331(10) 0.01098 323.4 8.1
344(10) 0.01037 323.4 7.9
344(10) 0.00984 323.4 7.6
345(10) 0.00999 323.3 7.4
329(9) 0.01121 323.3 7.1
321(9) 0.01131 323.3 6.9
318(10) 0.01089 323.3 6.7
310(10) 0.01071 323.3 6.5
318(10) 0.01079 323.3 6.4
342(10) 0.01091 323.2 6.2
323(9) 0.01130 323.2 6.0
306(9) 0.01133 323.2 5.9
306(9) 0.01135 323.2 5.7
334(10) 0.01059 323.2 5.6
330(9) 0.01124 323.2 5.5
328(10) 0.01081 323.2 5.4
332(10) 0.01012 323.1 5.2
304(9) 0.01129 323.1 5.1
322(10) 0.01105 323.1 5.0
357(10) 0.01044 323.1 4.9
336(10) 0.01060 323.1 4.9
329(10) 0.01047 323.1 4.8
342(10) 0.01043 323.0 4.7
333(10) 0.01072 323.0 4.6
313(9) 0.01189 323.0 4.6
335(10) 0.01015 323.0 4.5
331(10) 0.01013 323.0 4.4
348(10) 0.00969 323.0 4.4
314(9) 0.01152 323.0 4.3
310(9) 0.01195 322.9 4.3
314(9) 0.01121 322.9 4.3
339(10) 0.00959 322.9 4.2
341(10) 0.01003 322.9 4.2
323(9) 0.01134 322.9 4.2
342(10) 0.01090 322.9 4.1
318(10) 0.01101 322.8 4.1
320(10) 0.01006 322.8 4.1
324(10) 0.01096 322.8 4.1
351(10) 0.01031 322.8 4.1
330(9) 0.01129 322.8 4.0
337(10) 0.01039 322.8 4.0
321(10) 0.01011 322.8 4.0
337(10) 0.01034 322.7 4.0
310(9) 0.01204 322.7 4.0
333(10) 0.01101 322.7 4.0
322(9) 0.01121 322.7 4.0
328(10) 0.01015 322.7 4.1
329(10) 0.01077 322.7 4.1
313(9) 0.01190 322.6 4.1
350(10) 0.01028 322.6 4.1
313(9) 0.01168 322.6 4.1
322(10) 0.01047 322.6 4.1
334(10) 0.01050 322.6 4.2
334(10) 0.01106 322.6 4.2
329(9) 0.01110 322.6 4.2
344(10) 0.01019 322.5 4.3
323(10) 0.01060 322.5 4.3
326(10) 0.01087 322.5 4.3
344(10) 0.01090 322.5 4.4
317(9) 0.01134 322.5 4.4
333(10) 0.00952 322.5 4.5
321(10) 0.01055 322.4 4.5
353(10) 0.00964 322.4 4.6
305(9) 0.01209 322.4 4.6
305(9) 0.01167 322.4 4.7
317(10) 0.01084 322.4 4.8
332(10) 0.01047 322.4 4.8
328(10) 0.01076 322.3 4.9
330(9) 0.01125 322.3 5.0
323(10) 0.01081 322.3 5.1
316(10) 0.01095 322.3 5.2
337(10) 0.01059 322.3 5.3
312(9) 0.01187 322.3 5.4
309(9) 0.01200 322.3 5.5
331(10) 0.01076 322.2 5.6
334(10) 0.01002 322.2 5.7
305(9) 0.01133 322.2 5.8
331(10) 0.01095 322.2 6.0
348(10) 0.01062 322.2 6.1
346(10) 0.00991 322.2 6.3
367(11) 0.00903 322.1 6.4
345(10) 0.01008 322.1 6.6
359(10) 0.01027 322.1 6.8
320(9) 0.01147 322.1 7.0
318(9) 0.01112 322.1 7.2
368(11) 0.00887 322.1 7.4
340(10) 0.01010 322.1 7.6
313(9) 0.01178 322.0 7.8
330(9) 0.01110 322.0 8.1
341(10) 0.01024 322.0 8.4
336(10) 0.00968 322.0 8.7
334(10) 0.01040 322.0 9.0
322(9) 0.01168 322.0 9.4
329(9) 0.01137 321.9 9.7
342(10) 0.00999 321.9 10.1
320(10) 0.01047 321.9 10.6
328(10) 0.01052 321.9 11.0
358(10) 0.01042 321.9 11.6
357(10) 0.01041 321.9 12.1
330(10) 0.01066 321.9 12.8
339(10) 0.00960 321.8 13.5
339(10) 0.01057 321.8 14.3
355(10) 0.01033 321.8 15.1
365(10) 0.00996 321.8 16.1
320(10) 0.01097 321.8 17.3
342(10) 0.00986 321.8 18.6
361(10) 0.00970 321.7 20.1
385(10) 0.00957 321.7 22.0
374(10) 0.00979 321.7 24.3
350(10) 0.01014 321.7 27.3
388(11) 0.00853 321.7 31.5
386(10) 0.00914 321.7 37.5
387(10) 0.00961 321.7 46.1
402(10) 0.00911 321.6 58.4
411(11) 0.00818 321.6 75.5
423(11) 0.00791 321.6 98.0
432(11) 0.00816 321.6 126.0
497(12) 0.00741 321.6 157.8
520(12) 0.00692 321.6 189.9
538(13) 0.00637 321.5 217.9
558(13) 0.00624 321.5 239.2
572(13) 0.00624 321.5 253.7
509(12) 0.00720 321.5 259.4
515(12) 0.00660 321.5 253.0
488(12) 0.00684 321.5 234.6
485(12) 0.00717 321.4 210.1
453(11) 0.00801 321.4 186.3
474(11) 0.00787 321.4 167.2
434(11) 0.00828 321.4 153.7
457(12) 0.00712 321.4 143.7
430(11) 0.00793 321.4 134.3
417(11) 0.00886 321.4 123.9
397(10) 0.00933 321.3 113.3
396(11) 0.00852 321.3 104.0
421(11) 0.00761 321.3 97.4
427(11) 0.00804 321.3 94.0
427(11) 0.00870 321.3 93.9
415(11) 0.00900 321.3 96.7
451(11) 0.00777 321.2 101.8
427(11) 0.00774 321.2 108.6
447(11) 0.00761 321.2 116.0
447(11) 0.00838 321.2 122.9
448(11) 0.00815 321.2 128.0
453(11) 0.00777 321.2 130.5
446(12) 0.00746 321.2 129.4
463(12) 0.00754 321.1 124.9
457(11) 0.00812 321.1 117.6
439(11) 0.00820 321.1 108.2
388(10) 0.00922 321.1 98.0
400(11) 0.00811 321.1 87.6
405(11) 0.00829 321.1 77.6
397(10) 0.00919 321.0 68.3
381(10) 0.00934 321.0 60.0
338(10) 0.01052 321.0 52.6
350(10) 0.00994 321.0 46.2
381(11) 0.00887 321.0 40.7
344(10) 0.01090 321.0 36.0
341(10) 0.01070 321.0 32.1
343(10) 0.00989 320.9 28.7
330(10) 0.01019 320.9 25.9
332(10) 0.01051 320.9 23.6
351(10) 0.01072 320.9 21.6
321(9) 0.01110 320.9 19.9
370(11) 0.00898 320.9 18.5
330(10) 0.01037 320.8 17.2
350(10) 0.01015 320.8 16.2
334(9) 0.01108 320.8 15.2
341(10) 0.01007 320.8 14.4
342(10) 0.00983 320.8 13.7
348(10) 0.00981 320.8 13.1
353(10) 0.00993 320.8 12.5
338(10) 0.01091 320.7 12.0
331(10) 0.01056 320.7 11.5
345(10) 0.00959 320.7 11.1
333(10) 0.01012 320.7 10.7
337(10) 0.01064 320.7 10.4
350(10) 0.01061 320.7 10.0
351(10) 0.00944 320.6 9.8
349(10) 0.00933 320.6 9.5
355(10) 0.00951 320.6 9.3
364(10) 0.01009 320.6 9.1
357(10) 0.01051 320.6 8.9
338(10) 0.01058 320.6 8.8
352(10) 0.00945 320.5 8.6
326(10) 0.01055 320.5 8.5
336(10) 0.01101 320.5 8.4
310(9) 0.01206 320.5 8.4
342(10) 0.01037 320.5 8.3
322(10) 0.00975 320.5 8.3
321(10) 0.01087 320.5 8.3
342(10) 0.01069 320.4 8.3
335(10) 0.01092 320.4 8.4
333(10) 0.01061 320.4 8.4
344(10) 0.00926 320.4 8.6
319(9) 0.01137 320.4 8.7
303(9) 0.01210 320.4 9.0
334(9) 0.01111 320.3 9.3
347(10) 0.00993 320.3 9.7
320(10) 0.01020 320.3 10.2
311(9) 0.01146 320.3 10.9
347(10) 0.01046 320.3 11.7
337(10) 0.01072 320.3 12.7
336(10) 0.01042 320.3 14.0
357(11) 0.00907 320.2 15.4
334(10) 0.01043 320.2 17.0
336(9) 0.01112 320.2 18.8
365(10) 0.00976 320.2 20.6
349(10) 0.01021 320.2 22.3
351(10) 0.00977 320.2 23.6
343(10) 0.01045 320.1 24.3
349(10) 0.01069 320.1 24.3
321(9) 0.01125 320.1 23.5
353(10) 0.00946 320.1 22.2
326(10) 0.01041 320.1 20.5
339(10) 0.01055 320.1 18.8
344(10) 0.01088 320.1 17.1
343(10) 0.01018 320.0 15.5
356(10) 0.00976 320.0 14.2
338(10) 0.01030 320.0 13.1
325(10) 0.01085 320.0 12.1
328(9) 0.01144 320.0 11.4
337(10) 0.00992 320.0 10.8
312(10) 0.01060 319.9 10.4
320(10) 0.01073 319.9 10.0
332(10) 0.01071 319.9 9.8
327(9) 0.01136 319.9 9.6
331(10) 0.01055 319.9 9.5
340(10) 0.00999 319.9 9.4
352(10) 0.00932 319.8 9.4
327(9) 0.01133 319.8 9.4
338(10) 0.01087 319.8 9.5
339(10) 0.01006 319.8 9.5
308(10) 0.01088 319.8 9.6
340(10) 0.01010 319.8 9.7
363(10) 0.00976 319.9 9.8
338(10) 0.01102 320.0 9.9
355(10) 0.00968 320.1 10.1
328(10) 0.01027 320.2 10.2
372(11) 0.00906 320.3 10.4
337(10) 0.01099 320.4 10.6
345(10) 0.01056 320.5 10.8
343(10) 0.01014 320.5 11.0
343(10) 0.00951 320.6 11.2
339(10) 0.01018 320.7 11.5
339(10) 0.01059 320.8 11.7
338(10) 0.01102 320.9 12.0
343(10) 0.00997 321.0 12.3
347(10) 0.00929 321.1 12.6
356(10) 0.00946 321.2 12.9
327(9) 0.01144 321.3 13.2
330(9) 0.01126 321.3 13.5
334(10) 0.01042 321.4 13.9
344(10) 0.00942 321.5 14.3
336(10) 0.01055 321.6 14.6
360(10) 0.01027 321.7 15.0
329(9) 0.01109 321.8 15.4
340(10) 0.01011 321.9 15.9
345(10) 0.00976 322.0 16.3
365(10) 0.00958 322.1 16.7
353(10) 0.01050 322.1 17.2
346(10) 0.01034 322.2 17.6
336(10) 0.01015 322.3 18.0
333(10) 0.01016 322.4 18.4
349(10) 0.01012 322.5 18.8
348(10) 0.01069 322.6 19.2
340(10) 0.01055 322.7 19.6
343(10) 0.00981 322.8 20.0
340(10) 0.01024 322.9 20.3
350(10) 0.01031 323.0 20.7
326(9) 0.01141 323.0 21.1
334(10) 0.01055 323.1 21.4
359(10) 0.00937 323.2 21.8
352(10) 0.00961 323.3 22.2
349(10) 0.01017 323.4 22.6
347(10) 0.01075 323.5 23.1
327(10) 0.01031 323.6 23.6
365(11) 0.00906 323.7 24.1
376(10) 0.00926 323.8 24.7
329(10) 0.01098 323.8 25.3
334(9) 0.01113 323.9 26.1
318(10) 0.01090 324.0 26.8
366(11) 0.00868 324.1 27.7
351(10) 0.01002 324.2 28.7
343(10) 0.01075 324.3 29.8
333(9) 0.01124 324.4 31.1
354(10) 0.00928 324.5 32.5
358(10) 0.00909 324.6 34.0
345(10) 0.01051 324.7 35.8
375(10) 0.01000 324.7 37.8
360(10) 0.01025 324.8 40.1
379(10) 0.00932 324.9 42.7
378(11) 0.00865 325.0 45.8
403(11) 0.00868 325.1 49.4
379(10) 0.00963 325.2 53.8
396(10) 0.00908 325.3 59.5
420(11) 0.00842 325.4 66.9
434(12) 0.00731 325.5 76.7
393(11) 0.00871 325.5 89.7
399(10) 0.00928 325.6 106.7
448(11) 0.00827 325.7 128.4
460(11) 0.00778 325.8 154.9
489(12) 0.00682 325.9 185.5
518(12) 0.00668 326.0 217.9
542(12) 0.00684 326.1 247.8
558(12) 0.00656 326.2 268.9
560(13) 0.00615 326.3 275.1
573(13) 0.00573 326.3 265.7
541(12) 0.00647 326.4 245.9
504(12) 0.00741 326.5 222.7
495(12) 0.00729 326.6 201.6
531(13) 0.00630 326.7 185.6
498(12) 0.00682 326.8 175.8
514(12) 0.00678 326.9 172.1
537(12) 0.00692 327.0 173.3
511(12) 0.00711 327.1 177.4
520(12) 0.00660 327.2 181.8
490(12) 0.00690 327.2 183.7
495(12) 0.00697 327.3 181.0
480(11) 0.00769 327.4 173.1
486(12) 0.00711 327.5 160.9
459(12) 0.00723 327.6 146.2
456(12) 0.00741 327.7 130.9
422(11) 0.00856 327.8 116.2
434(11) 0.00855 327.9 102.8
452(12) 0.00742 328.0 91.2
383(11) 0.00888 328.0 81.3
414(11) 0.00796 328.1 73.2
409(11) 0.00873 328.2 66.7
391(10) 0.00944 328.3 61.6
391(11) 0.00849 328.4 57.7
357(11) 0.00880 328.5 54.7
348(10) 0.01004 328.6 52.6
405(10) 0.00912 328.7 51.0
388(10) 0.00956 328.8 49.9
419(11) 0.00807 328.9 49.3
416(11) 0.00756 328.9 48.9
397(11) 0.00864 329.0 48.7
376(10) 0.01006 329.1 48.7
382(10) 0.00962 329.2 48.9
391(11) 0.00880 329.3 49.1
392(11) 0.00832 329.4 49.5
369(10) 0.00982 329.5 49.9
363(10) 0.01030 329.6 50.3
384(10) 0.00947 329.7 50.8
396(11) 0.00887 329.7 51.3
374(11) 0.00868 329.8 51.9
408(11) 0.00800 329.9 52.5
429(11) 0.00870 330.0 53.1
392(10) 0.00932 330.1 53.9
395(11) 0.00867 330.2 55.0
381(11) 0.00876 330.3 56.4
384(10) 0.00914 330.4 58.4
364(10) 0.01032 330.5 61.2
376(10) 0.00959 330.6 65.1
400(11) 0.00880 330.6 70.2
388(11) 0.00835 330.7 76.8
387(11) 0.00903 330.8 84.7
418(11) 0.00882 330.9 93.7
401(10) 0.00912 331.0 103.0
403(11) 0.00882 331.1 110.9
434(11) 0.00776 331.2 115.5
415(11) 0.00849 331.3 115.2
392(10) 0.00944 331.4 110.1
404(11) 0.00881 331.4 102.2
410(11) 0.00846 331.5 93.4
398(11) 0.00871 331.6 85.3
388(10) 0.00912 331.7 78.8
394(10) 0.00943 331.8 74.1
415(11) 0.00817 331.9 71.2
388(11) 0.00864 332.0 69.6
400(11) 0.00848 332.1 69.0
399(11) 0.00883 332.2 68.4
405(10) 0.00915 332.2 67.1
373(10) 0.00949 332.3 64.8
381(11) 0.00901 332.4 61.2
386(10) 0.00912 332.5 56.7
368(10) 0.00980 332.6 51.7
368(10) 0.01009 332.7 46.7
360(10) 0.00974 332.8 42.0
369(10) 0.00910 332.9 37.8
394(11) 0.00882 333.0 34.0
381(10) 0.00945 333.1 30.7
362(10) 0.01019 333.1 27.9
382(10) 0.00923 333.2 25.5
374(10) 0.00908 333.3 23.5
358(10) 0.00982 333.4 21.8
353(10) 0.01036 333.5 20.3
338(10) 0.01094 333.6 19.1
356(10) 0.00955 333.7 18.0
340(10) 0.00937 333.8 17.1
351(10) 0.01004 333.9 16.2
374(10) 0.00998 333.9 15.5
376(10) 0.00972 334.0 14.8
326(9) 0.01116 334.1 14.2
339(10) 0.00943 334.2 13.6
325(10) 0.01097 334.3 13.1
347(10) 0.01057 334.4 12.7
355(10) 0.01031 334.5 12.2
363(10) 0.00960 334.6 11.8
355(10) 0.00936 334.7 11.4
359(10) 0.00950 334.8 11.1
341(10) 0.01074 334.8 10.8
311(9) 0.01193 334.9 10.4
345(10) 0.00982 335.0 10.2
330(10) 0.00989 335.1 9.9
331(10) 0.01037 335.2 9.6
330(9) 0.01125 335.3 9.4
359(10) 0.00997 335.4 9.2
355(10) 0.00977 335.5 9.0
339(10) 0.01029 335.6 8.8
364(10) 0.00949 335.6 8.6
350(10) 0.01057 335.7 8.4
353(10) 0.01033 335.8 8.3
351(10) 0.00982 335.9 8.1
379(11) 0.00849 336.0 8.0
339(10) 0.01007 336.1 7.8
336(10) 0.01100 336.2 7.7
319(10) 0.01094 336.3 7.6
357(10) 0.00961 336.4 7.4
354(10) 0.00932 336.4 7.3
330(10) 0.01093 336.5 7.2
354(10) 0.01044 336.6 7.1
359(10) 0.00958 336.7 7.0
340(10) 0.00989 336.8 6.9
314(10) 0.01097 336.9 6.9
331(10) 0.01082 337.0 6.8
334(10) 0.01107 337.1 6.7
321(10) 0.01070 337.2 6.6
342(10) 0.00969 337.3 6.5
326(10) 0.01067 337.3 6.5
333(10) 0.01046 337.4 6.4
327(9) 0.01132 337.5 6.3
338(10) 0.01034 337.6 6.3
349(10) 0.00931 337.7 6.2
367(10) 0.00912 337.8 6.2
329(10) 0.01086 337.9 6.1
341(10) 0.01073 338.0 6.1
315(9) 0.01110 338.1 6.0
334(10) 0.00970 338.1 6.0
337(10) 0.01044 338.2 5.9
322(9) 0.01146 338.3 5.9
302(9) 0.01234 338.4 5.8
374(10) 0.00911 338.5 5.8
350(10) 0.00911 338.6 5.7
321(10) 0.01081 338.7 5.7
345(10) 0.01075 338.8 5.7
327(9) 0.01145 338.9 5.7
338(10) 0.01069 339.0 5.6
345(10) 0.00937 339.0 5.6
331(10) 0.01036 339.1 5.6
340(10) 0.01087 339.2 5.6
323(9) 0.01119 339.3 5.5
321(10) 0.01096 339.4 5.5
319(10) 0.01053 339.5 5.5
327(10) 0.01053 339.6 5.5
349(10) 0.01059 339.7 5.5
335(10) 0.01087 339.8 5.5
336(10) 0.01025 339.8 5.5
342(10) 0.00986 339.9 5.5
337(10) 0.01019 340.0 5.5
359(10) 0.01028 340.1 5.5
338(10) 0.01099 340.2 5.5
334(10) 0.01074 340.3 5.5
339(10) 0.01014 340.4 5.5
345(10) 0.01004 340.5 5.6
334(9) 0.01112 340.6 5.6
351(10) 0.00981 340.7 5.6
333(10) 0.01050 340.7 5.6
324(10) 0.01080 340.8 5.6
372(10) 0.00935 340.9 5.7
363(10) 0.01034 341.0 5.7
333(10) 0.01044 341.1 5.7
339(10) 0.01018 341.2 5.8
355(10) 0.00974 341.3 5.8
355(10) 0.01000 341.4 5.8
338(10) 0.01098 341.5 5.9
342(10) 0.01055 341.5 5.9
361(10) 0.00924 341.6 6.0
333(10) 0.01008 341.7 6.0
332(10) 0.01103 341.8 6.1
346(10) 0.01068 341.9 6.1
328(10) 0.01096 342.0 6.2
336(10) 0.01001 342.1 6.3
376(11) 0.00894 342.2 6.3
339(10) 0.01097 342.3 6.4
339(10) 0.01092 342.3 6.5
347(10) 0.01018 342.4 6.5
351(10) 0.00918 342.5 6.6
351(10) 0.00982 342.6 6.7
359(10) 0.01036 342.7 6.8
329(9) 0.01124 342.8 6.9
358(10) 0.00945 342.9 7.0
329(10) 0.01011 342.9 7.1
341(10) 0.01033 342.9 7.2
330(9) 0.01115 342.9 7.3
348(10) 0.01051 342.9 7.5
353(10) 0.00987 343.0 7.6
353(11) 0.00881 343.0 7.7
338(10) 0.01034 343.0 7.9
355(10) 0.01037 343.0 8.0
338(10) 0.01091 343.0 8.2
336(10) 0.01036 343.1 8.4
328(10) 0.01024 343.1 8.5
351(10) 0.00971 343.1 8.7
321(9) 0.01161 343.1 8.9
366(10) 0.00989 343.1 9.1
332(10) 0.01103 343.2 9.4
365(11) 0.00886 343.2 9.6
342(10) 0.01008 343.2 9.9
352(10) 0.01064 343.2 10.2
367(10) 0.00998 343.2 10.5
359(10) 0.00947 343.3 10.8
339(10) 0.01010 343.3 11.1
362(10) 0.00961 343.3 11.5
353(10) 0.01057 343.3 11.9
345(10) 0.01028 343.3 12.3
353(10) 0.00950 343.4 12.8
353(10) 0.00963 343.4 13.4
340(10) 0.01041 343.4 13.9
359(10) 0.01046 343.4 14.6
364(10) 0.00935 343.4 15.3
371(10) 0.00917 343.5 16.0
368(11) 0.00888 343.5 16.9
324(10) 0.01096 343.5 17.8
339(10) 0.01096 343.5 18.8
375(10) 0.00920 343.5 19.9
346(10) 0.00993 343.6 21.0
375(10) 0.00923 343.6 22.3
370(10) 0.00981 343.6 23.5
379(10) 0.00977 343.6 24.9
391(11) 0.00896 343.6 26.2
375(11) 0.00905 343.7 27.6
374(10) 0.00918 343.7 28.9
378(10) 0.00956 343.7 30.0
367(10) 0.01014 343.7 31.0
389(11) 0.00876 343.7 31.9
403(11) 0.00783 343.8 32.5
370(10) 0.00927 343.8 33.0
361(10) 0.01002 343.8 33.4
348(10) 0.01070 343.8 33.8
345(10) 0.01016 343.8 34.2
382(11) 0.00804 343.9 34.6
384(11) 0.00880 343.9 35.3
360(10) 0.01042 343.9 36.0
381(10) 0.00963 343.9 37.0
394(11) 0.00892 343.9 38.2
384(11) 0.00847 344.0 39.6
371(10) 0.00947 344.0 41.3
373(10) 0.00980 344.0 43.3
394(10) 0.00939 344.0 45.5
403(11) 0.00877 344.0 48.1
414(11) 0.00768 344.1 51.0
394(11) 0.00875 344.1 54.2
367(10) 0.01014 344.1 57.7
402(11) 0.00885 344.1 61.6
391(11) 0.00887 344.1 65.9
394(11) 0.00858 344.2 70.6
397(11) 0.00887 344.2 75.6
402(10) 0.00921 344.2 80.9
429(11) 0.00845 344.2 86.7
437(11) 0.00776 344.2 92.7
417(11) 0.00803 344.3 99.0
422(11) 0.00820 344.3 105.5
436(11) 0.00839 344.3 112.1
449(11) 0.00816 344.3 118.6
475(12) 0.00711 344.3 124.8
449(11) 0.00779 344.4 130.7
430(11) 0.00822 344.4 135.9
473(11) 0.00789 344.4 140.3
471(12) 0.00741 344.4 143.7
420(11) 0.00811 344.4 146.0
437(11) 0.00778 344.5 147.1
476(12) 0.00742 344.5 147.1
447(11) 0.00832 344.5 145.9
459(11) 0.00769 344.5 143.8
456(12) 0.00750 344.5 140.9
439(11) 0.00803 344.6 137.3
429(11) 0.00846 344.6 133.2
437(11) 0.00850 344.6 128.7
469(12) 0.00736 344.6 124.0
432(11) 0.00767 344.6 119.2
438(11) 0.00807 344.7 114.2
459(11) 0.00784 344.7 109.3
430(11) 0.00875 344.7 104.4
411(11) 0.00819 344.7 99.5
413(11) 0.00791 344.7 94.8
421(11) 0.00808 344.8 90.3
434(11) 0.00844 344.8 85.8
455(11) 0.00808 344.8 81.5
410(11) 0.00871 344.8 77.4
424(11) 0.00757 344.8 73.4
421(11) 0.00831 344.9 69.5
407(10) 0.00916 344.9 65.8
400(10) 0.00916 344.9 62.2
376(10) 0.00913 344.9 58.8
404(11) 0.00774 345.0 55.6
390(10) 0.00915 345.0 52.5
394(10) 0.00930 345.0 49.7
383(10) 0.00951 345.0 47.0
380(11) 0.00899 345.0 44.5
390(11) 0.00832 345.1 42.3
389(11) 0.00906 345.1 40.2
373(10) 0.00988 345.1 38.3
364(10) 0.01020 345.1 36.8
367(10) 0.00930 345.1 36.4
365(11) 0.00877 345.2 39.6
375(10) 0.00925 345.2 53.0
401(10) 0.00932 345.2 83.4
430(11) 0.00833 345.2 124.4
440(11) 0.00795 345.2 149.1
423(11) 0.00791 345.3 133.5
382(10) 0.00922 345.3 91.6
363(10) 0.01025 345.3 54.0
350(10) 0.01042 345.3 33.6
383(11) 0.00891 345.3 25.7
388(11) 0.00876 345.4 23.1
371(10) 0.00966 345.4 21.9
385(10) 0.00968 345.4 21.0
363(10) 0.00966 345.4 20.3
350(10) 0.00968 345.4 19.7
353(10) 0.01022 345.5 19.2
373(10) 0.00964 345.5 18.7
349(10) 0.01061 345.5 18.2
365(10) 0.00964 345.5 17.8
377(11) 0.00900 345.5 17.5
350(10) 0.00979 345.6 17.1
369(10) 0.00986 345.6 16.8
366(10) 0.01020 345.6 16.6
364(10) 0.00926 345.6 16.3
363(10) 0.00934 345.6 16.1
372(10) 0.00921 345.7 15.9
349(10) 0.01031 345.7 15.7
341(10) 0.01091 345.7 15.6
360(10) 0.00928 345.7 15.5
354(10) 0.00965 345.7 15.4
367(10) 0.00952 345.8 15.3
364(10) 0.01003 345.8 15.2
354(10) 0.01042 345.8 15.2
363(10) 0.00916 345.8 15.2
359(11) 0.00890 345.8 15.2
362(10) 0.00935 345.9 15.3
344(10) 0.01076 345.9 15.4
343(10) 0.01079 345.9 15.6
353(10) 0.00992 345.9 15.8
395(11) 0.00793 345.9 16.0
373(10) 0.00951 346.0 16.4
340(10) 0.01080 346.0 16.8
356(10) 0.01018 346.0 17.3
383(11) 0.00905 346.0 18.0
382(11) 0.00823 346.0 18.8
365(10) 0.00945 346.1 19.9
387(10) 0.00968 346.1 21.4
390(10) 0.00954 346.1 23.4
373(10) 0.00927 346.1 26.5
365(11) 0.00883 346.1 31.0
402(11) 0.00855 346.2 37.7
441(11) 0.00853 346.2 47.5
406(11) 0.00894 346.2 61.0
438(11) 0.00786 346.2 78.5
503(12) 0.00648 346.2 99.8
522(12) 0.00648 346.3 122.8
566(12) 0.00663 346.3 143.8
603(13) 0.00595 346.3 157.0
593(13) 0.00578 346.3 157.4
499(12) 0.00693 346.3 144.9
514(12) 0.00681 346.4 124.8
464(11) 0.00806 346.4 102.9
459(11) 0.00759 346.4 83.0
435(11) 0.00787 346.4 66.8
403(11) 0.00830 346.4 54.9
407(11) 0.00874 346.5 46.9
398(10) 0.00936 346.5 42.1
401(11) 0.00848 346.5 39.8
357(10) 0.00989 346.5 39.2
406(11) 0.00872 346.5 39.7
397(10) 0.00915 346.6 41.2
390(10) 0.00955 346.6 43.2
393(11) 0.00881 346.6 45.5
383(11) 0.00888 346.6 48.1
379(10) 0.00930 346.6 50.5
398(11) 0.00898 346.7 52.7
379(10) 0.00984 346.7 54.2
380(11) 0.00904 346.7 54.9
374(11) 0.00874 346.7 54.7
404(11) 0.00844 346.7 53.7
377(10) 0.00983 346.8 52.0
411(11) 0.00897 346.8 49.9
400(11) 0.00840 346.8 47.6
388(11) 0.00824 346.8 45.2
370(10) 0.00926 346.8 43.1
351(10) 0.01046 346.9 41.1
389(10) 0.00936 346.9 39.4
383(11) 0.00884 346.9 37.9
376(11) 0.00839 346.9 36.7
379(11) 0.00897 347.0 35.7
406(10) 0.00908 347.0 34.9
398(10) 0.00930 347.0 34.2
389(11) 0.00906 347.0 33.7
392(11) 0.00828 347.0 33.2
373(10) 0.00940 347.1 32.8
405(10) 0.00918 347.1 32.4
384(10) 0.00959 347.1 32.1
364(10) 0.00969 347.1 31.7
371(10) 0.00917 347.1 31.4
360(10) 0.00939 347.2 31.0
378(10) 0.00983 347.2 30.7
369(10) 0.00987 347.2 30.4
346(10) 0.01007 347.2 30.1
399(11) 0.00801 347.2 29.9
332(10) 0.01046 347.3 29.8
386(10) 0.00956 347.3 29.9
411(11) 0.00862 347.3 30.1
375(10) 0.00924 347.3 30.6
368(10) 0.00927 347.3 31.4
396(11) 0.00844 347.4 32.7
390(10) 0.00957 347.4 34.5
409(11) 0.00879 347.4 37.3
417(11) 0.00833 347.4 41.2
408(11) 0.00826 347.4 46.5
414(11) 0.00833 347.5 53.8
418(11) 0.00898 347.5 63.2
431(11) 0.00824 347.5 75.0
453(12) 0.00743 347.5 89.3
485(12) 0.00690 347.5 105.9
515(12) 0.00694 347.6 123.8
518(12) 0.00716 347.6 141.3
565(13) 0.00596 347.6 155.5
547(13) 0.00614 347.6 162.9
549(13) 0.00616 347.6 161.3
517(12) 0.00698 347.7 151.1
524(12) 0.00696 347.7 135.0
473(12) 0.00726 347.7 116.4
486(12) 0.00674 347.7 98.0
461(12) 0.00755 347.7 81.2
417(11) 0.00884 347.8 66.7
380(10) 0.00975 347.8 54.7
399(11) 0.00889 347.8 45.1
391(11) 0.00830 347.8 37.6
391(11) 0.00892 347.8 31.8
397(10) 0.00928 347.9 27.4
392(10) 0.00948 347.9 24.0
368(10) 0.00939 347.9 21.4
344(10) 0.00946 347.9 19.3
390(11) 0.00889 347.9 17.7
369(10) 0.00990 348.0 16.3
349(10) 0.01037 348.0 15.2
381(10) 0.00943 348.0 14.2
373(11) 0.00873 348.0 13.4
370(10) 0.00923 348.0 12.7
368(10) 0.00993 348.1 12.1
380(10) 0.00979 348.1 11.5
396(11) 0.00898 348.1 11.1
368(11) 0.00888 348.1 10.7
346(10) 0.00993 348.1 10.3
375(10) 0.00985 348.2 10.0
358(10) 0.01029 348.2 9.8
351(10) 0.00982 348.2 9.6
342(10) 0.00979 348.2 9.4
355(10) 0.00992 348.2 9.3
346(10) 0.01074 348.3 9.2
360(10) 0.00990 348.3 9.2
349(10) 0.00974 348.3 9.3
339(10) 0.00957 348.3 9.3
355(10) 0.00981 348.3 9.5
376(10) 0.00989 348.4 9.7
380(10) 0.00940 348.4 9.9
386(11) 0.00877 348.4 10.2
366(11) 0.00901 348.4 10.5
341(10) 0.01038 348.4 10.8
334(10) 0.01107 348.5 11.2
364(10) 0.00961 348.5 11.5
384(11) 0.00866 348.5 11.7
364(10) 0.00979 348.5 11.9
361(10) 0.00971 348.5 11.9
375(10) 0.00987 348.6 11.8
368(10) 0.00943 348.6 11.5
360(10) 0.00952 348.6 11.2
365(10) 0.00954 348.6 10.7
355(10) 0.01048 348.6 10.3
361(10) 0.01032 348.6 9.8
346(10) 0.01005 348.5 9.4
372(11) 0.00870 348.5 9.0
346(10) 0.01019 348.5 8.6
360(10) 0.01005 348.5 8.3
341(10) 0.01094 348.4 8.0
343(10) 0.01047 348.4 7.8
366(11) 0.00903 348.4 7.6
341(10) 0.01024 348.4 7.4
337(9) 0.01113 348.4 7.3
382(10) 0.00950 348.3 7.2
368(10) 0.00945 348.3 7.2
372(11) 0.00888 348.3 7.1
362(10) 0.01001 348.3 7.1
359(10) 0.01017 348.3 7.1
364(10) 0.01001 348.2 7.2
342(10) 0.01018 348.2 7.2
315(10) 0.01051 348.2 7.3
360(10) 0.00961 348.2 7.4
384(10) 0.00967 348.2 7.5
368(10) 0.00995 348.1 7.6
373(11) 0.00898 348.1 7.8
364(11) 0.00869 348.1 7.9
355(10) 0.00987 348.1 8.2
352(10) 0.01057 348.1 8.4
337(10) 0.01101 348.0 8.6
335(10) 0.01023 348.0 8.9
333(10) 0.01010 348.0 9.3
366(10) 0.00919 348.0 9.6
359(10) 0.01038 348.0 10.1
354(10) 0.01008 347.9 10.5
383(11) 0.00883 347.9 11.1
368(11) 0.00890 347.9 11.7
362(10) 0.00973 347.9 12.4
368(10) 0.01008 347.9 13.2
372(10) 0.00957 347.8 14.1
365(10) 0.00967 347.8 15.2
377(10) 0.00915 347.8 16.4
376(10) 0.00945 347.8 17.9
376(10) 0.00985 347.7 19.8
350(10) 0.01040 347.7 22.0
381(11) 0.00881 347.7 24.9
398(11) 0.00853 347.7 28.5
355(10) 0.01012 347.7 33.2
382(10) 0.00969 347.6 39.4
419(11) 0.00823 347.6 47.3
395(11) 0.00870 347.6 57.4
409(11) 0.00828 347.6 70.1
417(11) 0.00834 347.6 85.4
449(11) 0.00831 347.5 103.4
459(12) 0.00739 347.5 123.7
453(12) 0.00730 347.5 145.0
470(12) 0.00692 347.5 165.2
488(12) 0.00732 347.5 181.0
527(12) 0.00706 347.4 188.8
532(12) 0.00651 347.4 186.5
507(12) 0.00647 347.4 174.9
456(11) 0.00765 347.4 157.1
448(11) 0.00816 347.4 136.8
443(11) 0.00842 347.3 116.8
413(11) 0.00862 347.3 98.6
420(11) 0.00756 347.3 83.1
392(11) 0.00885 347.3 70.4
412(11) 0.00904 347.3 60.5
386(10) 0.00956 347.2 53.0
388(10) 0.00924 347.2 47.7
396(11) 0.00794 347.2 44.0
384(11) 0.00905 347.2 41.6
400(10) 0.00923 347.2 40.2
389(10) 0.00950 347.1 39.5
369(10) 0.00952 347.1 39.1
383(11) 0.00832 347.1 38.8
376(10) 0.00921 347.1 38.3
357(10) 0.01039 347.1 37.6
356(10) 0.01021 347.0 36.6
387(11) 0.00896 347.0 35.1
356(10) 0.00954 347.0 33.3
378(10) 0.00911 347.0 31.3
356(10) 0.01036 346.9 29.1
365(10) 0.00983 346.9 26.9
355(10) 0.01000 346.9 24.7
366(11) 0.00882 346.9 22.7
370(10) 0.00912 346.9 20.8
384(10) 0.00976 346.8 19.0
359(10) 0.01016 346.8 17.5
359(10) 0.00953 346.8 16.1
339(10) 0.00992 346.8 14.8
371(10) 0.00931 346.8 13.7
343(10) 0.01080 346.7 12.7
361(10) 0.00919 346.7 11.9
354(10) 0.00949 346.7 11.1
355(10) 0.00926 346.7 10.5
340(10) 0.01052 346.7 9.9
365(10) 0.01022 346.6 9.4
355(10) 0.00988 346.6 8.9
358(10) 0.00943 346.6 8.5
342(10) 0.01010 346.6 8.2
331(10) 0.01085 346.6 7.9
379(10) 0.00980 346.5 7.6
360(10) 0.00966 346.5 7.4
360(10) 0.00934 346.5 7.2
335(10) 0.01062 346.5 7.0
369(10) 0.00941 346.5 6.8
342(10) 0.01089 346.4 6.6
372(10) 0.00916 346.4 6.5
347(10) 0.01015 346.4 6.4
410(11) 0.00825 346.4 6.2
363(10) 0.01012 346.4 6.1
337(10) 0.01102 346.3 6.0
358(10) 0.00931 346.3 5.9
343(10) 0.00934 346.3 5.9
354(10) 0.00992 346.3 5.8
371(10) 0.00983 346.2 5.7
338(10) 0.01104 346.2 5.7
371(10) 0.00930 346.2 5.6
340(10) 0.00983 346.2 5.6
331(10) 0.01074 346.2 5.5
332(9) 0.01113 346.1 5.5
347(10) 0.01070 346.1 5.5
366(10) 0.00939 346.1 5.5
351(10) 0.00908 346.1 5.4
369(10) 0.00956 346.1 5.4
357(10) 0.01035 346.0 5.4
333(10) 0.01104 346.0 5.4
380(11) 0.00907 346.0 5.4
340(10) 0.00954 346.0 5.4
351(10) 0.00965 346.0 5.4
343(10) 0.01084 345.9 5.4
352(10) 0.01004 345.9 5.5
364(10) 0.00930 345.9 5.5
328(10) 0.01037 345.9 5.5
360(10) 0.00956 345.9 5.5
337(10) 0.01101 345.8 5.6
331(10) 0.01106 345.8 5.6
351(10) 0.00982 345.8 5.6
349(10) 0.00942 345.8 5.7
350(10) 0.00958 345.8 5.7
321(9) 0.01146 345.7 5.8
333(10) 0.01064 345.7 5.8
386(11) 0.00876 345.8 5.9
344(10) 0.00975 345.8 5.9
351(10) 0.00982 345.8 6.0
334(9) 0.01109 345.8 6.1
338(10) 0.01070 345.9 6.2
341(10) 0.01017 345.9 6.2
359(10) 0.00953 345.9 6.3
341(10) 0.01053 345.9 6.4
363(10) 0.01019 345.9 6.5
349(10) 0.01016 346.0 6.6
359(10) 0.00942 346.0 6.7
357(10) 0.00967 346.0 6.8
360(10) 0.01003 346.0 7.0
348(10) 0.01069 346.0 7.1
373(10) 0.00945 346.1 7.2
363(11) 0.00896 346.1 7.4
351(10) 0.00970 346.1 7.5
337(10) 0.01081 346.1 7.7
364(10) 0.01018 346.1 7.8
362(10) 0.00947 346.2 8.0
384(11) 0.00829 346.2 8.2
362(10) 0.00924 346.2 8.4
333(10) 0.01104 346.2 8.6
356(10) 0.01022 346.3 8.8
375(10) 0.00931 346.3 9.1
349(10) 0.00921 346.3 9.3
335(10) 0.01030 346.3 9.6
356(10) 0.01035 346.3 9.9
357(10) 0.01047 346.4 10.2
355(10) 0.00958 346.4 10.5
336(10) 0.00967 346.4 10.9
343(10) 0.01015 346.4 11.3
340(10) 0.01072 346.4 11.7
356(10) 0.01024 346.5 12.1
355(10) 0.01033 346.5 12.6
383(11) 0.00884 346.5 13.1
386(11) 0.00899 346.5 13.6
329(9) 0.01125 346.5 14.2
371(10) 0.00995 346.6 14.8
380(10) 0.00925 346.6 15.5
346(10) 0.00970 346.6 16.3
373(10) 0.00923 346.6 17.1
354(10) 0.01054 346.6 18.0
364(10) 0.01004 346.7 18.9
382(10) 0.00926 346.7 19.9
384(11) 0.00861 346.7 21.0
371(11) 0.00900 346.7 22.2
362(10) 0.01028 346.8 23.5
368(10) 0.00951 346.8 24.9
372(11) 0.00899 346.8 26.4
361(10) 0.00935 346.8 28.0
391(10) 0.00913 346.8 29.7
375(10) 0.00992 346.9 31.5
360(10) 0.00996 346.9 33.4
375(10) 0.00924 346.9 35.5
389(11) 0.00871 346.9 37.7
379(10) 0.00951 346.9 40.0
387(10) 0.00970 347.0 42.3
361(10) 0.00973 347.0 44.8
370(10) 0.00914 347.0 47.4
376(11) 0.00890 347.0 49.9
381(10) 0.00947 347.0 52.5
382(10) 0.00967 347.1 55.1
388(11) 0.00859 347.1 57.6
399(11) 0.00826 347.1 60.0
410(11) 0.00817 347.1 62.2
408(11) 0.00895 347.2 64.1
396(10) 0.00950 347.2 65.7
383(10) 0.00925 347.2 67.0
406(11) 0.00812 347.2 67.9
412(11) 0.00854 347.2 68.3
407(11) 0.00885 347.3 68.4
404(10) 0.00931 347.3 68.0
393(11) 0.00869 347.3 67.2
363(10) 0.00908 347.3 66.1
379(10) 0.00925 347.3 64.7
400(10) 0.00916 347.4 63.0
420(11) 0.00850 347.4 61.1
412(11) 0.00821 347.4 59.1
384(11) 0.00801 347.4 57.0
406(11) 0.00837 347.4 54.9
416(11) 0.00868 347.5 52.8
388(10) 0.00942 347.5 50.8
385(10) 0.00907 347.5 48.8
403(11) 0.00828 347.5 47.0
372(10) 0.00938 347.6 45.3
401(10) 0.00917 347.6 43.8
395(10) 0.00939 347.6 42.5
365(10) 0.00983 347.6 41.4
409(11) 0.00794 347.6 40.5
401(11) 0.00854 347.7 39.8
391(10) 0.00952 347.7 39.4
380(10) 0.00962 347.7 39.2
389(11) 0.00892 347.7 39.4
410(11) 0.00810 347.7 39.8
388(11) 0.00907 347.8 40.6
415(11) 0.00903 347.8 41.7
428(11) 0.00819 347.8 43.1
418(11) 0.00816 347.8 44.8
414(11) 0.00819 347.8 46.8
433(11) 0.00806 347.9 49.1
442(11) 0.00833 347.9 51.6
458(11) 0.00762 347.9 54.2
460(12) 0.00721 347.9 56.6
425(11) 0.00820 347.9 58.8
459(11) 0.00767 348.0 60.4
438(11) 0.00856 348.0 61.4
423(11) 0.00838 348.0 61.5
429(11) 0.00786 348.0 61.0
420(11) 0.00826 348.1 59.9
448(11) 0.00787 348.1 58.4
421(11) 0.00878 348.1 56.7
456(12) 0.00737 348.1 55.1
404(11) 0.00817 348.1 53.6
419(11) 0.00816 348.2 52.3
410(11) 0.00877 348.2 51.3
414(11) 0.00902 348.2 50.6
429(11) 0.00781 348.2 50.3
429(11) 0.00759 348.2 50.3
394(11) 0.00864 348.3 50.7
415(11) 0.00893 348.3 51.4
456(11) 0.00823 348.3 52.5
422(11) 0.00832 348.3 53.8
399(11) 0.00820 348.3 55.3
407(11) 0.00852 348.4 56.7
375(10) 0.00957 348.4 57.8
423(11) 0.00878 348.4 58.4
429(11) 0.00804 348.4 58.4
429(12) 0.00744 348.5 58.0
408(11) 0.00845 348.5 57.4
397(10) 0.00926 348.5 56.7
404(10) 0.00923 348.5 56.1
394(11) 0.00866 348.5 55.4
402(11) 0.00802 348.6 54.8
396(11) 0.00873 348.6 54.1
393(10) 0.00948 348.6 53.3
397(11) 0.00906 348.6 52.5
416(11) 0.00846 348.6 51.6
423(11) 0.00779 348.7 50.6
417(11) 0.00827 348.7 49.5
417(11) 0.00899 348.7 48.3
392(10) 0.00922 348.7 47.2
391(11) 0.00872 348.7 46.0
416(11) 0.00801 348.8 44.7
408(11) 0.00863 348.8 43.5
438(11) 0.00837 348.8 42.3
388(10) 0.00956 348.8 41.1
415(11) 0.00821 348.8 39.9
395(11) 0.00828 348.9 38.8
384(10) 0.00912 348.9 37.6
356(10) 0.01025 348.9 36.5
387(10) 0.00943 348.9 35.5
396(11) 0.00854 349.0 34.4
394(11) 0.00876 349.0 33.4
389(11) 0.00900 349.0 32.4
367(10) 0.01003 349.0 31.4
388(10) 0.00922 349.0 30.5
384(11) 0.00875 349.1 29.5
399(11) 0.00871 349.1 28.6
387(10) 0.00910 349.1 27.6
371(10) 0.00989 349.1 26.7
370(10) 0.00931 349.1 25.8
382(11) 0.00877 349.2 24.9
393(11) 0.00866 349.2 24.0
381(10) 0.00961 349.2 23.2
364(10) 0.01015 349.2 22.4
369(10) 0.00928 349.2 21.6
406(11) 0.00831 349.3 20.8
392(11) 0.00883 349.3 20.1
368(10) 0.00983 349.3 19.3
363(10) 0.01029 349.3 18.7
376(10) 0.00911 349.4 18.0
359(10) 0.00921 349.4 17.4
364(10) 0.00961 349.4 16.8
390(10) 0.00950 349.4 16.3
369(10) 0.00987 349.4 15.7
354(10) 0.00985 349.5 15.2
359(11) 0.00877 349.5 14.7
363(10) 0.00929 349.5 14.3
348(10) 0.01084 349.5 13.9
378(10) 0.00958 349.5 13.5
372(11) 0.00893 349.6 13.1
344(10) 0.00953 349.6 12.7
387(11) 0.00878 349.6 12.4
350(10) 0.01065 349.6 12.1
353(10) 0.01032 349.6 11.8
371(10) 0.00971 349.7 11.5
384(11) 0.00871 349.7 11.2
380(11) 0.00854 349.7 11.0
373(10) 0.01001 349.7 10.7
370(10) 0.00990 349.8 10.5
355(10) 0.00949 349.8 10.3
343(10) 0.00942 349.8 10.1
344(10) 0.00979 349.8 9.9
336(9) 0.01113 349.8 9.7
366(10) 0.00978 349.9 9.6
360(10) 0.00946 349.9 9.4
364(10) 0.00927 349.9 9.3
360(10) 0.00955 349.9 9.2
368(10) 0.01011 349.9 9.0
386(10) 0.00941 350.0 8.9
352(10) 0.00968 350.0 8.8
381(11) 0.00868 350.0 8.7
367(10) 0.00967 350.0 8.7
349(10) 0.01071 350.0 8.6
336(10) 0.01051 350.1 8.6
354(10) 0.00966 350.1 8.5
364(10) 0.00932 350.1 8.5
362(10) 0.00965 350.1 8.5
382(10) 0.00965 350.1 8.5
347(10) 0.01016 350.2 8.5
369(10) 0.00922 350.2 8.5
399(11) 0.00851 350.2 8.6
362(10) 0.00997 350.2 8.7
331(9) 0.01126 350.3 8.7
354(10) 0.00953 350.3 8.9
345(10) 0.00958 350.3 9.0
343(10) 0.01016 350.3 9.1
362(10) 0.00979 350.3 9.3
372(10) 0.01007 350.4 9.4
383(11) 0.00860 350.4 9.5
376(11) 0.00892 350.4 9.7
358(10) 0.00978 350.4 9.8
343(10) 0.01057 350.4 9.9
350(10) 0.01074 350.5 9.9
384(10) 0.00908 350.5 10.0
359(10) 0.00917 350.5 10.1
343(10) 0.00985 350.5 10.2
368(10) 0.00987 350.5 10.3
342(10) 0.01091 350.6 10.5
370(10) 0.00922 350.6 10.7
342(10) 0.00979 350.6 10.9
354(10) 0.00981 350.6 11.2
350(10) 0.01070 350.7 11.5
354(10) 0.01038 350.7 11.8
373(10) 0.00935 350.7 12.2
352(10) 0.00941 350.7 12.6
371(10) 0.00921 350.7 13.1
363(10) 0.01025 350.8 13.6
353(10) 0.01062 350.8 14.2
367(10) 0.00956 350.8 14.8
370(11) 0.00892 350.8 15.5
391(11) 0.00858 350.8 16.2
378(10) 0.00986 350.9 17.0
392(10) 0.00918 350.9 18.0
360(10) 0.00961 350.9 19.0
372(11) 0.00897 350.9 20.2
374(10) 0.00940 350.9 21.6
364(10) 0.01013 351.0 23.1
354(10) 0.01035 351.0 24.9
371(10) 0.00921 351.0 27.0
377(11) 0.00893 351.0 29.3
390(11) 0.00892 351.1 31.9
385(10) 0.00974 351.1 34.7
375(10) 0.00933 351.1 37.5
382(11) 0.00875 351.1 40.2
377(10) 0.00910 351.1 42.4
400(11) 0.00905 351.2 43.9
411(11) 0.00896 351.2 44.3
390(11) 0.00886 351.2 43.6
410(11) 0.00814 351.2 41.8
368(10) 0.00947 351.2 39.3
364(10) 0.01002 351.3 36.3
373(10) 0.00999 351.3 33.3
369(10) 0.00925 351.3 30.4
358(10) 0.00978 351.3 27.7
383(10) 0.00924 351.3 25.2
357(10) 0.01040 351.4 23.1
372(10) 0.01000 351.4 21.4
394(11) 0.00871 351.4 19.9
391(11) 0.00868 351.4 18.7
379(11) 0.00901 351.4 17.7
370(10) 0.00984 351.5 17.0
358(10) 0.01051 351.5 16.4
372(10) 0.00940 351.5 16.0
374(11) 0.00892 351.5 15.7
364(10) 0.00963 351.6 15.5
365(10) 0.01023 351.6 15.4
388(10) 0.00948 351.6 15.4
357(10) 0.00980 351.6 15.5
363(10) 0.00908 351.6 15.6
386(10) 0.00911 351.7 15.8
371(10) 0.01000 351.7 16.0
383(10) 0.00960 351.7 16.3
383(11) 0.00885 351.7 16.7
384(11) 0.00861 351.7 17.1
415(11) 0.00835 351.8 17.6
386(10) 0.00964 351.8 18.1
382(10) 0.00958 351.8 18.7
365(10) 0.00947 351.8 19.4
383(11) 0.00878 351.8 20.1
390(10) 0.00915 351.9 21.0
370(10) 0.01002 351.9 22.0
412(11) 0.00879 351.9 23.1
375(10) 0.00954 351.9 24.4
375(11) 0.00887 352.0 26.0
384(11) 0.00893 352.0 27.8
393(10) 0.00940 352.0 29.9
361(10) 0.01018 352.0 32.4
377(10) 0.00911 352.0 35.4
406(11) 0.00823 352.1 39.1
434(11) 0.00797 352.1 43.4
401(10) 0.00928 352.1 48.5
434(11) 0.00822 352.1 54.5
427(11) 0.00800 352.1 61.4
421(11) 0.00817 352.2 69.2
436(11) 0.00826 352.2 78.0
453(11) 0.00819 352.2 87.4
465(11) 0.00768 352.2 97.1
457(12) 0.00754 352.2 106.4
440(11) 0.00790 352.3 114.4
463(11) 0.00772 352.3 120.0
503(12) 0.00740 352.3 122.3
501(12) 0.00676 352.3 120.9
498(12) 0.00662 352.4 116.1
482(12) 0.00719 352.4 108.8
456(11) 0.00799 352.4 100.1
423(11) 0.00872 352.4 90.9
444(11) 0.00770 352.4 82.0
418(11) 0.00804 352.5 73.7
415(11) 0.00846 352.5 66.2
433(11) 0.00825 352.5 59.7
390(10) 0.00964 352.5 54.1
358(10) 0.00996 352.5 49.3
411(11) 0.00774 352.6 45.4
408(11) 0.00877 352.6 42.0
411(11) 0.00899 352.6 39.3
380(10) 0.00986 352.6 37.0
404(11) 0.00870 352.6 35.0
383(11) 0.00874 352.7 33.4
389(11) 0.00884 352.7 32.0
364(10) 0.01021 352.7 30.8
387(10) 0.00952 352.7 29.8
374(10) 0.00942 352.7 28.9
363(10) 0.00911 352.8 28.0
365(10) 0.00961 352.8 27.2
397(10) 0.00927 352.8 26.5
364(10) 0.01015 352.8 25.8
382(11) 0.00889 352.9 25.2
361(10) 0.00954 352.9 24.5
417(11) 0.00828 352.9 24.0
414(11) 0.00897 352.9 23.4
371(10) 0.00952 352.9 22.8
345(10) 0.00980 353.0 22.3
369(11) 0.00866 353.0 21.8
349(10) 0.01002 353.0 21.3
379(10) 0.00979 353.0 20.8
371(10) 0.00966 353.0 20.3
382(11) 0.00900 353.1 19.9
380(11) 0.00881 353.1 19.4
393(11) 0.00888 353.1 19.0
394(10) 0.00950 353.1 18.5
345(10) 0.01006 353.1 18.1
345(10) 0.01015 353.2 17.7
370(10) 0.00948 353.2 17.3
390(11) 0.00884 353.2 16.9
354(10) 0.01042 353.2 16.6
381(10) 0.00943 353.3 16.2
383(11) 0.00888 353.3 15.9
379(10) 0.00913 353.3 15.5
362(10) 0.00996 353.3 15.2
339(10) 0.01098 353.3 14.9
360(10) 0.00985 353.4 14.6
370(10) 0.00930 353.4 14.3
363(10) 0.00941 353.4 14.0
359(10) 0.01032 353.4 13.8
368(10) 0.01013 353.4 13.5
354(10) 0.00947 353.5 13.3
359(10) 0.00920 353.5 13.1
393(11) 0.00850 353.5 12.8
398(10) 0.00928 353.5 12.6
354(10) 0.01045 353.5 12.5
380(11) 0.00894 353.6 12.3
362(10) 0.00918 353.6 12.1
369(10) 0.00947 353.6 12.0
369(10) 0.01010 353.6 11.8
379(10) 0.00969 353.6 11.7
368(10) 0.00951 353.7 11.6
370(11) 0.00905 353.7 11.5
370(10) 0.00918 353.7 11.4
367(10) 0.01025 353.7 11.4
359(10) 0.01028 353.8 11.3
362(10) 0.00965 353.8 11.3
358(11) 0.00889 353.8 11.2
335(10) 0.01074 353.8 11.2
355(10) 0.01050 353.8 11.2
363(10) 0.01031 353.9 11.2
380(10) 0.00909 353.9 11.2
334(10) 0.01018 353.9 11.2
369(10) 0.00914 353.9 11.3
399(10) 0.00935 353.9 11.3
355(10) 0.01001 354.0 11.4
374(11) 0.00902 354.0 11.5
351(10) 0.00992 354.0 11.6
347(10) 0.00996 354.0 11.7
335(10) 0.01105 354.0 11.8
351(10) 0.01046 354.1 11.9
387(10) 0.00908 354.1 12.0
382(11) 0.00906 354.1 12.1
376(10) 0.00944 354.1 12.3
370(10) 0.01000 354.2 12.4
353(10) 0.01012 354.2 12.6
336(10) 0.01036 354.2 12.7
363(10) 0.00938 354.2 12.9
368(10) 0.00925 354.2 13.1
357(10) 0.01034 354.3 13.3
361(10) 0.00977 354.3 13.4
394(11) 0.00863 354.3 13.6
379(11) 0.00901 354.3 13.8
379(10) 0.00932 354.3 13.9
355(10) 0.01042 354.4 14.1
371(10) 0.00921 354.4 14.2
373(11) 0.00897 354.4 14.3
365(11) 0.00896 354.4 14.4
356(10) 0.01011 354.4 14.5
377(10) 0.00979 354.5 14.6
366(10) 0.00946 354.5 14.6
377(11) 0.00882 354.5 14.6
349(10) 0.01021 354.5 14.6
371(10) 0.01005 354.5 14.5
356(10) 0.01036 354.6 14.4
356(10) 0.00980 354.6 14.3
376(11) 0.00867 354.6 14.1
342(10) 0.01067 354.6 13.9
350(10) 0.01051 354.6 13.7
354(10) 0.01057 354.7 13.5
375(11) 0.00888 354.7 13.3
377(11) 0.00840 354.7 13.0
351(10) 0.00990 354.7 12.7
379(10) 0.00984 354.8 12.4
382(10) 0.00969 354.8 12.1
368(10) 0.00937 354.8 11.8
379(11) 0.00841 354.8 11.5
369(10) 0.00946 354.8 11.2
387(10) 0.00945 354.9 10.9
356(10) 0.01042 354.9 10.6
362(10) 0.00972 354.9 10.3
354(10) 0.00926 354.9 10.0
367(10) 0.00942 354.9 9.7
369(10) 0.01002 355.0 9.5
357(10) 0.01026 355.0 9.2
351(10) 0.01010 355.0 9.0
334(10) 0.01022 355.0 8.7
371(10) 0.00926 355.0 8.5
345(10) 0.01078 355.1 8.3
386(10) 0.00939 355.1 8.1
370(10) 0.00964 355.1 7.9
375(10) 0.00919 355.1 7.7
396(11) 0.00852 355.1 7.5
353(10) 0.01055 355.2 7.3
334(10) 0.01085 355.2 7.2
344(10) 0.01022 355.2 7.0
360(10) 0.00944 355.2 6.9
373(10) 0.00948 355.2 6.8
350(10) 0.01055 355.3 6.6
370(10) 0.00951 355.3 6.5
366(10) 0.00910 355.3 6.4
394(11) 0.00864 355.3 6.3
387(10) 0.00911 355.3 6.2
352(10) 0.01071 355.4 6.2
363(10) 0.00944 355.4 6.1
365(10) 0.00948 355.4 6.1
344(10) 0.01015 355.4 6.0
336(10) 0.01064 355.4 6.0
374(10) 0.00994 355.5 5.9
376(10) 0.00914 355.5 5.9
346(10) 0.01012 355.5 5.9
347(10) 0.01040 355.5 6.0
370(10) 0.00984 355.5 6.0
369(10) 0.01009 355.6 6.0
350(10) 0.00981 355.6 6.1
375(11) 0.00882 355.6 6.1
351(10) 0.01041 355.6 6.2
355(10) 0.01020 355.6 6.3
377(10) 0.00981 355.7 6.5
341(10) 0.01014 355.7 6.7
375(11) 0.00844 355.7 6.9
347(10) 0.01027 355.7 7.3
354(10) 0.01014 355.7 7.7
371(10) 0.00988 355.8 8.3
364(10) 0.00933 355.8 9.1
378(11) 0.00877 355.8 10.4
368(10) 0.00946 355.8 12.2
376(10) 0.00993 355.9 14.7
359(10) 0.01041 355.9 18.1
385(10) 0.00916 355.9 22.4
432(12) 0.00738 355.9 27.5
398(11) 0.00861 355.9 33.2
406(10) 0.00928 356.0 38.6
439(11) 0.00833 356.0 42.5
397(11) 0.00901 356.0 43.5
405(11) 0.00815 356.0 41.3
366(10) 0.00959 356.0 36.6
401(10) 0.00922 356.1 31.0
388(10) 0.00940 356.1 25.5
380(11) 0.00878 356.1 20.7
323(10) 0.01053 356.1 16.8
388(11) 0.00885 356.1 13.9
358(10) 0.01031 356.2 11.7
355(10) 0.00991 356.2 10.2
387(11) 0.00901 356.2 9.2
371(10) 0.00962 356.2 8.5
378(10) 0.00913 356.2 8.0
359(10) 0.01032 356.3 7.7
357(10) 0.00988 356.3 7.5
368(10) 0.00911 356.3 7.3
364(10) 0.00913 356.3 7.2
349(10) 0.01000 356.3 7.1
366(10) 0.01025 356.4 7.1
344(10) 0.01018 356.4 7.0
335(10) 0.00996 356.4 7.1
362(10) 0.00958 356.4 7.1
353(10) 0.01017 356.4 7.1
387(10) 0.00955 356.5 7.2
363(10) 0.01008 356.5 7.3
380(11) 0.00895 356.5 7.4
375(11) 0.00906 356.5 7.6
357(10) 0.01020 356.5 7.7
325(9) 0.01146 356.6 7.9
356(10) 0.00919 356.6 8.1
332(10) 0.01019 356.6 8.3
356(10) 0.00996 356.6 8.6
352(10) 0.01031 356.6 8.8
376(10) 0.00989 356.7 9.1
357(10) 0.00991 356.7 9.4
363(11) 0.00898 356.7 9.8
353(10) 0.00996 356.7 10.2
354(10) 0.01052 356.7 10.6
357(10) 0.01023 356.8 11.0
337(10) 0.01016 356.8 11.5
346(10) 0.00958 356.8 11.9
380(10) 0.00910 356.8 12.5
332(9) 0.01130 356.8 13.0
357(10) 0.01004 356.9 13.5
343(10) 0.01007 356.9 14.1
362(11) 0.00842 356.9 14.6
387(11) 0.00883 356.9 15.2
387(10) 0.00968 357.0 15.7
376(10) 0.00959 357.0 16.2
356(10) 0.00982 357.0 16.6
367(11) 0.00875 357.0 17.0
372(10) 0.00924 357.0 17.3
366(10) 0.01027 357.1 17.5
365(10) 0.00994 357.1 17.7
377(10) 0.00952 357.1 17.9
363(10) 0.00947 357.1 17.9
347(10) 0.01047 357.1 18.0
398(10) 0.00933 357.2 18.0
344(10) 0.01064 357.2 18.0
367(10) 0.00930 357.2 18.0
384(11) 0.00862 357.2 18.0
346(10) 0.01032 357.2 18.1
385(10) 0.00970 357.3 18.1
348(10) 0.01016 357.3 18.2
356(10) 0.00988 357.3 18.3
396(11) 0.00827 357.3 18.4
364(10) 0.00956 357.3 18.6
386(10) 0.00961 357.4 18.8
377(10) 0.00919 357.4 19.0
379(11) 0.00865 357.4 19.2
371(11) 0.00886 357.4 19.4
360(10) 0.00987 357.4 19.7
369(10) 0.01006 357.5 19.9
359(10) 0.00980 357.5 20.2
383(11) 0.00894 357.5 20.5
357(10) 0.01010 357.5 20.7
373(10) 0.00992 357.5 21.0
393(10) 0.00937 357.6 21.2
374(10) 0.00934 357.6 21.4
384(11) 0.00855 357.6 21.6
395(11) 0.00859 357.6 21.8
379(10) 0.00945 357.6 22.0
370(10) 0.01008 357.7 22.2
364(10) 0.00915 357.7 22.4
384(11) 0.00867 357.7 22.7
384(10) 0.00923 357.7 23.0
362(10) 0.01016 357.7 23.3
363(10) 0.01023 357.8 23.8
400(11) 0.00852 357.8 24.3
391(11) 0.00829 357.8 25.0
402(11) 0.00886 357.8 26.0
396(10) 0.00934 357.8 27.3
372(10) 0.01000 357.9 29.0
399(11) 0.00864 357.9 31.2
406(11) 0.00783 357.9 34.2
387(11) 0.00894 357.9 37.9
431(11) 0.00858 357.9 42.7
395(10) 0.00931 358.0 48.4
379(10) 0.00928 358.0 55.3
387(11) 0.00846 358.0 63.2
418(11) 0.00843 358.0 71.7
418(11) 0.00897 358.1 80.3
422(11) 0.00865 358.1 87.9
427(11) 0.00784 358.1 93.1
437(11) 0.00759 358.1 94.9
426(11) 0.00790 358.1 93.2
411(11) 0.00905 358.2 88.6
421(11) 0.00848 358.2 82.5
398(11) 0.00854 358.2 76.4
410(11) 0.00819 358.2 71.0
421(11) 0.00826 358.2 66.8
426(11) 0.00868 358.3 64.0
434(11) 0.00813 358.3 62.8
449(12) 0.00753 358.3 62.8
426(11) 0.00816 358.3 64.0
444(11) 0.00806 358.3 66.0
414(11) 0.00896 358.4 68.3
426(11) 0.00834 358.4 70.2
445(11) 0.00757 358.4 71.5
427(11) 0.00782 358.4 71.7
398(10) 0.00910 358.4 71.0
406(10) 0.00918 358.5 69.4
388(11) 0.00870 358.5 67.5
388(11) 0.00864 358.5 65.4
422(11) 0.00800 358.5 63.4
400(11) 0.00905 358.5 61.5
416(11) 0.00890 358.6 59.7
385(11) 0.00887 358.6 58.0
373(10) 0.00919 358.6 56.2
418(11) 0.00829 358.6 54.4
406(10) 0.00910 358.6 52.5
375(10) 0.00997 358.7 50.4
402(11) 0.00874 358.7 48.1
378(11) 0.00870 358.7 45.7
389(11) 0.00875 358.7 43.2
411(11) 0.00888 358.7 40.7
358(10) 0.01057 358.8 38.2
376(10) 0.00935 358.8 35.7
391(11) 0.00836 358.8 33.3
389(11) 0.00868 358.8 31.1
355(10) 0.01037 358.8 28.9
381(10) 0.00995 358.9 26.9
397(11) 0.00879 358.9 25.1
377(11) 0.00849 358.9 23.3
344(10) 0.00998 358.9 21.7
363(10) 0.01006 358.9 20.3
372(10) 0.01002 359.0 19.0
356(10) 0.00934 359.0 17.8
375(11) 0.00848 359.0 16.7
396(11) 0.00867 359.0 15.7
337(9) 0.01113 359.0 14.8
346(10) 0.01045 359.1 14.0
380(10) 0.00922 359.1 13.2
371(11) 0.00884 359.1 12.6
359(10) 0.00949 359.1 12.0
355(10) 0.01051 359.2 11.4
344(10) 0.01047 359.2 10.9
341(10) 0.01023 359.2 10.5
338(10) 0.01017 359.2 10.1
380(11) 0.00903 359.2 9.7
363(10) 0.01030 359.3 9.4
363(10) 0.00994 359.3 9.1
347(10) 0.00999 359.3 8.8
363(10) 0.00921 359.3 8.5
368(10) 0.00930 359.3 8.3
373(10) 0.01009 359.4 8.1
362(10) 0.00996 359.4 7.9
378(10) 0.00926 359.4 7.7
369(10) 0.00963 359.4 7.5
341(10) 0.01061 359.4 7.4
361(10) 0.01039 359.5 7.2
361(10) 0.00965 359.5 7.1
369(10) 0.00920 359.5 7.0
358(10) 0.00921 359.5 6.9
354(10) 0.00988 359.5 6.8
354(10) 0.01053 359.6 6.7
357(10) 0.00961 359.6 6.6
341(10) 0.00955 359.6 6.5
371(11) 0.00900 359.6 6.4
341(10) 0.01073 359.6 6.4
380(10) 0.00976 359.7 6.3
372(10) 0.00907 359.7 6.2
362(10) 0.00911 359.7 6.2
362(10) 0.00959 359.7 6.1
359(10) 0.01027 359.7 6.1
358(10) 0.01029 359.8 6.1
342(10) 0.01029 359.8 6.0
355(10) 0.00907 359.8 6.0
361(10) 0.00963 359.8 6.0
369(10) 0.01015 359.8 6.0
372(10) 0.00994 359.9 6.0
349(10) 0.00992 359.9 5.9
378(11) 0.00842 359.9 5.9
368(10) 0.00942 359.9 5.9
362(10) 0.01007 359.9 5.9
372(10) 0.00970 360.0 6.0
365(10) 0.00960 360.0 6.0
375(11) 0.00873 360.0 6.0
359(10) 0.00962 360.0 6.0
358(10) 0.01030 360.0 6.0
334(10) 0.01098 360.1 6.1
341(10) 0.00999 360.1 6.1
403(11) 0.00796 360.1 6.1
338(10) 0.01021 360.1 6.2
355(10) 0.01053 360.1 6.2
366(10) 0.00968 360.1 6.3
358(10) 0.00953 360.0 6.3
357(10) 0.00927 360.0 6.4
363(10) 0.00982 359.9 6.5
354(10) 0.01044 359.9 6.6
363(10) 0.01000 359.9 6.7
370(10) 0.00952 359.8 6.8
355(10) 0.00982 359.8 6.9
325(10) 0.01081 359.7 7.0
373(10) 0.01001 359.7 7.1
350(10) 0.01007 359.6 7.2
351(10) 0.00965 359.6 7.4
354(10) 0.00937 359.5 7.5
368(10) 0.00985 359.5 7.7
368(10) 0.01002 359.5 7.9
355(10) 0.00997 359.4 8.0
371(11) 0.00886 359.4 8.2
353(10) 0.00975 359.3 8.5
359(10) 0.01001 359.3 8.7
363(10) 0.01035 359.2 8.9
361(10) 0.00937 359.2 9.2
348(10) 0.00987 359.1 9.5
369(10) 0.00943 359.1 9.8
380(10) 0.00963 359.1 10.1
373(10) 0.01003 359.0 10.4
380(11) 0.00850 359.0 10.8
367(11) 0.00890 358.9 11.2
365(10) 0.00956 358.9 11.6
380(10) 0.00968 358.8 12.0
353(10) 0.01036 358.8 12.4
364(10) 0.00941 358.7 12.9
365(11) 0.00897 358.7 13.4
382(10) 0.00915 358.7 13.9
406(10) 0.00912 358.6 14.4
382(10) 0.00960 358.6 14.9
367(10) 0.00968 358.5 15.4
377(11) 0.00854 358.5 16.0
370(10) 0.00959 358.4 16.5
387(10) 0.00956 358.4 17.1
390(10) 0.00949 358.3 17.7
366(10) 0.00981 358.3 18.2
372(11) 0.00862 358.3 18.8
366(10) 0.00936 358.2 19.4
374(10) 0.00996 358.2 20.0
396(11) 0.00899 358.1 20.7
361(10) 0.00959 358.1 21.5
364(11) 0.00906 358.0 22.4
380(10) 0.00925 358.0 23.4
386(10) 0.00970 358.0 24.6
388(10) 0.00912 357.9 26.0
389(11) 0.00860 357.9 27.5
387(11) 0.00873 357.8 29.1
408(11) 0.00850 357.8 30.7
378(10) 0.00974 357.7 32.1
386(10) 0.00911 357.7 33.1
398(11) 0.00870 357.6 33.6
412(11) 0.00828 357.6 33.6
395(11) 0.00890 357.6 33.5
417(11) 0.00893 357.5 33.4
403(11) 0.00881 357.5 33.8
394(11) 0.00879 357.4 34.8
420(11) 0.00804 357.4 36.9
431(11) 0.00788 357.3 40.5
420(11) 0.00888 357.3 46.5
400(11) 0.00884 357.2 56.2
459(12) 0.00724 357.2 71.3
489(12) 0.00701 357.2 93.6
524(12) 0.00687 357.1 124.6
521(12) 0.00714 357.1 164.4
605(13) 0.00573 357.0 210.7
626(14) 0.00527 357.0 257.8
690(14) 0.00483 356.9 295.1
660(14) 0.00535 356.9 309.2
662(13) 0.00565 356.8 293.2
559(13) 0.00600 356.8 254.2
498(12) 0.00669 356.8 205.8
512(12) 0.00679 356.7 158.8
500(12) 0.00718 356.7 119.0
471(11) 0.00789 356.6 88.4
408(11) 0.00827 356.6 66.7
413(11) 0.00770 356.5 52.2
420(11) 0.00813 356.5 43.0
425(11) 0.00858 356.4 37.2
413(11) 0.00891 356.4 33.5
385(10) 0.00916 356.4 31.0
418(11) 0.00780 356.3 29.4
393(11) 0.00897 356.3 28.2
405(10) 0.00909 356.2 27.3
409(10) 0.00911 356.2 26.8
420(11) 0.00805 356.1 26.4
393(11) 0.00807 356.1 26.2
374(10) 0.00928 356.1 26.1
386(10) 0.00962 356.0 26.2
396(10) 0.00913 356.0 26.3
430(11) 0.00774 355.9 26.6
396(11) 0.00806 355.9 26.9
382(11) 0.00838 355.8 27.3
395(10) 0.00935 355.8 27.8
367(10) 0.01011 355.7 28.3
386(11) 0.00904 355.7 28.9
349(10) 0.00936 355.7 29.6
357(10) 0.00971 355.6 30.3
354(10) 0.01043 355.6 31.0
394(11) 0.00906 355.5 31.8
382(11) 0.00874 355.5 32.7
388(11) 0.00819 355.4 33.5
390(11) 0.00878 355.4 34.4
415(11) 0.00877 355.3 35.4
410(11) 0.00862 355.3 36.3
376(10) 0.00919 355.3 37.3
417(11) 0.00795 355.2 38.3
419(11) 0.00817 355.2 39.4
411(11) 0.00906 355.1 40.4
404(11) 0.00850 355.1 41.5
405(11) 0.00805 355.0 42.7
402(11) 0.00855 355.0 43.8
382(10) 0.00955 354.9 45.0
390(10) 0.00954 354.9 46.3
401(11) 0.00876 354.9 47.7
407(11) 0.00814 354.8 49.1
395(11) 0.00843 354.8 50.8
404(11) 0.00869 354.7 52.5
418(11) 0.00892 354.7 54.6
397(11) 0.00869 354.6 56.9
407(11) 0.00824 354.6 59.5
411(11) 0.00829 354.5 62.6
397(10) 0.00928 354.5 66.1
414(11) 0.00902 354.5 70.2
436(11) 0.00821 354.4 74.9
461(12) 0.00717 354.4 80.3
464(12) 0.00751 354.3 86.4
460(11) 0.00817 354.3 93.2
515(12) 0.00726 354.2 100.8
519(12) 0.00657 354.2 108.9
495(12) 0.00663 354.2 117.3
527(12) 0.00669 354.1 125.7
559(12) 0.00662 354.1 133.6
534(12) 0.00702 354.0 140.1
516(12) 0.00670 354.0 144.7
515(13) 0.00621 353.9 146.7
505(12) 0.00693 353.9 145.9
491(11) 0.00765 353.8 142.6
479(11) 0.00774 353.8 137.4
498(12) 0.00684 353.8 130.7
483(12) 0.00659 353.7 123.4
475(12) 0.00744 353.7 116.0
444(11) 0.00834 353.6 108.8
495(12) 0.00741 353.6 102.0
450(11) 0.00760 353.5 95.7
404(11) 0.00824 353.5 89.9
435(11) 0.00805 353.4 84.6
423(11) 0.00886 353.4 79.8
423(11) 0.00862 353.4 75.5
410(11) 0.00846 353.3 71.5
405(11) 0.00815 353.3 67.8
420(11) 0.00807 353.2 64.4
416(11) 0.00894 353.2 61.2
392(10) 0.00912 353.1 58.3
430(11) 0.00828 353.1 55.5
425(11) 0.00818 353.0 52.9
400(11) 0.00886 353.0 50.4
389(10) 0.00959 353.0 48.1
420(11) 0.00846 352.9 45.8
428(11) 0.00798 352.9 43.7
380(11) 0.00899 352.8 41.7
387(10) 0.00921 352.8 39.8
405(10) 0.00914 352.7 38.0
398(11) 0.00882 352.7 36.3
379(10) 0.00928 352.6 34.7
394(11) 0.00886 352.6 33.3
355(10) 0.01029 352.6 31.9
409(10) 0.00909 352.5 30.6
365(10) 0.00944 352.5 29.3
369(11) 0.00900 352.4 28.2
377(10) 0.00935 352.4 27.2
363(10) 0.01016 352.3 26.2
372(10) 0.00990 352.3 25.3
368(10) 0.00940 352.2 24.5
376(11) 0.00871 352.2 23.7
366(10) 0.00993 352.2 23.1
370(10) 0.00992 352.1 22.5
390(10) 0.00950 352.1 21.9
341(10) 0.01050 352.0 21.5
395(11) 0.00785 352.0 21.0
375(10) 0.00911 351.9 20.7
387(10) 0.00961 351.9 20.4
374(10) 0.01000 351.9 20.2
359(10) 0.01000 351.8 20.0
390(11) 0.00830 351.8 19.9
392(10) 0.00909 351.7 19.9
398(10) 0.00925 351.7 19.9
381(10) 0.00972 351.6 20.0
385(11) 0.00880 351.6 20.1
403(11) 0.00777 351.5 20.4
407(11) 0.00841 351.5 20.7
409(10) 0.00913 351.5 21.1
391(10) 0.00920 351.4 21.6
370(10) 0.00955 351.4 22.2
415(11) 0.00802 351.3 23.0
383(10) 0.00933 351.3 24.0
377(10) 0.00997 351.2 25.1
402(11) 0.00901 351.2 26.4
394(11) 0.00866 351.1 28.1
379(11) 0.00885 351.1 30.0
434(11) 0.00786 351.1 32.4
392(10) 0.00948 351.0 35.2
377(10) 0.00987 351.0 38.6
412(11) 0.00858 350.9 42.6
414(11) 0.00817 350.9 47.3
406(11) 0.00841 350.8 52.7
452(11) 0.00814 350.8 59.1
459(11) 0.00788 350.7 66.3
481(12) 0.00705 350.7 74.5
458(12) 0.00753 350.7 83.6
464(12) 0.00755 350.6 93.4
457(11) 0.00823 350.6 103.7
496(12) 0.00698 350.5 114.1
483(12) 0.00699 350.5 123.9
480(12) 0.00701 350.4 132.2
506(12) 0.00705 350.4 138.3
520(12) 0.00715 350.3 141.4
539(12) 0.00649 350.3 141.2
526(12) 0.00644 350.3 137.7
531(12) 0.00654 350.2 131.4
528(12) 0.00686 350.2 123.0
523(12) 0.00711 350.1 113.3
469(12) 0.00728 350.1 103.1
465(12) 0.00705 350.0 92.9
462(12) 0.00756 350.0 83.1
434(11) 0.00831 350.0 74.0
411(10) 0.00911 349.9 65.8
417(11) 0.00806 349.9 58.4
442(12) 0.00702 349.8 52.0
389(11) 0.00903 349.8 46.4
382(10) 0.00938 349.7 41.7
413(11) 0.00896 349.7 37.6
410(11) 0.00859 349.6 34.2
408(11) 0.00793 349.6 31.3
423(11) 0.00819 349.6 28.9
417(11) 0.00884 349.5 26.9
405(11) 0.00905 349.5 25.2
407(11) 0.00867 349.4 23.9
397(11) 0.00825 349.4 22.7
375(10) 0.00932 349.3 21.8
359(10) 0.01037 349.3 20.9
374(10) 0.00985 349.2 20.2
392(11) 0.00895 349.2 19.6
379(11) 0.00894 349.2 18.9
364(10) 0.00961 349.1 18.3
389(10) 0.00952 349.1 17.7
366(10) 0.01012 349.0 17.1
386(11) 0.00900 349.0 16.5
363(10) 0.00922 348.9 15.9
368(10) 0.00953 348.9 15.2
379(10) 0.00984 348.8 14.6
373(10) 0.00981 348.8 14.0
362(10) 0.00986 348.8 13.5
356(10) 0.00955 348.7 12.9
356(10) 0.00975 348.7 12.4
364(10) 0.01012 348.6 11.8
395(11) 0.00902 348.6 11.4
388(11) 0.00904 348.5 10.9
398(11) 0.00852 348.5 10.4
366(10) 0.00962 348.4 10.0
331(9) 0.01123 348.4 9.6
374(10) 0.00917 348.4 9.2
378(11) 0.00869 348.3 8.9
350(10) 0.00944 348.3 8.5
360(10) 0.00971 348.2 8.2
378(10) 0.00981 348.2 7.9
361(10) 0.00977 348.1 7.7
341(10) 0.00970 348.1 7.4
345(10) 0.00993 348.1 7.2
369(10) 0.00970 348.0 7.0
360(10) 0.01041 348.0 6.8
340(10) 0.01023 347.9 6.6
349(10) 0.00920 347.9 6.4
346(10) 0.01021 347.8 6.3
345(10) 0.01037 347.8 6.1
351(10) 0.01058 347.7 6.0
356(10) 0.00948 347.7 5.9
332(10) 0.00997 347.7 5.8
341(10) 0.01074 347.6 5.7
364(10) 0.01018 347.6 5.6
342(10) 0.01082 347.5 5.5
349(10) 0.01007 347.5 5.4
356(10) 0.00929 347.4 5.3
351(10) 0.00994 347.4 5.3
334(10) 0.01108 347.3 5.2
345(10) 0.01072 347.3 5.2
398(11) 0.00883 347.3 5.1
364(10) 0.00937 347.2 5.1
363(10) 0.00974 347.2 5.1
373(10) 0.00987 347.1 5.0
363(10) 0.00999 347.1 5.0
350(10) 0.00955 347.0 5.0
367(11) 0.00905 347.0 5.0
381(10) 0.00932 346.9 4.9
356(10) 0.01047 346.9 4.9
371(10) 0.00967 346.9 4.9
338(10) 0.01014 346.8 4.8
339(10) 0.00992 346.8 4.8
363(10) 0.00967 346.7 4.7
381(10) 0.00972 346.7 4.7
359(10) 0.01021 346.6 4.6
376(10) 0.00928 346.6 4.5
365(11) 0.00906 346.5 4.5
359(10) 0.00949 346.5 4.4
359(10) 0.01031 346.5 4.4
367(10) 0.00965 346.4 4.3
355(10) 0.01000 346.4 4.3
351(10) 0.00975 346.3 4.2
369(10) 0.00926 346.3 4.2
344(10) 0.01080 346.2 4.2
346(10) 0.01028 346.2 4.2
368(10) 0.00908 346.1 4.1
358(10) 0.00952 346.1 4.1
345(10) 0.01025 346.1 4.1
333(9) 0.01111 346.0 4.1
358(10) 0.00954 346.0 4.1
343(10) 0.00986 345.9 4.0
333(10) 0.01022 345.9 4.0
328(10) 0.01088 345.8 4.0
353(10) 0.01050 345.8 4.0
341(10) 0.01025 345.8 4.0
367(11) 0.00884 345.7 4.0
367(10) 0.00948 345.8 4.0
371(10) 0.00948 345.8 4.0
367(10) 0.01019 345.8 4.1
348(10) 0.01026 345.8 4.1
363(10) 0.00952 345.9 4.1
345(10) 0.01041 345.9 4.1
327(9) 0.01153 345.9 4.1
367(10) 0.01008 346.0 4.1
364(10) 0.00934 346.0 4.2
351(10) 0.00920 346.0 4.2
360(10) 0.00982 346.0 4.2
349(10) 0.01049 346.1 4.2
363(10) 0.01008 346.1 4.3
361(10) 0.00984 346.1 4.3
361(11) 0.00893 346.1 4.4
352(10) 0.00956 346.2 4.4
329(9) 0.01123 346.2 4.4
355(10) 0.01046 346.2 4.5
360(10) 0.00975 346.2 4.5
366(11) 0.00893 346.3 4.6
359(10) 0.00969 346.3 4.7
344(10) 0.01090 346.3 4.7
350(10) 0.01057 346.3 4.8
336(10) 0.01092 346.4 4.9
358(11) 0.00901 346.4 4.9
354(10) 0.00956 346.4 5.0
331(9) 0.01127 346.4 5.1
350(10) 0.01050 346.5 5.2
367(10) 0.00947 346.5 5.3
373(11) 0.00861 346.5 5.4
352(10) 0.00933 346.5 5.5
360(10) 0.01029 346.6 5.6
359(10) 0.01017 346.6 5.7
361(10) 0.00976 346.6 5.8
363(10) 0.00918 346.7 6.0
349(10) 0.00974 346.7 6.1
378(10) 0.00986 346.7 6.2
346(10) 0.00999 346.7 6.4
345(10) 0.01045 346.8 6.5
381(10) 0.00932 346.8 6.7
359(10) 0.01001 346.8 6.8
332(9) 0.01128 346.8 7.0
362(10) 0.00966 346.9 7.1
362(10) 0.00921 346.9 7.3
368(11) 0.00906 346.9 7.5
345(10) 0.01052 346.9 7.6
360(10) 0.01030 347.0 7.8
366(10) 0.00946 347.0 8.0
369(10) 0.00930 347.0 8.2
367(10) 0.00966 347.0 8.4
336(10) 0.01099 347.1 8.6
366(10) 0.01012 347.1 8.8
364(10) 0.00941 347.1 9.0
380(11) 0.00860 347.1 9.2
350(10) 0.01002 347.2 9.5
363(10) 0.00992 347.2 9.8
387(10) 0.00963 347.2 10.0
356(10) 0.00956 347.2 10.3
338(10) 0.00942 347.3 10.7
357(10) 0.00998 347.3 11.0
374(10) 0.00980 347.3 11.4
364(10) 0.01030 347.4 11.9
353(10) 0.01005 347.4 12.4
364(11) 0.00905 347.4 12.9
344(10) 0.01051 347.4 13.5
359(10) 0.01032 347.5 14.1
335(10) 0.01098 347.5 14.8
375(10) 0.00918 347.5 15.5
357(10) 0.00913 347.5 16.4
386(11) 0.00860 347.6 17.3
392(10) 0.00948 347.6 18.3
358(10) 0.01036 347.6 19.3
369(10) 0.00938 347.6 20.5
372(11) 0.00877 347.7 21.8
355(10) 0.00988 347.7 23.2
368(10) 0.01007 347.7 24.7
365(10) 0.01014 347.7 26.3
387(11) 0.00905 347.8 28.1
369(10) 0.00913 347.8 29.9
336(10) 0.01048 347.8 31.9
350(10) 0.01071 347.8 34.0
391(10) 0.00925 347.9 36.3
367(10) 0.00932 347.9 38.6
385(11) 0.00894 347.9 41.0
422(11) 0.00818 347.9 43.6
397(10) 0.00937 348.0 46.1
409(11) 0.00866 348.0 48.7
411(11) 0.00846 348.0 51.2
388(11) 0.00894 348.1 53.6
397(11) 0.00890 348.1 55.8
438(11) 0.00847 348.1 57.9
426(11) 0.00795 348.1 59.6
408(11) 0.00818 348.2 60.9
399(11) 0.00844 348.2 61.8
395(10) 0.00912 348.2 62.2
387(10) 0.00966 348.2 62.2
389(11) 0.00881 348.3 61.6
369(10) 0.00952 348.3 60.6
391(10) 0.00910 348.3 59.2
402(10) 0.00911 348.3 57.4
405(10) 0.00908 348.4 55.3
376(10) 0.00933 348.4 53.1
399(11) 0.00840 348.4 50.6
393(11) 0.00882 348.4 48.1
380(10) 0.00984 348.5 45.5
381(10) 0.00971 348.5 43.0
352(10) 0.00975 348.5 40.5
350(10) 0.00933 348.5 38.1
353(10) 0.00990 348.6 35.8
366(10) 0.01011 348.6 33.6
343(10) 0.01071 348.6 31.5
387(10) 0.00918 348.6 29.5
373(11) 0.00876 348.7 27.7
371(10) 0.00928 348.7 26.0
360(10) 0.01032 348.7 24.4
377(10) 0.00989 348.8 22.9
370(10) 0.00948 348.8 21.5
378(11) 0.00860 348.8 20.3
352(10) 0.01014 348.8 19.1
387(10) 0.00955 348.9 18.1
368(10) 0.01013 348.9 17.1
400(11) 0.00839 348.9 16.2
356(10) 0.00946 348.9 15.4
353(10) 0.00998 349.0 14.7
365(10) 0.01024 349.0 14.1
414(11) 0.00872 349.0 13.5
360(10) 0.01001 349.0 12.9
353(10) 0.00972 349.1 12.4
386(11) 0.00870 349.1 12.0
389(10) 0.00966 349.1 11.6
366(10) 0.00966 349.1 11.3
370(10) 0.00910 349.2 11.0
380(11) 0.00865 349.2 10.7
362(10) 0.00952 349.2 10.5
337(9) 0.01111 349.2 10.3
367(10) 0.00978 349.3 10.1
370(10) 0.00929 349.3 10.0
339(10) 0.01011 349.3 9.9
353(10) 0.00957 349.4 9.8
350(10) 0.01065 349.4 9.7
346(10) 0.01015 349.4 9.7
341(10) 0.01013 349.4 9.7
337(10) 0.01033 349.5 9.7
335(10) 0.01045 349.5 9.7
340(10) 0.01086 349.5 9.7
368(10) 0.00957 349.5 9.7
355(10) 0.00948 349.6 9.6
348(10) 0.00989 349.6 9.6
339(10) 0.01075 349.6 9.6
341(10) 0.01088 349.6 9.5
349(10) 0.00951 349.7 9.5
338(10) 0.01004 349.7 9.3
350(10) 0.00984 349.7 9.2
341(10) 0.01047 349.7 9.0
363(10) 0.01015 349.8 8.9
333(10) 0.01035 349.8 8.7
345(10) 0.00963 349.8 8.5
365(10) 0.00928 349.8 8.2
346(10) 0.01047 349.9 8.0
375(10) 0.00979 349.9 7.8
356(10) 0.00979 349.9 7.6
357(11) 0.00905 349.9 7.4
373(11) 0.00900 350.0 7.2
352(10) 0.01036 350.0 7.0
355(10) 0.01032 350.0 6.8
341(10) 0.01025 350.1 6.6
340(10) 0.00924 350.1 6.5
372(10) 0.00939 350.1 6.3
348(10) 0.01070 350.1 6.2
347(10) 0.01060 350.2 6.0
352(10) 0.00990 350.2 5.9
365(11) 0.00903 350.2 5.8
335(10) 0.01068 350.2 5.7
364(10) 0.01024 350.3 5.6
366(10) 0.00989 350.3 5.6
346(10) 0.01006 350.3 5.5
337(10) 0.00989 350.3 5.4
357(10) 0.00951 350.4 5.4
352(10) 0.01055 350.4 5.3
382(10) 0.00962 350.4 5.3
361(10) 0.00946 350.4 5.2
356(10) 0.00921 350.5 5.2
359(10) 0.00926 350.5 5.2
362(10) 0.01015 350.5 5.1
367(10) 0.00984 350.5 5.1
368(10) 0.00929 350.6 5.1
352(10) 0.00981 350.6 5.1
352(10) 0.00987 350.6 5.1
348(10) 0.01083 350.6 5.1
337(10) 0.01058 350.7 5.1
348(10) 0.00965 350.7 5.1
338(10) 0.00994 350.7 5.1
359(10) 0.00994 350.8 5.1
325(9) 0.01140 350.8 5.2
314(9) 0.01118 350.8 5.2
329(10) 0.01022 350.8 5.2
350(10) 0.00976 350.9 5.3
338(10) 0.01067 350.9 5.3
347(10) 0.01059 350.9 5.4
347(10) 0.00968 350.9 5.5
321(10) 0.01039 351.0 5.6
339(10) 0.01027 351.0 5.7
357(10) 0.01017 351.0 5.8
387(10) 0.00968 351.0 5.9
379(10) 0.00935 351.1 6.1
344(10) 0.01004 351.1 6.2
353(10) 0.00980 351.1 6.5
349(10) 0.01049 351.1 6.7
376(10) 0.00990 351.2 7.0
365(10) 0.00926 351.2 7.4
345(10) 0.00935 351.2 7.8
346(10) 0.01010 351.2 8.4
360(10) 0.01035 351.3 9.3
343(10) 0.01083 351.3 10.6
346(10) 0.01014 351.3 12.9
370(11) 0.00868 351.3 16.7
404(11) 0.00845 351.4 23.3
401(10) 0.00908 351.4 33.5
437(11) 0.00854 351.4 47.9
420(11) 0.00837 351.5 65.8
501(13) 0.00623 351.5 84.6
442(11) 0.00780 351.5 99.4
428(11) 0.00867 351.5 104.0
429(11) 0.00857 351.6 96.2
408(11) 0.00857 351.6 79.8
399(11) 0.00841 351.6 61.1
394(11) 0.00865 351.6 44.3
383(10) 0.00976 351.7 31.5
352(10) 0.01041 351.7 22.8
332(10) 0.01067 351.7 17.5
390(11) 0.00832 351.7 14.6
391(11) 0.00878 351.8 13.1
378(10) 0.00983 351.8 12.3
387(10) 0.00926 351.8 11.9
343(10) 0.01024 351.8 11.6
342(10) 0.01005 351.9 11.5
379(11) 0.00903 351.9 11.4
358(10) 0.01047 351.9 11.6
387(10) 0.00922 351.9 11.8
358(10) 0.01025 352.0 12.1
382(11) 0.00907 352.0 12.5
365(10) 0.00945 352.0 12.9
388(10) 0.00959 352.0 13.5
393(11) 0.00864 352.1 14.1
391(11) 0.00870 352.1 14.8
369(10) 0.00950 352.1 15.5
395(11) 0.00892 352.2 16.3
368(10) 0.01002 352.2 17.1
363(10) 0.00952 352.2 18.0
362(10) 0.00935 352.2 18.9
359(10) 0.00997 352.3 19.9
373(10) 0.01006 352.3 20.8
394(10) 0.00935 352.3 21.7
385(10) 0.00908 352.3 22.6
419(11) 0.00814 352.4 23.3
401(11) 0.00887 352.4 24.0
386(10) 0.00955 352.4 24.5
395(10) 0.00929 352.4 24.8
375(11) 0.00906 352.5 25.0
377(11) 0.00846 352.5 24.9
372(10) 0.00970 352.5 24.7
366(10) 0.01019 352.5 24.4
399(10) 0.00931 352.6 23.9
385(10) 0.00926 352.6 23.3
386(11) 0.00830 352.6 22.6
371(10) 0.00908 352.6 21.8
367(10) 0.01014 352.7 21.1
360(10) 0.01028 352.7 20.3
388(11) 0.00884 352.7 19.6
357(10) 0.00927 352.7 18.9
347(10) 0.01001 352.8 18.3
359(10) 0.01027 352.8 17.7
371(10) 0.01001 352.8 17.2
370(10) 0.00982 352.9 16.7
368(11) 0.00906 352.9 16.3
364(10) 0.00965 352.9 16.0
366(10) 0.01002 352.9 15.7
368(10) 0.00990 353.0 15.5
351(10) 0.00991 353.0 15.4
327(10) 0.01020 353.0 15.3
348(10) 0.01010 353.0 15.3
360(10) 0.01035 353.1 15.3
360(10) 0.01014 353.1 15.4
364(10) 0.00929 353.1 15.6
355(10) 0.00982 353.1 15.8
354(10) 0.01001 353.2 16.0
365(10) 0.01025 353.2 16.3
362(10) 0.00989 353.2 16.7
367(11) 0.00892 353.2 17.1
366(10) 0.00917 353.3 17.5
345(10) 0.01024 353.3 18.0
370(10) 0.01002 353.3 18.5
383(10) 0.00952 353.3 19.1
355(10) 0.00964 353.4 19.6
349(10) 0.00961 353.4 20.2
349(10) 0.01014 353.4 20.8
375(10) 0.01001 353.5 21.4
371(10) 0.00928 353.5 22.0
384(11) 0.00895 353.5 22.6
408(11) 0.00834 353.5 23.1
382(10) 0.00955 353.6 23.6
360(10) 0.01033 353.6 24.1
378(11) 0.00900 353.6 24.4
392(11) 0.00842 353.6 24.8
376(10) 0.00945 353.7 25.0
376(10) 0.01003 353.7 25.2
372(10) 0.00999 353.7 25.3
373(10) 0.00940 353.7 25.3
368(11) 0.00890 353.8 25.4
375(10) 0.00933 353.8 25.4
375(10) 0.00971 353.8 25.4
362(10) 0.01035 353.8 25.4
360(10) 0.00943 353.9 25.5
381(11) 0.00836 353.9 25.6
359(10) 0.00961 353.9 25.7
341(10) 0.01084 353.9 26.0
391(10) 0.00954 354.0 26.3
408(11) 0.00852 354.0 26.7
381(11) 0.00868 354.0 27.2
358(10) 0.00993 354.0 27.7
357(10) 0.01032 354.1 28.3
369(10) 0.01003 354.1 28.9
380(11) 0.00903 354.1 29.4
406(11) 0.00798 354.2 29.8
364(10) 0.00957 354.2 30.0
370(10) 0.01005 354.2 30.1
353(10) 0.01032 354.2 30.1
378(10) 0.00908 354.3 30.1
361(11) 0.00898 354.3 30.2
347(10) 0.01013 354.3 30.3
364(10) 0.01030 354.3 30.5
394(11) 0.00906 354.4 30.8
370(10) 0.00936 354.4 31.1
374(11) 0.00877 354.3 31.4
363(10) 0.00951 354.3 31.6
378(10) 0.00988 354.3 31.6
368(10) 0.00972 354.3 31.5
375(11) 0.00862 354.2 31.3
364(11) 0.00901 354.2 31.0
342(10) 0.01031 354.2 30.8
377(10) 0.00987 354.1 30.5
373(10) 0.00962 354.1 30.3
333(10) 0.01028 354.1 30.1
350(10) 0.00967 354.1 29.9
367(10) 0.00973 354.0 29.7
362(10) 0.01032 354.0 29.4
380(11) 0.00904 354.0 29.1
354(10) 0.00969 353.9 28.8
362(10) 0.00943 353.9 28.4
373(10) 0.00952 353.9 28.0
371(10) 0.00991 353.8 27.6
344(10) 0.01013 353.8 27.1
356(10) 0.00960 353.8 26.6
357(10) 0.00978 353.8 26.1
387(10) 0.00943 353.7 25.5
350(10) 0.01050 353.7 25.0
391(11) 0.00876 353.7 24.4
364(10) 0.00934 353.6 23.9
372(10) 0.00920 353.6 23.4
402(10) 0.00920 353.6 22.9
382(10) 0.00964 353.6 22.4
361(10) 0.00993 353.5 21.9
371(11) 0.00885 353.5 21.5
371(10) 0.00945 353.5 21.2
356(10) 0.01059 353.4 20.9
386(10) 0.00945 353.4 20.6
374(10) 0.00938 353.4 20.5
388(11) 0.00798 353.3 20.4
382(10) 0.00915 353.3 20.6
382(10) 0.00960 353.3 21.1
347(10) 0.01067 353.3 22.2
385(10) 0.00916 353.2 24.2
345(10) 0.00974 353.2 27.5
392(11) 0.00877 353.2 32.7
380(10) 0.00952 353.1 39.7
402(10) 0.00917 353.1 48.1
390(11) 0.00902 353.1 56.6
386(11) 0.00843 353.0 62.9
408(11) 0.00804 353.0 64.5
386(10) 0.00966 353.0 61.0
378(10) 0.00957 353.0 54.3
366(10) 0.00948 352.9 46.9
363(10) 0.00922 352.9 40.5
374(11) 0.00902 352.9 35.5
382(10) 0.00962 352.8 31.7
378(10) 0.00947 352.8 28.8
388(11) 0.00853 352.8 26.5
373(10) 0.00908 352.8 24.5
362(10) 0.00959 352.7 22.8
367(10) 0.01008 352.7 21.5
365(10) 0.00984 352.7 20.5
352(10) 0.01003 352.6 19.8
368(11) 0.00895 352.6 19.4
339(10) 0.01033 352.6 19.2
395(10) 0.00939 352.5 19.3
399(11) 0.00892 352.5 19.6
344(10) 0.01001 352.5 20.1
350(10) 0.00966 352.5 20.7
373(10) 0.00986 352.4 21.5
362(10) 0.01036 352.4 22.4
349(10) 0.00986 352.4 23.2
390(11) 0.00872 352.3 24.1
374(10) 0.00943 352.3 24.9
375(10) 0.00937 352.3 25.7
362(10) 0.01039 352.3 26.6
370(11) 0.00893 352.2 27.4
348(10) 0.00949 352.2 28.4
379(10) 0.00911 352.2 29.6
391(10) 0.00933 352.1 30.9
364(10) 0.01005 352.1 32.4
382(10) 0.00927 352.1 34.1
351(10) 0.00973 352.0 35.9
383(11) 0.00891 352.0 37.8
375(10) 0.00980 352.0 39.8
393(10) 0.00958 352.0 41.7
400(11) 0.00860 351.9 43.5
413(11) 0.00763 351.9 45.2
379(10) 0.00931 351.9 46.7
383(10) 0.00968 351.8 48.0
393(10) 0.00953 351.8 49.2
394(11) 0.00843 351.8 50.5
394(11) 0.00811 351.8 51.9
401(11) 0.00849 351.7 53.6
400(10) 0.00918 351.7 55.7
418(11) 0.00896 351.7 58.0
428(11) 0.00827 351.6 60.2
406(11) 0.00799 351.6 62.0
409(11) 0.00828 351.6 62.7
455(11) 0.00812 351.5 61.7
411(11) 0.00876 351.5 59.0
409(11) 0.00820 351.5 55.2
399(11) 0.00834 351.5 50.8
387(11) 0.00890 351.4 46.4
404(10) 0.00912 351.4 42.4
373(10) 0.00953 351.4 38.9
355(10) 0.00945 351.3 36.0
377(11) 0.00872 351.3 33.8
376(11) 0.00900 351.3 32.1
344(10) 0.01070 351.3 30.9
400(11) 0.00853 351.2 30.0
378(11) 0.00905 351.2 29.5
399(11) 0.00852 351.2 29.3
373(10) 0.00954 351.1 29.2
358(10) 0.01025 351.1 29.4
366(10) 0.00908 351.1 29.6
359(10) 0.00938 351.0 30.0
379(10) 0.00923 351.0 30.5
384(10) 0.00930 351.0 31.2
391(10) 0.00938 351.0 32.0
386(11) 0.00886 350.9 33.0
387(11) 0.00850 350.9 34.4
368(10) 0.00961 350.9 36.2
386(10) 0.00939 350.8 38.6
392(10) 0.00937 350.8 41.6
431(11) 0.00813 350.8 45.4
383(11) 0.00897 350.8 49.7
428(11) 0.00787 350.7 54.1
400(11) 0.00906 350.7 57.9
418(11) 0.00893 350.7 59.9
432(11) 0.00796 350.6 59.2
394(11) 0.00846 350.6 56.2
381(11) 0.00906 350.6 51.8
353(10) 0.01027 350.5 47.1
382(10) 0.00967 350.5 42.7
376(10) 0.00924 350.5 38.9
373(11) 0.00835 350.5 35.8
348(10) 0.01013 350.4 33.4
368(10) 0.01004 350.4 31.5
371(10) 0.00984 350.4 30.1
355(10) 0.00971 350.3 28.9
367(11) 0.00858 350.3 27.9
385(11) 0.00881 350.3 27.0
368(10) 0.01010 350.3 26.2
356(10) 0.01046 350.2 25.5
346(10) 0.00999 350.2 24.7
346(10) 0.00945 350.2 24.0
367(10) 0.00918 350.1 23.3
376(10) 0.00994 350.1 22.6
367(10) 0.01012 350.1 21.9
364(10) 0.00980 350.0 21.2
363(10) 0.00930 350.0 20.5
373(10) 0.00938 350.0 19.8
364(10) 0.01013 350.0 19.2
374(10) 0.00948 349.9 18.5
392(11) 0.00875 349.9 18.0
385(11) 0.00866 349.9 17.4
357(10) 0.00985 349.8 16.9
359(10) 0.01037 349.8 16.5
360(10) 0.01013 349.8 16.1
368(10) 0.00940 349.7 15.7
369(10) 0.00927 349.7 15.3
357(10) 0.00968 349.7 15.0
329(9) 0.01125 349.7 14.7
343(10) 0.01051 349.6 14.5
351(10) 0.01011 349.6 14.2
378(10) 0.00918 349.6 14.0
355(10) 0.01005 349.5 13.8
373(10) 0.00994 349.5 13.7
350(10) 0.01004 349.5 13.5
389(11) 0.00838 349.5 13.4
343(10) 0.01007 349.4 13.3
351(10) 0.01023 349.4 13.2
355(10) 0.01055 349.4 13.1
329(10) 0.01083 349.3 13.1
354(10) 0.00934 349.3 13.1
335(10) 0.01058 349.3 13.0
347(10) 0.01050 349.2 13.0
359(10) 0.01035 349.2 13.1
343(10) 0.01011 349.2 13.1
331(10) 0.00969 349.2 13.1
319(10) 0.01087 349.1 13.2
350(10) 0.01044 349.1 13.3
371(10) 0.01000 349.1 13.3
335(10) 0.01056 349.0 13.4
359(11) 0.00906 349.0 13.6
350(10) 0.00998 349.0 13.7
361(10) 0.01032 349.0 13.8
369(10) 0.01011 348.9 14.0
380(11) 0.00905 348.9 14.2
363(11) 0.00895 348.9 14.4
363(10) 0.00957 348.8 14.6
327(9) 0.01137 348.8 14.8
334(9) 0.01109 348.8 15.1
351(10) 0.00989 348.7 15.4
347(10) 0.00965 348.7 15.7
393(11) 0.00895 348.7 16.0
384(10) 0.00947 348.7 16.4
360(10) 0.01018 348.6 16.8
374(10) 0.00951 348.6 17.2
364(10) 0.00926 348.6 17.6
399(11) 0.00857 348.5 18.1
389(10) 0.00957 348.5 18.7
390(10) 0.00924 348.5 19.3
376(11) 0.00865 348.5 19.9
381(11) 0.00875 348.4 20.6
394(11) 0.00855 348.4 21.4
357(10) 0.01041 348.4 22.2
376(10) 0.00972 348.3 23.1
343(10) 0.01037 348.3 24.1
372(11) 0.00898 348.3 25.2
386(11) 0.00897 348.2 26.4
387(10) 0.00966 348.2 27.6
411(11) 0.00859 348.2 28.9
359(10) 0.00971 348.2 30.3
382(11) 0.00897 348.1 31.6
397(11) 0.00891 348.1 32.9
409(10) 0.00913 348.1 34.1
375(10) 0.00917 348.0 35.2
367(11) 0.00893 348.0 36.0
401(11) 0.00854 348.0 36.6
391(10) 0.00936 348.0 37.0
380(10) 0.00965 347.9 37.2
409(11) 0.00854 347.9 37.3
376(11) 0.00907 347.9 37.4
385(10) 0.00907 347.8 37.4
401(10) 0.00908 347.8 37.4
390(10) 0.00952 347.8 37.4
372(10) 0.00946 347.7 37.5
395(11) 0.00849 347.7 37.7
407(11) 0.00847 347.7 37.9
368(10) 0.01006 347.7 38.2
387(10) 0.00964 347.6 38.5
417(11) 0.00855 347.6 38.9
405(11) 0.00838 347.6 39.3
411(11) 0.00835 347.5 39.8
384(10) 0.00972 347.5 40.2
385(10) 0.00943 347.5 40.7
403(11) 0.00853 347.5 41.3
396(11) 0.00803 347.4 41.8
401(11) 0.00844 347.4 42.3
384(10) 0.00956 347.4 42.8
410(10) 0.00912 347.3 43.3
397(11) 0.00861 347.3 43.7
427(12) 0.00751 347.3 44.1
401(11) 0.00901 347.2 44.5
389(10) 0.00954 347.2 44.8
414(11) 0.00878 347.2 45.0
403(11) 0.00845 347.2 45.2
417(11) 0.00768 347.1 45.3
392(11) 0.00856 347.1 45.4
401(10) 0.00931 347.1 45.4
423(11) 0.00855 347.0 45.3
416(11) 0.00850 347.0 45.2
411(11) 0.00826 347.0 45.0
381(10) 0.00928 347.0 44.8
414(11) 0.00898 346.9 44.5
378(10) 0.00941 346.9 44.3
395(11) 0.00842 346.9 44.0
405(11) 0.00827 346.8 43.7
404(11) 0.00874 346.8 43.3
377(10) 0.00985 346.8 43.0
392(11) 0.00902 346.7 42.7
408(11) 0.00850 346.7 42.4
402(11) 0.00850 346.7 42.1
388(10) 0.00930 346.7 41.8
397(10) 0.00931 346.6 41.5
384(10) 0.00921 346.6 41.2
381(11) 0.00862 346.6 41.0
344(10) 0.01001 346.5 40.7
386(10) 0.00927 346.5 40.4
412(11) 0.00900 346.5 40.0
409(11) 0.00854 346.4 39.7
392(11) 0.00889 346.4 39.3
404(11) 0.00836 346.4 38.9
375(10) 0.00954 346.4 38.5
399(10) 0.00932 346.3 38.0
413(11) 0.00836 346.3 37.5
404(11) 0.00826 346.3 37.0
407(11) 0.00854 346.2 36.4
397(10) 0.00931 346.2 35.9
370(10) 0.01007 346.2 35.3
395(11) 0.00887 346.2 34.6
381(11) 0.00859 346.1 34.0
380(10) 0.00925 346.1 33.4
388(10) 0.00938 346.1 32.7
363(10) 0.01025 346.0 32.1
375(11) 0.00898 346.0 31.5
382(11) 0.00838 346.0 30.8
374(10) 0.00926 345.9 30.2
362(10) 0.01027 345.9 29.6
389(10) 0.00950 345.9 29.0
401(11) 0.00831 345.9 28.4
370(11) 0.00880 345.8 27.8
365(10) 0.00980 345.8 27.3
385(10) 0.00962 345.8 26.7
369(10) 0.00995 345.7 26.2
389(11) 0.00892 345.7 25.7
375(11) 0.00884 345.7 25.2
368(10) 0.00917 345.7 24.8
357(10) 0.01046 345.6 24.4
400(11) 0.00906 345.6 24.0
364(10) 0.00941 345.6 23.6
363(10) 0.00926 345.5 23.3
364(10) 0.00961 345.5 23.0
383(10) 0.00959 345.5 22.7
392(10) 0.00920 345.4 22.5
365(10) 0.00952 345.4 22.3
357(10) 0.00941 345.4 22.1
374(10) 0.00931 345.4 22.0
399(10) 0.00939 345.3 21.9
358(10) 0.01002 345.3 21.8
364(10) 0.00910 345.3 21.7
376(11) 0.00880 345.2 21.7
350(10) 0.01016 345.2 21.7
359(10) 0.01039 345.2 21.7
336(10) 0.01036 345.2 21.8
341(10) 0.01055 345.1 21.9
382(11) 0.00899 345.1 22.0
345(10) 0.01053 345.1 22.1
367(10) 0.01000 345.0 22.3
351(10) 0.00984 345.0 22.6
370(11) 0.00901 345.0 22.9
348(10) 0.01002 344.9 23.2
355(10) 0.01044 344.9 23.6
372(10) 0.01000 344.9 24.0
359(10) 0.00974 344.9 24.6
353(10) 0.00952 344.8 25.2
402(11) 0.00828 344.8 26.0
388(10) 0.00939 344.8 26.9
362(10) 0.01019 344.7 27.9
391(11) 0.00879 344.7 29.1
367(11) 0.00900 344.7 30.5
355(10) 0.00979 344.7 32.2
362(10) 0.00986 344.6 34.1
371(10) 0.01021 344.6 36.3
362(10) 0.00933 344.6 38.8
383(11) 0.00839 344.5 41.7
402(11) 0.00877 344.5 44.9
377(10) 0.00989 344.5 48.5
430(11) 0.00859 344.4 52.4
367(10) 0.00971 344.4 56.6
380(11) 0.00842 344.4 61.0
434(11) 0.00802 344.4 65.5
428(11) 0.00874 344.3 69.8
401(10) 0.00919 344.3 73.7
422(11) 0.00805 344.3 76.8
437(12) 0.00731 344.2 78.7
401(11) 0.00888 344.2 79.3
449(11) 0.00827 344.2 78.3
453(11) 0.00823 344.2 75.8
440(11) 0.00783 344.1 72.2
374(10) 0.00939 344.1 67.8
425(11) 0.00804 344.1 62.9
410(11) 0.00906 344.0 57.8
380(10) 0.00945 344.0 52.9
380(11) 0.00896 344.0 48.2
407(11) 0.00810 343.9 43.9
363(10) 0.00965 343.9 39.9
352(10) 0.01046 343.9 36.4
380(10) 0.00948 343.9 33.2
383(11) 0.00902 343.8 30.3
370(10) 0.00928 343.8 27.9
372(10) 0.00970 343.8 25.7
365(10) 0.01021 343.7 23.8
362(10) 0.00970 343.7 22.1
373(11) 0.00901 343.7 20.7
382(11) 0.00906 343.7 19.4
371(10) 0.00959 343.6 18.3
386(10) 0.00966 343.6 17.3
366(10) 0.00982 343.6 16.4
360(10) 0.00962 343.5 15.6
353(10) 0.00979 343.5 14.9
374(10) 0.00934 343.5 14.3
368(10) 0.01016 343.4 13.7
364(10) 0.00919 343.4 13.2
372(11) 0.00886 343.4 12.7
372(10) 0.00922 343.4 12.3
350(10) 0.01037 343.3 11.9
343(10) 0.01075 343.3 11.5
356(10) 0.00972 343.3 11.2
365(10) 0.00920 343.2 10.9
337(10) 0.01020 343.2 10.6
371(10) 0.00967 343.2 10.3
349(10) 0.01067 343.1 10.0
336(10) 0.01052 343.1 9.8
340(10) 0.00969 343.1 9.6
351(10) 0.00980 343.1 9.4
348(10) 0.01088 343.0 9.2
361(10) 0.01018 343.0 9.0
357(10) 0.00974 343.0 8.8
367(11) 0.00870 342.9 8.7
343(10) 0.01031 342.9 8.5
339(9) 0.01112 342.9 8.4
346(10) 0.01066 342.9 8.2
352(10) 0.00998 342.8 8.1
347(10) 0.00939 342.8 8.0
362(10) 0.00930 342.8 7.9
372(10) 0.01003 342.8 7.8
352(10) 0.01042 342.8 7.7
348(10) 0.01003 342.7 7.6
367(11) 0.00889 342.7 7.5
390(11) 0.00864 342.7 7.5
327(9) 0.01131 342.7 7.4
358(10) 0.01032 342.7 7.3
346(10) 0.01019 342.6 7.3
357(10) 0.00971 342.6 7.3
359(10) 0.00942 342.6 7.3
344(10) 0.01077 342.6 7.3
373(10) 0.00961 342.6 7.3
360(10) 0.00939 342.5 7.3
367(11) 0.00890 342.5 7.4
357(10) 0.00944 342.5 7.5
352(10) 0.01074 342.5 7.5
336(10) 0.01082 342.5 7.6
356(10) 0.00941 342.4 7.6
374(11) 0.00893 342.4 7.6
347(10) 0.01046 342.4 7.6
369(10) 0.01019 342.4 7.7
348(10) 0.00969 342.4 7.7
349(10) 0.00960 342.3 7.8
331(10) 0.01034 342.3 7.9
373(10) 0.00940 342.3 8.1
361(10) 0.01021 342.3 8.5
382(10) 0.00922 342.3 8.9
366(10) 0.00959 342.2 9.6
348(10) 0.01030 342.2 10.7
354(10) 0.01008 342.2 12.5
371(10) 0.01006 342.2 15.0
385(11) 0.00887 342.2 18.6
381(11) 0.00856 342.1 23.2
393(11) 0.00871 342.1 28.9
394(10) 0.00942 342.1 34.9
425(11) 0.00867 342.1 40.3
392(11) 0.00895 342.1 43.3
414(11) 0.00780 342.0 42.7
382(10) 0.00927 342.0 38.8
365(10) 0.01012 342.0 33.2
383(10) 0.00958 342.0 27.3
373(10) 0.00945 342.0 22.0
351(10) 0.00965 341.9 17.7
342(10) 0.01027 341.9 14.6
367(10) 0.01013 341.9 12.4
348(10) 0.01061 341.9 11.0
357(10) 0.00947 341.9 10.1
331(10) 0.01034 341.8 9.6
357(10) 0.00969 341.8 9.3
364(10) 0.01031 341.8 9.1
352(10) 0.01029 341.8 9.0
342(10) 0.01030 341.8 9.0
347(10) 0.00964 341.8 9.0
370(10) 0.00934 341.7 9.1
340(10) 0.01100 341.7 9.2
373(10) 0.00965 341.7 9.4
358(10) 0.00970 341.7 9.6
367(10) 0.00922 341.7 9.8
371(10) 0.00941 341.6 10.0
358(10) 0.01030 341.6 10.3
353(10) 0.01006 341.6 10.7
318(10) 0.01076 341.6 11.0
360(10) 0.00927 341.6 11.4
345(10) 0.01010 341.5 11.9
326(9) 0.01140 341.5 12.4
348(10) 0.01033 341.5 12.9
370(11) 0.00902 341.5 13.5
337(10) 0.01049 341.5 14.1
365(10) 0.00984 341.4 14.7
378(10) 0.00978 341.4 15.4
359(10) 0.01018 341.4 16.2
355(10) 0.00973 341.4 17.0
372(10) 0.00916 341.4 17.8
359(10) 0.01004 341.3 18.7
386(10) 0.00962 341.3 19.6
341(10) 0.01028 341.3 20.5
360(10) 0.00938 341.3 21.5
352(10) 0.00953 341.3 22.6
361(10) 0.00994 341.2 23.6
377(10) 0.00995 341.2 24.6
365(10) 0.00944 341.2 25.7
338(10) 0.01029 341.2 26.7
341(10) 0.01077 341.2 27.6
358(10) 0.01022 341.1 28.5
352(10) 0.01053 341.1 29.4
385(11) 0.00897 341.1 30.1
367(11) 0.00857 341.1 30.7
368(10) 0.00913 341.1 31.2
358(10) 0.01034 341.0 31.6
387(10) 0.00967 341.0 31.8
365(10) 0.00947 341.0 31.8
352(11) 0.00904 341.0 31.6
369(10) 0.00956 341.0 31.3
385(10) 0.00966 340.9 30.9
369(10) 0.01007 340.9 30.3
385(11) 0.00906 340.9 29.5
385(11) 0.00828 340.9 28.7
373(10) 0.00931 340.9 27.8
367(10) 0.01013 340.8 26.8
368(10) 0.00992 340.8 25.8
359(10) 0.00965 340.8 24.7
364(11) 0.00899 340.8 23.7
376(10) 0.00932 340.8 22.6
360(10) 0.01038 340.8 21.6
350(10) 0.01040 340.7 20.7
352(10) 0.01014 340.7 19.8
377(11) 0.00851 340.7 18.9
359(10) 0.00915 340.7 18.1
338(10) 0.01096 340.7 17.2
341(10) 0.01063 340.6 16.4
364(10) 0.00955 340.6 15.5
353(10) 0.00993 340.6 14.6
335(10) 0.01076 340.6 13.8
357(10) 0.01050 340.6 13.0
354(10) 0.01021 340.5 12.3
345(10) 0.01031 340.5 11.7
328(10) 0.01050 340.5 11.1
353(10) 0.00979 340.5 10.5
364(10) 0.01014 340.5 10.0
340(10) 0.01053 340.4 9.6
364(10) 0.00957 340.4 9.2
360(10) 0.00961 340.4 8.8
372(10) 0.00947 340.4 8.4
368(10) 0.01000 340.4 8.1
364(10) 0.00962 340.3 7.8
351(10) 0.00998 340.3 7.5
351(10) 0.01002 340.3 7.2
335(10) 0.01081 340.3 7.0
365(10) 0.01019 340.3 6.8
351(10) 0.01012 340.2 6.6
346(10) 0.00967 340.2 6.4
352(10) 0.01003 340.2 6.2
386(10) 0.00928 340.2 6.0
362(10) 0.01033 340.2 5.9
341(10) 0.01030 340.1 5.7
348(10) 0.00966 340.1 5.6
364(10) 0.00971 340.1 5.5
326(9) 0.01127 340.1 5.4
364(10) 0.01021 340.1 5.3
370(10) 0.00928 340.0 5.2
337(10) 0.00998 340.0 5.1
359(10) 0.00977 340.0 5.1
340(10) 0.01100 340.0 5.0
355(10) 0.01048 340.0 5.0
343(10) 0.01042 339.9 4.9
352(10) 0.00937 339.9 4.9
345(10) 0.01020 339.9 4.9
360(10) 0.01039 339.9 4.9
364(10) 0.00993 339.9 4.9
373(11) 0.00896 339.8 4.9
346(10) 0.00946 339.8 5.0
338(10) 0.00997 339.8 5.1
331(9) 0.01128 339.8 5.2
335(10) 0.01095 339.8 5.3
356(10) 0.00982 339.8 5.6
374(11) 0.00894 339.7 5.9
369(10) 0.00957 339.7 6.3
352(10) 0.01063 339.7 6.8
351(10) 0.01034 339.7 7.6
377(11) 0.00897 339.7 8.5
321(10) 0.01075 339.6 9.7
358(10) 0.00955 339.6 11.2
373(10) 0.00989 339.6 12.9
381(10) 0.00952 339.6 14.9
378(11) 0.00900 339.6 16.9
364(10) 0.00951 339.5 18.8
371(10) 0.00940 339.5 20.2
355(10) 0.01047 339.5 20.8
372(10) 0.00950 339.5 20.3
381(11) 0.00901 339.5 19.1
363(10) 0.00954 339.4 17.2
365(10) 0.00972 339.4 15.2
354(10) 0.01040 339.4 13.2
348(10) 0.00961 339.4 11.4
346(10) 0.00943 339.4 9.8
347(10) 0.00987 339.3 8.6
329(10) 0.01090 339.3 7.6
349(10) 0.01061 339.3 6.8
343(10) 0.01026 339.3 6.2
333(10) 0.01031 339.3 5.7
360(10) 0.00967 339.2 5.3
336(10) 0.01085 339.2 5.1
356(10) 0.01050 339.2 4.9
339(10) 0.01044 339.2 4.7
367(11) 0.00883 339.2 4.6
340(10) 0.01044 339.1 4.5
329(9) 0.01124 339.1 4.4
331(9) 0.01118 339.1 4.3
341(10) 0.01014 339.1 4.2
351(10) 0.00936 339.1 4.2
343(10) 0.01043 339.0 4.1
357(10) 0.01030 339.0 4.0
354(10) 0.01046 339.0 4.0
363(10) 0.00917 339.0 3.9
346(10) 0.00912 339.0 3.9
330(10) 0.01081 338.9 3.8
328(9) 0.01143 338.9 3.8
351(10) 0.01042 338.9 3.7
374(10) 0.00930 338.9 3.7
388(11) 0.00817 338.9 3.7
326(10) 0.01055 338.8 3.6
353(10) 0.01036 338.8 3.6
305(9) 0.01231 338.8 3.6
350(10) 0.01002 338.8 3.6
336(10) 0.01016 338.8 3.6
344(10) 0.01019 338.8 3.6
372(10) 0.01002 338.7 3.6
351(10) 0.01042 338.7 3.6
377(10) 0.00924 338.7 3.6
354(10) 0.00955 338.7 3.6
346(10) 0.01000 338.7 3.6
362(10) 0.01024 338.6 3.6
365(10) 0.01000 338.6 3.5
354(10) 0.00971 338.6 3.5
332(10) 0.01033 338.6 3.5
358(10) 0.00973 338.6 3.5
328(9) 0.01126 338.5 3.5
351(10) 0.01040 338.5 3.5
392(11) 0.00872 338.5 3.5
347(10) 0.00968 338.5 3.5
358(10) 0.00958 338.5 3.4
335(10) 0.01102 338.4 3.4
340(10) 0.01074 338.4 3.4
356(10) 0.00981 338.4 3.4
329(10) 0.01071 338.4 3.3
315(9) 0.01147 338.4 3.3
347(10) 0.01087 338.3 3.3
372(10) 0.00921 338.3 3.2
329(10) 0.01030 338.3 3.2
344(10) 0.00993 338.3 3.2
342(10) 0.01070 338.3 3.1
316(9) 0.01185 338.2 3.1
367(10) 0.00952 338.2 3.0
366(11) 0.00876 338.2 3.0
329(10) 0.01044 338.2 2.9
334(10) 0.01094 338.2 2.9
354(10) 0.01052 338.1 2.9
354(10) 0.00961 338.1 2.8
352(10) 0.00915 338.1 2.8
328(10) 0.01076 338.1 2.7
334(10) 0.01093 338.1 2.7
346(10) 0.01059 338.0 2.7
343(10) 0.00968 338.0 2.6
334(10) 0.00960 338.0 2.6
340(10) 0.00970 338.0 2.6
340(10) 0.01090 338.0 2.5
358(10) 0.01024 337.9 2.5
346(10) 0.01026 337.9 2.5
335(10) 0.00966 337.9 2.4
344(10) 0.00982 337.9 2.4
324(9) 0.01151 337.9 2.4
335(10) 0.01055 337.8 2.3
343(10) 0.00986 337.8 2.3
337(10) 0.00970 337.8 2.3
338(10) 0.01020 337.8 2.3
320(9) 0.01171 337.8 2.2
333(10) 0.01074 337.8 2.2
356(10) 0.00974 337.7 2.2
348(10) 0.00963 337.7 2.2
329(10) 0.01075 337.7 2.2
333(9) 0.01111 337.7 2.2
344(10) 0.01066 337.7 2.1
358(10) 0.00940 337.6 2.1
361(10) 0.00939 337.6 2.1
350(10) 0.01007 337.6 2.1
324(9) 0.01139 337.6 2.1
339(10) 0.01063 337.6 2.1
342(10) 0.01017 337.5 2.1
335(10) 0.01027 337.5 2.1
344(10) 0.01032 337.5 2.1
352(10) 0.01053 337.5 2.1
349(10) 0.00995 337.5 2.1
342(10) 0.01017 337.4 2.0
347(10) 0.00998 337.4 2.0
339(10) 0.01046 337.4 2.0
361(10) 0.01033 337.4 2.0
341(10) 0.01033 337.4 2.0
353(10) 0.00988 337.3 2.0
338(10) 0.01048 337.3 2.0
325(10) 0.01088 337.3 2.0
362(10) 0.01044 337.3 2.1
337(10) 0.01023 337.3 2.1
343(10) 0.00996 337.2 2.1
351(10) 0.01024 337.2 2.1
353(10) 0.01039 337.2 2.1
360(10) 0.01032 337.2 2.1
314(9) 0.01111 337.2 2.1
354(10) 0.00928 337.1 2.1
367(10) 0.00936 337.1 2.1
342(10) 0.01095 337.1 2.1
342(10) 0.01076 337.1 2.1
347(10) 0.01026 337.1 2.2
346(10) 0.00946 337.1 2.2
337(10) 0.01031 337.2 2.2
333(9) 0.01129 337.2 2.2
359(10) 0.01007 337.2 2.2
349(10) 0.01028 337.3 2.2
351(10) 0.00927 337.3 2.3
352(10) 0.00983 337.3 2.3
362(10) 0.01039 337.4 2.3
328(9) 0.01140 337.4 2.3
331(10) 0.01058 337.4 2.3
322(10) 0.01022 337.5 2.4
380(11) 0.00901 337.5 2.4
355(10) 0.01052 337.5 2.4
359(10) 0.00996 337.5 2.4
341(10) 0.01040 337.6 2.4
353(10) 0.00967 337.6 2.5
348(10) 0.01052 337.6 2.5
338(10) 0.01093 337.7 2.5
347(10) 0.01054 337.7 2.5
333(10) 0.01024 337.7 2.5
317(10) 0.01055 337.8 2.5
337(10) 0.01023 337.8 2.6
341(10) 0.01094 337.8 2.6
353(10) 0.01034 337.9 2.6
383(11) 0.00885 337.9 2.6
340(10) 0.01007 337.9 2.6
338(10) 0.01065 338.0 2.7
335(9) 0.01110 338.0 2.7
336(10) 0.01056 338.0 2.7
315(10) 0.01086 338.1 2.7
318(10) 0.01073 338.1 2.8
353(10) 0.00985 338.1 2.8
341(10) 0.01091 338.1 2.8
342(10) 0.01025 338.2 2.8
334(10) 0.01069 338.2 2.9
332(10) 0.01036 338.2 2.9
341(10) 0.01075 338.3 2.9
346(10) 0.01071 338.3 3.0
370(11) 0.00890 338.3 3.0
374(11) 0.00875 338.4 3.1
340(10) 0.01033 338.4 3.1
335(9) 0.01114 338.4 3.2
344(10) 0.01080 338.5 3.2
356(10) 0.00950 338.5 3.3
336(10) 0.00962 338.5 3.3
342(10) 0.01012 338.6 3.4
348(10) 0.01046 338.6 3.5
355(10) 0.01049 338.6 3.5
358(10) 0.00980 338.7 3.6
370(11) 0.00863 338.7 3.7
352(10) 0.00949 338.7 3.8
337(10) 0.01088 338.7 3.9
348(10) 0.01057 338.8 4.0
335(10) 0.01027 338.8 4.1
351(11) 0.00886 338.8 4.2
344(10) 0.00999 338.9 4.3
327(9) 0.01144 338.9 4.4
316(9) 0.01157 338.9 4.5
323(10) 0.01093 339.0 4.7
325(10) 0.01044 339.0 4.8
374(11) 0.00879 339.0 5.0
344(10) 0.01085 339.1 5.2
372(10) 0.00976 339.1 5.3
361(10) 0.00957 339.1 5.5
367(11) 0.00891 339.2 5.7
371(10) 0.00908 339.2 5.9
342(10) 0.01084 339.2 6.2
327(9) 0.01124 339.3 6.4
346(10) 0.01007 339.3 6.7
355(10) 0.00921 339.3 7.0
344(10) 0.00989 339.3 7.3
344(10) 0.01086 339.4 7.6
325(10) 0.01058 339.4 7.9
345(10) 0.00954 339.4 8.3
325(10) 0.01049 339.5 8.7
352(10) 0.00991 339.5 9.2
382(10) 0.00989 339.5 9.6
334(10) 0.01051 339.6 10.2
348(10) 0.00986 339.6 10.7
350(10) 0.00987 339.6 11.3
368(10) 0.00996 339.7 12.0
400(10) 0.00928 339.7 12.7
348(10) 0.01011 339.7 13.4
353(10) 0.00958 339.8 14.3
352(10) 0.00979 339.8 15.2
353(10) 0.01034 339.8 16.2
367(10) 0.01003 339.8 17.2
328(10) 0.01066 339.9 18.4
349(10) 0.00950 339.9 19.6
371(11) 0.00899 339.9 20.9
366(10) 0.00987 340.0 22.4
373(10) 0.00994 340.0 23.9
359(10) 0.00978 340.0 25.5
355(10) 0.00937 340.1 27.2
347(10) 0.01022 340.1 29.0
365(10) 0.00997 340.1 30.8
383(10) 0.00986 340.2 32.7
379(11) 0.00863 340.2 34.6
364(10) 0.00947 340.2 36.5
374(10) 0.00977 340.3 38.3
393(10) 0.00935 340.3 39.9
404(10) 0.00908 340.3 41.2
376(10) 0.00924 340.4 42.2
369(11) 0.00836 340.4 42.8
406(11) 0.00814 340.4 43.0
399(10) 0.00942 340.4 42.7
368(10) 0.01003 340.5 42.1
403(11) 0.00861 340.5 41.1
392(11) 0.00844 340.5 39.9
397(11) 0.00830 340.6 38.5
352(10) 0.01060 340.6 37.0
363(10) 0.01029 340.6 35.5
379(10) 0.00921 340.7 34.0
365(11) 0.00904 340.7 32.7
371(10) 0.00919 340.7 31.4
376(10) 0.00994 340.8 30.3
361(10) 0.01016 340.8 29.2
339(10) 0.01036 340.8 28.3
349(10) 0.00959 340.9 27.5
365(10) 0.00943 340.9 26.7
342(10) 0.01086 340.9 26.1
343(10) 0.01081 341.0 25.4
362(10) 0.00940 341.0 24.8
362(10) 0.00921 341.0 24.2
337(10) 0.01066 341.0 23.6
362(10) 0.01032 341.1 23.0
359(10) 0.00987 341.1 22.4
359(10) 0.00978 341.1 21.8
366(10) 0.00957 341.2 21.1
364(10) 0.00983 341.2 20.5
358(10) 0.01035 341.2 19.9
377(10) 0.00930 341.3 19.3
370(10) 0.00914 341.3 18.7
354(10) 0.00989 341.3 18.1
360(10) 0.00996 341.4 17.6
372(10) 0.01001 341.4 17.2
375(11) 0.00907 341.4 16.7
339(10) 0.00987 341.5 16.4
353(10) 0.00995 341.5 16.0
346(10) 0.01070 341.5 15.8
363(10) 0.01017 341.6 15.5
334(10) 0.01034 341.6 15.3
351(10) 0.00932 341.6 15.1
359(10) 0.00981 341.6 15.0
346(10) 0.01052 341.7 14.9
358(10) 0.01030 341.7 14.9
342(10) 0.01035 341.7 14.8
372(11) 0.00868 341.8 14.8
374(11) 0.00898 341.8 14.8
359(10) 0.01016 341.8 14.8
377(10) 0.00985 341.9 14.8
346(10) 0.01028 341.9 14.8
365(11) 0.00882 341.9 14.9
343(10) 0.01020 342.0 14.9
351(10) 0.01060 342.0 14.9
372(10) 0.00981 342.0 14.8
352(10) 0.00981 342.1 14.8
359(11) 0.00899 342.1 14.8
347(10) 0.01014 342.1 14.7
358(10) 0.01047 342.2 14.6
347(10) 0.01059 342.2 14.6
379(11) 0.00907 342.2 14.5
362(10) 0.00954 342.2 14.4
359(10) 0.00971 342.3 14.3
305(9) 0.01219 342.3 14.3
338(10) 0.01072 342.3 14.3
351(10) 0.01003 342.4 14.3
344(10) 0.00988 342.4 14.4
357(10) 0.00966 342.4 14.8
341(10) 0.01092 342.5 15.3
350(10) 0.01022 342.5 16.2
361(10) 0.00951 342.5 17.5
386(11) 0.00874 342.6 19.3
358(10) 0.00993 342.6 21.6
366(10) 0.01008 342.6 24.1
343(10) 0.01055 342.7 26.6
350(10) 0.01010 342.7 28.3
339(10) 0.00992 342.7 28.7
361(10) 0.00984 342.8 27.5
382(10) 0.00966 342.8 25.1
354(10) 0.01031 342.8 22.3
340(10) 0.01025 342.8 19.6
338(10) 0.01047 342.9 17.2
386(10) 0.00928 342.9 15.4
382(10) 0.00969 342.9 14.0
369(10) 0.00937 343.0 13.0
372(10) 0.00915 343.0 12.3
372(10) 0.00934 343.0 11.9
351(10) 0.01035 343.1 11.6
350(10) 0.01061 343.1 11.4
342(10) 0.01021 343.1 11.3
342(10) 0.00998 343.2 11.2
379(10) 0.00944 343.2 11.2
336(10) 0.01083 343.2 11.2
342(10) 0.01090 343.3 11.2
354(10) 0.00997 343.3 11.3
366(11) 0.00872 343.3 11.4
327(10) 0.01083 343.3 11.5
350(10) 0.01034 343.4 11.7
355(10) 0.01041 343.4 11.8
356(10) 0.00990 343.4 12.0
342(10) 0.00973 343.5 12.2
363(10) 0.00964 343.5 12.3
340(9) 0.01118 343.5 12.5
348(10) 0.01062 343.6 12.7
375(10) 0.00940 343.6 12.8
352(11) 0.00898 343.6 13.0
360(10) 0.00976 343.7 13.1
364(10) 0.01018 343.7 13.3
344(10) 0.01073 343.7 13.5
359(10) 0.00993 343.8 13.6
357(10) 0.00952 343.8 13.8
361(10) 0.00965 343.8 13.9
343(10) 0.01085 343.9 14.1
365(10) 0.00995 343.9 14.3
368(10) 0.00940 343.9 14.4
366(10) 0.00930 343.9 14.6
362(10) 0.00977 344.0 14.7
369(10) 0.01000 344.0 14.8
366(10) 0.00996 344.0 14.9
369(11) 0.00907 344.1 15.0
359(10) 0.00915 344.1 15.1
365(10) 0.00923 344.1 15.2
358(10) 0.01027 344.2 15.2
344(10) 0.01021 344.2 15.2
359(10) 0.00954 344.2 15.2
393(11) 0.00818 344.3 15.1
351(10) 0.01029 344.3 15.1
367(10) 0.01021 344.3 15.0
344(10) 0.01033 344.4 14.9
349(10) 0.00979 344.4 14.8
337(10) 0.01022 344.4 14.6
362(10) 0.00961 344.5 14.4
358(10) 0.01056 344.5 14.2
360(10) 0.00947 344.5 14.0
365(10) 0.00918 344.5 13.8
367(10) 0.00930 344.6 13.6
344(10) 0.01073 344.6 13.4
376(10) 0.00984 344.6 13.2
357(10) 0.00977 344.7 13.1
377(11) 0.00867 344.7 13.0
352(10) 0.00989 344.7 13.1
347(10) 0.01085 344.8 13.3
351(10) 0.01066 344.8 13.8
359(10) 0.00971 344.8 14.4
375(11) 0.00901 344.9 15.1
375(10) 0.00939 344.9 15.4
371(10) 0.00965 344.9 15.3
368(10) 0.01024 345.0 14.5
355(10) 0.00993 345.0 13.4
353(10) 0.00920 345.0 12.3
342(10) 0.01053 345.1 11.2
355(10) 0.01038 345.1 10.4
374(10) 0.00991 345.1 9.8
366(10) 0.00941 345.1 9.4
356(11) 0.00901 345.2 9.1
351(10) 0.00988 345.2 8.9
323(9) 0.01161 345.2 8.8
319(9) 0.01169 345.3 8.6
352(10) 0.00962 345.3 8.5
347(10) 0.00913 345.3 8.4
346(10) 0.01030 345.4 8.3
359(10) 0.01041 345.4 8.2
322(9) 0.01148 345.4 8.0
348(10) 0.00983 345.5 7.9
335(10) 0.00999 345.5 7.7
344(10) 0.00978 345.5 7.6
352(10) 0.01057 345.6 7.5
333(10) 0.01073 345.6 7.4
369(11) 0.00875 345.6 7.3
357(10) 0.00922 345.7 7.2
337(10) 0.01062 345.7 7.2
341(10) 0.01079 345.7 7.2
352(10) 0.01036 345.7 7.3
356(10) 0.00969 345.8 7.4
370(11) 0.00890 345.8 7.5
372(11) 0.00897 345.8 7.7
337(10) 0.01107 345.9 8.0
350(10) 0.00986 345.9 8.2
343(10) 0.00991 345.9 8.6
370(10) 0.00917 346.0 8.9
384(10) 0.00927 346.0 9.3
360(10) 0.01036 346.0 9.7
327(10) 0.01089 346.1 10.0
349(10) 0.00966 346.1 10.3
358(10) 0.00953 346.1 10.5
343(10) 0.01036 346.2 10.5
338(10) 0.01099 346.2 10.5
356(10) 0.00929 346.2 10.3
358(10) 0.00951 346.3 10.1
360(10) 0.00948 346.3 9.8
361(10) 0.00983 346.3 9.5
371(10) 0.00999 346.3 9.2
365(10) 0.00932 346.4 8.9
346(10) 0.00949 346.4 8.6
319(9) 0.01123 346.4 8.4
365(10) 0.01001 346.5 8.2
379(10) 0.00987 346.5 8.1
369(10) 0.00954 346.5 8.0
344(10) 0.00968 346.6 8.0
332(10) 0.01026 346.6 8.0
383(10) 0.00964 346.6 8.1
372(10) 0.00996 346.7 8.3
337(10) 0.01034 346.7 8.6
324(10) 0.01005 346.7 9.1
339(10) 0.01029 346.8 9.7
352(10) 0.01067 346.8 10.5
361(10) 0.00986 346.8 11.7
342(10) 0.00990 346.8 13.3
350(10) 0.00915 346.9 15.7
347(10) 0.00969 346.9 18.8
380(10) 0.00980 346.9 23.1
379(10) 0.00970 347.0 28.5
424(11) 0.00797 347.0 35.1
399(11) 0.00811 347.0 42.7
397(11) 0.00853 347.1 50.6
417(11) 0.00902 347.1 57.8
417(11) 0.00875 347.1 62.5
399(11) 0.00863 347.2 63.2
390(11) 0.00846 347.2 59.6
391(11) 0.00890 347.2 53.2
387(10) 0.00963 347.3 45.5
404(11) 0.00895 347.3 38.0
381(11) 0.00899 347.3 31.3
350(10) 0.00978 347.4 25.9
375(10) 0.00913 347.4 21.7
354(10) 0.01045 347.4 18.7
342(10) 0.01059 347.4 16.7
345(10) 0.01002 347.5 15.6
346(10) 0.00990 347.5 15.2
378(10) 0.00933 347.5 15.4
374(10) 0.01001 347.6 16.3
374(10) 0.00929 347.6 17.5
395(11) 0.00838 347.6 19.2
363(10) 0.00941 347.7 20.9
374(10) 0.00977 347.7 22.5
380(10) 0.00986 347.7 23.4
387(11) 0.00903 347.8 23.2
372(10) 0.00918 347.8 21.8
354(10) 0.00980 347.8 19.7
389(10) 0.00933 347.9 17.4
349(10) 0.01057 347.9 15.1
359(10) 0.00945 347.9 13.0
329(10) 0.00981 348.0 11.3
362(10) 0.00937 348.0 10.0
359(10) 0.01024 348.0 8.9
334(9) 0.01118 348.0 8.1
340(10) 0.01037 348.1 7.4
338(10) 0.00970 348.1 6.9
329(10) 0.01067 348.1 6.5
345(10) 0.01069 348.2 6.2
343(10) 0.01087 348.2 5.9
333(10) 0.01063 348.2 5.6
347(11) 0.00901 348.3 5.4
332(10) 0.01036 348.3 5.2
349(10) 0.01051 348.3 5.0
354(10) 0.01049 348.4 4.8
347(10) 0.00993 348.4 4.7
307(10) 0.01076 348.4 4.5
342(10) 0.01002 348.5 4.4
359(10) 0.01036 348.5 4.3
366(10) 0.01004 348.5 4.1
348(10) 0.00955 348.6 4.0
345(10) 0.00926 348.6 3.9
329(10) 0.01040 348.6 3.8
338(9) 0.01111 348.6 3.7
322(9) 0.01152 348.6 3.7
326(10) 0.01070 348.6 3.6
314(10) 0.01089 348.6 3.5
339(10) 0.00986 348.6 3.5
356(10) 0.01056 348.6 3.4
359(10) 0.00988 348.6 3.3
338(10) . . .
351(10) . . .
364(10) . . .
358(10) . . .
366(10) . . .
379(10) . . .
346(10) . . .
311(9) . . .
337(10) . . .
340(10) . . .
323(10) . . .
342(10) . . .
342(10) . . .
342(10) . . .
319(10) . . .
334(10) . . .
326(10) . . .
338(10) . . .
320(9) . . .
332(10) . . .
351(10) . . .
345(10) . . .
346(10) . . .
317(9) . . .
359(10) . . .
362(10) . . .
350(10) . . .
337(10) . . .
342(10) . . .
347(10) . . .
331(10) . . .
317(10) . . .
322(9) . . .
325(9) . . .
354(10) . . .
324(10) . . .
338(10) . . .
299(9) . . .
324(9) . . .
337(10) . . .
336(10) . . .
326(10) . . .
346(10) . . .
340(10) . . .
339(10) . . .
357(11) . . .
349(10) . . .
343(10) . . .
339(10) . . .
311(10) . . .
342(10) . . .
322(10) . . .
358(10) . . .
367(10) . . .
373(10) . . .
363(10) . . .
386(10) . . .
352(10) . . .
374(10) . . .
338(10) . . .
346(10) . . .
347(10) . . .
328(9) . . .
338(10) . . .
323(10) . . .
347(10) . . .
369(10) . . .
335(10) . . .
358(10) . . .
339(10) . . .
339(10) . . .
330(9) . . .
345(10) . . .
338(10) . . .
316(10) . . .
342(10) . . .
337(10) . . .
343(10) . . .
359(10) . . .
345(10) . . .
354(10) . . .
346(10) . . .
340(10) . . .
328(10) . . .
312(10) . . .
331(10) . . .
357(10) . . .
343(10) . . .
349(10) . . .
349(10) . . .
340(10) . . .
332(9) . . .
341(10) . . .
339(10) . . .
343(10) . . .
345(10) . . .
330(9) . . .
345(10) . . .
343(10) . . .
361(10) . . .
352(10) . . .
353(10) . . .
332(10) . . .
341(10) . . .
346(10) . . .
341(10) . . .
327(9) . . .
319(9) . . .
337(10) . . .
354(10) . . .
316(9) . . .
331(9) . . .
337(10) . . .
337(10) . . .
340(10) . . .
334(10) . . .
327(9) . . .
353(10) . . .
349(10) . . .
344(10) . . .
381(10) . . .
347(10) . . .
348(10) . . .
327(10) . . .
311(9) . . .
349(10) . . .
342(10) . . .
376(11) . . .
359(11) . . .
350(10) . . .
360(10) . . .
351(10) . . .
358(10) . . .
354(10) . . .
337(10) . . .
356(10) . . .
330(9) . . .
343(10) . . .
332(10) . . .
334(10) . . .
328(9) . . .
354(10) . . .
367(10) . . .
340(10) . . .
344(10) . . .
344(10) . . .
375(10) . . .
379(10) . . .
347(10) . . .
377(11) . . .
372(10) . . .
391(11) . . .
363(10) . . .
330(10) . . .
355(10) . . .
348(10) . . .
362(10) . . .
349(10) . . .
334(10) . . .
329(10) . . .
353(10) . . .
340(10) . . .
348(10) . . .
363(10) . . .
354(10) . . .
373(10) . . .
359(10) . . .
356(10) . . .
369(11) . . .
353(10) . . .
351(10) . . .
363(10) . . .
365(10) . . .
359(10) . . .
385(10) . . .
342(10) . . .
351(10) . . .
352(10) . . .
343(10) . . .
343(10) . . .
327(9) . . .
379(10) . . .
353(10) . . .
351(10) . . .
359(10) . . .
344(10) . . .
357(10) . . .
334(10) . . .
344(10) . . .
345(10) . . .
350(10) . . .
341(10) . . .
335(10) . . .
329(10) . . .
332(9) . . .
347(10) . . .
341(10) . . .
319(10) . . .
335(10) . . .
326(9) . . .
345(10) . . .
330(10) . . .
353(10) . . .
326(10) . . .
321(9) . . .
342(10) . . .
365(10) . . .
333(10) . . .
337(10) . . .
346(10) . . .
316(9) . . .
332(10) . . .
344(10) . . .
322(9) . . .
336(10) . . .
324(10) . . .
351(10) . . .
349(10) . . .
348(10) . . .
340(10) . . .
353(10) . . .
361(10) . . .
351(10) . . .
361(10) . . .
343(10) . . .
360(10) . . .
336(10) . . .
342(10) . . .
339(10) . . .
355(10) . . .
365(10) . . .
350(11) . . .
333(10) . . .
347(10) . . .
349(10) . . .
354(10) . . .
342(10) . . .
363(10) . . .
328(9) . . .
340(10) . . .
374(10) . . .
338(10) . . .
329(10) . . .
321(9) . . .
332(10) . . .
367(10) . . .
362(10) . . .
360(10) . . .
353(10) . . .
345(10) . . .
350(10) . . .
333(10) . . .
351(10) . . .
359(10) . . .
356(10) . . .
368(10) . . .
356(10) . . .
362(10) . . .
356(10) . . .
357(10) . . .
379(11) . . .
411(11) . . .
400(10) . . .
400(10) . . .
424(11) . . .
405(11) . . .
415(11) . . .
402(11) . . .
416(11) . . .
429(11) . . .
390(11) . . .
394(11) . . .
387(10) . . .
391(10) . . .
388(11) . . .
404(11) . . .
397(10) . . .
410(11) . . .
375(10) . . .
395(11) . . .
396(11) . . .
404(11) . . .
390(10) . . .
379(10) . . .
374(10) . . .
376(11) . . .
350(10) . . .
356(10) . . .
348(10) . . .
363(10) . . .
363(11) . . .
344(10) . . .
341(10) . . .
319(9) . . .
361(10) . . .
335(10) . . .
351(10) . . .
334(9) . . .
341(10) . . .
341(10) . . .
351(10) . . .
343(10) . . .
311(9) . . .
317(10) . . .
339(10) . . .
359(10) . . .
323(10) . . .
319(9) . . .
316(9) . . .
321(10) . . .
332(10) . . .
330(10) . . .
360(10) . . .
337(10) . . .
331(10) . . .
318(9) . . .
336(10) . . .
334(10) . . .
328(10) . . .
340(10) . . .
362(10) . . .
330(9) . . .
331(9) . . .
338(10) . . .
317(10) . . .
322(10) . . .
340(10) . . .
312(9) . . .
338(10) . . .
339(10) . . .
309(9) . . .
322(9) . . .
298(9) . . .
305(9) . . .
318(10) . . .
305(9) . . .
300(9) . . .
349(10) . . .
355(10) . . .
313(10) . . .
296(9) . . .
321(9) . . .
346(10) . . .
313(10) . . .
337(10) . . .
309(9) . . .
315(9) . . .
312(9) . . .
334(10) . . .
329(10) . . .
351(10) . . .
325(9) . . .
312(9) . . .
306(10) . . .
332(10) . . .
336(10) . . .
336(9) . . .
332(10) . . .
336(10) . . .
334(10) . . .
344(10) . . .
327(9) . . .
324(10) . . .
343(10) . . .
295(9) . . .
322(10) . . .
346(10) . . .
327(10) . . .
316(10) . . .
334(10) . . .
316(9) . . .
341(10) . . .
320(10) . . .
301(9) . . .
333(10) . . .
328(9) . . .
315(9) . . .
319(10) . . .
315(10) . . .
327(10) . . .
325(9) . . .
309(9) . . .
307(9) . . .
308(10) . . .
302(9) . . .
331(9) . . .
313(9) . . .
322(10) . . .
306(10) . . .
355(10) . . .
316(9) . . .
313(9) . . .
310(9) . . .
320(10) . . .
300(9) . . .
322(9) . . .
313(9) . . .
328(10) . . .
323(10) . . .
316(10) . . .
312(9) . . .
331(10) . . .
330(10) . . .
307(10) . . .
325(10) . . .
313(9) . . .
285(9) . . .
335(10) . . .
285(9) . . .
312(9) . . .
317(9) . . .
331(10) . . .
317(10) . . .
276(9) . . .
312(10) . . .
324(9) . . .
314(10) . . .
311(10) . . .
316(10) . . .
277(9) . . .
299(9) . . .
316(10) . . .
331(10) . . .
341(10) . . .
325(9) . . .
319(9) . . .
328(10) . . .
325(10) . . .
329(10) . . .
321(10) . . .
339(10) . . .
316(9) . . .
341(10) . . .
338(10) . . .
348(10) . . .
312(9) . . .
331(10) . . .
362(11) . . .
358(10) . . .
345(10) . . .
331(9) . . .
333(10) . . .
344(10) . . .
325(10) . . .
340(10) . . .
347(10) . . .
349(10) . . .
352(10) . . .
348(10) . . .
339(9) . . .
344(10) . . .
361(10) . . .
340(10) . . .
329(10) . . .
334(10) . . .
356(10) . . .
354(10) . . .
329(10) . . .
352(10) . . .
333(9) . . .
316(9) . . .
350(10) . . .
330(10) . . .
351(10) . . .
359(10) . . .
315(9) . . .
309(10) . . .
333(10) . . .
362(10) . . .
344(10) . . .
362(10) . . .
342(10) . . .
328(10) . . .
372(10) . . .
326(9) . . .
352(10) . . .
352(10) . . .
336(10) . . .
382(10) . . .
388(10) . . .
395(11) . . .
374(11) . . .
357(10) . . .
379(10) . . .
393(10) . . .
363(10) . . .
350(10) . . .
358(10) . . .
353(10) . . .
354(10) . . .
340(10) . . .
340(10) . . .
360(10) . . .
333(9) . . .
325(9) . . .
361(10) . . .
329(10) . . .
315(9) . . .
342(10) . . .
317(9) . . .
308(9) . . .
309(9) . . .
321(10) . . .
318(9) . . .
322(9) . . .
299(9) . . .
320(10) . . .
319(10) . . .
327(9) . . .
312(10) . . .
291(9) . . .
312(10) . . .
312(9) . . .
327(9) . . .
313(9) . . .
298(9) . . .
309(9) . . .
320(9) . . .
303(9) . . .
309(9) . . .
312(10) . . .
309(9) . . .
307(9) . . .
317(9) . . .
307(9) . . .
315(10) . . .
311(10) . . .
291(9) . . .
304(9) . . .
300(9) . . .
298(10) . . .
302(9) . . .
326(9) . . .
293(9) . . .
295(9) . . .
308(10) . . .
284(9) . . .
289(9) . . .
348(10) . . .
318(10) . . .
318(10) . . .
293(9) . . .
287(9) . . .
317(9) . . .
315(9) . . .
304(10) . . .
302(9) . . .
289(9) . . .
299(9) . . .
292(9) . . .
289(9) . . .
277(9) . . .
299(9) . . .
307(9) . . .
302(9) . . .
312(10) . . .
312(10) . . .
312(9) . . .
315(9) . . .
316(10) . . .
300(9) . . .
312(9) . . .
297(9) . . .
291(9) . . .
293(9) . . .
293(9) . . .
323(10) . . .
304(9) . . .
292(9) . . .
307(9) . . .
301(9) . . .
300(9) . . .
301(9) . . .
297(9) . . .
320(10) . . .
301(9) . . .
305(9) . . .
317(9) . . .
298(9) . . .
308(10) . . .
312(9) . . .
295(9) . . .
315(9) . . .
312(9) . . .
322(10) . . .
308(9) . . .
315(9) . . .
309(9) . . .
287(9) . . .
309(10) . . .
305(9) . . .
326(9) . . .
308(9) . . .
300(9) . . .
314(10) . . .
327(10) . . .
315(9) . . .
315(9) . . .
310(9) . . .
304(9) . . .
309(10) . . .
289(9) . . .
290(9) . . .
310(9) . . .
292(9) . . .
288(9) . . .
299(9) . . .
305(9) . . .
284(9) . . .
298(9) . . .
313(9) . . .
305(9) . . .
332(10) . . .
303(9) . . .
284(9) . . .
297(9) . . .
286(9) . . .
292(9) . . .
324(10) . . .
320(10) . . .
296(9) . . .
322(9) . . .
314(9) . . .
305(10) . . .
272(9) . . .
319(9) . . .
329(9) . . .
295(9) . . .
296(9) . . .
288(9) . . .
303(9) . . .
261(8) . . .
282(9) . . .
285(9) . . .
280(9) . . .
280(9) . . .
311(9) . . .
309(10) . . .
302(10) . . .
306(9) . . .
303(9) . . .
286(9) . . .
308(10) . . .
287(9) . . .
315(10) . . .
290(9) . . .
312(9) . . .
293(9) . . .
327(10) . . .
305(9) . . .
308(9) . . .
295(9) . . .
293(9) . . .
331(10) . . .
325(10) . . .
331(9) . . .
352(10) . . .
359(10) . . .
332(10) . . .
336(10) . . .
309(9) . . .
307(9) . . .
321(10) . . .
301(9) . . .
326(10) . . .
287(9) . . .
289(9) . . .
300(9) . . .
300(9) . . .
322(10) . . .
301(9) . . .
282(9) . . .
300(9) . . .
307(9) . . .
305(9) . . .
299(9) . . .
288(9) . . .
290(9) . . .
323(10) . . .
335(10) . . .
311(9) . . .
335(10) . . .
338(10) . . .
343(10) . . .
340(10) . . .
334(10) . . .
347(10) . . .
328(10) . . .
339(10) . . .
339(10) . . .
317(9) . . .
293(9) . . .
314(10) . . .
336(10) . . .
311(9) . . .
294(9) . . .
311(9) . . .
323(10) . . .
318(9) . . .
318(9) . . .
313(9) . . .
282(9) . . .
296(9) . . .
306(10) . . .
299(9) . . .
314(9) . . .
313(10) . . .
310(9) . . .
319(10) . . .
305(9) . . .
299(9) . . .
291(9) . . .
291(9) . . .
292(9) . . .
300(9) . . .
278(9) . . .
285(9) . . .
276(9) . . .
286(9) . . .
298(9) . . .
319(10) . . .
303(9) . . .
298(9) . . .
301(9) . . .
295(9) . . .
313(10) . . .
266(9) . . .
286(9) . . .
272(8) . . .
270(9) . . .
278(9) . . .
303(10) . . .
274(9) . . .
301(9) . . .
278(9) . . .
263(9) . . .
309(10) . . .
274(9) . . .
291(9) . . .
301(9) . . .
283(9) . . .
256(9) . . .
276(9) . . .
270(9) . . .
288(9) . . .
285(9) . . .
291(9) . . .
243(8) . . .
286(9) . . .
290(9) . . .
298(9) . . .
273(9) . . .
291(9) . . .
289(9) . . .
299(9) . . .
295(9) . . .
284(9) . . .
262(8) . . .
292(9) . . .
274(9) . . .
276(9) . . .
272(9) . . .
288(9) . . .
286(9) . . .
269(9) . . .
275(9) . . .
284(9) . . .
271(9) . . .
310(9) . . .
316(10) . . .
290(9) . . .
263(9) . . .
285(9) . . .
269(8) . . .
265(9) . . .
292(9) . . .
294(9) . . .
251(8) . . .
266(8) . . .
269(9) . . .
303(10) . . .
283(9) . . .
307(9) . . .
293(9) . . .
278(9) . . .
280(9) . . .
298(9) . . .
263(8) . . .
312(9) . . .
284(9) . . .
296(10) . . .
273(9) . . .
282(9) . . .
283(9) . . .
296(9) . . .
269(9) . . .
298(9) . . .
287(9) . . .
296(9) . . .
317(10) . . .
290(9) . . .
281(9) . . .
310(9) . . .
314(9) . . .
306(9) . . .
311(9) . . .
328(10) . . .
313(9) . . .
304(9) . . .
309(10) . . .
332(10) . . .
310(9) . . .
350(10) . . .
302(9) . . .
326(10) . . .
312(9) . . .
299(9) . . .
316(9) . . .
318(10) . . .
305(10) . . .
317(9) . . .
322(9) . . .
299(9) . . .
282(9) . . .
278(9) . . .
270(9) . . .
280(9) . . .
250(8) . . .
276(9) . . .
288(9) . . .
289(9) . . .
282(9) . . .
299(9) . . .
293(9) . . .
281(9) . . .
261(9) . . .
271(9) . . .
279(9) . . .
293(9) . . .
294(10) . . .
295(9) . . .
280(9) . . .
277(9) . . .
294(9) . . .
321(10) . . .
285(9) . . .
268(9) . . .
299(9) . . .
300(9) . . .
304(10) . . .
297(9) . . .
302(9) . . .
306(9) . . .
269(9) . . .
301(9) . . .
310(9) . . .
305(9) . . .
284(9) . . .
285(9) . . .
297(9) . . .
287(9) . . .
292(9) . . .
302(9) . . .
293(9) . . .
284(9) . . .
309(9) . . .
317(9) . . .
315(10) . . .
297(9) . . .
294(9) . . .
315(9) . . .
305(9) . . .
337(10) . . .
307(10) . . .
288(9) . . .
304(9) . . .
299(9) . . .
301(9) . . .
299(9) . . .
321(10) . . .
302(9) . . .
309(9) . . .
305(9) . . .
292(9) . . .
282(9) . . .
285(9) . . .
287(9) . . .
271(9) . . .
283(9) . . .
273(9) . . .
282(9) . . .
302(9) . . .
272(9) . . .
285(9) . . .
287(9) . . .
261(8) . . .
262(8) . . .
287(9) . . .
274(9) . . .
271(9) . . .
263(8) . . .
252(8) . . .
266(9) . . .
278(9) . . .
260(9) . . .
267(8) . . .
270(9) . . .
276(9) . . .
257(9) . . .
252(8) . . .
271(9) . . .
255(8) . . .
259(9) . . .
248(9) . . .
268(9) . . .
280(9) . . .
300(9) . . .
261(9) . . .
273(9) . . .
253(8) . . .
267(8) . . .
289(9) . . .
253(8) . . .
270(9) . . .
280(9) . . .
274(9) . . .
270(9) . . .
270(9) . . .
264(9) . . .
235(8) . . .
255(8) . . .
248(9) . . .
256(9) . . .
248(8) . . .
246(8) . . .
237(8) . . .
267(9) . . .
278(9) . . .
260(9) . . .
272(9) . . .
254(8) . . .
290(9) . . .
282(9) . . .
260(9) . . .
240(8) . . .
248(8) . . .
280(9) . . .
256(9) . . .
247(8) . . .
260(8) . . .
244(8) . . .
259(9) . . .
235(8) . . .
258(9) . . .
268(9) . . .
257(8) . . .
264(9) . . .
262(9) . . .
263(9) . . .
248(8) . . .
260(9) . . .
249(9) . . .
264(9) . . .
255(9) . . .
254(8) . . .
263(9) . . .
275(9) . . .
246(8) . . .
256(8) . . .
254(8) . . .
257(9) . . .
270(9) . . .
270(9) . . .
255(8) . . .
238(8) . . .
230(8) . . .
257(9) . . .
252(9) . . .
272(9) . . .
254(8) . . .
257(9) . . .
241(9) . . .
260(9) . . .
239(8) . . .
268(8) . . .
243(8) . . .
278(9) . . .
256(8) . . .
282(9) . . .
261(8) . . .
252(8) . . .
273(9) . . .
258(9) . . .
253(8) . . .
260(8) . . .
259(9) . . .
220(8) . . .
257(9) . . .
272(9) . . .
238(8) . . .
283(9) . . .
255(9) . . .
244(8) . . .
251(8) . . .
269(9) . . .
275(9) . . .
252(9) . . .
279(9) . . .
271(9) . . .
271(9) . . .
266(9) . . .
234(8) . . .
250(8) . . .
256(8) . . .
257(8) . . .
285(9) . . .
277(9) . . .
264(9) . . .
246(8) . . .
263(9) . . .
263(9) . . .
256(9) . . .
264(9) . . .
243(8) . . .
262(9) . . .
264(9) . . .
257(9) . . .
274(9) . . .
288(9) . . .
253(9) . . .
255(9) . . .
264(9) . . .
236(8) . . .
260(8) . . .
247(8) . . .
262(9) . . .
261(9) . . .
244(8) . . .
259(8) . . .
257(8) . . .
260(9) . . .
254(9) . . .
257(8) . . .
284(9) . . .
276(9) . . .
277(9) . . .
268(9) . . .
265(8) . . .
260(8) . . .
256(8) . . .
275(9) . . .
233(8) . . .
261(8) . . .
256(8) . . .
249(8) . . .
280(9) . . .
250(8) . . .
256(8) . . .
244(8) . . .
272(9) . . .
251(8) . . .
267(9) . . .
269(9) . . .
243(8) . . .
242(8) . . .
264(9) . . .
262(9) . . .
255(8) . . .
240(8) . . .
242(9) . . .
224(8) . . .
263(8) . . .
250(8) . . .
269(9) . . .
265(9) . . .
264(9) . . .
277(9) . . .
249(8) . . .
267(9) . . .
248(9) . . .
240(8) . . .
249(8) . . .
254(8) . . .
269(9) . . .
273(9) . . .
266(9) . . .
274(9) . . .
238(8) . . .
224(8) . . .
250(9) . . .
259(9) . . .
239(8) . . .
227(8) . . .
259(9) . . .
249(9) . . .
240(8) . . .
253(8) . . .
264(8) . . .
262(9) . . .
237(9) . . .
274(9) . . .
275(9) . . .
256(8) . . .
229(8) . . .
249(9) . . .
252(8) . . .
253(8) . . .
240(8) . . .
246(8) . . .
245(9) . . .
231(8) . . .
238(8) . . .
270(9) . . .
255(9) . . .
237(8) . . .
250(8) . . .
252(8) . . .
241(8) . . .
225(8) . . .
278(9) . . .
250(8) . . .
253(8) . . .
234(8) . . .
242(9) . . .
233(8) . . .
253(8) . . .
233(8) . . .
253(9) . . .
265(9) . . .
269(9) . . .
238(8) . . .
235(8) . . .
254(9) . . .
256(9) . . .
256(9) . . .
241(8) . . .
244(8) . . .
260(9) . . .
261(9) . . .
259(9) . . .
274(9) . . .
239(8) . . .
233(8) . . .
250(9) . . .
239(8) . . .
276(9) . . .
246(8) . . .
252(9) . . .
258(9) . . .
256(9) . . .
232(8) . . .
250(8) . . .
256(9) . . .
244(9) . . .
253(9) . . .
242(8) . . .
252(8) . . .
236(8) . . .
250(9) . . .
248(8) . . .
233(8) . . .
238(8) . . .
252(8) . . .
246(9) . . .
234(8) . . .
252(8) . . .
255(9) . . .
233(8) . . .
243(8) . . .
250(8) . . .
254(8) . . .
244(9) . . .
226(8) . . .
259(9) . . .
220(8) . . .
225(8) . . .
240(8) . . .
240(8) . . .
268(9) . . .
233(8) . . .
255(8) . . .
233(8) . . .
260(9) . . .
239(8) . . .
252(8) . . .
241(8) . . .
227(8) . . .
249(9) . . .
259(9) . . .
247(8) . . .
243(8) . . .
249(8) . . .
247(9) . . .
246(8) . . .
262(8) . . .
252(8) . . .
248(8) . . .
236(8) . . .
267(9) . . .
250(8) . . .
247(8) . . .
234(8) . . .
230(8) . . .
240(8) . . .
230(8) . . .
237(8) . . .
240(8) . . .
240(8) . . .
233(8) . . .
245(8) . . .
250(8) . . .
242(8) . . .
266(9) . . .
268(9) . . .
228(8) . . .
252(9) . . .
279(9) . . .
227(8) . . .
237(8) . . .
233(8) . . .
237(8) . . .
251(9) . . .
227(8) . . .
252(8) . . .
236(8) . . .
278(9) . . .
239(8) . . .
225(8) . . .
266(9) . . .
239(8) . . .
243(8) . . .
243(9) . . .
235(8) . . .
245(8) . . .
255(8) . . .
252(8) . . .
243(8) . . .
262(9) . . .
239(8) . . .
253(8) . . .
255(9) . . .
242(9) . . .
259(9) . . .
229(8) . . .
232(8) . . .
248(9) . . .
231(8) . . .
254(9) . . .
253(8) . . .
254(8) . . .
225(8) . . .
239(9) . . .
213(8) . . .
234(8) . . .
234(8) . . .
229(8) . . .
250(9) . . .
259(9) . . .
246(8) . . .
231(8) . . .
238(8) . . .
232(8) . . .
235(8) . . .
233(8) . . .
228(8) . . .
237(8) . . .
241(8) . . .
243(8) . . .
236(8) . . .
244(8) . . .
249(8) . . .
258(9) . . .
227(8) . . .
225(8) . . .
241(8) . . .
228(8) . . .
241(8) . . .
251(8) . . .
254(8) . . .
247(8) . . .
219(8) . . .
217(8) . . .
247(8) . . .
237(8) . . .
224(8) . . .
253(9) . . .
248(8) . . .
254(8) . . .
243(8) . . .
245(8) . . .
252(9) . . .
242(8) . . .
295(9) . . .
256(8) . . .
268(9) . . .
291(9) . . .
319(10) . . .
296(9) . . .
286(9) . . .
293(9) . . .
282(9) . . .
274(9) . . .
245(8) . . .
256(8) . . .
266(9) . . .
264(9) . . .
249(9) . . .
269(9) . . .
266(9) . . .
253(9) . . .
266(9) . . .
274(9) . . .
261(8) . . .
279(9) . . .
264(9) . . .
266(9) . . .
246(8) . . .
246(8) . . .
262(9) . . .
240(8) . . .
238(8) . . .
241(8) . . .
238(8) . . .
255(9) . . .
223(8) . . .
224(8) . . .
235(8) . . .
249(8) . . .
241(8) . . .
250(9) . . .
238(8) . . .
242(8) . . .
259(8) . . .
251(9) . . .
268(9) . . .
253(9) . . .
257(8) . . .
235(8) . . .
245(8) . . .
245(9) . . .
266(9) . . .
250(8) . . .
248(8) . . .
249(8) . . .
269(9) . . .
273(9) . . .
253(8) . . .
251(8) . . .
239(8) . . .
237(8) . . .
249(8) . . .
260(8) . . .
232(8) . . .
244(9) . . .
223(8) . . .
242(8) . . .
237(8) . . .
236(8) . . .
258(9) . . .
243(8) . . .
264(9) . . .
263(8) . . .
243(8) . . .
229(8) . . .
231(8) . . .
238(8) . . .
248(8) . . .
255(8) . . .
252(9) . . .
240(8) . . .
238(8) . . .
234(8) . . .
271(9) . . .
235(8) . . .
229(8) . . .
226(8) . . .
229(8) . . .
251(9) . . .
228(8) . . .
246(8) . . .
247(8) . . .
243(8) . . .
229(8) . . .
263(9) . . .
259(9) . . .
255(8) . . .
245(8) . . .
268(9) . . .
263(9) . . .
274(9) . . .
258(8) . . .
230(8) . . .
231(8) . . .
236(8) . . .
241(8) . . .
263(8) . . .
248(8) . . .
231(8) . . .
240(8) . . .
238(8) . . .
240(8) . . .
234(8) . . .
235(8) . . .
240(8) . . .
255(9) . . .
233(8) . . .
245(8) . . .
256(9) . . .
250(9) . . .
214(8) . . .
235(8) . . .
246(8) . . .
234(8) . . .
259(9) . . .
263(9) . . .
255(8) . . .
241(8) . . .
252(9) . . .
249(8) . . .
254(9) . . .
245(8) . . .
249(9) . . .
226(8) . . .
224(8) . . .
236(8) . . .
233(8) . . .
268(9) . . .
240(8) . . .
288(9) . . .
244(8) . . .
278(9) . . .
263(9) . . .
243(8) . . .
255(9) . . .
251(8) . . .
263(8) . . .
265(9) . . .
263(9) . . .
255(8) . . .
254(8) . . .
255(8) . . .
260(9) . . .
215(8) . . .
245(9) . . .
238(8) . . .
251(8) . . .
265(9) . . .
236(8) . . .
247(9) . . .
241(8) . . .
266(8) . . .
266(9) . . .
239(8) . . .
257(8) . . .
253(8) . . .
252(8) . . .
255(9) . . .
230(8) . . .
243(9) . . .
229(8) . . .
237(8) . . .
264(9) . . .
222(8) . . .
238(8) . . .
246(8) . . .
224(8) . . .
218(8) . . .
228(8) . . .
208(8) . . .
231(8) . . .
242(8) . . .
233(8) . . .
232(8) . . .
244(8) . . .
246(8) . . .
239(8) . . .
248(9) . . .
226(8) . . .
251(8) . . .
230(8) . . .
233(8) . . .
248(9) . . .
236(8) . . .
228(8) . . .
238(8) . . .
236(8) . . .
233(8) . . .
241(8) . . .
241(8) . . .
213(8) . . .
246(8) . . .
219(8) . . .
229(8) . . .
237(8) . . .
248(8) . . .
221(8) . . .
240(9) . . .
238(8) . . .
232(8) . . .
227(8) . . .
236(8) . . .
224(8) . . .
229(8) . . .
222(8) . . .
216(8) . . .
238(9) . . .
239(8) . . .
243(8) . . .
233(8) . . .
242(8) . . .
226(8) . . .
216(8) . . .
217(8) . . .
243(8) . . .
220(8) . . .
247(9) . . .
222(8) . . .
230(8) . . .
208(7) . . .
245(8) . . .
247(9) . . .
224(8) . . .
227(8) . . .
245(8) . . .
243(8) . . .
253(9) . . .
243(8) . . .
236(8) . . .
267(8) . . .
266(9) . . .
227(8) . . .
236(8) . . .
224(8) . . .
230(8) . . .
222(8) . . .
218(8) . . .
219(8) . . .
224(8) . . .
211(7) . . .
232(8) . . .
215(8) . . .
232(8) . . .
202(7) . . .
242(8) . . .
235(8) . . .
227(8) . . .
227(8) . . .
236(8) . . .
236(8) . . .
232(8) . . .
239(8) . . .
231(8) . . .
202(7) . . .
219(8) . . .
245(8) . . .
235(8) . . .
213(8) . . .
238(8) . . .
238(8) . . .
222(8) . . .
224(8) . . .
208(8) . . .
218(8) . . .
223(8) . . .
222(8) . . .
227(8) . . .
236(8) . . .
240(8) . . .
222(8) . . .
229(8) . . .
209(8) . . .
221(8) . . .
229(8) . . .
218(8) . . .
229(8) . . .
239(8) . . .
228(8) . . .
233(8) . . .
208(8) . . .
215(8) . . .
224(8) . . .
217(8) . . .
225(8) . . .
215(8) . . .
214(8) . . .
220(8) . . .
204(7) . . .
231(8) . . .
227(8) . . .
231(9) . . .
218(8) . . .
219(8) . . .
219(8) . . .
237(8) . . .
232(9) . . .
229(8) . . .
223(8) . . .
227(8) . . .
237(8) . . .
235(9) . . .
217(8) . . .
212(8) . . .
231(8) . . .
219(8) . . .
213(8) . . .
242(8) . . .
217(8) . . .
199(7) . . .
201(8) . . .
236(8) . . .
233(8) . . .
233(8) . . .
211(8) . . .
233(8) . . .
238(8) . . .
237(8) . . .
221(8) . . .
239(8) . . .
239(9) . . .
220(8) . . .
210(8) . . .
207(7) . . .
199(7) . . .
211(8) . . .
198(7) . . .
227(8) . . .
217(8) . . .
231(9) . . .
219(8) . . .
207(8) . . .
223(8) . . .
228(8) . . .
208(8) . . .
215(8) . . .
248(9) . . .
217(8) . . .
225(8) . . .
207(8) . . .
234(9) . . .
233(8) . . .
232(8) . . .
208(7) . . .
242(8) . . .
240(9) . . .
251(9) . . .
236(8) . . .
227(8) . . .
235(8) . . .
234(8) . . .
243(8) . . .
252(8) . . .
247(8) . . .
254(9) . . .
266(9) . . .
271(9) . . .
255(8) . . .
253(8) . . .
244(8) . . .
242(9) . . .
220(8) . . .
200(7) . . .
213(8) . . .
237(8) . . .
239(8) . . .
232(8) . . .
243(8) . . .
245(8) . . .
211(8) . . .
217(8) . . .
227(8) . . .
212(8) . . .
240(8) . . .
231(8) . . .
213(8) . . .
228(8) . . .
231(8) . . .
213(8) . . .
210(8) . . .
210(8) . . .
217(8) . . .
230(8) . . .
226(8) . . .
231(8) . . .
233(8) . . .
215(8) . . .
216(8) . . .
217(8) . . .
217(8) . . .
219(8) . . .
190(7) . . .
215(8) . . .
215(8) . . .
228(9) . . .
244(8) . . .
228(8) . . .
218(8) . . .
229(8) . . .
225(8) . . .
206(8) . . .
218(8) . . .
235(8) . . .
220(8) . . .
209(8) . . .
206(8) . . .
226(8) . . .
232(8) . . .
227(8) . . .
220(8) . . .
206(8) . . .
210(7) . . .
204(8) . . .
214(8) . . .
212(8) . . .
206(8) . . .
238(8) . . .
225(8) . . .
223(8) . . .
210(8) . . .
214(8) . . .
213(8) . . .
228(8) . . .
225(8) . . .
250(8) . . .
227(8) . . .
199(7) . . .
240(8) . . .
201(8) . . .
226(8) . . .
222(8) . . .
221(8) . . .
210(8) . . .
210(8) . . .
228(8) . . .
225(8) . . .
197(7) . . .
225(8) . . .
222(8) . . .
225(8) . . .
224(8) . . .
228(8) . . .
213(8) . . .
212(8) . . .
231(8) . . .
218(8) . . .
204(7) . . .
188(7) . . .
226(9) . . .
202(8) . . .
213(8) . . .
210(8) . . .
216(8) . . .
216(8) . . .
203(8) . . .
218(8) . . .
227(8) . . .
253(9) . . .
244(8) . . .
216(8) . . .
202(7) . . .
219(8) . . .
218(8) . . .
197(7) . . .
203(8) . . .
210(7) . . .
224(8) . . .
223(8) . . .
224(8) . . .
215(8) . . .
203(7) . . .
226(8) . . .
188(7) . . .
211(8) . . .
228(8) . . .
218(8) . . .
208(8) . . .
225(8) . . .
211(8) . . .
210(8) . . .
214(8) . . .
224(8) . . .
213(8) . . .
214(8) . . .
202(8) . . .
229(8) . . .
228(8) . . .
207(8) . . .
223(8) . . .
210(8) . . .
224(8) . . .
224(8) . . .
226(8) . . .
239(8) . . .
230(8) . . .
213(8) . . .
203(8) . . .
227(8) . . .
229(8) . . .
223(8) . . .
213(8) . . .
228(8) . . .
211(8) . . .
210(8) . . .
201(7) . . .
232(8) . . .
230(8) . . .
230(8) . . .
228(8) . . .
213(8) . . .
218(8) . . .
221(8) . . .
224(8) . . .
219(8) . . .
219(8) . . .
231(8) . . .
240(8) . . .
239(8) . . .
222(8) . . .
243(8) . . .
233(8) . . .
222(8) . . .
237(8) . . .
240(8) . . .
211(8) . . .
228(8) . . .
239(8) . . .
255(9) . . .
246(9) . . .
248(8) . . .
247(8) . . .
251(9) . . .
248(8) . . .
263(8) . . .
266(8) . . .
270(9) . . .
244(8) . . .
257(9) . . .
255(8) . . .
248(8) . . .
254(9) . . .
241(9) . . .
240(8) . . .
220(8) . . .
242(8) . . .
259(9) . . .
220(8) . . .
229(8) . . .
230(8) . . .
240(8) . . .
239(8) . . .
221(8) . . .
215(8) . . .
231(8) . . .
213(8) . . .
227(8) . . .
242(9) . . .
226(8) . . .
210(7) . . .
221(8) . . .
223(8) . . .
215(8) . . .
192(7) . . .
244(8) . . .
226(8) . . .
213(8) . . .
214(8) . . .
216(8) . . .
216(8) . . .
186(7) . . .
206(8) . . .
219(8) . . .
217(8) . . .
214(8) . . .
219(8) . . .
218(8) . . .
230(8) . . .
217(8) . . .
213(8) . . .
217(8) . . .
214(8) . . .
219(8) . . .
224(8) . . .
214(8) . . .
222(8) . . .
222(8) . . .
220(8) . . .
228(8) . . .
215(8) . . .
212(8) . . .
213(8) . . .
237(8) . . .
207(7) . . .
214(8) . . .
216(8) . . .
205(8) . . .
207(8) . . .
222(8) . . .
220(8) . . .
204(8) . . .
194(8) . . .
213(8) . . .
228(8) . . .
207(7) . . .
198(7) . . .
202(8) . . .
215(8) . . .
211(8) . . .
204(7) . . .
225(8) . . .
189(7) . . .
227(8) . . .
199(7) . . .
227(8) . . .
208(8) . . .
207(8) . . .
223(8) . . .
184(7) . . .
221(8) . . .
226(8) . . .
209(8) . . .
218(8) . . .
232(8) . . .
215(8) . . .
227(8) . . .
237(8) . . .
208(8) . . .
213(8) . . .
213(8) . . .
227(8) . . .
223(8) . . .
224(8) . . .
219(8) . . .
226(8) . . .
209(8) . . .
207(8) . . .
231(8) . . .
208(7) . . .
230(8) . . .
223(8) . . .
224(8) . . .
200(7) . . .
208(7) . . .
211(8) . . .
211(8) . . .
217(8) . . .
213(8) . . .
211(8) . . .
224(8) . . .
216(8) . . .
194(8) . . .
238(8) . . .
243(8) . . .
216(8) . . .
233(9) . . .
214(8) . . .
207(7) . . .
212(8) . . .
228(8) . . .
215(8) . . .
218(8) . . .
226(8) . . .
201(8) . . .
202(8) . . .
228(8) . . .
227(8) . . .
205(7) . . .
222(8) . . .
207(8) . . .
224(8) . . .
243(9) . . .
212(8) . . .
212(8) . . .
200(8) . . .
196(8) . . .
196(7) . . .
203(7) . . .
202(8) . . .
210(8) . . .
203(8) . . .
206(8) . . .
218(8) . . .
217(8) . . .
200(8) . . .
204(8) . . .
211(8) . . .
215(8) . . .
213(8) . . .
203(8) . . .
211(8) . . .
193(7) . . .
213(8) . . .
219(8) . . .
213(8) . . .
198(7) . . .
205(7) . . .
224(8) . . .
220(8) . . .
228(8) . . .
199(7) . . .
205(7) . . .
193(7) . . .
210(8) . . .
217(8) . . .
220(8) . . .
234(8) . . .
232(8) . . .
202(8) . . .
222(8) . . .
220(8) . . .
204(7) . . .
217(8) . . .
206(8) . . .
204(8) . . .
203(8) . . .
228(8) . . .
215(8) . . .
228(8) . . .
203(8) . . .
218(8) . . .
185(7) . . .
232(8) . . .
213(8) . . .
214(8) . . .
228(8) . . .
224(8) . . .
218(8) . . .
212(8) . . .
213(8) . . .
205(7) . . .
239(8) . . .
225(8) . . .
188(7) . . .
218(8) . . .
217(8) . . .
200(7) . . .
210(8) . . .
214(8) . . .
226(8) . . .
206(7) . . .
231(8) . . .
203(8) . . .
221(8) . . .
204(8) . . .
231(8) . . .
250(8) . . .
247(8) . . .
261(9) . . .
257(8) . . .
267(8) . . .
259(8) . . .
243(8) . . .
229(9) . . .
226(8) . . .
238(8) . . .
222(8) . . .
203(8) . . .
225(8) . . .
217(8) . . .
208(7) . . .
214(8) . . .
234(8) . . .
227(8) . . .
221(8) . . .
208(7) . . .
220(8) . . .
250(9) . . .
223(8) . . .
227(8) . . .
210(7) . . .
200(8) . . .
223(8) . . .
225(8) . . .
206(7) . . .
240(8) . . .
199(7) . . .
251(9) . . .
221(8) . . .
216(8) . . .
231(8) . . .
210(8) . . .
236(8) . . .
227(8) . . .
212(8) . . .
211(8) . . .
229(8) . . .
214(8) . . .
216(8) . . .
217(8) . . .
218(8) . . .
231(8) . . .
214(8) . . .
204(8) . . .
200(7) . . .
232(8) . . .
202(8) . . .
237(9) . . .
216(8) . . .
208(7) . . .
214(8) . . .
206(8) . . .
234(9) . . .
221(8) . . .
208(7) . . .
195(7) . . .
199(8) . . .
226(9) . . .
214(8) . . .
205(7) . . .
226(8) . . .
208(8) . . .
238(9) . . .
207(8) . . .
225(8) . . .
214(8) . . .
221(8) . . .
196(8) . . .
218(8) . . .
238(8) . . .
204(7) . . .
242(9) . . .
201(8) . . .
221(8) . . .
210(7) . . .
222(8) . . .
213(8) . . .
205(8) . . .
208(8) . . .
209(7) . . .
220(8) . . .
203(8) . . .
209(8) . . .
202(8) . . .
216(8) . . .
218(8) . . .
232(8) . . .
223(8) . . .
217(8) . . .
205(7) . . .
235(8) . . .
220(8) . . .
227(8) . . .
214(8) . . .
214(8) . . .
234(8) . . .
219(8) . . .
232(8) . . .
221(8) . . .
234(8) . . .
212(8) . . .
221(8) . . .
225(8) . . .
232(8) . . .
225(8) . . .
216(8) . . .
222(8) . . .
218(8) . . .
214(8) . . .
214(8) . . .
215(8) . . .
234(8) . . .
232(8) . . .
207(7) . . .
214(8) . . .
242(8) . . .
216(8) . . .
231(8) . . .
245(8) . . .
243(8) . . .
225(8) . . .
241(8) . . .
229(8) . . .
253(8) . . .
237(8) . . .
280(9) . . .
252(9) . . .
243(8) . . .
248(8) . . .
244(8) . . .
244(8) . . .
251(9) . . .
240(8) . . .
244(8) . . .
222(8) . . .
244(8) . . .
255(9) . . .
247(8) . . .
218(8) . . .
249(8) . . .
248(9) . . .
226(8) . . .
239(8) . . .
229(8) . . .
244(9) . . .
236(8) . . .
220(8) . . .
227(8) . . .
211(8) . . .
199(8) . . .
225(8) . . .
229(8) . . .
224(8) . . .
223(8) . . .
235(8) . . .
217(8) . . .
220(8) . . .
217(8) . . .
227(8) . . .
202(7) . . .
226(8) . . .
211(8) . . .
195(7) . . .
208(8) . . .
221(8) . . .
213(8) . . .
204(8) . . .
196(7) . . .
241(8) . . .
213(8) . . .
207(8) . . .
216(8) . . .
222(8) . . .
202(7) . . .
212(8) . . .
188(7) . . .
210(8) . . .
213(8) . . .
207(8) . . .
207(8) . . .
206(8) . . .
196(7) . . .
227(8) . . .
206(8) . . .
211(8) . . .
221(8) . . .
245(8) . . .
198(7) . . .
206(8) . . .
196(8) . . .
206(8) . . .
200(7) . . .
223(8) . . .
211(8) . . .
218(8) . . .
219(8) . . .
199(7) . . .
222(8) . . .
212(8) . . .
219(8) . . .
218(8) . . .
211(8) . . .
217(8) . . .
194(7) . . .
205(8) . . .
206(8) . . .
195(7) . . .
201(7) . . .
230(8) . . .
192(8) . . .
201(8) . . .
204(7) . . .
208(8) . . .
217(8) . . .
209(8) . . .
221(8) . . .
222(8) . . .
227(8) . . .
236(8) . . .
208(8) . . .
195(8) . . .
201(7) . . .
228(8) . . .
232(8) . . .
217(8) . . .
202(8) . . .
207(7) . . .
209(8) . . .
221(8) . . .
234(9) . . .
225(8) . . .
214(8) . . .
199(8) . . .
227(8) . . .
218(8) . . .
219(8) . . .
221(8) . . .
209(8) . . .
213(8) . . .
214(8) . . .
204(7) . . .
202(7) . . .
206(8) . . .
203(8) . . .
225(8) . . .
223(8) . . .
210(8) . . .
208(8) . . .
213(8) . . .
206(8) . . .
218(8) . . .
211(8) . . .
207(8) . . .
223(8) . . .
233(8) . . .
223(8) . . .
229(8) . . .
249(9) . . .
215(8) . . .
203(8) . . .
229(8) . . .
235(8) . . .
238(8) . . .
244(8) . . .
227(8) . . .
263(8) . . .
268(9) . . .
284(9) . . .
271(9) . . .
239(8) . . .
269(9) . . .
249(8) . . .
245(9) . . .
249(8) . . .
242(8) . . .
213(8) . . .
227(8) . . .
201(8) . . .
211(8) . . .
228(8) . . .
242(8) . . .
219(8) . . .
202(8) . . .
193(8) . . .
205(8) . . .
210(7) . . .
218(8) . . .
243(9) . . .
219(8) . . .
199(7) . . .
213(7) . . .
219(8) . . .
248(9) . . .
223(8) . . .
198(7) . . .
204(7) . . .
218(8) . . .
218(8) . . .
196(7) . . .
222(8) . . .
226(8) . . .
209(8) . . .
219(8) . . .
220(8) . . .
207(7) . . .
213(8) . . .
220(8) . . .
221(8) . . .
191(7) . . .
216(8) . . .
227(8) . . .
224(8) . . .
212(8) . . .
230(8) . . .
222(8) . . .
222(8) . . .
235(8) . . .
202(8) . . .
207(8) . . .
216(8) . . .
199(7) . . .
216(8) . . .
200(8) . . .
190(7) . . .
189(7) . . .
199(7) . . .
198(8) . . .
192(7) . . .
192(7) . . .
210(8) . . .
193(8) . . .
218(8) . . .
217(8) . . .
220(8) . . .
201(7) . . .
216(8) . . .
225(8) . . .
206(8) . . .
211(8) . . .
214(8) . . .
206(8) . . .
209(8) . . .
196(8) . . .
208(8) . . .
216(8) . . .
224(8) . . .
201(8) . . .
242(8) . . .
232(8) . . .
221(8) . . .
238(8) . . .
229(8) . . .
237(8) . . .
200(7) . . .
231(8) . . .
222(8) . . .
197(8) . . .
205(8) . . .
223(8) . . .
203(8) . . .
191(7) . . .
211(8) . . .
206(8) . . .
214(8) . . .
217(8) . . .
220(8) . . .
204(8) . . .
233(8) . . .
223(8) . . .
207(8) . . .
205(8) . . .
203(8) . . .
204(8) . . .
182(7) . . .
204(7) . . .
205(8) . . .
208(8) . . .
190(7) . . .
213(8) . . .
214(8) . . .
215(8) . . .
196(8) . . .
197(7) . . .
210(7) . . .
216(8) . . .
200(8) . . .
202(8) . . .
219(8) . . .
226(8) . . .
221(8) . . .
213(8) . . .
210(8) . . .
194(7) . . .
195(7) . . .
207(8) . . .
215(8) . . .
212(8) . . .
197(7) . . .
222(8) . . .
225(8) . . .
214(8) . . .
198(8) . . .
212(7) . . .
204(7) . . .
191(7) . . .
222(8) . . .
214(8) . . .
245(8) . . .
210(7) . . .
201(7) . . .
221(8) . . .
218(8) . . .
234(8) . . .
225(8) . . .
208(8) . . .
218(8) . . .
235(8) . . .
252(8) . . .
245(8) . . .
227(8) . . .
233(8) . . .
231(8) . . .
272(9) . . .
238(8) . . .
245(8) . . .
243(8) . . .
240(8) . . .
238(8) . . .
260(9) . . .
239(8) . . .
213(8) . . .
266(9) . . .
217(8) . . .
241(8) . . .
230(8) . . .
245(8) . . .
224(8) . . .
206(7) . . .
237(8) . . .
233(8) . . .
234(8) . . .
228(8) . . .
234(8) . . .
216(8) . . .
223(8) . . .
224(8) . . .
216(8) . . .
230(8) . . .
199(7) . . .
218(8) . . .
213(8) . . .
189(7) . . .
210(8) . . .
195(7) . . .
194(8) . . .
213(8) . . .
240(8) . . .
225(8) . . .
214(8) . . .
215(8) . . .
213(8) . . .
215(8) . . .
202(7) . . .
219(8) . . .
218(8) . . .
204(8) . . .
193(7) . . .
199(7) . . .
204(8) . . .
208(8) . . .
203(8) . . .
208(7) . . .
202(7) . . .
196(7) . . .
212(8) . . .
218(8) . . .
216(8) . . .
189(7) . . .
204(8) . . .
212(8) . . .
210(8) . . .
206(7) . . .
215(8) . . .
218(8) . . .
208(8) . . .
206(7) . . .
207(7) . . .
201(8) . . .
196(8) . . .
211(8) . . .
208(8) . . .
215(8) . . .
195(7) . . .
207(8) . . .
206(8) . . .
193(7) . . .
224(8) . . .
200(7) . . .
194(8) . . .
185(7) . . .
201(7) . . .
241(8) . . .
206(8) . . .
212(8) . . .
213(8) . . .
215(8) . . .
208(8) . . .
204(8) . . .
194(8) . . .
200(8) . . .
193(7) . . .
213(8) . . .
202(8) . . .
210(8) . . .
201(7) . . .
215(8) . . .
225(8) . . .
206(8) . . .
218(8) . . .
223(8) . . .
224(8) . . .
206(7) . . .
209(8) . . .
211(8) . . .
197(8) . . .
232(8) . . .
207(8) . . .
180(7) . . .
207(8) . . .
195(7) . . .
213(8) . . .
229(8) . . .
226(8) . . .
202(7) . . .
233(8) . . .
198(7) . . .
221(8) . . .
207(8) . . .
215(8) . . .
224(8) . . .
200(7) . . .
222(8) . . .
220(8) . . .
204(8) . . .
241(8) . . .
230(8) . . .
198(7) . . .
232(8) . . .
225(8) . . .
201(7) . . .
217(8) . . .
223(8) . . .
218(8) . . .
229(8) . . .
223(8) . . .
212(8) . . .
218(8) . . .
205(8) . . .
215(8) . . .
228(8) . . .
238(8) . . .
231(8) . . .
214(8) . . .
202(8) . . .
213(8) . . .
206(8) . . .
207(8) . . .
215(8) . . .
210(8) . . .
202(7) . . .
202(7) . . .
210(8) . . .
221(8) . . .
217(8) . . .
182(7) . . .
196(7) . . .
196(8) . . .
199(8) . . .
198(8) . . .
203(7) . . .
218(8) . . .
209(8) . . .
215(8) . . .
210(8) . . .
195(7) . . .
206(8) . . .
216(8) . . .
204(8) . . .
190(7) . . .
211(8) . . .
217(8) . . .
205(8) . . .
192(7) . . .
189(7) . . .
224(8) . . .
221(8) . . .
191(8) . . .
208(8) . . .
204(7) . . .
226(8) . . .
212(8) . . .
229(9) . . .
204(8) . . .
206(7) . . .
201(7) . . .
224(8) . . .
209(8) . . .
204(8) . . .
209(8) . . .
210(7) . . .
199(8) . . .
194(8) . . .
207(8) . . .
200(7) . . .
225(8) . . .
203(8) . . .
188(7) . . .
201(8) . . .
212(8) . . .
216(8) . . .
213(8) . . .
213(8) . . .
206(8) . . .
200(7) . . .
196(7) . . .
213(8) . . .
221(8) . . .
194(7) . . .
201(7) . . .
202(8) . . .
202(8) . . .
218(8) . . .
235(8) . . .
215(8) . . .
228(8) . . .
244(8) . . .
240(8) . . .
235(8) . . .
239(8) . . .
248(8) . . .
238(8) . . .
236(8) . . .
226(8) . . .
217(8) . . .
222(8) . . .
235(8) . . .
210(8) . . .
213(8) . . .
232(8) . . .
244(8) . . .
261(9) . . .
254(9) . . .
256(8) . . .
264(8) . . .
240(8) . . .
243(9) . . .
237(8) . . .
245(8) . . .
237(8) . . .
249(9) . . .
265(9) . . .
230(8) . . .
244(8) . . .
250(8) . . .
224(8) . . .
255(9) . . .
226(8) . . .
213(8) . . .
233(8) . . .
219(8) . . .
231(8) . . .
228(8) . . .
226(8) . . .
241(8) . . .
234(8) . . .
237(8) . . .
242(8) . . .
207(7) . . .
220(8) . . .
228(8) . . .
231(8) . . .
216(8) . . .
224(8) . . .
256(8) . . .
211(8) . . .
228(8) . . .
223(8) . . .
218(8) . . .
202(8) . . .
217(8) . . .
226(8) . . .
222(8) . . .
232(8) . . .
230(8) . . .
217(8) . . .
230(8) . . .
235(8) . . .
223(8) . . .
213(8) . . .
201(8) . . .
214(8) . . .
223(8) . . .
196(7) . . .
206(8) . . .
214(8) . . .
233(8) . . .
215(8) . . .
202(7) . . .
214(8) . . .
220(8) . . .
217(8) . . .
223(8) . . .
208(8) . . .
226(8) . . .
207(8) . . .
207(8) . . .
206(7) . . .
236(8) . . .
212(8) . . .
214(8) . . .
216(8) . . .
201(7) . . .
218(8) . . .
229(8) . . .
229(8) . . .
196(8) . . .
212(8) . . .
198(7) . . .
215(8) . . .
224(8) . . .
209(8) . . .
215(8) . . .
211(8) . . .
204(8) . . .
217(8) . . .
212(8) . . .
198(7) . . .
216(8) . . .
202(8) . . .
193(7) . . .
204(8) . . .
211(8) . . .
210(8) . . .
217(8) . . .
188(7) . . .
195(7) . . .
210(7) . . .
217(8) . . .
217(8) . . .
204(8) . . .
189(7) . . .
219(8) . . .
225(8) . . .
196(8) . . .
200(8) . . .
197(7) . . .
196(7) . . .
200(8) . . .
212(8) . . .
191(7) . . .
206(8) . . .
208(7) . . .
241(8) . . .
214(8) . . .
195(7) . . .
220(8) . . .
206(7) . . .
208(8) . . .
211(8) . . .
227(8) . . .
210(8) . . .
190(7) . . .
188(7) . . .
189(8) . . .
202(8) . . .
209(7) . . .
206(8) . . .
198(8) . . .
209(8) . . .
201(8) . . .
230(8) . . .
221(8) . . .
190(7) . . .
215(8) . . .
217(8) . . .
189(7) . . .
210(8) . . .
211(8) . . .
216(8) . . .
205(7) . . .
207(7) . . .
219(8) . . .
207(8) . . .
201(8) . . .
179(7) . . .
226(8) . . .
200(8) . . .
223(9) . . .
207(8) . . .
201(7) . . .
215(8) . . .
194(7) . . .
201(8) . . .
196(8) . . .
191(7) . . .
226(8) . . .
222(8) . . .
207(8) . . .
209(8) . . .
211(7) . . .
212(8) . . .
222(8) . . .
233(8) . . .
217(8) . . .
214(8) . . .
227(8) . . .
220(8) . . .
226(8) . . .
212(8) . . .
218(8) . . .
204(7) . . .
221(8) . . .
243(9) . . .
208(8) . . .
236(8) . . .
234(8) . . .
213(8) . . .
204(8) . . .
203(8) . . .
228(8) . . .
235(8) . . .
206(8) . . .
213(8) . . .
185(7) . . .
208(7) . . .
207(8) . . .
215(8) . . .
218(8) . . .
219(8) . . .
208(7) . . .
185(7) . . .
203(8) . . .
224(8) . . .
223(8) . . .
210(8) . . .
203(8) . . .
223(8) . . .
216(8) . . .
207(7) . . .
215(8) . . .
210(8) . . .
222(8) . . .
217(8) . . .
216(8) . . .
181(7) . . .
207(8) . . .
200(8) . . .
215(8) . . .
206(7) . . .
205(7) . . .
212(8) . . .
194(8) . . .
211(8) . . .
174(7) . . .
192(7) . . .
190(7) . . .
202(7) . . .
233(8) . . .
217(8) . . .
205(8) . . .
224(8) . . .
226(8) . . .
221(8) . . .
202(7) . . .
206(7) . . .
214(8) . . .
222(8) . . .
218(8) . . .
218(8) . . .
247(8) . . .
252(9) . . .
225(8) . . .
234(8) . . .
240(8) . . .
221(8) . . .
243(9) . . .
229(8) . . .
241(8) . . .
225(8) . . .
208(8) . . .
231(8) . . .
221(8) . . .
219(8) . . .
229(8) . . .
221(8) . . .
206(8) . . .
241(9) . . .
224(8) . . .
217(8) . . .
221(8) . . .
232(9) . . .
237(8) . . .
224(8) . . .
218(8) . . .
224(8) . . .
242(9) . . .
211(8) . . .
223(8) . . .
216(8) . . .
224(8) . . .
211(8) . . .
214(8) . . .
211(7) . . .
191(7) . . .
197(8) . . .
214(8) . . .
214(8) . . .
195(7) . . .
225(8) . . .
228(8) . . .
195(7) . . .
219(8) . . .
209(7) . . .
225(8) . . .
204(8) . . .
193(8) . . .
193(7) . . .
222(8) . . .
213(8) . . .
211(8) . . .
208(8) . . .
204(7) . . .
188(7) . . .
197(7) . . .
200(8) . . .
195(8) . . .
178(7) . . .
187(7) . . .
209(8) . . .
200(8) . . .
207(8) . . .
193(7) . . .
192(7) . . .
209(8) . . .
212(8) . . .
202(8) . . .
202(7) . . .
180(7) . . .
207(8) . . .
217(8) . . .
218(8) . . .
208(7) . . .
198(7) . . .
221(8) . . .
200(8) . . .
198(7) . . .
193(7) . . .
207(8) . . .
215(8) . . .
211(8) . . .
213(8) . . .
210(8) . . .
223(8) . . .
216(8) . . .
204(8) . . .
213(8) . . .
204(7) . . .
203(8) . . .
215(8) . . .
234(9) . . .
222(8) . . .
190(7) . . .
213(8) . . .
227(8) . . .
226(8) . . .
213(8) . . .
195(7) . . .
220(8) . . .
207(8) . . .
200(8) . . .
199(8) . . .
205(7) . . .
197(7) . . .
214(8) . . .
194(7) . . .
208(8) . . .
216(8) . . .
185(7) . . .
203(8) . . .
186(7) . . .
200(7) . . .
203(7) . . .
190(7) . . .
223(8) . . .
197(8) . . .
215(8) . . .
210(8) . . .
214(8) . . .
199(8) . . .
205(8) . . .
214(8) . . .
203(7) . . .
208(8) . . .
197(8) . . .
214(8) . . .
215(8) . . .
216(8) . . .
226(8) . . .
234(9) . . .
190(7) . . .
222(8) . . .
225(8) . . .
191(7) . . .
207(8) . . .
218(8) . . .
209(7) . . .
206(8) . . .
213(8) . . .
191(7) . . .
212(8) . . .
223(8) . . .
199(8) . . .
210(8) . . .
221(8) . . .
189(7) . . .
208(8) . . .
210(8) . . .
222(8) . . .
198(7) . . .
212(8) . . .
204(7) . . .
195(7) . . .
216(8) . . .
211(8) . . .
196(8) . . .
207(7) . . .
209(8) . . .
206(8) . . .
181(7) . . .
217(8) . . .
209(7) . . .
204(8) . . .
212(8) . . .
197(8) . . .
197(7) . . .
194(7) . . .
209(8) . . .
200(8) . . .
195(7) . . .
215(8) . . .
199(7) . . .
198(8) . . .
208(8) . . .
198(7) . . .
189(7) . . .
207(7) . . .
204(8) . . .
211(8) . . .
219(8) . . .
199(7) . . .
231(8) . . .
204(8) . . .
200(8) . . .
207(8) . . .
200(7) . . .
211(8) . . .
229(8) . . .
236(8) . . .
218(8) . . .
214(8) . . .
183(7) . . .
222(8) . . .
220(8) . . .
230(8) . . .
217(8) . . .
219(8) . . .
206(8) . . .
211(8) . . .
209(8) . . .
218(8) . . .
207(8) . . .
207(8) . . .
218(8) . . .
214(8) . . .
208(7) . . .
211(8) . . .
222(8) . . .
204(8) . . .
190(7) . . .
202(7) . . .
208(8) . . .
204(8) . . .
212(8) . . .
208(8) . . .
204(7) . . .
226(8) . . .
191(7) . . .
210(8) . . .
213(8) . . .
206(7) . . .
189(7) . . .
206(8) . . .
198(7) . . .
216(8) . . .
188(7) . . .
188(7) . . .
184(7) . . .
204(8) . . .
212(8) . . .
205(7) . . .
200(8) . . .
206(8) . . .
222(8) . . .
188(7) . . .
201(7) . . .
193(7) . . .
194(8) . . .
241(8) . . .
210(8) . . .
208(8) . . .
209(8) . . .
211(8) . . .
222(8) . . .
211(8) . . .
195(7) . . .
214(8) . . .
211(8) . . .
178(7) . . .
199(7) . . .
213(8) . . .
203(8) . . .
199(8) . . .
199(8) . . .
194(7) . . .
192(7) . . .
195(7) . . .
213(8) . . .
219(8) . . .
206(7) . . .
221(8) . . .
236(8) . . .
220(8) . . .
207(8) . . .
207(7) . . .
190(7) . . .
207(8) . . .
195(7) . . .
189(7) . . .
182(7) . . .
204(8) . . .
209(8) . . .
207(8) . . .
200(7) . . .
215(8) . . .
196(7) . . .
195(8) . . .
206(8) . . .
194(7) . . .
212(8) . . .
185(7) . . .
197(8) . . .
207(8) . . .
183(7) . . .
188(7) . . .
214(8) . . .
211(8) . . .
234(8) . . .
192(7) . . .
206(7) . . .
188(7) . . .
213(8) . . .
189(7) . . .
180(7) . . .
180(7) . . .
222(8) . . .
189(7) . . .
189(7) . . .
211(8) . . .
227(8) . . .
216(8) . . .
206(8) . . .
208(8) . . .
194(7) . . .
213(8) . . .
213(8) . . .
205(8) . . .
228(8) . . .
192(7) . . .
197(8) . . .
211(8) . . .
206(8) . . .
218(8) . . .
202(7) . . .
243(8) . . .
208(8) . . .
223(8) . . .
215(8) . . .
218(8) . . .
215(8) . . .
199(8) . . .
192(8) . . .
197(7) . . .
205(7) . . .
210(8) . . .
192(8) . . .
192(7) . . .
197(7) . . .
222(8) . . .
199(7) . . .
225(9) . . .
229(8) . . .
212(8) . . .
198(7) . . .
206(8) . . .
202(8) . . .
198(8) . . .
205(7) . . .
198(7) . . .
195(7) . . .
202(8) . . .
184(7) . . .
198(7) . . .
204(7) . . .
193(7) . . .
198(8) . . .
198(8) . . .
190(7) . . .
187(7) . . .
192(7) . . .
197(8) . . .
197(7) . . .
190(7) . . .
199(7) . . .
197(8) . . .
199(7) . . .
210(8) . . .
197(7) . . .
206(7) . . .
200(8) . . .
197(8) . . .
184(7) . . .
180(7) . . .
217(8) . . .
213(8) . . .
188(7) . . .
188(7) . . .
202(7) . . .
200(7) . . .
196(7) . . .
199(7) . . .
211(8) . . .
208(7) . . .
203(8) . . .
200(8) . . .
186(7) . . .
199(7) . . .
203(7) . . .
198(7) . . .
196(8) . . .
195(8) . . .
204(7) . . .
190(7) . . .
205(8) . . .
198(8) . . .
202(8) . . .
207(7) . . .
201(7) . . .
187(7) . . .
218(8) . . .
208(8) . . .
198(7) . . .
189(7) . . .
195(7) . . .
226(8) . . .
227(8) . . .
201(7) . . .
203(8) . . .
199(8) . . .
197(8) . . .
195(7) . . .
212(8) . . .
188(7) . . .
214(8) . . .
200(8) . . .
196(7) . . .
205(7) . . .
211(8) . . .
190(7) . . .
206(8) . . .
177(7) . . .
204(7) . . .
209(8) . . .
199(8) . . .
205(8) . . .
221(8) . . .
188(7) . . .
219(8) . . .
212(8) . . .
199(8) . . .
215(8) . . .
187(7) . . .
227(8) . . .
193(8) . . .
177(7) . . .
199(7) . . .
207(7) . . .
182(7) . . .
205(8) . . .
209(8) . . .
204(7) . . .
222(8) . . .
187(7) . . .
212(8) . . .
199(8) . . .
212(8) . . .
227(8) . . .
218(8) . . .
213(8) . . .
203(8) . . .
207(7) . . .
203(8) . . .
205(8) . . .
207(8) . . .
221(8) . . .
209(8) . . .
211(8) . . .
205(8) . . .
213(8) . . .
214(8) . . .
205(7) . . .
224(8) . . .
214(8) . . .
194(8) . . .
219(8) . . .
209(8) . . .
205(8) . . .
200(8) . . .
196(8) . . .
193(7) . . .
187(7) . . .
182(7) . . .
184(7) . . .
201(8) . . .
211(8) . . .
205(7) . . .
203(8) . . .
192(7) . . .
207(8) . . .
215(8) . . .
191(7) . . .
198(8) . . .
222(8) . . .
205(8) . . .
205(7) . . .
197(7) . . .
188(7) . . .
198(8) . . .
198(8) . . .
215(8) . . .
192(7) . . .
169(7) . . .
185(8) . . .
202(8) . . .
201(7) . . .
231(8) . . .
209(8) . . .
216(8) . . .
195(7) . . .
205(7) . . .
216(8) . . .
206(8) . . .
210(8) . . .
197(8) . . .
204(7) . . .
189(7) . . .
190(7) . . .
204(8) . . .
215(8) . . .
189(7) . . .
206(8) . . .
186(7) . . .
195(8) . . .
197(7) . . .
205(7) . . .
188(7) . . .
226(8) . . .
197(8) . . .
202(8) . . .
201(7) . . .
199(8) . . .
204(8) . . .
198(8) . . .
188(7) . . .
198(7) . . .
198(7) . . .
202(8) . . .
202(7) . . .
195(7) . . .
214(8) . . .
219(8) . . .
217(8) . . .
216(8) . . .
208(7) . . .
236(8) . . .
206(8) . . .
203(8) . . .
189(7) . . .
211(8) . . .
191(7) . . .
197(8) . . .
183(8) . . .
211(8) . . .
195(7) . . .
187(7) . . .
210(8) . . .
188(8) . . .
176(7) . . .
179(7) . . .
187(7) . . .
197(8) . . .
200(8) . . .
175(7) . . .
174(7) . . .
199(7) . . .
195(7) . . .
217(8) . . .
203(8) . . .
186(7) . . .
186(7) . . .
196(8) . . .
189(7) . . .
183(7) . . .
201(7) . . .
181(7) . . .
191(7) . . .
211(8) . . .
213(8) . . .
222(8) . . .
204(7) . . .
193(8) . . .
221(8) . . .
213(8) . . .
190(7) . . .
196(8) . . .
179(7) . . .
177(7) . . .
181(7) . . .
201(7) . . .
222(8) . . .
202(8) . . .
199(8) . . .
208(8) . . .
210(7) . . .
193(7) . . .
195(8) . . .
191(7) . . .
188(7) . . .
205(7) . . .
209(8) . . .
200(8) . . .
201(8) . . .
213(8) . . .
195(7) . . .
184(7) . . .
196(8) . . .
187(7) . . .
183(7) . . .
180(7) . . .
207(8) . . .
204(8) . . .
199(8) . . .
184(7) . . .
190(7) . . .
185(7) . . .
210(8) . . .
212(8) . . .
185(7) . . .
179(7) . . .
186(7) . . .
202(8) . . .
197(8) . . .
208(7) . . .
188(7) . . .
186(7) . . .
171(7) . . .
199(8) . . .
200(7) . . .
177(7) . . .
186(7) . . .
211(8) . . .
198(7) . . .
193(7) . . .
204(8) . . .
187(7) . . .
196(8) . . .
202(8) . . .
210(7) . . .
201(8) . . .
206(8) . . .
217(8) . . .
189(7) . . .
204(7) . . .
203(8) . . .
184(8) . . .
180(7) . . .
204(7) . . .
184(7) . . .
183(7) . . .
202(8) . . .
196(7) . . .
216(8) . . .
217(8) . . .
193(7) . . .
193(8) . . .
218(8) . . .
195(7) . . .
194(7) . . .
185(7) . . .
197(8) . . .
176(7) . . .
179(7) . . .
173(7) . . .
195(8) . . .
190(8) . . .
193(7) . . .
204(7) . . .
194(7) . . .
207(8) . . .
182(7) . . .
195(8) . . .
180(7) . . .
197(8) . . .
203(8) . . .
193(7) . . .
185(7) . . .
171(7) . . .
163(7) . . .
181(7) . . .
209(8) . . .
205(8) . . .
197(7) . . .
193(7) . . .
200(8) . . .
212(8) . . .
172(7) . . .
206(8) . . .
171(7) . . .
173(7) . . .
189(7) . . .
193(7) . . .
194(7) . . .
211(8) . . .
202(8) . . .
192(7) . . .
199(7) . . .
194(7) . . .
178(7) . . .
174(7) . . .
190(7) . . .
185(7) . . .
184(7) . . .
186(7) . . .
170(7) . . .
195(7) . . .
201(7) . . .
176(7) . . .
178(7) . . .
173(7) . . .
192(7) . . .
198(7) . . .
196(7) . . .
205(8) . . .
203(8) . . .
201(8) . . .
208(7) . . .
197(7) . . .
189(7) . . .
199(8) . . .
199(8) . . .
201(7) . . .
173(7) . . .
182(7) . . .
191(7) . . .
194(7) . . .
171(7) . . .
180(7) . . .
195(8) . . .
208(8) . . .
178(7) . . .
189(7) . . .
202(8) . . .
186(7) . . .
193(8) . . .
187(7) . . .
193(7) . . .
202(8) . . .
176(7) . . .
176(7) . . .
176(7) . . .
185(7) . . .
176(7) . . .
187(8) . . .
193(8) . . .
211(8) . . .
169(7) . . .
193(8) . . .
194(8) . . .
197(8) . . .
176(7) . . .
197(7) . . .
232(8) . . .
215(8) . . .
200(7) . . .
225(8) . . .
199(7) . . .
186(7) . . .
180(7) . . .
188(7) . . .
199(7) . . .
189(7) . . .
187(7) . . .
182(7) . . .
187(8) . . .
193(7) . . .
201(7) . . .
208(8) . . .
196(8) . . .
186(7) . . .
192(7) . . .
194(7) . . .
195(8) . . .
219(8) . . .
209(8) . . .
203(7) . . .
201(8) . . .
202(8) . . .
219(8) . . .
209(8) . . .
224(8) . . .
199(8) . . .
207(8) . . .
205(8) . . .
177(7) . . .
192(7) . . .
192(8) . . .
211(8) . . .
195(7) . . .
175(7) . . .
196(7) . . .
190(7) . . .
217(8) . . .
197(7) . . .
186(7) . . .
191(7) . . .
208(8) . . .
199(8) . . .
201(8) . . .
200(7) . . .
191(7) . . .
211(8) . . .
198(8) . . .
199(8) . . .
211(8) . . .
202(7) . . .
210(8) . . .
198(8) . . .
196(8) . . .
192(7) . . .
209(7) . . .
187(7) . . .
213(8) . . .
215(8) . . .
215(8) . . .
205(8) . . .
195(8) . . .
213(8) . . .
185(7) . . .
183(7) . . .
205(8) . . .
193(8) . . .
189(8) . . .
195(7) . . .
209(7) . . .
219(8) . . .
201(8) . . .
216(8) . . .
211(8) . . .
197(7) . . .
211(8) . . .
205(8) . . .
207(8) . . .
208(7) . . .
192(7) . . .
195(8) . . .
194(8) . . .
197(8) . . .
195(7) . . .
196(7) . . .
206(8) . . .
187(7) . . .
191(7) . . .
187(7) . . .
202(7) . . .
178(7) . . .
182(8) . . .
189(8) . . .
221(8) . . .
223(8) . . .
206(8) . . .
197(8) . . .
188(7) . . .
214(8) . . .
210(8) . . .
201(8) . . .
198(8) . . .
192(7) . . .
210(8) . . .
202(7) . . .
193(7) . . .
196(8) . . .
198(8) . . .
202(7) . . .
225(8) . . .
171(7) . . .
211(8) . . .
186(7) . . .
208(8) . . .
211(8) . . .
184(7) . . .
199(8) . . .
203(7) . . .
202(7) . . .
195(8) . . .
176(7) . . .
206(8) . . .
214(8) . . .
204(7) . . .
181(7) . . .
200(8) . . .
194(7) . . .
196(7) . . .
203(7) . . .
182(7) . . .
190(8) . . .
195(8) . . .
194(7) . . .
194(7) . . .
194(7) . . .
199(8) . . .
196(8) . . .
181(7) . . .
183(7) . . .
226(8) . . .
195(8) . . .
206(8) . . .
207(8) . . .
208(7) . . .
199(8) . . .
199(8) . . .
213(8) . . .
196(7) . . .
208(7) . . .
203(8) . . .
188(7) . . .
213(8) . . .
212(8) . . .
193(7) . . .
180(7) . . .
196(8) . . .
183(7) . . .
192(7) . . .
199(7) . . .
213(8) . . .
180(7) . . .
179(7) . . .
197(7) . . .
184(7) . . .
195(8) . . .
192(8) . . .
183(7) . . .
185(7) . . .
195(8) . . .
189(7) . . .
209(8) . . .
206(8) . . .
198(7) . . .
197(7) . . .
195(8) . . .
201(8) . . .
197(8) . . .
204(7) . . .
189(7) . . .
192(8) . . .
178(7) . . .
213(8) . . .
211(8) . . .
190(7) . . .
198(8) . . .
205(8) . . .
191(7) . . .
195(7) . . .
191(7) . . .
184(7) . . .
189(7) . . .
191(7) . . .
210(8) . . .
186(7) . . .
205(8) . . .
196(7) . . .
190(7) . . .
209(7) . . .
188(7) . . .
180(7) . . .
187(7) . . .
191(7) . . .
202(7) . . .
203(8) . . .
188(8) . . .
194(7) . . .
188(7) . . .
194(7) . . .
201(8) . . .
197(8) . . .
204(8) . . .
200(7) . . .
189(7) . . .
184(8) . . .
186(7) . . .
208(8) . . .
185(7) . . .
195(7) . . .
192(8) . . .
176(7) . . .
188(8) . . .
172(7) . . .
186(7) . . .
209(8) . . .
210(8) . . .
190(7) . . .
207(7) . . .
189(7) . . .
192(8) . . .
202(8) . . .
193(7) . . .
191(7) . . .
180(7) . . .
176(7) . . .
177(7) . . .
208(8) . . .
199(7) . . .
196(8) . . .
208(8) . . .
181(7) . . .
210(8) . . .
180(7) . . .
173(7) . . .
193(8) . . .
180(7) . . .
188(7) . . .
184(7) . . .
180(7) . . .
194(8) . . .
211(8) . . .
189(7) . . .
209(7) . . .
205(8) . . .
206(8) . . .
180(7) . . .
199(7) . . .
181(7) . . .
174(7) . . .
202(8) . . .
204(8) . . .
196(7) . . .
203(8) . . .
212(8) . . .
199(8) . . .
199(8) . . .
209(7) . . .
209(8) . . .
195(7) . . .
189(8) . . .
191(8) . . .
204(7) . . .
193(8) . . .
171(7) . . .
219(8) . . .
192(7) . . .
185(7) . . .
201(8) . . .
200(8) . . .
206(8) . . .
207(7) . . .
205(7) . . .
208(8) . . .
210(8) . . .
205(8) . . .
222(8) . . .
206(7) . . .
212(8) . . .
229(8) . . .
204(8) . . .
204(7) . . .
214(8) . . .
219(8) . . .
208(8) . . .
209(8) . . .
219(8) . . .
229(8) . . .
202(8) . . .
206(8) . . .
212(8) . . .
199(7) . . .
194(7) . . .
195(8) . . .
193(8) . . .
190(7) . . .
181(7) . . .
199(7) . . .
202(8) . . .
224(8) . . .
210(8) . . .
202(7) . . .
199(7) . . .
194(7) . . .
188(7) . . .
201(8) . . .
208(7) . . .
214(8) . . .
194(7) . . .
196(8) . . .
183(7) . . .
181(7) . . .
200(7) . . .
184(7) . . .
185(8) . . .
172(7) . . .
196(7) . . .
177(7) . . .
191(7) . . .
191(8) . . .
185(7) . . .
210(8) . . .
185(7) . . .
185(7) . . .
211(8) . . .
194(7) . . .
170(7) . . .
168(7) . . .
194(8) . . .
182(7) . . .
196(7) . . .
203(7) . . .
192(7) . . .
192(7) . . .
194(7) . . .
189(7) . . .
198(7) . . .
204(8) . . .
171(7) . . .
199(7) . . .
202(7) . . .
213(8) . . .
201(8) . . .
200(8) . . .
181(7) . . .
179(7) . . .
201(7) . . .
216(8) . . .
200(8) . . .
179(7) . . .
173(7) . . .
214(8) . . .
193(7) . . .
183(7) . . .
194(8) . . .
174(7) . . .
178(7) . . .
162(7) . . .
202(8) . . .
199(7) . . .
209(8) . . .
188(7) . . .
197(8) . . .
193(8) . . .
188(7) . . .
184(7) . . .
193(7) . . .
183(7) . . .
184(8) . . .
201(8) . . .
188(7) . . .
193(7) . . .
192(7) . . .
176(7) . . .
204(7) . . .
191(7) . . .
208(8) . . .
181(7) . . .
199(8) . . .
195(7) . . .
195(7) . . .
177(7) . . .
203(8) . . .
199(7) . . .
192(7) . . .
190(7) . . .
193(7) . . .
175(7) . . .
194(8) . . .
193(7) . . .
204(7) . . .
188(7) . . .
183(7) . . .
183(7) . . .
182(7) . . .
185(7) . . .
182(7) . . .
189(8) . . .
172(7) . . .
191(7) . . .
176(7) . . .
175(7) . . .
186(8) . . .
181(7) . . .
180(7) . . .
191(7) . . .
208(8) . . .
174(7) . . .
187(7) . . .
185(7) . . .
190(7) . . .
195(8) . . .
200(8) . . .
169(7) . . .
187(7) . . .
179(7) . . .
193(8) . . .
190(7) . . .
153(7) . . .
175(7) . . .
194(8) . . .
179(7) . . .
197(7) . . .
182(7) . . .
189(7) . . .
182(7) . . .
174(7) . . .
183(7) . . .
172(7) . . .
192(7) . . .
207(8) . . .
194(7) . . .
188(7) . . .
186(7) . . .
182(7) . . .
178(7) . . .
172(7) . . .
192(7) . . .
196(7) . . .
170(7) . . .
187(7) . . .
190(8) . . .
202(7) . . .
179(7) . . .
185(7) . . .
191(7) . . .
190(8) . . .
192(7) . . .
180(7) . . .
192(7) . . .
183(7) . . .
177(7) . . .
185(7) . . .
214(8) . . .
191(7) . . .
187(7) . . .
190(8) . . .
209(8) . . .
195(7) . . .
181(7) . . .
191(7) . . .
217(8) . . .
224(8) . . .
202(7) . . .
194(7) . . .
177(7) . . .
183(7) . . .
194(7) . . .
214(8) . . .
191(7) . . .
193(7) . . .
190(7) . . .
199(7) . . .
190(7) . . .
197(8) . . .
187(7) . . .
190(7) . . .
207(8) . . .
202(7) . . .
203(8) . . .
205(8) . . .
198(7) . . .
206(7) . . .
182(7) . . .
191(7) . . .
197(8) . . .
204(8) . . .
174(7) . . .
202(7) . . .
174(7) . . .
186(8) . . .
190(7) . . .
186(7) . . .
184(7) . . .
189(7) . . .
175(7) . . .
174(7) . . .
198(7) . . .
182(7) . . .
197(8) . . .
195(8) . . .
190(7) . . .
192(7) . . .
176(7) . . .
176(7) . . .
190(8) . . .
188(7) . . .
199(7) . . .
176(7) . . .
197(8) . . .
197(8) . . .
178(7) . . .
185(7) . . .
184(7) . . .
171(7) . . .
196(8) . . .
188(7) . . .
202(7) . . .
196(8) . . .
167(7) . . .
175(7) . . .
194(7) . . .
179(7) . . .
182(7) . . .
182(7) . . .
177(7) . . .
176(7) . . .
179(7) . . .
167(7) . . .
194(7) . . .
209(8) . . .
177(7) . . .
192(7) . . .
186(7) . . .
190(8) . . .
180(7) . . .
174(7) . . .
177(7) . . .
185(8) . . .
167(7) . . .
195(8) . . .
188(7) . . .
181(7) . . .
204(8) . . .
206(8) . . .
187(7) . . .
194(7) . . .
171(7) . . .
178(7) . . .
180(7) . . .
186(8) . . .
190(7) . . .
187(7) . . .
198(8) . . .
176(7) . . .
186(7) . . .
185(7) . . .
196(7) . . .
212(8) . . .
199(8) . . .
183(7) . . .
186(7) . . .
189(7) . . .
167(7) . . .
164(7) . . .
183(7) . . .
172(7) . . .
181(7) . . .
191(7) . . .
169(7) . . .
177(7) . . .
173(7) . . .
187(7) . . .
192(7) . . .
192(7) . . .
203(8) . . .
169(7) . . .
164(7) . . .
183(7) . . .
184(7) . . .
201(7) . . .
179(7) . . .
181(7) . . .
165(7) . . .
189(8) . . .
184(7) . . .
170(7) . . .
171(7) . . .
185(8) . . .
180(7) . . .
170(7) . . .
182(7) . . .
197(8) . . .
187(8) . . .
184(7) . . .
205(7) . . .
196(7) . . .
168(7) . . .
187(8) . . .
186(7) . . .
188(7) . . .
185(7) . . .
203(8) . . .
193(7) . . .
184(7) . . .
171(7) . . .
180(7) . . .
208(8) . . .
190(7) . . .
175(7) . . .
168(7) . . .
197(8) . . .
187(7) . . .
202(8) . . .
182(7) . . .
177(7) . . .
174(7) . . .
178(7) . . .
189(7) . . .
196(7) . . .
209(7) . . .
196(7) . . .
185(7) . . .
197(7) . . .
183(7) . . .
193(7) . . .
180(7) . . .
198(8) . . .
210(8) . . .
201(7) . . .
206(7) . . .
180(7) . . .
199(8) . . .
204(8) . . .
210(8) . . .
205(7) . . .
197(8) . . .
187(8) . . .
200(8) . . .
193(7) . . .
190(7) . . .
187(7) . . .
188(8) . . .
181(7) . . .
172(7) . . .
187(7) . . .
195(7) . . .
193(8) . . .
180(7) . . .
201(7) . . .
187(7) . . .
201(8) . . .
178(7) . . .
185(7) . . .
177(7) . . .
175(7) . . .
195(8) . . .
180(7) . . .
174(7) . . .
189(7) . . .
183(7) . . .
182(7) . . .
194(8) . . .
217(8) . . .
178(7) . . .
193(7) . . .
176(7) . . .
198(7) . . .
198(7) . . .
200(7) . . .
187(7) . . .
193(7) . . .
186(7) . . .
181(7) . . .
188(7) . . .
180(7) . . .
175(7) . . .
187(7) . . .
202(7) . . .
187(7) . . .
157(7) . . .
187(8) . . .
181(7) . . .
188(7) . . .
187(7) . . .
179(7) . . .
191(8) . . .
199(8) . . .
196(7) . . .
171(7) . . .
178(7) . . .
195(8) . . .
191(7) . . .
183(7) . . .
202(7) . . .
180(7) . . .
194(8) . . .
170(7) . . .
195(7) . . .
181(7) . . .
173(7) . . .
182(7) . . .
186(7) . . .
170(7) . . .
182(7) . . .
173(7) . . .
189(8) . . .
190(8) . . .
191(7) . . .
190(7) . . .
179(7) . . .
187(7) . . .
203(8) . . .
184(7) . . .
185(7) . . .
196(8) . . .
172(7) . . .
198(8) . . .
175(7) . . .
182(7) . . .
192(8) . . .
180(7) . . .
197(7) . . .
190(7) . . .
184(7) . . .
200(8) . . .
201(8) . . .
186(7) . . .
173(7) . . .
178(7) . . .
191(7) . . .
184(7) . . .
185(7) . . .
182(7) . . .
158(7) . . .
169(7) . . .
183(8) . . .
184(7) . . .
176(7) . . .
188(8) . . .
176(7) . . .
215(8) . . .
182(7) . . .
197(7) . . .
166(7) . . .
198(8) . . .
175(7) . . .
184(7) . . .
191(7) . . .
183(7) . . .
174(7) . . .
194(7) . . .
194(7) . . .
197(7) . . .
204(8) . . .
207(8) . . .
183(7) . . .
204(7) . . .
203(7) . . .
188(7) . . .
209(8) . . .
205(8) . . .
212(8) . . .
196(7) . . .
208(8) . . .
221(8) . . .
195(7) . . .
189(7) . . .
217(8) . . .
202(8) . . .
183(7) . . .
199(7) . . .
189(7) . . .
185(7) . . .
190(7) . . .
189(7) . . .
191(7) . . .
215(8) . . .
197(8) . . .
186(8) . . .
171(7) . . .
186(7) . . .
194(7) . . .
182(7) . . .
203(8) . . .
176(7) . . .
206(8) . . .
176(7) . . .
167(7) . . .
188(8) . . .
194(8) . . .
190(7) . . .
185(7) . . .
190(7) . . .
195(8) . . .
194(8) . . .
171(7) . . .
185(7) . . .
179(7) . . .
185(8) . . .
170(7) . . .
170(7) . . .
162(7) . . .
177(7) . . .
193(8) . . .
170(7) . . .
183(7) . . .
175(7) . . .
196(8) . . .
198(8) . . .
192(8) . . .
195(7) . . .
217(8) . . .
170(7) . . .
198(8) . . .
221(8) . . .
199(7) . . .
191(7) . . .
216(8) . . .
201(8) . . .
204(8) . . .
181(7) . . .
196(7) . . .
202(8) . . .
214(8) . . .
201(8) . . .
199(7) . . .
183(7) . . .
204(8) . . .
196(7) . . .
207(7) . . .
177(7) . . .
193(7) . . .
193(8) . . .
179(7) . . .
176(7) . . .
184(7) . . .
174(7) . . .
181(7) . . .
176(7) . . .
188(7) . . .
200(7) . . .
201(8) . . .
186(8) . . .
160(7) . . .
194(7) . . .
194(7) . . .
173(7) . . .
162(7) . . .
186(7) . . .
170(7) . . .
177(7) . . .
182(7) . . .
174(7) . . .
184(7) . . .
187(7) . . .
194(7) . . .
178(7) . . .
172(7) . . .
163(7) . . .
167(7) . . .
176(7) . . .
178(7) . . .
175(7) . . .
206(8) . . .
187(7) . . .
183(7) . . .
207(8) . . .
196(7) . . .
203(7) . . .
195(7) . . .
191(7) . . .
193(7) . . .
202(8) . . .
186(7) . . .
185(7) . . .
191(7) . . .
202(8) . . .
192(7) . . .
177(7) . . .
181(7) . . .
185(8) . . .
183(7) . . .
184(7) . . .
189(7) . . .
165(7) . . .
183(7) . . .
180(8) . . .
187(7) . . .
174(7) . . .
189(7) . . .
187(7) . . .
172(7) . . .
182(7) . . .
185(7) . . .
180(7) . . .
183(7) . . .
192(8) . . .
183(7) . . .
172(7) . . .
181(7) . . .
184(7) . . .
196(8) . . .
180(7) . . .
172(7) . . .
187(7) . . .
190(7) . . .
193(8) . . .
175(7) . . .
195(7) . . .
182(7) . . .
190(7) . . .
191(7) . . .
205(8) . . .
199(7) . . .
205(8) . . .
205(8) . . .
184(7) . . .
163(7) . . .
179(7) . . .
207(8) . . .
188(7) . . .
191(7) . . .
183(7) . . .
171(7) . . .
188(8) . . .
178(7) . . .
180(7) . . .
188(7) . . .
181(7) . . .
168(7) . . .
188(8) . . .
183(7) . . .
184(7) . . .
196(7) . . .
198(8) . . .
184(7) . . .
176(7) . . .
192(7) . . .
195(7) . . .
182(7) . . .
198(8) . . .
187(7) . . .
192(7) . . .
188(7) . . .
198(8) . . .
190(8) . . .
186(7) . . .
179(7) . . .
185(7) . . .
192(7) . . .
193(8) . . .
177(7) . . .
193(7) . . .
166(7) . . .
193(8) . . .
175(7) . . .
180(7) . . .
172(7) . . .
175(7) . . .
172(7) . . .
178(7) . . .
202(8) . . .
187(7) . . .
182(7) . . .
174(7) . . .
195(8) . . .
165(7) . . .
174(7) . . .
173(7) . . .
171(7) . . .
206(8) . . .
201(7) . . .
182(7) . . .
171(7) . . .
180(7) . . .
179(7) . . .
180(7) . . .
183(7) . . .
153(7) . . .
187(8) . . .
183(7) . . .
167(7) . . .
171(7) . . .
165(7) . . .
197(8) . . .
178(7) . . .
191(7) . . .
184(7) . . .
168(7) . . .
177(7) . . .
178(7) . . .
185(7) . . .
157(7) . . .
198(8) . . .
183(8) . . .
175(7) . . .
175(7) . . .
184(7) . . .
183(7) . . .
193(8) . . .
195(8) . . .
184(7) . . .
171(7) . . .
199(7) . . .
206(8) . . .
189(7) . . .
179(7) . . .
190(7) . . .
174(7) . . .
179(7) . . .
170(7) . . .
175(7) . . .
190(7) . . .
201(8) . . .
187(8) . . .
164(7) . . .
179(7) . . .
172(7) . . .
195(8) . . .
195(8) . . .
206(8) . . .
174(7) . . .
174(7) . . .
188(7) . . .
190(8) . . .
184(7) . . .
194(7) . . .
182(7) . . .
178(8) . . .
191(8) . . .
173(7) . . .
194(7) . . .
187(7) . . .
188(8) . . .
182(7) . . .
184(7) . . .
160(7) . . .
158(7) . . .
182(8) . . .
172(7) . . .
169(7) . . .
162(7) . . .
185(7) . . .
175(7) . . .
181(7) . . .
193(7) . . .
171(7) . . .
182(7) . . .
199(8) . . .
201(8) . . .
177(7) . . .
158(7) . . .
170(7) . . .
174(7) . . .
173(7) . . .
180(7) . . .
172(7) . . .
188(7) . . .
176(7) . . .
179(7) . . .
177(7) . . .
171(7) . . .
164(7) . . .
147(6) . . .
186(7) . . .
171(7) . . .
174(7) . . .
183(7) . . .
170(7) . . .
179(7) . . .
179(7) . . .
174(7) . . .
176(7) . . .
174(7) . . .
170(7) . . .
163(7) . . .
173(7) . . .
177(7) . . .
176(7) . . .
168(7) . . .
183(7) . . .
185(8) . . .
174(7) . . .
185(7) . . .
193(7) . . .
189(7) . . .
178(7) . . .
184(7) . . .
170(7) . . .
172(7) . . .
172(7) . . .
180(7) . . .
186(7) . . .
172(7) . . .
179(7) . . .
207(7) . . .
181(7) . . .
180(7) . . .
181(7) . . .
164(7) . . .
161(7) . . .
181(7) . . .
168(7) . . .
175(7) . . .
182(7) . . .
177(7) . . .
182(7) . . .
166(7) . . .
191(8) . . .
174(7) . . .
195(7) . . .
180(7) . . .
184(7) . . .
171(7) . . .
161(7) . . .
180(7) . . .
169(7) . . .
183(7) . . .
185(7) . . .
190(7) . . .
195(7) . . .
177(7) . . .
184(7) . . .
194(7) . . .
183(7) . . .
171(7) . . .
177(7) . . .
189(7) . . .
174(7) . . .
186(7) . . .
196(8) . . .
180(7) . . .
181(7) . . .
162(7) . . .
175(7) . . .
167(7) . . .
183(7) . . .
177(7) . . .
155(6) . . .
183(7) . . .
185(7) . . .
178(7) . . .
181(7) . . .
160(7) . . .
178(7) . . .
171(7) . . .
178(8) . . .
166(7) . . .
172(7) . . .
179(7) . . .
185(7) . . .
174(7) . . .
197(8) . . .
184(7) . . .
201(8) . . .
167(7) . . .
185(8) . . .
185(7) . . .
173(7) . . .
182(7) . . .
183(7) . . .
143(6) . . .
161(7) . . .
186(7) . . .
178(7) . . .
183(7) . . .
173(7) . . .
170(7) . . .
163(7) . . .
165(7) . . .
169(7) . . .
161(7) . . .
161(7) . . .
163(7) . . .
159(7) . . .
199(8) . . .
176(7) . . .
164(7) . . .
153(6) . . .
161(7) . . .
179(7) . . .
165(7) . . .
172(7) . . .
141(6) . . .
153(7) . . .
157(7) . . .
173(7) . . .
173(7) . . .
173(7) . . .
172(7) . . .
179(7) . . .
169(7) . . .
167(7) . . .
176(7) . . .
177(7) . . .
163(7) . . .
178(7) . . .
192(7) . . .
187(7) . . .
188(7) . . .
172(7) . . .
156(7) . . .
171(7) . . .
187(7) . . .
156(7) . . .
177(8) . . .
162(7) . . .
175(7) . . .
162(7) . . .
164(7) . . .
177(8) . . .
169(7) . . .
173(7) . . .
169(7) . . .
182(7) . . .
162(7) . . .
152(7) . . .
166(7) . . .
170(7) . . .
172(7) . . .
176(7) . . .
167(7) . . .
162(7) . . .
156(6) . . .
172(7) . . .
169(7) . . .
179(7) . . .
163(7) . . .
172(7) . . .
167(7) . . .
178(7) . . .
154(6) . . .
181(7) . . .
182(7) . . .
189(8) . . .
187(8) . . .
169(7) . . .
186(7) . . .
198(8) . . .
184(7) . . .
185(7) . . .
168(7) . . .
159(7) . . .
177(7) . . .
187(8) . . .
164(7) . . .
162(7) . . .
183(7) . . .
164(7) . . .
156(7) . . .
171(7) . . .
148(6) . . .
163(7) . . .
166(7) . . .
169(7) . . .
170(7) . . .
189(7) . . .
175(7) . . .
162(7) . . .
170(7) . . .
167(7) . . .
186(7) . . .
174(7) . . .
172(7) . . .
166(7) . . .
166(7) . . .
154(6) . . .
155(7) . . .
164(7) . . .
177(7) . . .
159(7) . . .
159(7) . . .
164(7) . . .
168(7) . . .
186(8) . . .
179(7) . . .
176(7) . . .
167(7) . . .
168(7) . . .
157(7) . . .
170(7) . . .
180(7) . . .
168(7) . . .
170(7) . . .
161(7) . . .
159(7) . . .
166(7) . . .
168(7) . . .
179(7) . . .
182(7) . . .
144(6) . . .
161(7) . . .
169(7) . . .
146(7) . . .
162(7) . . .
159(7) . . .
168(7) . . .
161(7) . . .
168(7) . . .
177(7) . . .
181(7) . . .
159(7) . . .
153(7) . . .
174(7) . . .
154(7) . . .
170(7) . . .
179(7) . . .
164(7) . . .
179(7) . . .
170(7) . . .
168(7) . . .
172(7) . . .
172(7) . . .
180(7) . . .
167(7) . . .
173(7) . . .
159(7) . . .
170(7) . . .
187(7) . . .
179(7) . . .
175(7) . . .
169(7) . . .
166(7) . . .
190(7) . . .
157(7) . . .
162(7) . . .
184(7) . . .
165(7) . . .
157(7) . . .
161(7) . . .
153(6) . . .
155(7) . . .
181(8) . . .
162(7) . . .
167(7) . . .
175(7) . . .
164(7) . . .
169(7) . . .
168(7) . . .
160(7) . . .
170(7) . . .
171(7) . . .
167(7) . . .
182(7) . . .
179(7) . . .
176(7) . . .
166(7) . . .
185(8) . . .
169(7) . . .
163(7) . . .
150(6) . . .
168(7) . . .
177(7) . . .
186(7) . . .
170(7) . . .
158(7) . . .
170(7) . . .
167(7) . . .
174(7) . . .
190(7) . . .
175(7) . . .
176(7) . . .
171(7) . . .
185(7) . . .
186(7) . . .
189(7) . . .
172(7) . . .
161(7) . . .
174(7) . . .
169(7) . . .
187(7) . . .
170(7) . . .
159(7) . . .
169(7) . . .
154(6) . . .
161(7) . . .
174(7) . . .
166(7) . . .
176(7) . . .
173(7) . . .
167(7) . . .
172(7) . . .
178(7) . . .
170(7) . . .
161(7) . . .
178(7) . . .
176(7) . . .
187(7) . . .
189(7) . . .
171(7) . . .
182(7) . . .
163(7) . . .
171(7) . . .
161(7) . . .
152(6) . . .
161(7) . . .
172(7) . . .
162(7) . . .
160(7) . . .
179(7) . . .
178(7) . . .
181(8) . . .
171(7) . . .
178(7) . . .
173(7) . . .
175(7) . . .
162(7) . . .
168(7) . . .
164(7) . . .
159(7) . . .
178(7) . . .
193(8) . . .
180(7) . . .
183(7) . . .
181(7) . . .
162(7) . . .
175(7) . . .
169(7) . . .
172(7) . . .
180(7) . . .
183(7) . . .
173(7) . . .
177(7) . . .
192(7) . . .
160(7) . . .
180(7) . . .
182(7) . . .
159(7) . . .
161(7) . . .
166(7) . . .
188(7) . . .
171(7) . . .
174(7) . . .
185(7) . . .
176(7) . . .
174(7) . . .
183(7) . . .
172(7) . . .
179(7) . . .
178(7) . . .
164(7) . . .
154(7) . . .
164(7) . . .
166(7) . . .
157(7) . . .
166(7) . . .
181(7) . . .
179(7) . . .
189(7) . . .
169(7) . . .
169(7) . . .
183(7) . . .
178(7) . . .
158(6) . . .
188(7) . . .
177(7) . . .
171(7) . . .
165(7) . . .
190(7) . . .
158(7) . . .
158(7) . . .
172(7) . . .
173(7) . . .
160(7) . . .
168(7) . . .
162(7) . . .
166(7) . . .
156(7) . . .
175(7) . . .
188(8) . . .
157(7) . . .
169(7) . . .
174(7) . . .
183(7) . . .
186(7) . . .
182(7) . . .
167(7) . . .
162(7) . . .
172(7) . . .
172(7) . . .
168(7) . . .
169(7) . . .
168(7) . . .
171(7) . . .
156(7) . . .
158(7) . . .
166(7) . . .
171(7) . . .
183(7) . . .
148(7) . . .
157(7) . . .
162(7) . . .
180(7) . . .
162(7) . . .
157(7) . . .
190(8) . . .
177(7) . . .
175(7) . . .
175(7) . . .
158(7) . . .
160(7) . . .
165(7) . . .
167(7) . . .
160(7) . . .
165(7) . . .
175(7) . . .
173(7) . . .
163(7) . . .
169(7) . . .
180(7) . . .
156(7) . . .
162(7) . . .
169(7) . . .
159(7) . . .
171(7) . . .
181(7) . . .
167(7) . . .
179(7) . . .
181(7) . . .
178(7) . . .
156(6) . . .
176(7) . . .
171(7) . . .
165(7) . . .
150(7) . . .
159(7) . . .
161(7) . . .
171(7) . . .
170(7) . . .
165(7) . . .
165(7) . . .
174(7) . . .
176(7) . . .
166(7) . . .
187(7) . . .
155(7) . . .
159(7) . . .
161(7) . . .
160(7) . . .
173(7) . . .
175(7) . . .
162(7) . . .
174(7) . . .
166(7) . . .
168(7) . . .
178(7) . . .
166(7) . . .
153(6) . . .
173(7) . . .
177(7) . . .
175(7) . . .
172(7) . . .
166(7) . . .
163(7) . . .
148(6) . . .
170(7) . . .
181(7) . . .
174(7) . . .
176(8) . . .
171(7) . . .
167(7) . . .
144(6) . . .
174(7) . . .
186(7) . . .
158(7) . . .
175(7) . . .
169(7) . . .
164(7) . . .
158(7) . . .
164(7) . . .
173(7) . . .
171(7) . . .
164(7) . . .
180(7) . . .
189(7) . . .
179(7) . . .
173(7) . . .
173(7) . . .
162(7) . . .
169(7) . . .
139(6) . . .
172(7) . . .
160(7) . . .
143(6) . . .
162(7) . . .
182(7) . . .
171(7) . . .
155(7) . . .
166(7) . . .
173(7) . . .
157(6) . . .
170(7) . . .
162(7) . . .
160(7) . . .
160(7) . . .
154(6) . . .
164(7) . . .
170(7) . . .
167(7) . . .
157(6) . . .
160(7) . . .
171(7) . . .
179(7) . . .
162(7) . . .
175(7) . . .
177(7) . . .
179(7) . . .
183(8) . . .
167(7) . . .
181(7) . . .
172(7) . . .
170(7) . . .
153(7) . . .
173(7) . . .
171(7) . . .
145(6) . . .
140(6) . . .
146(7) . . .
176(7) . . .
170(7) . . .
165(7) . . .
157(7) . . .
152(6) . . .
180(7) . . .
170(7) . . .
160(7) . . .
156(7) . . .
165(7) . . .
168(7) . . .
170(7) . . .
191(7) . . .
168(7) . . .
172(7) . . .
171(7) . . .
162(7) . . .
163(7) . . .
162(7) . . .
154(6) . . .
169(7) . . .
145(6) . . .
161(7) . . .
156(7) . . .
161(7) . . .
157(7) . . .
186(7) . . .
163(7) . . .
180(8) . . .
160(7) . . .
173(7) . . .
178(7) . . .
179(7) . . .
151(7) . . .
140(6) . . .
173(7) . . .
164(7) . . .
167(7) . . .
185(8) . . .
172(7) . . .
175(7) . . .
161(7) . . .
170(7) . . .
181(8) . . .
182(7) . . .
143(6) . . .
173(7) . . .
177(7) . . .
168(7) . . .
161(7) . . .
159(6) . . .
170(7) . . .
170(7) . . .
163(7) . . .
154(7) . . .
156(6) . . .
168(7) . . .
173(7) . . .
158(7) . . .
176(7) . . .
154(6) . . .
144(6) . . .
163(7) . . .
158(7) . . .
160(7) . . .
171(7) . . .
163(7) . . .
164(7) . . .
167(7) . . .
161(7) . . .
169(7) . . .
171(7) . . .
183(8) . . .
174(7) . . .
154(7) . . .
173(7) . . .
161(7) . . .
157(7) . . .
153(7) . . .
177(7) . . .
181(7) . . .
170(7) . . .
170(7) . . .
168(7) . . .
192(7) . . .
189(7) . . .
176(7) . . .
171(7) . . .
167(7) . . .
169(7) . . .
185(7) . . .
177(7) . . .
168(7) . . .
169(7) . . .
160(7) . . .
159(7) . . .
166(7) . . .
156(7) . . .
164(7) . . .
165(7) . . .
151(6) . . .
159(7) . . .
158(7) . . .
154(7) . . .
187(7) . . .
177(7) . . .
143(6) . . .
159(7) . . .
178(7) . . .
146(6) . . .
171(7) . . .
168(7) . . .
187(7) . . .
179(7) . . .
173(7) . . .
175(7) . . .
188(8) . . .
191(7) . . .
165(7) . . .
171(7) . . .
165(7) . . .
162(7) . . .
155(7) . . .
165(7) . . .
161(7) . . .
155(7) . . .
156(7) . . .
162(7) . . .
162(7) . . .
157(6) . . .
177(7) . . .
181(8) . . .
166(7) . . .
186(7) . . .
169(7) . . .
176(7) . . .
174(7) . . .
164(7) . . .
167(7) . . .
162(7) . . .
155(7) . . .
160(7) . . .
177(7) . . .
151(6) . . .
156(7) . . .
165(7) . . .
167(7) . . .
171(7) . . .
177(7) . . .
176(7) . . .
157(7) . . .
167(7) . . .
165(7) . . .
157(6) . . .
188(7) . . .
178(7) . . .
167(7) . . .
169(7) . . .
186(7) . . .
161(7) . . .
185(8) . . .
149(6) . . .
172(7) . . .
172(7) . . .
155(7) . . .
157(7) . . .
165(7) . . .
152(7) . . .
184(7) . . .
150(6) . . .
158(7) . . .
164(7) . . .
160(7) . . .
156(7) . . .
173(7) . . .
155(7) . . .
173(7) . . .
175(7) . . .
159(6) . . .
154(7) . . .
168(7) . . .
152(7) . . .
157(7) . . .
147(6) . . .
153(7) . . .
170(7) . . .
182(7) . . .
146(6) . . .
158(6) . . .
163(7) . . .
163(7) . . .
160(7) . . .
149(6) . . .
163(7) . . .
160(7) . . .
165(7) . . .
161(7) . . .
157(7) . . .
142(6) . . .
136(6) . . .
150(7) . . .
143(7) . . .
154(6) . . .
164(7) . . .
161(7) . . .
172(7) . . .
177(7) . . .
164(7) . . .
182(7) . . .
158(7) . . .
157(7) . . .
157(7) . . .
145(6) . . .
171(7) . . .
163(7) . . .
170(7) . . .
151(6) . . .
164(7) . . .
169(7) . . .
162(7) . . .
168(7) . . .
164(7) . . .
152(6) . . .
148(7) . . .
152(7) . . .
172(7) . . .
163(7) . . .
163(7) . . .
154(7) . . .
156(7) . . .
148(7) . . .
171(7) . . .
166(7) . . .
154(7) . . .
157(7) . . .
154(7) . . .
165(7) . . .
151(6) . . .
167(7) . . .
177(8) . . .
159(7) . . .
167(7) . . .
175(7) . . .
169(7) . . .
157(7) . . .
164(7) . . .
177(7) . . .
171(7) . . .
171(7) . . .
155(7) . . .
161(7) . . .
147(6) . . .
158(7) . . .
174(7) . . .
166(7) . . .
160(7) . . .
161(7) . . .
172(7) . . .
164(7) . . .
161(7) . . .
155(7) . . .
164(7) . . .
159(7) . . .
169(7) . . .
145(6) . . .
169(7) . . .
162(7) . . .
175(7) . . .
172(7) . . .
167(7) . . .
163(7) . . .
168(7) . . .
166(7) . . .
154(7) . . .
162(7) . . .
167(7) . . .
150(6) . . .
163(7) . . .
169(7) . . .
163(7) . . .
164(7) . . .
168(7) . . .
156(7) . . .
157(7) . . .
165(7) . . .
176(7) . . .
150(6) . . .
157(7) . . .
150(7) . . .
152(7) . . .
179(7) . . .
154(6) . . .
157(7) . . .
158(7) . . .
168(7) . . .
171(7) . . .
177(7) . . .
180(7) . . .
172(7) . . .
160(7) . . .
159(7) . . .
164(7) . . .
150(7) . . .
165(7) . . .
147(6) . . .
157(6) . . .
146(7) . . .
153(7) . . .
174(7) . . .
157(7) . . .
165(7) . . .
159(7) . . .
152(7) . . .
160(7) . . .
177(7) . . .
166(7) . . .
161(7) . . .
159(7) . . .
176(7) . . .
161(7) . . .
147(6) . . .
155(7) . . .
163(7) . . .
143(6) . . .
161(7) . . .
163(7) . . .
172(7) . . .
162(7) . . .
154(7) . . .
160(7) . . .
162(7) . . .
165(7) . . .
171(7) . . .
150(7) . . .
156(6) . . .
163(7) . . .
164(7) . . .
161(7) . . .
158(7) . . .
155(6) . . .
167(7) . . .
159(7) . . .
153(7) . . .
152(7) . . .
145(6) . . .
165(7) . . .
139(6) . . .
153(7) . . .
154(7) . . .
152(6) . . .
156(7) . . .
159(7) . . .
167(7) . . .
173(7) . . .
161(7) . . .
163(7) . . .
179(7) . . .
148(6) . . .
170(7) . . .
170(7) . . .
164(7) . . .
144(6) . . .
184(7) . . .
164(7) . . .
157(7) . . .
178(7) . . .
148(7) . . .
155(7) . . .
169(7) . . .
174(7) . . .
172(7) . . .
152(7) . . .
160(7) . . .
153(6) . . .
159(7) . . .
164(7) . . .
161(7) . . .
166(7) . . .
156(7) . . .
163(7) . . .
170(7) . . .
187(8) . . .
194(7) . . .
164(7) . . .
163(7) . . .
174(7) . . .
167(7) . . .
164(7) . . .
160(7) . . .
167(7) . . .
162(7) . . .
169(7) . . .
165(7) . . .
160(7) . . .
162(7) . . .
170(7) . . .
157(7) . . .
166(7) . . .
166(7) . . .
172(7) . . .
171(7) . . .
163(7) . . .
158(7) . . .
158(6) . . .
164(7) . . .
172(7) . . .
159(7) . . .
175(7) . . .
148(6) . . .
176(7) . . .
159(7) . . .
157(6) . . .
167(7) . . .
167(7) . . .
175(7) . . .
170(7) . . .
158(7) . . .
157(7) . . .
169(7) . . .
172(7) . . .
146(7) . . .
158(7) . . .
177(7) . . .
170(7) . . .
169(7) . . .
167(7) . . .
156(7) . . .
167(7) . . .
176(7) . . .
153(7) . . .
153(7) . . .
164(7) . . .
167(7) . . .
161(7) . . .
181(7) . . .
170(7) . . .
154(7) . . .
170(7) . . .
161(7) . . .
150(7) . . .
145(7) . . .
161(7) . . .
170(7) . . .
145(6) . . .
178(7) . . .
162(7) . . .
155(7) . . .
164(7) . . .
159(7) . . .
162(7) . . .
162(7) . . .
150(7) . . .
156(6) . . .
148(6) . . .
156(7) . . .
150(6) . . .
159(7) . . .
166(7) . . .
155(7) . . .
134(6) . . .
171(7) . . .
182(7) . . .
160(7) . . .
152(7) . . .
165(7) . . .
169(7) . . .
182(7) . . .
157(7) . . .
157(7) . . .
157(7) . . .
157(7) . . .
147(7) . . .
168(7) . . .
183(7) . . .
174(7) . . .
164(7) . . .
161(7) . . .
137(6) . . .
160(7) . . .
152(7) . . .
161(7) . . .
163(7) . . .
158(7) . . .
156(7) . . .
171(7) . . .
163(7) . . .
152(6) . . .
159(7) . . .
163(7) . . .
141(6) . . .
150(7) . . .
146(6) . . .
163(7) . . .
155(7) . . .
155(7) . . .
141(6) . . .
146(6) . . .
141(6) . . .
148(7) . . .
151(7) . . .
164(7) . . .
153(6) . . .
145(7) . . .
157(7) . . .
154(7) . . .
160(7) . . .
162(7) . . .
163(7) . . .
155(7) . . .
152(7) . . .
141(6) . . .
161(7) . . .
148(6) . . .
144(7) . . .
152(7) . . .
160(7) . . .
170(7) . . .
163(7) . . .
143(6) . . .
165(7) . . .
177(7) . . .
164(7) . . .
158(7) . . .
167(7) . . .
175(7) . . .
170(7) . . .
166(7) . . .
163(7) . . .
157(7) . . .
133(6) . . .
171(7) . . .
164(7) . . .
162(7) . . .
174(7) . . .
175(7) . . .
134(6) . . .
171(7) . . .
141(7) . . .
136(7) . . .
153(7) . . .
143(6) . . .
150(6) . . .
145(7) . . .
167(7) . . .
167(7) . . .
148(6) . . .
163(7) . . .
144(7) . . .
141(6) . . .
163(7) . . .
157(6) . . .
163(7) . . .
154(7) . . .
154(7) . . .
153(7) . . .
175(7) . . .
173(7) . . .
149(7) . . .
159(7) . . .
150(7) . . .
152(6) . . .
147(7) . . .
145(6) . . .
158(7) . . .
144(6) . . .
160(7) . . .
152(7) . . .
169(7) . . .
152(7) . . .
169(7) . . .
136(6) . . .
144(6) . . .
173(7) . . .
149(6) . . .
168(7) . . .
166(7) . . .
156(7) . . .
140(6) . . .
149(7) . . .
141(6) . . .
165(7) . . .
138(6) . . .
153(7) . . .
138(6) . . .
153(7) . . .
157(6) . . .
156(7) . . .
172(7) . . .
172(7) . . .
136(6) . . .
151(6) . . .
150(6) . . .
164(7) . . .
158(7) . . .
142(6) . . .
156(7) . . .
159(7) . . .
172(7) . . .
166(7) . . .
155(6) . . .
176(7) . . .
172(7) . . .
158(7) . . .
181(7) . . .
147(6) . . .
153(7) . . .
157(7) . . .
171(7) . . .
164(7) . . .
148(6) . . .
168(7) . . .
164(7) . . .
147(7) . . .
158(7) . . .
140(6) . . .
144(6) . . .
141(7) . . .
154(7) . . .
152(6) . . .
149(6) . . .
126(6) . . .
153(7) . . .
170(7) . . .
163(7) . . .
155(6) . . .
167(7) . . .
135(6) . . .
154(7) . . .
166(7) . . .
168(7) . . .
155(7) . . .
177(7) . . .
159(7) . . .
146(6) . . .
144(6) . . .
147(7) . . .
151(7) . . .
159(7) . . .
162(7) . . .
153(6) . . .
179(7) . . .
170(7) . . .
146(6) . . .
166(7) . . .
151(6) . . .
153(7) . . .
164(7) . . .
165(7) . . .
158(7) . . .
168(7) . . .
157(7) . . .
165(7) . . .
151(7) . . .
169(7) . . .
150(6) . . .
156(7) . . .
154(7) . . .
153(6) . . .
164(7) . . .
145(6) . . .
144(6) . . .
159(7) . . .
181(7) . . .
157(7) . . .
155(7) . . .
146(7) . . .
150(6) . . .
156(7) . . .
159(7) . . .
157(7) . . .
154(7) . . .
159(7) . . .
154(7) . . .
136(6) . . .
156(7) . . .
150(7) . . .
165(7) . . .
165(7) . . .
163(7) . . .
145(6) . . .
148(7) . . .
167(7) . . .
163(7) . . .
161(7) . . .
181(7) . . .
181(8) . . .
148(6) . . .
152(7) . . .
155(7) . . .
161(7) . . .
162(7) . . .
146(6) . . .
147(6) . . .
148(6) . . .
175(7) . . .
170(7) . . .
152(7) . . .
167(7) . . .
147(6) . . .
152(7) . . .
165(7) . . .
172(7) . . .
165(7) . . .
165(7) . . .
162(7) . . .
172(7) . . .
147(6) . . .
139(6) . . .
152(7) . . .
170(7) . . .
175(7) . . .
140(6) . . .
153(6) . . .
163(7) . . .
137(6) . . .
149(7) . . .
132(6) . . .
170(7) . . .
153(7) . . .
158(7) . . .
147(6) . . .
153(6) . . .
162(7) . . .
149(7) . . .
157(7) . . .
150(6) . . .
161(7) . . .
157(6) . . .
156(7) . . .
162(7) . . .
163(7) . . .
151(6) . . .
172(7) . . .
155(7) . . .
150(7) . . .
167(7) . . .
151(6) . . .
151(6) . . .
152(6) . . .
163(7) . . .
154(7) . . .
146(6) . . .
162(7) . . .
158(7) . . .
140(6) . . .
142(7) . . .
148(6) . . .
160(7) . . .
143(6) . . .
140(6) . . .
149(7) . . .
145(6) . . .
146(6) . . .
148(7) . . .
173(7) . . .
162(7) . . .
149(6) . . .
165(7) . . .
153(7) . . .
168(7) . . .
137(6) . . .
158(7) . . .
162(7) . . .
148(7) . . .
162(7) . . .
175(7) . . .
162(7) . . .
170(7) . . .
173(7) . . .
166(7) . . .
149(6) . . .
179(7) . . .
185(7) . . .
185(8) . . .
175(7) . . .
175(7) . . .
165(7) . . .
167(7) . . .
165(7) . . .
150(7) . . .
164(7) . . .
169(7) . . .
167(7) . . .
179(7) . . .
173(7) . . .
165(7) . . .
167(7) . . .
160(7) . . .
142(7) . . .
171(7) . . .
160(7) . . .
158(7) . . .
175(7) . . .
171(7) . . .
176(7) . . .
169(7) . . .
162(7) . . .
179(7) . . .
170(7) . . .
159(7) . . .
160(7) . . .
192(7) . . .
140(6) . . .
157(7) . . .
162(7) . . .
149(6) . . .
162(7) . . .
144(6) . . .
139(6) . . .
152(6) . . .
163(7) . . .
147(6) . . .
179(7) . . .
143(6) . . .
178(7) . . .
170(7) . . .
164(7) . . .
169(7) . . .
148(7) . . .
146(7) . . .
158(7) . . .
152(7) . . .
150(7) . . .
164(7) . . .
154(6) . . .
170(7) . . .
162(7) . . .
184(7) . . .
176(7) . . .
176(7) . . .
152(6) . . .
173(7) . . .
170(7) . . .
176(7) . . .
166(7) . . .
184(7) . . .
182(7) . . .
179(7) . . .
198(8) . . .
187(7) . . .
198(7) . . .
188(7) . . .
187(8) . . .
206(8) . . .
199(7) . . .
155(6) . . .
154(7) . . .
190(8) . . .
181(7) . . .
163(7) . . .
170(7) . . .
175(7) . . .
166(7) . . .
170(7) . . .
186(7) . . .
147(6) . . .
159(7) . . .
163(7) . . .
174(7) . . .
180(7) . . .
172(7) . . .
161(7) . . .
151(7) . . .
174(7) . . .
156(6) . . .
160(7) . . .
188(8) . . .
164(7) . . .
156(7) . . .
160(7) . . .
166(7) . . .
173(7) . . .
169(7) . . .
161(7) . . .
181(7) . . .
157(7) . . .
177(8) . . .
169(7) . . .
177(7) . . .
174(7) . . .
164(7) . . .
171(7) . . .
182(8) . . .
173(7) . . .
171(7) . . .
169(7) . . .
181(8) . . .
165(7) . . .
151(6) . . .
168(7) . . .
173(7) . . .
183(8) . . .
180(7) . . .
158(6) . . .
160(7) . . .
177(7) . . .
168(7) . . .
184(7) . . .
172(7) . . .
174(7) . . .
145(6) . . .
167(7) . . .
162(7) . . .
191(7) . . .
184(7) . . .
183(7) . . .
185(7) . . .
188(7) . . .
164(7) . . .
174(7) . . .
177(7) . . .
160(7) . . .
165(7) . . .
170(7) . . .
174(7) . . .
165(7) . . .
162(7) . . .
169(7) . . .
178(7) . . .
185(7) . . .
180(7) . . .
178(7) . . .
156(6) . . .
155(6) . . .
155(7) . . .
169(7) . . .
163(7) . . .
181(7) . . .
191(7) . . .
171(7) . . .
163(7) . . .
181(7) . . .
167(7) . . .
177(7) . . .
158(7) . . .
147(7) . . .
165(7) . . .
165(7) . . .
173(7) . . .
167(7) . . .
163(7) . . .
170(7) . . .
164(7) . . .
159(7) . . .
160(7) . . .
170(7) . . .
160(7) . . .
169(7) . . .
165(7) . . .
141(6) . . .
152(7) . . .
160(7) . . .
174(7) . . .
169(7) . . .
180(7) . . .
178(7) . . .
157(7) . . .
151(6) . . .
144(6) . . .
162(7) . . .
145(6) . . .
159(7) . . .
160(7) . . .
152(7) . . .
158(7) . . .
172(7) . . .
149(6) . . .
159(7) . . .
166(7) . . .
160(7) . . .
157(7) . . .
155(7) . . .
161(7) . . .
164(7) . . .
156(7) . . .
157(7) . . .
153(7) . . .
165(7) . . .
161(7) . . .
163(7) . . .
162(7) . . .
172(7) . . .
146(6) . . .
155(7) . . .
169(7) . . .
148(6) . . .
144(6) . . .
164(7) . . .
169(7) . . .
149(7) . . .
170(7) . . .
162(7) . . .
140(6) . . .
160(7) . . .
156(7) . . .
171(7) . . .
168(7) . . .
168(7) . . .
145(6) . . .
148(7) . . .
164(7) . . .
154(6) . . .
162(7) . . .
157(7) . . .
176(7) . . .
156(7) . . .
169(7) . . .
174(7) . . .
144(6) . . .
145(6) . . .
154(7) . . .
163(7) . . .
156(7) . . .
157(7) . . .
177(7) . . .
162(7) . . .
165(7) . . .
161(7) . . .
168(7) . . .
159(7) . . .
166(7) . . .
162(7) . . .
149(7) . . .
154(7) . . .
158(7) . . .
166(7) . . .
164(7) . . .
153(7) . . .
161(7) . . .
176(7) . . .
172(7) . . .
168(7) . . .
159(7) . . .
167(7) . . .
159(7) . . .
180(7) . . .
177(7) . . .
156(7) . . .
171(7) . . .
173(7) . . .
187(7) . . .
184(7) . . .
170(7) . . .
173(7) . . .
174(7) . . .
165(7) . . .
177(7) . . .
167(7) . . .
157(7) . . .
178(7) . . .
163(7) . . .
159(7) . . .
176(7) . . .
164(7) . . .
164(7) . . .
149(6) . . .
156(7) . . .
170(7) . . .
160(7) . . .
153(7) . . .
179(7) . . .
155(7) . . .
152(7) . . .
171(7) . . .
150(7) . . .
162(7) . . .
154(7) . . .
176(7) . . .
150(7) . . .
162(7) . . .
163(7) . . .
151(7) . . .
149(7) . . .
157(7) . . .
157(6) . . .
171(7) . . .
161(7) . . .
160(7) . . .
175(7) . . .
154(6) . . .
160(7) . . .
161(7) . . .
157(7) . . .
156(7) . . .
176(7) . . .
145(6) . . .
155(7) . . .
159(7) . . .
169(7) . . .
171(7) . . .
158(7) . . .
167(7) . . .
150(7) . . .
152(7) . . .
167(7) . . .
167(7) . . .
174(7) . . .
182(7) . . .
166(7) . . .
152(6) . . .
167(7) . . .
151(7) . . .
149(7) . . .
181(7) . . .
171(7) . . .
160(7) . . .
150(6) . . .
171(7) . . .
158(7) . . .
146(6) . . .
150(6) . . .
144(6) . . .
160(7) . . .
165(7) . . .
154(6) . . .
165(7) . . .
154(7) . . .
172(7) . . .
157(7) . . .
172(7) . . .
188(7) . . .
175(7) . . .
185(7) . . .
166(7) . . .
168(7) . . .
153(7) . . .
148(7) . . .
159(7) . . .
148(6) . . .
167(7) . . .
145(6) . . .
157(7) . . .
156(7) . . .
154(7) . . .
153(6) . . .
161(7) . . .
166(7) . . .
166(7) . . .
160(7) . . .
160(7) . . .
147(6) . . .
167(7) . . .
179(7) . . .
158(7) . . .
154(7) . . .
146(7) . . .
143(7) . . .
173(7) . . .
163(7) . . .
164(7) . . .
171(7) . . .
171(7) . . .
168(7) . . .
150(6) . . .
165(7) . . .
180(7) . . .
168(7) . . .
176(7) . . .
161(7) . . .
167(7) . . .
160(7) . . .
168(7) . . .
160(7) . . .
150(6) . . .
134(6) . . .
140(6) . . .
173(7) . . .
153(7) . . .
175(7) . . .
157(7) . . .
166(7) . . .
164(7) . . .
172(7) . . .
157(7) . . .
159(7) . . .
165(7) . . .
152(7) . . .
169(7) . . .
136(6) . . .
147(7) . . .
171(7) . . .
169(7) . . .
167(7) . . .
163(7) . . .
148(7) . . .
165(7) . . .
166(7) . . .
148(6) . . .
154(6) . . .
157(7) . . .
161(7) . . .
124(6) . . .
134(6) . . .
149(6) . . .
147(6) . . .
143(7) . . .
166(7) . . .
150(6) . . .
158(7) . . .
155(7) . . .
151(7) . . .
150(6) . . .
159(7) . . .
160(7) . . .
140(6) . . .
155(7) . . .
156(7) . . .
165(7) . . .
150(6) . . .
149(6) . . .
145(7) . . .
152(6) . . .
148(6) . . .
159(7) . . .
162(7) . . .
147(7) . . .
165(7) . . .
154(6) . . .
166(7) . . .
154(7) . . .
157(7) . . .
147(6) . . .
162(7) . . .
155(7) . . .
150(7) . . .
143(6) . . .
150(7) . . .
159(7) . . .
136(6) . . .
149(7) . . .
155(7) . . .
163(7) . . .
147(6) . . .
150(6) . . .
154(7) . . .
160(7) . . .
169(7) . . .
147(6) . . .
141(6) . . .
150(7) . . .
151(7) . . .
174(7) . . .
138(6) . . .
163(7) . . .
173(7) . . .
170(7) . . .
161(7) . . .
137(6) . . .
150(7) . . .
151(7) . . .
161(7) . . .
163(7) . . .
151(7) . . .
164(7) . . .
140(6) . . .
153(7) . . .
156(7) . . .
152(6) . . .
139(6) . . .
144(7) . . .
142(7) . . .
132(6) . . .
156(7) . . .
146(7) . . .
161(7) . . .
158(7) . . .
162(7) . . .
161(7) . . .
174(7) . . .
152(7) . . .
154(7) . . .
157(7) . . .
145(6) . . .
159(7) . . .
156(7) . . .
160(7) . . .
175(7) . . .
155(7) . . .
168(7) . . .
138(6) . . .
154(6) . . .
169(7) . . .
156(7) . . .
145(7) . . .
144(6) . . .
160(7) . . .
142(6) . . .
173(7) . . .
158(7) . . .
147(6) . . .
161(7) . . .
162(7) . . .
174(7) . . .
168(7) . . .
149(6) . . .
149(6) . . .
160(7) . . .
163(7) . . .
164(7) . . .
154(7) . . .
149(6) . . .
124(6) . . .
151(7) . . .
158(7) . . .
153(7) . . .
161(7) . . .
163(7) . . .
161(7) . . .
161(7) . . .
157(7) . . .
169(7) . . .
156(7) . . .
158(7) . . .
155(7) . . .
153(7) . . .
135(6) . . .
169(7) . . .
148(6) . . .
162(7) . . .
168(7) . . .
164(7) . . .
136(6) . . .
146(7) . . .
167(7) . . .
154(7) . . .
151(6) . . .
153(7) . . .
164(7) . . .
153(7) . . .
157(7) . . .
148(6) . . .
155(7) . . .
155(7) . . .
155(7) . . .
154(7) . . .
160(7) . . .
159(7) . . .
142(7) . . .
149(7) . . .
147(6) . . .
153(6) . . .
156(7) . . .
174(7) . . .
164(7) . . .
141(6) . . .
151(7) . . .
169(7) . . .
166(7) . . .
172(7) . . .
167(7) . . .
155(6) . . .
163(7) . . .
150(7) . . .
150(7) . . .
160(7) . . .
168(7) . . .
160(7) . . .
165(7) . . .
156(7) . . .
170(7) . . .
169(7) . . .
178(7) . . .
167(7) . . .
136(6) . . .
145(6) . . .
162(7) . . .
152(7) . . .
156(7) . . .
163(7) . . .
157(7) . . .
173(7) . . .
174(7) . . .
170(7) . . .
154(7) . . .
168(7) . . .
174(7) . . .
175(7) . . .
166(7) . . .
165(7) . . .
159(7) . . .
152(6) . . .
152(6) . . .
148(7) . . .
130(6) . . .
138(6) . . .
165(7) . . .
142(6) . . .
145(7) . . .
130(6) . . .
148(7) . . .
142(6) . . .
145(6) . . .
157(7) . . .
145(7) . . .
135(6) . . .
131(6) . . .
160(7) . . .
150(7) . . .
156(7) . . .
149(7) . . .
147(6) . . .
145(6) . . .
155(7) . . .
142(7) . . .
141(6) . . .
132(6) . . .
128(6) . . .
147(7) . . .
145(6) . . .
146(6) . . .
151(6) . . .
146(6) . . .
140(6) . . .
151(7) . . .
166(7) . . .
168(7) . . .
160(7) . . .
155(7) . . .
140(6) . . .
136(6) . . .
131(6) . . .
152(7) . . .
149(7) . . .
146(7) . . .
146(6) . . .
155(6) . . .
153(7) . . .
137(6) . . .
150(7) . . .
132(6) . . .
150(6) . . .
135(6) . . .
150(7) . . .
148(6) . . .
147(6) . . .
163(7) . . .
150(7) . . .
143(7) . . .
155(7) . . .
147(6) . . .
152(6) . . .
144(7) . . .
144(7) . . .
138(6) . . .
144(6) . . .
151(6) . . .
142(6) . . .
156(7) . . .
144(6) . . .
157(6) . . .
156(6) . . .
138(6) . . .
155(7) . . .
135(6) . . .
157(7) . . .
153(6) . . .
148(6) . . .
156(7) . . .
146(6) . . .
142(6) . . .
148(6) . . .
153(7) . . .
135(7) . . .
140(6) . . .
155(6) . . .
136(6) . . .
167(7) . . .
152(7) . . .
145(6) . . .
146(6) . . .
155(7) . . .
150(7) . . .
134(6) . . .
144(6) . . .
149(6) . . .
175(7) . . .
155(7) . . .
157(7) . . .
142(6) . . .
162(7) . . .
159(7) . . .
155(7) . . .
162(7) . . .
146(6) . . .
146(6) . . .
142(6) . . .
142(7) . . .
141(6) . . .
147(6) . . .
140(6) . . .
151(7) . . .
144(7) . . .
144(6) . . .
168(7) . . .
169(7) . . .
152(7) . . .
153(7) . . .
141(6) . . .
154(6) . . .
138(6) . . .
146(7) . . .
146(7) . . .
158(7) . . .
149(6) . . .
166(7) . . .
160(7) . . .
149(7) . . .
162(7) . . .
173(7) . . .
165(7) . . .
158(7) . . .
151(7) . . .
151(7) . . .
169(7) . . .
159(7) . . .
138(6) . . .
133(6) . . .
138(6) . . .
156(7) . . .
148(6) . . .
141(6) . . .
153(7) . . .
135(6) . . .
144(6) . . .
151(7) . . .
140(6) . . .
148(7) . . .
158(7) . . .
146(6) . . .
154(7) . . .
149(7) . . .
152(7) . . .
144(6) . . .
145(6) . . .
159(7) . . .
136(6) . . .
153(7) . . .
140(6) . . .
157(6) . . .
162(7) . . .
163(7) . . .
139(6) . . .
141(6) . . .
145(6) . . .
145(6) . . .
150(7) . . .
154(7) . . .
142(6) . . .
163(7) . . .
152(7) . . .
152(7) . . .
147(6) . . .
152(6) . . .
158(7) . . .
151(7) . . .
164(7) . . .
146(7) . . .
157(6) . . .
148(6) . . .
159(7) . . .
147(7) . . .
146(7) . . .
148(6) . . .
144(6) . . .
149(7) . . .
142(7) . . .
128(6) . . .
136(6) . . .
140(6) . . .
147(7) . . .
138(6) . . .
136(6) . . .
141(6) . . .
151(7) . . .
160(7) . . .
141(6) . . .
147(6) . . .
153(6) . . .
146(7) . . .
145(7) . . .
149(7) . . .
139(6) . . .
142(6) . . .
153(7) . . .
143(7) . . .
137(6) . . .
157(7) . . .
138(6) . . .
143(6) . . .
157(7) . . .
131(6) . . .
142(6) . . .
142(6) . . .
162(7) . . .
150(7) . . .
152(7) . . .
149(6) . . .
157(7) . . .
131(6) . . .
143(7) . . .
135(6) . . .
142(6) . . .
148(6) . . .
151(7) . . .
133(6) . . .
148(7) . . .
158(6) . . .
133(6) . . .
129(6) . . .
141(7) . . .
153(7) . . .
134(6) . . .
139(6) . . .
145(7) . . .
135(6) . . .
134(6) . . .
132(6) . . .
152(7) . . .
156(7) . . .
153(7) . . .
146(7) . . .
151(6) . . .
126(6) . . .
147(7) . . .
150(7) . . .
151(6) . . .
147(6) . . .
152(7) . . .
149(6) . . .
155(7) . . .
159(7) . . .
142(6) . . .
140(6) . . .
149(7) . . .
127(6) . . .
131(6) . . .
152(6) . . .
155(7) . . .
134(6) . . .
128(6) . . .
140(6) . . .
142(6) . . .
128(6) . . .
147(7) . . .
157(7) . . .
142(6) . . .
136(6) . . .
142(6) . . .
141(7) . . .
138(6) . . .
145(6) . . .
148(6) . . .
134(6) . . .
148(7) . . .
137(6) . . .
162(7) . . .
153(7) . . .
150(7) . . .
143(7) . . .
147(7) . . .
144(6) . . .
142(6) . . .
145(6) . . .
139(6) . . .
152(7) . . .
149(6) . . .
147(6) . . .
162(7) . . .
143(6) . . .
151(7) . . .
156(6) . . .
145(7) . . .
138(6) . . .
157(7) . . .
144(6) . . .
142(6) . . .
139(6) . . .
152(7) . . .
151(7) . . .
132(6) . . .
160(7) . . .
137(6) . . .
143(7) . . .
141(6) . . .
141(6) . . .
140(6) . . .
141(6) . . .
137(7) . . .
143(7) . . .
150(6) . . .
136(6) . . .
175(7) . . .
151(7) . . .
156(7) . . .
136(6) . . .
141(6) . . .
144(6) . . .
146(7) . . .
144(6) . . .
160(7) . . .
146(6) . . .
131(6) . . .
143(7) . . .
164(7) . . .
150(6) . . .
151(6) . . .
132(6) . . .
146(7) . . .
139(6) . . .
138(6) . . .
130(6) . . .
133(6) . . .
144(7) . . .
148(6) . . .
148(6) . . .
148(7) . . .
151(7) . . .
149(7) . . .
155(7) . . .
161(7) . . .
170(7) . . .
145(6) . . .
148(6) . . .
145(6) . . .
144(6) . . .
145(7) . . .
155(7) . . .
146(6) . . .
159(7) . . .
148(6) . . .
153(6) . . .
141(7) . . .
145(7) . . .
157(7) . . .
144(6) . . .
140(6) . . .
165(7) . . .
142(6) . . .
152(7) . . .
153(6) . . .
147(6) . . .
149(7) . . .
153(7) . . .
139(6) . . .
148(6) . . .
162(7) . . .
157(7) . . .
150(6) . . .
140(6) . . .
143(6) . . .
163(7) . . .
144(6) . . .
156(7) . . .
145(6) . . .
129(6) . . .
146(7) . . .
135(6) . . .
139(6) . . .
151(6) . . .
145(7) . . .
156(7) . . .
139(6) . . .
151(7) . . .
156(6) . . .
117(6) . . .
138(6) . . .
137(6) . . .
134(6) . . .
148(6) . . .
144(6) . . .
141(6) . . .
145(6) . . .
144(6) . . .
138(6) . . .
150(7) . . .
135(6) . . .
146(7) . . .
153(7) . . .
156(6) . . .
134(6) . . .
133(6) . . .
144(6) . . .
163(7) . . .
146(6) . . .
145(6) . . .
154(7) . . .
145(6) . . .
163(7) . . .
142(6) . . .
135(6) . . .
147(7) . . .
148(6) . . .
150(7) . . .
143(6) . . .
135(6) . . .
158(7) . . .
150(6) . . .
158(6) . . .
167(7) . . .
157(7) . . .
146(7) . . .
156(7) . . .
148(6) . . .
136(6) . . .
148(6) . . .
137(6) . . .
138(6) . . .
146(6) . . .
143(6) . . .
133(6) . . .
131(6) . . .
154(7) . . .
153(6) . . .
151(6) . . .
148(6) . . .
157(7) . . .
155(7) . . .
157(6) . . .
128(6) . . .
138(6) . . .
158(7) . . .
156(7) . . .
143(6) . . .
150(7) . . .
144(7) . . .
146(6) . . .
157(7) . . .
153(6) . . .
139(6) . . .
150(7) . . .
147(6) . . .
144(6) . . .
154(6) . . .
166(7) . . .
150(7) . . .
160(7) . . .
152(6) . . .
153(6) . . .
141(7) . . .
131(6) . . .
144(6) . . .
140(6) . . .
157(7) . . .
168(7) . . .
156(7) . . .
139(6) . . .
145(6) . . .
144(6) . . .
151(6) . . .
162(7) . . .
162(7) . . .
147(6) . . .
140(6) . . .
152(7) . . .
156(7) . . .
132(6) . . .
144(6) . . .
150(6) . . .
144(6) . . .
163(7) . . .
170(7) . . .
146(6) . . .
148(6) . . .
146(6) . . .
145(7) . . .
143(7) . . .
153(6) . . .
138(6) . . .
140(6) . . .
145(7) . . .
162(7) . . .
147(6) . . .
171(7) . . .
156(7) . . .
162(7) . . .
141(6) . . .
132(6) . . .
127(6) . . .
149(7) . . .
147(6) . . .
158(7) . . .
178(7) . . .
135(6) . . .
156(7) . . .
144(6) . . .
158(7) . . .
152(6) . . .
130(6) . . .
143(7) . . .
150(6) . . .
142(6) . . .
156(6) . . .
154(7) . . .
163(7) . . .
155(7) . . .
169(7) . . .
151(6) . . .
162(7) . . .
144(6) . . .
140(6) . . .
147(6) . . .
152(6) . . .
152(6) . . .
159(7) . . .
156(7) . . .
158(7) . . .
180(7) . . .
156(7) . . .
157(7) . . .
157(7) . . .
163(7) . . .
173(7) . . .
154(7) . . .
180(8) . . .
174(7) . . .
158(6) . . .
164(7) . . .
162(7) . . .
159(7) . . .
146(6) . . .
153(6) . . .
160(7) . . .
148(6) . . .
158(7) . . .
156(7) . . .
161(7) . . .
155(7) . . .
140(6) . . .
160(7) . . .
164(7) . . .
162(7) . . .
152(7) . . .
162(7) . . .
153(7) . . .
154(7) . . .
149(6) . . .
163(7) . . .
140(7) . . .
140(6) . . .
153(6) . . .
152(6) . . .
155(7) . . .
168(7) . . .
166(7) . . .
152(6) . . .
153(6) . . .
159(7) . . .
151(7) . . .
150(7) . . .
145(6) . . .
159(7) . . .
164(7) . . .
175(7) . . .
163(7) . . .
146(6) . . .
149(6) . . .
163(7) . . .
169(7) . . .
163(7) . . .
160(7) . . .
146(6) . . .
159(7) . . .
154(7) . . .
147(7) . . .
162(7) . . .
156(7) . . .
164(7) . . .
138(6) . . .
154(7) . . .
168(7) . . .
158(7) . . .
154(7) . . .
143(7) . . .
140(6) . . .
156(6) . . .
160(7) . . .
151(7) . . .
147(7) . . .
160(7) . . .
164(7) . . .
157(7) . . .
154(7) . . .
153(7) . . .
165(7) . . .
153(6) . . .
144(6) . . .
156(7) . . .
157(7) . . .
172(7) . . .
169(7) . . .
172(7) . . .
160(7) . . .
138(6) . . .
151(6) . . .
160(7) . . .
146(6) . . .
149(7) . . .
174(7) . . .
161(7) . . .
171(7) . . .
155(7) . . .
146(7) . . .
143(6) . . .
159(7) . . .
166(7) . . .
160(7) . . .
160(7) . . .
154(7) . . .
148(6) . . .
150(6) . . .
160(7) . . .
161(7) . . .
157(7) . . .
161(7) . . .
164(7) . . .
163(7) . . .
187(7) . . .
167(7) . . .
151(6) . . .
163(7) . . .
172(7) . . .
173(7) . . .
170(7) . . .
195(7) . . .
181(7) . . .
156(7) . . .
162(7) . . .
159(7) . . .
146(6) . . .
143(6) . . .
179(8) . . .
145(6) . . .
160(7) . . .
155(6) . . .
159(7) . . .
132(6) . . .
157(7) . . .
148(6) . . .
141(6) . . .
153(7) . . .
160(7) . . .
167(7) . . .
145(6) . . .
160(7) . . .
142(6) . . .
162(7) . . .
134(6) . . .
165(7) . . .
151(6) . . .
160(7) . . .
175(7) . . .
149(7) . . .
166(7) . . .
163(7) . . .
156(7) . . .
152(7) . . .
163(7) . . .
154(6) . . .
154(7) . . .
149(7) . . .
146(7) . . .
154(7) . . .
161(7) . . .
148(6) . . .
144(6) . . .
143(6) . . .
148(6) . . .
156(6) . . .
163(7) . . .
150(7) . . .
152(7) . . .
157(7) . . .
142(6) . . .
152(7) . . .
153(7) . . .
144(7) . . .
152(7) . . .
159(7) . . .
161(7) . . .
151(7) . . .
145(7) . . .
140(6) . . .
129(6) . . .
136(7) . . .
128(6) . . .
140(6) . . .
135(6) . . .
145(6) . . .
172(7) . . .
167(7) . . .
154(7) . . .
149(6) . . .
156(7) . . .
142(6) . . .
139(6) . . .
142(6) . . .
155(6) . . .
147(6) . . .
139(6) . . .
154(7) . . .
155(7) . . .
168(7) . . .
148(6) . . .
162(7) . . .
174(7) . . .
151(7) . . .
150(6) . . .
139(6) . . .
136(6) . . .
151(6) . . .
150(7) . . .
133(6) . . .
152(6) . . .
150(7) . . .
148(7) . . .
165(7) . . .
138(6) . . .
142(6) . . .
150(7) . . .
154(7) . . .
172(7) . . .
171(7) . . .
138(6) . . .
138(6) . . .
156(7) . . .
151(6) . . .
169(7) . . .
163(7) . . .
159(7) . . .
147(6) . . .
153(6) . . .
159(7) . . .
148(6) . . .
149(6) . . .
156(7) . . .
158(7) . . .
166(7) . . .
147(7) . . .
154(7) . . .
159(7) . . .
159(7) . . .
160(7) . . .
151(7) . . .
146(7) . . .
144(6) . . .
168(7) . . .
150(6) . . .
150(6) . . .
143(7) . . .
138(6) . . .
139(6) . . .
158(7) . . .
150(6) . . .
152(7) . . .
154(7) . . .
144(6) . . .
147(6) . . .
159(7) . . .
162(7) . . .
163(7) . . .
150(6) . . .
145(6) . . .
147(7) . . .
139(6) . . .
143(6) . . .
149(6) . . .
142(6) . . .
161(7) . . .
155(7) . . .
159(7) . . .
154(6) . . .
134(6) . . .
156(7) . . .
156(7) . . .
147(6) . . .
152(6) . . .
164(7) . . .
134(6) . . .
159(7) . . .
156(7) . . .
145(6) . . .
147(6) . . .
144(7) . . .
159(7) . . .
144(6) . . .
144(6) . . .
169(7) . . .
154(7) . . .
140(6) . . .
151(6) . . .
160(7) . . .
144(7) . . .
160(7) . . .
160(7) . . .
163(7) . . .
144(6) . . .
156(7) . . .
148(7) . . .
156(7) . . .
158(7) . . .
142(6) . . .
142(7) . . .
141(7) . . .
147(7) . . .
136(6) . . .
147(6) . . .
153(7) . . .
153(7) . . .
142(6) . . .
129(6) . . .
148(7) . . .
139(6) . . .
144(7) . . .
155(7) . . .
149(6) . . .
146(6) . . .
149(7) . . .
139(6) . . .
150(7) . . .
155(6) . . .
173(7) . . .
156(7) . . .
136(6) . . .
145(6) . . .
135(6) . . .
145(7) . . .
151(7) . . .
152(7) . . .
142(6) . . .
137(6) . . .
156(7) . . .
168(7) . . .
149(7) . . .
130(6) . . .
158(7) . . .
148(7) . . .
150(7) . . .
158(7) . . .
153(6) . . .
156(7) . . .
150(7) . . .
136(6) . . .
150(7) . . .
146(6) . . .
147(6) . . .
141(6) . . .
145(7) . . .
147(7) . . .
130(6) . . .
133(6) . . .
146(7) . . .
153(7) . . .
142(6) . . .
169(7) . . .
150(6) . . .
144(7) . . .
152(7) . . .
148(7) . . .
160(7) . . .
153(7) . . .
167(7) . . .
172(7) . . .
163(7) . . .
166(7) . . .
168(7) . . .
147(6) . . .
141(6) . . .
152(6) . . .
142(6) . . .
148(6) . . .
170(7) . . .
158(7) . . .
139(6) . . .
152(6) . . .
137(6) . . .
153(7) . . .
146(7) . . .
141(6) . . .
144(6) . . .
144(6) . . .
143(6) . . .
165(7) . . .
151(6) . . .
133(6) . . .
149(7) . . .
147(7) . . .
161(7) . . .
163(7) . . .
140(6) . . .
160(7) . . .
128(6) . . .
152(7) . . .
168(7) . . .
147(6) . . .
161(7) . . .
155(7) . . .
166(7) . . .
162(7) . . .
137(6) . . .
151(7) . . .
140(7) . . .
141(6) . . .
156(6) . . .
162(7) . . .
155(7) . . .
147(7) . . .
153(7) . . .
153(6) . . .
172(7) . . .
173(7) . . .
147(7) . . .
163(7) . . .
150(6) . . .
162(7) . . .
155(7) . . .
149(7) . . .
162(7) . . .
152(6) . . .
151(7) . . .
151(7) . . .
153(7) . . .
153(6) . . .
154(6) . . .
158(7) . . .
143(6) . . .
146(7) . . .
134(6) . . .
141(6) . . .
134(6) . . .
146(7) . . .
137(6) . . .
134(6) . . .
149(6) . . .
154(7) . . .
162(7) . . .
145(7) . . .
150(6) . . .
163(7) . . .
131(6) . . .
131(6) . . .
140(7) . . .
140(6) . . .
139(6) . . .
163(7) . . .
153(7) . . .
156(7) . . .
147(6) . . .
165(7) . . .
160(7) . . .
140(7) . . .
146(7) . . .
149(6) . . .
142(6) . . .
142(6) . . .
145(6) . . .
152(7) . . .
146(6) . . .
147(6) . . .
150(7) . . .
160(7) . . .
142(6) . . .
150(6) . . .
143(6) . . .
149(6) . . .
132(6) . . .
146(6) . . .
155(6) . . .
164(7) . . .
156(7) . . .
143(7) . . .
157(7) . . .
145(6) . . .
160(7) . . .
155(7) . . .
161(7) . . .
162(7) . . .
161(7) . . .
155(7) . . .
151(7) . . .
157(7) . . .
158(7) . . .
172(7) . . .
154(7) . . .
146(7) . . .
152(7) . . .
139(6) . . .
156(7) . . .
152(7) . . .
149(7) . . .
142(6) . . .
143(6) . . .
135(6) . . .
149(7) . . .
158(7) . . .
150(7) . . .
144(6) . . .
131(6) . . .
147(6) . . .
154(7) . . .
139(6) . . .
152(6) . . .
128(6) . . .
155(7) . . .
165(7) . . .
146(6) . . .
143(6) . . .
138(6) . . .
144(6) . . .
150(7) . . .
150(7) . . .
160(7) . . .
147(6) . . .
146(7) . . .
149(7) . . .
159(7) . . .
144(6) . . .
126(6) . . .
143(7) . . .
135(6) . . .
151(7) . . .
143(6) . . .
164(7) . . .
146(6) . . .
147(6) . . .
149(6) . . .
180(7) . . .
160(7) . . .
153(7) . . .
143(6) . . .
151(6) . . .
150(6) . . .
159(7) . . .
157(7) . . .
168(7) . . .
162(7) . . .
174(7) . . .
144(6) . . .
158(7) . . .
146(6) . . .
154(6) . . .
146(6) . . .
165(7) . . .
156(7) . . .
140(6) . . .
155(6) . . .
155(6) . . .
169(7) . . .
167(7) . . .
145(6) . . .
145(6) . . .
158(7) . . .
150(7) . . .
161(7) . . .
142(6) . . .
167(7) . . .
157(7) . . .
149(7) . . .
155(7) . . .
148(6) . . .
171(7) . . .
149(6) . . .
139(6) . . .
148(7) . . .
151(7) . . .
146(6) . . .
149(7) . . .
148(7) . . .
142(6) . . .
143(6) . . .
156(6) . . .
164(7) . . .
160(7) . . .
144(7) . . .
142(6) . . .
147(6) . . .
154(7) . . .
160(7) . . .
174(7) . . .
148(7) . . .
160(7) . . .
148(6) . . .
147(7) . . .
160(7) . . .
168(7) . . .
150(6) . . .
150(6) . . .
158(7) . . .
149(6) . . .
157(6) . . .
169(7) . . .
170(7) . . .
155(7) . . .
163(7) . . .
159(6) . . .
134(6) . . .
139(6) . . .
157(7) . . .
159(7) . . .
147(6) . . .
139(6) . . .
165(7) . . .
157(7) . . .
156(7) . . .
163(7) . . .
142(6) . . .
151(7) . . .
155(7) . . .
156(7) . . .
144(6) . . .
145(6) . . .
139(6) . . .
149(7) . . .
151(7) . . .
144(6) . . .
162(7) . . .
154(7) . . .
158(7) . . .
135(6) . . .
135(6) . . .
134(6) . . .
144(7) . . .
154(7) . . .
148(7) . . .
151(6) . . .
148(7) . . .
158(7) . . .
150(7) . . .
146(7) . . .
153(6) . . .
141(6) . . .
166(7) . . .
164(7) . . .
154(7) . . .
141(6) . . .
158(7) . . .
153(7) . . .
147(6) . . .
157(7) . . .
155(7) . . .
163(7) . . .
163(7) . . .
155(7) . . .
163(7) . . .
153(6) . . .
170(7) . . .
142(6) . . .
140(6) . . .
149(6) . . .
145(6) . . .
160(7) . . .
156(7) . . .
151(6) . . .
151(6) . . .
145(6) . . .
138(6) . . .
150(7) . . .
156(7) . . .
138(6) . . .
155(7) . . .
131(6) . . .
149(7) . . .
149(7) . . .
139(6) . . .
164(7) . . .
147(7) . . .
142(6) . . .
156(7) . . .
145(6) . . .
151(7) . . .
153(7) . . .
140(6) . . .
135(6) . . .
159(7) . . .
156(7) . . .
148(6) . . .
154(7) . . .
163(7) . . .
158(7) . . .
141(6) . . .
155(7) . . .
150(6) . . .
158(7) . . .
147(6) . . .
161(7) . . .
168(7) . . .
160(7) . . .
145(6) . . .
153(6) . . .
146(7) . . .
171(7) . . .
144(6) . . .
149(6) . . .
152(6) . . .
155(7) . . .
131(6) . . .
164(7) . . .
168(7) . . .
141(6) . . .
151(7) . . .
154(7) . . .
149(6) . . .
136(6) . . .
144(6) . . .
148(6) . . .
153(7) . . .
129(6) . . .
149(6) . . .
164(7) . . .
144(6) . . .
154(7) . . .
153(7) . . .
152(6) . . .
144(6) . . .
158(7) . . .
144(6) . . .
134(6) . . .
143(6) . . .
145(6) . . .
157(7) . . .
156(7) . . .
159(7) . . .
154(7) . . .
161(7) . . .
160(7) . . .
143(6) . . .
146(6) . . .
159(7) . . .
148(7) . . .
146(7) . . .
143(6) . . .
152(6) . . .
155(6) . . .
146(6) . . .
164(7) . . .
155(7) . . .
160(7) . . .
162(7) . . .
152(7) . . .
160(7) . . .
154(7) . . .
141(6) . . .
170(7) . . .
160(7) . . .
151(7) . . .
143(6) . . .
167(7) . . .
152(6) . . .
163(7) . . .
165(7) . . .
162(7) . . .
155(6) . . .
166(7) . . .
185(7) . . .
158(7) . . .
165(7) . . .
177(7) . . .
155(6) . . .
155(7) . . .
146(7) . . .
160(7) . . .
142(6) . . .
152(6) . . .
155(7) . . .
156(7) . . .
151(7) . . .
163(7) . . .
150(7) . . .
138(6) . . .
156(7) . . .
161(7) . . .
159(7) . . .
154(6) . . .
168(7) . . .
162(7) . . .
154(7) . . .
163(7) . . .
169(7) . . .
149(7) . . .
160(7) . . .
169(7) . . .
159(7) . . .
158(7) . . .
149(7) . . .
149(7) . . .
134(6) . . .
153(6) . . .
145(6) . . .
153(7) . . .
142(6) . . .
131(6) . . .
134(6) . . .
145(6) . . .
156(7) . . .
147(6) . . .
152(7) . . .
138(6) . . .
147(6) . . .
162(7) . . .
138(6) . . .
142(6) . . .
140(6) . . .
154(7) . . .
147(7) . . .
138(6) . . .
148(6) . . .
153(6) . . .
152(7) . . .
152(7) . . .
154(7) . . .
140(6) . . .
147(6) . . .
144(6) . . .
133(6) . . .
147(6) . . .
159(7) . . .
139(6) . . .
148(7) . . .
155(7) . . .
160(7) . . .
149(6) . . .
158(7) . . .
143(6) . . .
138(6) . . .
147(6) . . .
139(6) . . .
144(6) . . .
140(6) . . .
136(6) . . .
139(6) . . .
138(6) . . .
140(6) . . .
151(7) . . .
168(7) . . .
156(7) . . .
149(6) . . .
149(7) . . .
141(7) . . .
142(7) . . .
144(6) . . .
138(6) . . .
162(7) . . .
151(7) . . .
143(7) . . .
141(6) . . .
141(6) . . .
147(6) . . .
145(7) . . .
128(6) . . .
163(7) . . .
151(6) . . .
153(7) . . .
149(7) . . .
144(6) . . .
154(6) . . .
160(7) . . .
145(6) . . .
147(7) . . .
142(6) . . .
147(6) . . .
132(6) . . .
157(7) . . .
150(7) . . .
134(6) . . .
166(7) . . .
151(6) . . .
158(7) . . .
152(7) . . .
146(7) . . .
148(6) . . .
163(7) . . .
149(7) . . .
151(7) . . .
150(7) . . .
149(6) . . .
158(7) . . .
163(7) . . .
152(7) . . .
152(7) . . .
139(6) . . .
136(6) . . .
153(7) . . .
138(6) . . .
154(6) . . .
159(7) . . .
161(7) . . .
142(6) . . .
147(6) . . .
138(6) . . .
166(7) . . .
148(6) . . .
146(6) . . .
145(6) . . .
135(6) . . .
141(6) . . .
149(6) . . .
144(7) . . .
152(7) . . .
144(6) . . .
161(7) . . .
147(6) . . .
143(7) . . .
149(7) . . .
147(6) . . .
138(6) . . .
167(7) . . .
179(7) . . .
154(6) . . .
154(6) . . .
147(6) . . .
136(6) . . .
141(7) . . .
163(7) . . .
145(6) . . .
151(6) . . .
149(7) . . .
170(7) . . .
161(7) . . .
151(6) . . .
148(6) . . .
161(7) . . .
164(7) . . .
145(6) . . .
161(7) . . .
163(7) . . .
150(7) . . .
146(7) . . .
128(6) . . .
147(6) . . .
143(6) . . .
144(7) . . .
141(6) . . .
158(7) . . .
133(6) . . .
159(7) . . .
137(6) . . .
142(6) . . .
137(6) . . .
140(6) . . .
137(6) . . .
150(7) . . .
149(7) . . .
137(6) . . .
143(6) . . .
159(7) . . .
154(7) . . .
133(6) . . .
169(7) . . .
141(6) . . .
148(7) . . .
124(6) . . .
159(7) . . .
149(6) . . .
161(7) . . .
154(7) . . .
134(6) . . .
153(7) . . .
153(6) . . .
145(6) . . .
134(6) . . .
136(6) . . .
146(6) . . .
147(6) . . .
140(6) . . .
153(7) . . .
150(7) . . .
154(7) . . .
131(6) . . .
152(7) . . .
155(7) . . .
139(6) . . .
133(6) . . .
158(7) . . .
153(7) . . .
127(6) . . .
140(6) . . .
147(6) . . .
143(6) . . .
149(7) . . .
146(7) . . .
142(6) . . .
149(6) . . .
135(6) . . .
147(7) . . .
133(6) . . .
134(6) . . .
158(7) . . .
148(6) . . .
150(6) . . .
149(7) . . .
152(7) . . .
149(6) . . .
153(6) . . .
130(6) . . .
136(7) . . .
153(7) . . .
146(6) . . .
162(7) . . .
153(7) . . .
152(7) . . .
150(6) . . .
146(6) . . .
139(6) . . .
146(6) . . .
146(7) . . .
154(7) . . .
150(6) . . .
150(6) . . .
148(6) . . .
135(6) . . .
159(7) . . .
174(7) . . .
137(6) . . .
148(6) . . .
142(6) . . .
142(6) . . .
150(6) . . .
148(6) . . .
131(6) . . .
147(7) . . .
149(7) . . .
139(6) . . .
129(6) . . .
151(7) . . .
148(7) . . .
153(7) . . .
135(6) . . .
153(7) . . .
150(7) . . .
156(7) . . .
155(7) . . .
152(6) . . .
148(7) . . .
146(7) . . .
152(7) . . .
144(6) . . .
134(6) . . .
132(6) . . .
159(7) . . .
135(6) . . .
157(7) . . .
152(6) . . .
136(6) . . .
150(7) . . .
163(7) . . .
137(6) . . .
168(7) . . .
154(7) . . .
148(7) . . .
138(6) . . .
148(6) . . .
141(6) . . .
150(7) . . .
148(7) . . .
128(6) . . .
143(6) . . .
130(6) . . .
142(6) . . .
146(7) . . .
142(6) . . .
139(6) . . .
141(6) . . .
149(6) . . .
140(7) . . .
147(7) . . .
156(6) . . .
159(7) . . .
152(7) . . .
154(7) . . .
139(7) . . .
143(6) . . .
142(6) . . .
143(6) . . .
146(7) . . .
157(7) . . .
146(6) . . .
138(6) . . .
145(7) . . .
144(7) . . .
140(6) . . .
146(6) . . .
143(6) . . .
150(7) . . .
159(7) . . .
145(6) . . .
146(6) . . .
153(7) . . .
165(7) . . .
146(6) . . .
156(7) . . .
134(6) . . .
157(7) . . .
143(7) . . .
159(7) . . .
150(6) . . .
162(7) . . .
130(6) . . .
161(7) . . .
138(6) . . .
139(6) . . .
134(6) . . .
150(7) . . .
154(7) . . .
172(7) . . .
163(7) . . .
145(6) . . .
137(6) . . .
166(7) . . .
158(7) . . .
156(6) . . .
135(6) . . .
146(6) . . .
146(7) . . .
149(7) . . .
142(6) . . .
153(7) . . .
158(7) . . .
156(7) . . .
130(6) . . .
151(6) . . .
133(6) . . .
146(6) . . .
150(7) . . .
142(6) . . .
154(6) . . .
156(7) . . .
138(6) . . .
135(6) . . .
158(7) . . .
138(6) . . .
132(6) . . .
138(6) . . .
140(6) . . .
144(6) . . .
140(6) . . .
156(7) . . .
155(7) . . .
144(6) . . .
146(6) . . .
162(7) . . .
140(6) . . .
150(7) . . .
148(7) . . .
138(6) . . .
162(7) . . .
136(6) . . .
121(6) . . .
137(6) . . .
148(6) . . .
146(6) . . .
146(6) . . .
151(7) . . .
150(7) . . .
133(6) . . .
154(7) . . .
135(6) . . .
147(7) . . .
135(6) . . .
136(6) . . .
156(6) . . .
147(7) . . .
133(6) . . .
147(7) . . .
145(6) . . .
139(6) . . .
142(6) . . .
143(7) . . .
142(6) . . .
158(6) . . .
142(6) . . .
160(7) . . .
161(7) . . .
140(6) . . .
129(6) . . .
137(6) . . .
132(6) . . .
145(7) . . .
149(7) . . .
124(6) . . .
148(6) . . .
146(7) . . .
142(6) . . .
130(6) . . .
148(6) . . .
154(7) . . .
150(6) . . .
145(7) . . .
137(6) . . .
149(6) . . .
166(7) . . .
148(7) . . .
140(6) . . .
135(6) . . .
134(6) . . .
149(7) . . .
135(6) . . .
124(6) . . .
120(6) . . .
145(6) . . .
159(7) . . .
168(7) . . .
151(6) . . .
145(6) . . .
142(6) . . .
133(6) . . .
139(7) . . .
133(6) . . .
146(6) . . .
154(6) . . .
156(7) . . .
147(7) . . .
149(7) . . .
143(6) . . .
133(6) . . .
142(6) . . .
146(7) . . .
137(6) . . .
143(6) . . .
140(6) . . .
135(6) . . .
166(7) . . .
158(7) . . .
145(6) . . .
139(6) . . .
137(6) . . .
146(7) . . .
140(7) . . .
145(6) . . .
141(6) . . .
153(7) . . .
151(7) . . .
137(6) . . .
153(6) . . .
168(7) . . .
139(6) . . .
138(6) . . .
140(6) . . .
144(6) . . .
154(7) . . .
128(6) . . .
139(6) . . .
150(6) . . .
147(6) . . .
153(7) . . .
146(7) . . .
133(6) . . .
157(7) . . .
144(6) . . .
145(6) . . .
151(7) . . .
141(6) . . .
167(7) . . .
136(6) . . .
146(7) . . .
156(7) . . .
149(7) . . .
145(6) . . .
174(7) . . .
148(6) . . .
139(7) . . .
130(6) . . .
150(6) . . .
142(6) . . .
139(6) . . .
144(7) . . .
145(7) . . .
172(7) . . .
146(6) . . .
165(7) . . .
139(7) . . .
139(6) . . .
140(6) . . .
143(6) . . .
158(7) . . .
162(7) . . .
162(7) . . .
147(6) . . .
153(7) . . .
159(7) . . .
148(7) . . .
137(6) . . .
145(6) . . .
145(6) . . .
141(6) . . .
133(6) . . .
129(6) . . .
146(6) . . .
147(6) . . .
143(7) . . .
146(6) . . .
145(6) . . .
152(6) . . .
138(6) . . .
145(7) . . .
149(7) . . .
140(6) . . .
149(6) . . .
138(6) . . .
149(7) . . .
134(6) . . .
154(6) . . .
145(6) . . .
138(6) . . .
142(7) . . .
143(6) . . .
145(6) . . .
147(6) . . .
140(6) . . .
141(7) . . .
141(7) . . .
149(6) . . .
147(6) . . .
138(6) . . .
130(6) . . .
140(6) . . .
133(6) . . .
153(7) . . .
149(7) . . .
150(7) . . .
146(6) . . .
156(6) . . .
139(6) . . .
140(6) . . .
158(7) . . .
137(6) . . .
152(6) . . .
151(6) . . .
159(7) . . .
137(6) . . .
149(7) . . .
155(6) . . .
154(7) . . .
152(7) . . .
154(7) . . .
152(7) . . .
155(6) . . .
165(7) . . .
144(7) . . .
135(6) . . .
134(6) . . .
142(6) . . .
147(7) . . .
145(7) . . .
128(6) . . .
156(6) . . .
136(6) . . .
149(7) . . .
158(7) . . .
164(7) . . .
156(6) . . .
145(6) . . .
161(7) . . .
163(7) . . .
162(7) . . .
166(7) . . .
163(7) . . .
153(7) . . .
165(7) . . .
174(7) . . .
149(7) . . .
141(6) . . .
138(6) . . .
157(7) . . .
156(7) . . .
146(6) . . .
149(7) . . .
164(7) . . .
143(6) . . .
158(7) . . .
140(6) . . .
141(6) . . .
135(6) . . .
146(7) . . .
142(6) . . .
134(6) . . .
149(6) . . .
153(7) . . .
168(7) . . .
138(6) . . .
141(6) . . .
149(7) . . .
144(7) . . .
153(7) . . .
148(6) . . .
140(6) . . .
133(6) . . .
146(7) . . .
146(6) . . .
147(6) . . .
150(6) . . .
154(7) . . .
140(7) . . .
144(6) . . .
151(7) . . .
146(6) . . .
156(7) . . .
159(7) . . .
137(6) . . .
164(7) . . .
146(6) . . .
152(7) . . .
133(6) . . .
139(6) . . .
160(7) . . .
147(6) . . .
149(7) . . .
154(7) . . .
146(7) . . .
136(6) . . .
140(6) . . .
159(7) . . .
151(7) . . .
142(7) . . .
136(6) . . .
137(6) . . .
147(6) . . .
152(7) . . .
144(6) . . .
145(6) . . .
147(6) . . .
158(7) . . .
161(7) . . .
143(7) . . .
147(6) . . .
138(6) . . .
140(6) . . .
135(6) . . .
137(6) . . .
148(6) . . .
146(6) . . .
146(7) . . .
143(6) . . .
143(6) . . .
161(7) . . .
159(7) . . .
153(7) . . .
154(6) . . .
171(7) . . .
132(6) . . .
146(6) . . .
161(7) . . .
145(6) . . .
155(7) . . .
153(6) . . .
130(6) . . .
162(7) . . .
154(7) . . .
144(6) . . .
127(6) . . .
137(6) . . .
140(7) . . .
150(7) . . .
137(6) . . .
149(6) . . .
158(7) . . .
150(7) . . .
145(6) . . .
161(7) . . .
137(6) . . .
151(7) . . .
153(7) . . .
147(7) . . .
135(6) . . .
136(6) . . .
139(6) . . .
134(6) . . .
146(7) . . .
149(6) . . .
167(7) . . .
148(6) . . .
145(6) . . .
159(7) . . .
142(6) . . .
150(6) . . .
136(6) . . .
159(7) . . .
163(7) . . .
159(7) . . .
144(6) . . .
162(7) . . .
134(6) . . .
143(6) . . .
139(6) . . .
134(6) . . .
153(7) . . .
140(6) . . .
143(6) . . .
127(6) . . .
155(7) . . .
142(7) . . .
133(6) . . .
142(6) . . .
151(6) . . .
143(7) . . .
159(7) . . .
156(7) . . .
138(6) . . .
150(6) . . .
148(7) . . .
128(6) . . .
136(6) . . .
139(6) . . .
154(6) . . .
149(7) . . .
152(7) . . .
127(6) . . .
145(6) . . .
147(6) . . .
146(6) . . .
149(7) . . .
141(6) . . .
145(6) . . .
129(6) . . .
131(6) . . .
137(7) . . .
148(7) . . .
135(6) . . .
140(6) . . .
149(7) . . .
158(7) . . .
150(7) . . .
153(6) . . .
148(7) . . .
132(6) . . .
128(6) . . .
147(6) . . .
144(6) . . .
148(6) . . .
130(6) . . .
145(6) . . .
143(6) . . .
125(6) . . .
141(7) . . .
140(7) . . .
130(6) . . .
133(6) . . .
121(6) . . .
150(7) . . .
135(6) . . .
147(7) . . .
134(6) . . .
136(6) . . .
148(7) . . .
147(7) . . .
126(6) . . .
130(6) . . .
133(6) . . .
127(6) . . .
134(6) . . .
139(6) . . .
140(6) . . .
138(6) . . .
141(7) . . .
144(7) . . .
146(7) . . .
143(6) . . .
165(7) . . .
146(6) . . .
144(6) . . .
141(6) . . .
144(6) . . .
143(6) . . .
166(7) . . .
145(7) . . .
137(6) . . .
156(6) . . .
148(6) . . .
150(7) . . .
148(7) . . .
143(6) . . .
159(7) . . .
163(7) . . .
136(6) . . .
134(6) . . .
132(6) . . .
146(6) . . .
151(7) . . .
160(7) . . .
126(6) . . .
133(6) . . .
144(6) . . .
145(6) . . .
140(6) . . .
131(6) . . .
143(6) . . .
149(6) . . .
146(6) . . .
145(7) . . .
155(7) . . .
144(6) . . .
130(6) . . .
140(7) . . .
130(6) . . .
127(6) . . .
134(6) . . .
138(6) . . .
145(6) . . .
153(7) . . .
149(6) . . .
149(6) . . .
146(6) . . .
141(6) . . .
153(7) . . .
139(6) . . .
136(6) . . .
137(6) . . .
135(6) . . .
142(7) . . .
154(7) . . .
120(6) . . .
130(6) . . .
135(6) . . .
129(6) . . .
144(7) . . .
141(6) . . .
140(6) . . .
142(6) . . .
124(6) . . .
139(6) . . .
142(6) . . .
154(6) . . .
154(7) . . .
154(7) . . .
146(7) . . .
147(6) . . .
133(6) . . .
132(6) . . .
132(6) . . .
128(6) . . .
128(6) . . .
143(6) . . .
149(7) . . .
143(6) . . .
144(6) . . .
142(6) . . .
147(7) . . .
139(6) . . .
132(6) . . .
133(6) . . .
131(6) . . .
143(6) . . .
136(6) . . .
146(6) . . .
130(6) . . .
132(6) . . .
136(6) . . .
132(6) . . .
133(6) . . .
133(6) . . .
131(6) . . .
146(7) . . .
139(7) . . .
128(6) . . .
131(6) . . .
139(6) . . .
149(7) . . .
131(6) . . .
142(6) . . .
139(6) . . .
142(6) . . .
152(7) . . .
159(7) . . .
151(7) . . .
134(6) . . .
145(6) . . .
146(6) . . .
141(7) . . .
131(6) . . .
145(6) . . .
129(6) . . .
116(6) . . .
116(6) . . .
148(7) . . .
147(6) . . .
135(6) . . .
142(6) . . .
145(7) . . .
140(6) . . .
152(6) . . .
152(7) . . .
159(7) . . .
142(6) . . .
143(6) . . .
136(6) . . .
125(6) . . .
136(6) . . .
147(6) . . .
130(6) . . .
143(6) . . .
133(6) . . .
141(7) . . .
132(6) . . .
144(6) . . .
128(6) . . .
141(6) . . .
150(7) . . .
132(6) . . .
142(6) . . .
130(6) . . .
151(7) . . .
160(7) . . .
139(6) . . .
128(6) . . .
139(6) . . .
145(6) . . .
127(6) . . .
127(6) . . .
124(6) . . .
122(6) . . .
144(7) . . .
142(7) . . .
132(6) . . .
141(6) . . .
139(6) . . .
136(6) . . .
138(6) . . .
135(6) . . .
143(6) . . .
150(6) . . .
152(7) . . .
129(6) . . .
141(6) . . .
143(6) . . .
154(7) . . .
134(6) . . .
135(6) . . .
145(7) . . .
142(6) . . .
146(6) . . .
146(6) . . .
147(7) . . .
122(6) . . .
139(6) . . .
161(7) . . .
126(6) . . .
136(6) . . .
137(6) . . .
144(6) . . .
131(6) . . .
146(7) . . .
148(7) . . .
141(6) . . .
141(6) . . .
132(6) . . .
145(7) . . .
141(6) . . .
126(6) . . .
131(6) . . .
144(7) . . .
145(7) . . .
129(6) . . .
127(6) . . .
136(6) . . .
149(6) . . .
147(7) . . .
137(6) . . .
139(6) . . .
143(6) . . .
146(7) . . .
128(6) . . .
133(6) . . .
143(6) . . .
149(6) . . .
150(7) . . .
145(7) . . .
129(6) . . .
132(6) . . .
125(6) . . .
137(7) . . .
145(7) . . .
145(6) . . .
139(6) . . .
139(6) . . .
129(6) . . .
126(6) . . .
124(6) . . .
121(6) . . .
134(6) . . .
129(6) . . .
149(7) . . .
166(7) . . .
154(6) . . .
133(6) . . .
139(6) . . .
146(7) . . .
140(6) . . .
144(6) . . .
147(6) . . .
135(6) . . .
147(7) . . .
158(7) . . .
145(6) . . .
133(6) . . .
135(7) . . .
135(6) . . .
131(6) . . .
141(6) . . .
126(6) . . .
143(6) . . .
130(6) . . .
146(6) . . .
140(6) . . .
136(6) . . .
145(7) . . .
140(6) . . .
135(6) . . .
135(6) . . .
136(6) . . .
122(6) . . .
130(6) . . .
136(6) . . .
139(6) . . .
134(6) . . .
129(6) . . .
145(7) . . .
134(6) . . .
134(6) . . .
124(6) . . .
119(6) . . .
139(6) . . .
141(6) . . .
134(6) . . .
142(6) . . .
122(6) . . .
116(6) . . .
131(6) . . .
145(6) . . .
133(6) . . .
159(7) . . .
144(6) . . .
137(6) . . .
134(6) . . .
131(6) . . .
148(7) . . .
122(6) . . .
116(6) . . .
143(6) . . .
134(6) . . .
126(6) . . .
127(6) . . .
122(6) . . .
140(6) . . .
135(6) . . .
129(6) . . .
142(6) . . .
146(6) . . .
135(6) . . .
151(7) . . .
142(6) . . .
127(6) . . .
144(6) . . .
140(6) . . .
129(6) . . .
143(6) . . .
131(6) . . .
119(6) . . .
124(6) . . .
139(6) . . .
149(6) . . .
150(6) . . .
151(6) . . .
120(6) . . .
133(6) . . .
146(7) . . .
143(6) . . .
142(6) . . .
146(7) . . .
151(7) . . .
135(6) . . .
129(6) . . .
135(6) . . .
148(7) . . .
132(6) . . .
136(6) . . .
140(6) . . .
152(6) . . .
135(6) . . .
146(7) . . .
147(6) . . .
135(6) . . .
128(6) . . .
126(6) . . .
147(7) . . .
136(6) . . .
146(6) . . .
120(6) . . .
156(7) . . .
144(6) . . .
132(6) . . .
128(6) . . .
146(7) . . .
136(6) . . .
137(6) . . .
142(6) . . .
133(6) . . .
136(6) . . .
152(7) . . .
123(6) . . .
129(6) . . .
132(6) . . .
144(7) . . .
136(6) . . .
143(7) . . .
129(6) . . .
129(6) . . .
141(6) . . .
145(6) . . .
149(7) . . .
135(6) . . .
145(6) . . .
162(7) . . .
140(6) . . .
122(6) . . .
136(6) . . .
131(6) . . .
142(6) . . .
136(6) . . .
145(7) . . .
140(6) . . .
141(6) . . .
139(6) . . .
151(7) . . .
140(6) . . .
134(6) . . .
150(6) . . .
143(7) . . .
136(6) . . .
135(6) . . .
130(6) . . .
139(6) . . .
139(6) . . .
130(6) . . .
131(6) . . .
134(6) . . .
128(6) . . .
122(6) . . .
136(6) . . .
134(6) . . .
139(6) . . .
143(6) . . .
137(6) . . .
134(6) . . .
119(6) . . .
143(6) . . .
123(6) . . .
138(7) . . .
135(6) . . .
133(6) . . .
129(6) . . .
122(6) . . .
131(6) . . .
149(7) . . .
148(6) . . .
151(6) . . .
141(6) . . .
134(7) . . .
119(6) . . .
138(6) . . .
133(6) . . .
142(6) . . .
151(7) . . .
141(6) . . .
153(6) . . .
131(6) . . .
129(6) . . .
136(6) . . .
122(6) . . .
140(6) . . .
126(6) . . .
138(6) . . .
128(6) . . .
127(6) . . .
116(6) . . .
134(6) . . .
139(6) . . .
150(7) . . .
147(7) . . .
128(6) . . .
127(6) . . .
138(7) . . .
136(6) . . .
118(6) . . .
121(6) . . .
137(6) . . .
139(6) . . .
132(6) . . .
144(6) . . .
137(6) . . .
137(6) . . .
134(6) . . .
151(7) . . .
127(6) . . .
132(6) . . .
152(7) . . .
136(6) . . .
131(6) . . .
121(6) . . .
145(6) . . .
131(6) . . .
135(7) . . .
149(7) . . .
150(6) . . .
131(6) . . .
134(6) . . .
134(6) . . .
133(6) . . .
135(6) . . .
128(6) . . .
141(7) . . .
134(7) . . .
129(6) . . .
126(6) . . .
132(6) . . .
132(6) . . .
121(6) . . .
146(7) . . .
140(6) . . .
144(6) . . .
139(6) . . .
133(6) . . .
124(6) . . .
148(6) . . .
153(6) . . .
151(6) . . .
148(6) . . .
156(7) . . .
136(6) . . .
133(6) . . .
129(6) . . .
135(6) . . .
139(6) . . .
142(6) . . .
156(7) . . .
130(6) . . .
134(6) . . .
155(7) . . .
135(6) . . .
147(7) . . .
144(7) . . .
127(6) . . .
139(6) . . .
148(6) . . .
134(6) . . .
150(7) . . .
127(6) . . .
151(6) . . .
123(6) . . .
121(6) . . .
156(7) . . .
155(7) . . .
143(6) . . .
146(6) . . .
137(6) . . .
133(7) . . .
129(6) . . .
137(6) . . .
157(7) . . .
131(6) . . .
151(7) . . .
123(6) . . .
119(6) . . .
135(6) . . .
139(6) . . .
133(6) . . .
137(6) . . .
164(7) . . .
137(6) . . .
128(6) . . .
136(6) . . .
149(7) . . .
137(6) . . .
127(6) . . .
117(6) . . .
129(6) . . .
132(6) . . .
130(6) . . .
125(6) . . .
123(6) . . .
142(7) . . .
133(6) . . .
131(6) . . .
121(6) . . .
137(6) . . .
155(7) . . .
128(6) . . .
144(6) . . .
150(7) . . .
140(6) . . .
148(7) . . .
129(6) . . .
134(6) . . .
148(7) . . .
160(7) . . .
144(6) . . .
124(6) . . .
137(6) . . .
150(7) . . .
125(6) . . .
135(6) . . .
139(6) . . .
140(6) . . .
136(6) . . .
147(7) . . .
132(6) . . .
131(6) . . .
143(6) . . .
143(7) . . .
140(7) . . .
123(6) . . .
123(6) . . .
128(6) . . .
129(6) . . .
135(6) . . .
122(6) . . .
147(6) . . .
155(6) . . .
131(6) . . .
126(6) . . .
126(6) . . .
131(6) . . .
120(6) . . .
148(7) . . .
126(6) . . .
137(6) . . .
142(6) . . .
127(6) . . .
126(6) . . .
119(6) . . .
135(6) . . .
136(6) . . .
132(6) . . .
150(7) . . .
134(6) . . .
126(6) . . .
137(6) . . .
151(7) . . .
140(6) . . .
133(6) . . .
134(6) . . .
139(6) . . .
156(7) . . .
130(6) . . .
123(6) . . .
127(6) . . .
131(6) . . .
131(6) . . .
136(6) . . .
131(6) . . .
135(6) . . .
121(6) . . .
136(6) . . .
130(6) . . .
141(7) . . .
137(6) . . .
136(6) . . .
116(6) . . .
132(6) . . .
144(7) . . .
148(6) . . .
155(6) . . .
119(6) . . .
135(7) . . .
150(7) . . .
142(6) . . .
122(6) . . .
132(6) . . .
126(6) . . .
129(6) . . .
131(6) . . .
149(7) . . .
138(6) . . .
134(6) . . .
124(6) . . .
132(6) . . .
142(6) . . .
128(6) . . .
136(6) . . .
123(6) . . .
140(6) . . .
138(6) . . .
139(6) . . .
133(6) . . .
131(6) . . .
126(6) . . .
129(6) . . .
121(6) . . .
120(6) . . .
126(6) . . .
121(6) . . .
144(6) . . .
139(6) . . .
153(7) . . .
159(7) . . .
150(6) . . .
149(7) . . .
124(6) . . .
137(6) . . .
145(6) . . .
123(6) . . .
131(6) . . .
142(7) . . .
127(6) . . .
125(6) . . .
131(6) . . .
131(6) . . .
137(7) . . .
138(6) . . .
121(6) . . .
141(6) . . .
134(6) . . .
146(7) . . .
130(6) . . .
139(6) . . .
130(6) . . .
121(6) . . .
131(6) . . .
138(6) . . .
128(6) . . .
131(6) . . .
133(6) . . .
147(7) . . .
138(6) . . .
136(6) . . .
141(6) . . .
127(6) . . .
137(6) . . .
141(6) . . .
129(6) . . .
137(6) . . .
140(7) . . .
145(7) . . .
147(7) . . .
150(6) . . .
137(6) . . .
133(6) . . .
122(6) . . .
123(6) . . .
129(6) . . .
127(6) . . .
132(6) . . .
130(6) . . .
134(6) . . .
132(6) . . .
155(7) . . .
140(7) . . .
121(6) . . .
127(6) . . .
129(6) . . .
135(6) . . .
158(7) . . .
125(6) . . .
136(6) . . .
147(6) . . .
144(7) . . .
129(6) . . .
141(6) . . .
136(6) . . .
132(6) . . .
127(6) . . .
121(6) . . .
120(6) . . .
130(6) . . .
159(7) . . .
130(6) . . .
129(6) . . .
130(6) . . .
123(6) . . .
140(6) . . .
136(6) . . .
129(6) . . .
120(6) . . .
121(6) . . .
124(6) . . .
115(6) . . .
135(6) . . .
131(6) . . .
120(6) . . .
123(6) . . .
132(6) . . .
129(6) . . .
125(6) . . .
126(6) . . .
136(6) . . .
125(6) . . .
134(6) . . .
145(6) . . .
162(7) . . .
135(6) . . .
135(6) . . .
135(6) . . .
136(6) . . .
126(6) . . .
137(7) . . .
139(7) . . .
129(6) . . .
132(6) . . .
136(6) . . .
128(6) . . .
138(6) . . .
129(6) . . .
140(6) . . .
135(6) . . .
130(6) . . .
134(6) . . .
118(6) . . .
138(6) . . .
141(6) . . .
132(6) . . .
131(7) . . .
122(6) . . .
126(6) . . .
139(6) . . .
125(6) . . .
126(6) . . .
137(6) . . .
112(5) . . .
130(6) . . .
128(6) . . .
122(6) . . .
123(6) . . .
138(6) . . .
129(6) . . .
135(6) . . .
124(6) . . .
136(6) . . .
133(6) . . .
139(6) . . .
144(7) . . .
139(6) . . .
134(6) . . .
145(6) . . .
144(6) . . .
127(6) . . .
135(6) . . .
146(7) . . .
137(6) . . .
136(6) . . .
146(7) . . .
148(6) . . .
124(6) . . .
139(6) . . .
132(6) . . .
144(7) . . .
138(6) . . .
135(6) . . .
131(6) . . .
123(6) . . .
120(6) . . .
131(6) . . .
128(6) . . .
125(6) . . .
143(6) . . .
145(7) . . .
144(6) . . .
128(6) . . .
134(6) . . .
138(6) . . .
113(6) . . .
134(6) . . .
130(6) . . .
130(6) . . .
133(6) . . .
132(6) . . .
138(6) . . .
141(6) . . .
145(6) . . .
148(6) . . .
124(6) . . .
123(6) . . .
133(6) . . .
113(6) . . .
130(6) . . .
119(6) . . .
131(6) . . .
141(6) . . .
118(6) . . .
134(6) . . .
133(6) . . .
118(6) . . .
138(6) . . .
125(6) . . .
147(7) . . .
146(7) . . .
131(6) . . .
125(6) . . .
138(6) . . .
134(6) . . .
133(6) . . .
121(6) . . .
123(6) . . .
124(6) . . .
124(6) . . .
139(6) . . .
119(6) . . .
129(6) . . .
126(6) . . .
124(6) . . .
123(6) . . .
120(6) . . .
128(6) . . .
136(6) . . .
130(6) . . .
125(6) . . .
130(6) . . .
119(6) . . .
135(6) . . .
145(7) . . .
126(6) . . .
130(6) . . .
119(6) . . .
110(5) . . .
120(6) . . .
121(6) . . .
130(6) . . .
125(6) . . .
115(6) . . .
143(7) . . .
122(6) . . .
145(6) . . .
148(6) . . .
134(6) . . .
129(6) . . .
123(6) . . .
129(6) . . .
140(6) . . .
133(6) . . .
140(6) . . .
146(7) . . .
114(6) . . .
130(6) . . .
124(6) . . .
141(7) . . .
128(6) . . .
140(6) . . .
134(6) . . .
132(6) . . .
124(6) . . .
129(6) . . .
144(6) . . .
140(6) . . .
122(6) . . .
143(6) . . .
144(6) . . .
138(6) . . .
141(6) . . .
126(6) . . .
134(6) . . .
124(6) . . .
125(6) . . .
128(6) . . .
127(6) . . .
128(6) . . .
127(6) . . .
115(6) . . .
130(6) . . .
145(7) . . .
134(6) . . .
125(6) . . .
137(6) . . .
125(6) . . .
126(6) . . .
129(6) . . .
121(6) . . .
136(6) . . .
128(6) . . .
134(7) . . .
124(6) . . .
118(6) . . .
119(6) . . .
124(6) . . .
126(6) . . .
128(6) . . .
127(6) . . .
133(6) . . .
129(6) . . .
132(6) . . .
126(6) . . .
140(6) . . .
125(6) . . .
121(6) . . .
120(6) . . .
147(7) . . .
124(6) . . .
130(6) . . .
144(7) . . .
138(6) . . .
133(6) . . .
134(6) . . .
135(6) . . .
145(7) . . .
133(6) . . .
119(6) . . .
130(6) . . .
142(7) . . .
110(6) . . .
137(6) . . .
113(6) . . .
133(6) . . .
121(6) . . .
126(6) . . .
126(6) . . .
125(6) . . .
124(6) . . .
138(6) . . .
136(7) . . .
124(6) . . .
131(6) . . .
124(6) . . .
140(6) . . .
123(6) . . .
131(6) . . .
133(6) . . .
125(6) . . .
125(6) . . .
128(6) . . .
129(6) . . .
134(6) . . .
130(6) . . .
121(6) . . .
128(6) . . .
123(6) . . .
135(6) . . .
131(6) . . .
133(6) . . .
133(6) . . .
129(6) . . .
143(6) . . .
145(6) . . .
122(6) . . .
127(6) . . .
127(6) . . .
143(6) . . .
127(6) . . .
145(7) . . .
134(6) . . .
132(6) . . .
135(6) . . .
118(6) . . .
117(6) . . .
130(6) . . .
124(6) . . .
147(6) . . .
122(6) . . .
128(6) . . .
129(6) . . .
114(6) . . .
124(6) . . .
128(6) . . .
112(6) . . .
133(6) . . .
125(6) . . .
128(6) . . .
119(6) . . .
124(6) . . .
133(6) . . .
128(6) . . .
115(6) . . .
121(6) . . .
138(6) . . .
131(6) . . .
136(6) . . .
131(6) . . .
136(6) . . .
130(6) . . .
124(6) . . .
131(6) . . .
120(6) . . .
126(6) . . .
122(6) . . .
123(6) . . .
135(6) . . .
120(6) . . .
140(6) . . .
138(6) . . .
130(6) . . .
128(6) . . .
124(6) . . .
131(6) . . .
120(6) . . .
140(6) . . .
121(6) . . .
141(6) . . .
139(6) . . .
139(6) . . .
130(6) . . .
121(6) . . .
131(6) . . .
136(6) . . .
123(6) . . .
134(6) . . .
145(6) . . .
142(6) . . .
147(7) . . .
133(6) . . .
137(6) . . .
131(6) . . .
137(6) . . .
125(6) . . .
135(6) . . .
143(6) . . .
137(6) . . .
127(6) . . .
129(6) . . .
126(6) . . .
139(6) . . .
134(6) . . .
137(6) . . .
137(7) . . .
149(7) . . .
138(6) . . .
132(6) . . .
135(6) . . .
140(6) . . .
131(6) . . .
137(6) . . .
137(6) . . .
129(6) . . .
129(6) . . .
133(6) . . .
144(6) . . .
137(6) . . .
129(6) . . .
131(6) . . .
116(6) . . .
118(6) . . .
122(6) . . .
122(6) . . .
138(7) . . .
136(6) . . .
130(6) . . .
122(6) . . .
133(6) . . .
137(7) . . .
141(7) . . .
138(6) . . .
133(6) . . .
130(6) . . .
130(6) . . .
142(6) . . .
126(6) . . .
131(6) . . .
127(6) . . .
129(6) . . .
132(6) . . .
131(6) . . .
136(7) . . .
143(6) . . .
123(6) . . .
135(6) . . .
125(6) . . .
137(7) . . .
134(6) . . .
133(6) . . .
131(6) . . .
133(6) . . .
130(6) . . .
129(6) . . .
121(6) . . .
139(6) . . .
137(6) . . .
119(6) . . .
136(6) . . .
133(6) . . .
133(6) . . .
132(6) . . .
126(6) . . .
129(6) . . .
143(6) . . .
120(6) . . .
123(6) . . .
137(6) . . .
148(7) . . .
151(6) . . .
129(6) . . .
132(6) . . .
131(6) . . .
129(6) . . .
110(6) . . .
125(6) . . .
135(6) . . .
127(6) . . .
132(6) . . .
138(6) . . .
112(5) . . .
121(6) . . .
135(6) . . .
131(6) . . .
130(6) . . .
133(6) . . .
141(6) . . .
136(6) . . .
147(7) . . .
135(6) . . .
122(6) . . .
126(6) . . .
121(6) . . .
127(6) . . .
131(6) . . .
117(6) . . .
135(6) . . .
122(6) . . .
130(6) . . .
130(6) . . .
142(6) . . .
133(6) . . .
112(6) . . .
135(6) . . .
136(6) . . .
122(6) . . .
138(6) . . .
131(6) . . .
134(6) . . .
134(6) . . .
115(6) . . .
121(6) . . .
149(7) . . .
137(6) . . .
120(6) . . .
114(6) . . .
132(6) . . .
129(6) . . .
129(6) . . .
137(6) . . .
120(6) . . .
121(6) . . .
140(6) . . .
130(6) . . .
130(6) . . .
128(6) . . .
122(6) . . .
122(6) . . .
129(6) . . .
140(6) . . .
134(6) . . .
136(6) . . .
129(6) . . .
110(6) . . .
124(6) . . .
120(6) . . .
127(6) . . .
123(6) . . .
120(6) . . .
127(6) . . .
129(6) . . .
131(6) . . .
139(6) . . .
132(6) . . .
126(6) . . .
134(6) . . .
122(6) . . .
132(6) . . .
145(6) . . .
126(6) . . .
130(6) . . .
124(6) . . .
135(6) . . .
134(6) . . .
130(6) . . .
127(6) . . .
123(6) . . .
144(6) . . .
127(6) . . .
123(6) . . .
130(6) . . .
127(6) . . .
141(6) . . .
119(6) . . .
123(6) . . .
123(6) . . .
129(6) . . .
128(6) . . .
123(6) . . .
134(6) . . .
115(6) . . .
120(6) . . .
110(6) . . .
136(6) . . .
139(6) . . .
119(6) . . .
126(6) . . .
123(6) . . .
145(6) . . .
130(6) . . .
123(6) . . .
137(6) . . .
130(6) . . .
138(6) . . .
124(6) . . .
128(6) . . .
136(6) . . .
115(6) . . .
108(5) . . .
104(5) . . .
126(6) . . .
134(6) . . .
120(6) . . .
129(6) . . .
123(6) . . .
131(6) . . .
135(6) . . .
137(6) . . .
147(6) . . .
135(6) . . .
133(6) . . .
129(6) . . .
130(6) . . .
133(6) . . .
124(6) . . .
133(6) . . .
133(6) . . .
127(6) . . .
129(6) . . .
126(6) . . .
133(6) . . .
126(6) . . .
135(6) . . .
130(6) . . .
130(6) . . .
124(6) . . .
144(7) . . .
121(6) . . .
120(6) . . .
123(6) . . .
118(6) . . .
137(7) . . .
120(6) . . .
128(6) . . .
120(6) . . .
117(6) . . .
115(6) . . .
117(6) . . .
120(6) . . .
115(6) . . .
129(6) . . .
120(6) . . .
115(6) . . .
137(6) . . .
128(6) . . .
121(6) . . .
127(6) . . .
129(6) . . .
142(6) . . .
129(6) . . .
122(6) . . .
136(6) . . .
122(6) . . .
130(6) . . .
116(6) . . .
134(6) . . .
116(6) . . .
127(6) . . .
125(6) . . .
117(6) . . .
124(6) . . .
124(6) . . .
137(6) . . .
129(6) . . .
121(6) . . .
122(6) . . .
112(6) . . .
112(5) . . .
126(6) . . .
125(6) . . .
127(6) . . .
135(6) . . .
142(6) . . .
125(6) . . .
123(6) . . .
122(6) . . .
127(6) . . .
121(6) . . .
130(6) . . .
138(6) . . .
121(6) . . .
125(6) . . .
121(6) . . .
135(6) . . .
129(6) . . .
111(6) . . .
132(6) . . .
135(6) . . .
127(6) . . .
121(6) . . .
137(6) . . .
128(6) . . .
125(6) . . .
135(6) . . .
125(6) . . .
117(6) . . .
118(6) . . .
111(6) . . .
128(6) . . .
124(6) . . .
119(6) . . .
118(6) . . .
119(6) . . .
137(6) . . .
130(6) . . .
139(6) . . .
131(6) . . .
123(6) . . .
129(6) . . .
120(6) . . .
125(6) . . .
122(6) . . .
106(6) . . .
129(6) . . .
127(6) . . .
121(6) . . .
128(6) . . .
139(6) . . .
128(6) . . .
136(6) . . .
118(6) . . .
140(6) . . .
138(6) . . .
129(6) . . .
125(6) . . .
121(6) . . .
124(6) . . .
130(6) . . .
127(6) . . .
125(6) . . .
137(6) . . .
134(6) . . .
131(6) . . .
122(6) . . .
140(7) . . .
139(6) . . .
112(6) . . .
124(6) . . .
128(6) . . .
128(6) . . .
125(6) . . .
114(6) . . .
120(6) . . .
121(6) . . .
135(6) . . .
134(6) . . .
126(6) . . .
117(6) . . .
118(6) . . .
116(6) . . .
113(6) . . .
127(6) . . .
128(6) . . .
128(6) . . .
130(6) . . .
134(6) . . .
116(6) . . .
135(6) . . .
126(6) . . .
117(6) . . .
117(6) . . .
136(6) . . .
122(6) . . .
125(6) . . .
136(6) . . .
123(6) . . .
125(6) . . .
119(6) . . .
123(6) . . .
130(6) . . .
137(6) . . .
140(6) . . .
105(6) . . .
112(6) . . .
136(6) . . .
119(6) . . .
122(6) . . .
125(6) . . .
125(6) . . .
121(6) . . .
126(6) . . .
117(6) . . .
122(6) . . .
126(6) . . .
124(6) . . .
121(6) . . .
123(6) . . .
125(6) . . .
131(6) . . .
106(5) . . .
125(6) . . .
120(6) . . .
123(6) . . .
124(6) . . .
117(6) . . .
122(6) . . .
135(6) . . .
120(6) . . .
119(6) . . .
138(6) . . .
131(6) . . .
120(6) . . .
128(6) . . .
132(6) . . .
136(6) . . .
126(6) . . .
117(6) . . .
134(6) . . .
131(6) . . .
127(6) . . .
123(6) . . .
122(6) . . .
130(6) . . .
132(6) . . .
129(6) . . .
123(6) . . .
121(6) . . .
129(6) . . .
119(6) . . .
118(6) . . .
122(6) . . .
132(6) . . .
125(6) . . .
126(6) . . .
119(6) . . .
122(6) . . .
131(6) . . .
128(6) . . .
128(6) . . .
124(6) . . .
132(6) . . .
130(6) . . .
113(6) . . .
119(6) . . .
126(6) . . .
120(6) . . .
130(6) . . .
121(6) . . .
115(6) . . .
113(6) . . .
109(5) . . .
121(6) . . .
125(6) . . .
109(5) . . .
121(6) . . .
121(6) . . .
125(6) . . .
129(6) . . .
123(6) . . .
114(6) . . .
115(6) . . .
116(6) . . .
119(6) . . .
116(6) . . .
113(6) . . .
123(6) . . .
111(5) . . .
122(6) . . .
115(6) . . .
119(6) . . .
134(6) . . .
124(6) . . .
129(6) . . .
128(6) . . .
114(6) . . .
114(6) . . .
111(6) . . .
122(6) . . .
129(6) . . .
121(6) . . .
127(6) . . .
126(6) . . .
124(6) . . .
114(5) . . .
116(6) . . .
127(6) . . .
136(6) . . .
128(6) . . .
118(6) . . .
123(6) . . .
128(6) . . .
129(6) . . .
106(5) . . .
112(6) . . .
112(6) . . .
109(6) . . .
121(6) . . .
128(6) . . .
140(6) . . .
122(6) . . .
119(6) . . .
129(6) . . .
121(6) . . .
121(6) . . .
127(6) . . .
103(6) . . .
125(6) . . .
113(6) . . .
117(6) . . .
101(5) . . .
128(6) . . .
121(6) . . .
125(6) . . .
128(6) . . .
120(6) . . .
123(6) . . .
120(6) . . .
131(6) . . .
136(6) . . .
130(6) . . .
135(6) . . .
111(6) . . .
129(6) . . .
128(6) . . .
119(6) . . .
111(5) . . .
122(6) . . .
116(6) . . .
117(6) . . .
119(6) . . .
129(6) . . .
126(6) . . .
135(6) . . .
131(6) . . .
106(6) . . .
122(6) . . .
113(6) . . .
122(6) . . .
116(6) . . .
121(6) . . .
126(6) . . .
124(6) . . .
121(6) . . .
133(6) . . .
116(6) . . .
106(6) . . .
129(6) . . .
135(6) . . .
138(6) . . .
120(6) . . .
117(6) . . .
106(5) . . .
116(6) . . .
118(6) . . .
128(6) . . .
111(6) . . .
131(6) . . .
133(6) . . .
117(6) . . .
111(6) . . .
122(6) . . .
136(6) . . .
106(5) . . .
132(6) . . .
108(6) . . .
119(6) . . .
129(6) . . .
102(6) . . .
121(6) . . .
127(6) . . .
117(6) . . .
133(6) . . .
129(6) . . .
114(6) . . .
117(6) . . .
119(6) . . .
102(5) . . .
118(6) . . .
121(6) . . .
100(5) . . .
115(5) . . .
122(6) . . .
109(6) . . .
109(6) . . .
123(6) . . .
138(6) . . .
120(6) . . .
115(6) . . .
120(6) . . .
118(6) . . .
127(6) . . .
115(6) . . .
125(6) . . .
110(6) . . .
118(6) . . .
124(6) . . .
131(6) . . .
121(6) . . .
125(6) . . .
109(6) . . .
118(6) . . .
121(6) . . .
128(6) . . .
127(6) . . .
124(6) . . .
122(6) . . .
116(6) . . .
106(5) . . .
126(6) . . .
139(6) . . .
110(5) . . .
117(6) . . .
113(6) . . .
116(6) . . .
128(6) . . .
132(6) . . .
115(6) . . .
124(6) . . .
130(6) . . .
127(6) . . .
127(6) . . .
123(6) . . .
135(7) . . .
126(6) . . .
128(6) . . .
116(6) . . .
127(6) . . .
113(6) . . .
113(6) . . .
131(6) . . .
120(6) . . .
119(6) . . .
130(6) . . .
127(6) . . .
114(6) . . .
122(6) . . .
132(6) . . .
124(6) . . .
119(6) . . .
121(6) . . .
116(6) . . .
115(6) . . .
125(6) . . .
128(6) . . .
131(6) . . .
127(6) . . .
121(6) . . .
123(6) . . .
121(6) . . .
115(6) . . .
139(6) . . .
124(6) . . .
113(6) . . .
116(6) . . .
130(6) . . .
135(6) . . .
127(6) . . .
121(6) . . .
121(6) . . .
127(6) . . .
118(6) . . .
117(6) . . .
120(6) . . .
119(6) . . .
130(6) . . .
129(6) . . .
133(6) . . .
137(6) . . .
128(6) . . .
108(5) . . .
126(6) . . .
116(6) . . .
113(6) . . .
115(6) . . .
125(6) . . .
128(6) . . .
119(6) . . .
125(6) . . .
127(6) . . .
130(6) . . .
137(6) . . .
121(6) . . .
115(6) . . .
129(6) . . .
126(6) . . .
133(6) . . .
113(6) . . .
116(6) . . .
116(6) . . .
116(6) . . .
126(6) . . .
124(6) . . .
125(6) . . .
129(6) . . .
123(6) . . .
112(6) . . .
121(6) . . .
128(6) . . .
122(6) . . .
127(6) . . .
120(6) . . .
124(6) . . .
131(6) . . .
116(6) . . .
131(6) . . .
126(6) . . .
113(6) . . .
115(6) . . .
147(6) . . .
112(6) . . .
121(6) . . .
136(6) . . .
116(6) . . .
117(6) . . .
129(6) . . .
118(6) . . .
117(6) . . .
109(6) . . .
129(6) . . .
112(6) . . .
126(6) . . .
124(6) . . .
122(6) . . .
128(6) . . .
123(6) . . .
121(6) . . .
112(6) . . .
117(6) . . .
102(5) . . .
132(6) . . .
119(6) . . .
123(6) . . .
116(6) . . .
123(6) . . .
117(6) . . .
116(6) . . .
122(6) . . .
120(6) . . .
112(6) . . .
114(6) . . .
127(6) . . .
125(6) . . .
119(6) . . .
129(6) . . .
132(6) . . .
136(6) . . .
132(6) . . .
127(6) . . .
124(6) . . .
120(6) . . .
123(6) . . .
123(6) . . .
129(6) . . .
129(6) . . .
113(6) . . .
124(6) . . .
112(6) . . .
117(6) . . .
127(6) . . .
122(6) . . .
122(6) . . .
117(6) . . .
124(6) . . .
131(6) . . .
129(6) . . .
120(6) . . .
109(5) . . .
119(6) . . .
127(6) . . .
113(6) . . .
106(6) . . .
120(6) . . .
110(5) . . .
112(6) . . .
115(6) . . .
116(6) . . .
104(5) . . .
108(5) . . .
111(6) . . .
119(6) . . .
123(6) . . .
130(6) . . .
123(6) . . .
106(5) . . .
113(6) . . .
129(6) . . .
127(6) . . .
119(6) . . .
122(6) . . .
125(6) . . .
111(6) . . .
112(5) . . .
131(6) . . .
116(6) . . .
127(6) . . .
131(6) . . .
114(6) . . .
121(6) . . .
116(6) . . .
96(6) . . .
103(5) . . .
122(6) . . .
126(6) . . .
119(6) . . .
120(6) . . .
114(6) . . .
121(6) . . .
121(6) . . .
118(6) . . .
111(6) . . .
105(5) . . .
114(5) . . .
121(6) . . .
132(6) . . .
131(6) . . .
111(6) . . .
116(6) . . .
113(6) . . .
115(6) . . .
123(6) . . .
104(5) . . .
130(6) . . .
132(6) . . .
114(6) . . .
124(6) . . .
122(6) . . .
122(6) . . .
118(6) . . .
114(6) . . .
105(6) . . .
115(6) . . .
113(6) . . .
116(6) . . .
107(6) . . .
110(6) . . .
112(6) . . .
125(6) . . .
104(5) . . .
122(6) . . .
117(6) . . .
117(6) . . .
123(6) . . .
127(6) . . .
128(6) . . .
122(6) . . .
108(5) . . .
117(6) . . .
115(6) . . .
124(6) . . .
118(6) . . .
134(6) . . .
111(5) . . .
124(6) . . .
122(6) . . .
114(6) . . .
113(6) . . .
114(6) . . .
99(5) . . .
134(7) . . .
122(6) . . .
122(6) . . .
107(5) . . .
106(5) . . .
116(6) . . .
124(6) . . .
114(5) . . .
108(6) . . .
112(6) . . .
106(5) . . .
110(6) . . .
131(6) . . .
121(6) . . .
116(6) . . .
134(6) . . .
125(6) . . .
113(5) . . .
132(6) . . .
120(6) . . .
116(6) . . .
111(6) . . .
121(6) . . .
106(5) . . .
103(5) . . .
136(6) . . .
120(6) . . .
115(6) . . .
98(5) . . .
123(6) . . .
119(6) . . .
110(5) . . .
117(6) . . .
119(6) . . .
128(6) . . .
120(6) . . .
118(6) . . .
126(6) . . .
110(6) . . .
113(6) . . .
105(5) . . .
117(6) . . .
126(6) . . .
123(6) . . .
112(6) . . .
114(6) . . .
115(6) . . .
119(6) . . .
102(5) . . .
111(6) . . .
117(6) . . .
114(6) . . .
124(6) . . .
114(6) . . .
127(6) . . .
128(6) . . .
114(6) . . .
115(6) . . .
115(6) . . .
110(6) . . .
127(6) . . .
108(5) . . .
128(6) . . .
121(6) . . .
121(6) . . .
111(6) . . .
121(6) . . .
115(6) . . .
109(6) . . .
118(6) . . .
119(6) . . .
117(6) . . .
128(6) . . .
116(6) . . .
111(5) . . .
118(6) . . .
123(6) . . .
117(6) . . .
126(6) . . .
135(6) . . .
117(6) . . .
111(6) . . .
129(6) . . .
118(6) . . .
125(6) . . .
124(6) . . .
112(5) . . .
127(6) . . .
115(6) . . .
126(6) . . .
124(6) . . .
112(6) . . .
126(6) . . .
119(6) . . .
114(6) . . .
111(5) . . .
119(6) . . .
129(6) . . .
125(6) . . .
103(5) . . .
118(6) . . .
123(6) . . .
123(6) . . .
112(6) . . .
133(6) . . .
135(6) . . .
121(6) . . .
110(6) . . .
126(6) . . .
117(6) . . .
118(6) . . .
114(6) . . .
143(7) . . .
126(6) . . .
113(6) . . .
115(6) . . .
121(6) . . .
124(6) . . .
111(6) . . .
123(6) . . .
98(5) . . .
107(6) . . .
102(6) . . .
110(6) . . .
122(6) . . .
128(6) . . .
127(6) . . .
125(6) . . .
117(6) . . .
117(6) . . .
131(6) . . .
114(6) . . .
122(6) . . .
110(5) . . .
125(6) . . .
121(6) . . .
107(6) . . .
121(6) . . .
124(6) . . .
115(6) . . .
119(6) . . .
138(6) . . .
129(6) . . .
128(6) . . .
125(6) . . .
111(5) . . .
126(6) . . .
137(7) . . .
130(6) . . .
120(6) . . .
121(6) . . .
121(6) . . .
127(6) . . .
129(6) . . .
133(6) . . .
137(6) . . .
117(6) . . .
115(6) . . .
134(6) . . .
129(6) . . .
122(6) . . .
121(6) . . .
124(6) . . .
121(6) . . .
116(6) . . .
114(6) . . .
125(6) . . .
120(6) . . .
126(6) . . .
114(6) . . .
135(6) . . .
131(6) . . .
114(6) . . .
108(5) . . .
114(6) . . .
114(6) . . .
111(6) . . .
114(6) . . .
114(6) . . .
123(6) . . .
123(6) . . .
124(6) . . .
101(5) . . .
116(6) . . .
122(6) . . .
124(6) . . .
116(6) . . .
113(6) . . .
120(6) . . .
113(6) . . .
103(5) . . .
127(6) . . .
103(5) . . .
133(6) . . .
122(6) . . .
116(6) . . .
127(6) . . .
120(6) . . .
110(5) . . .
104(5) . . .
109(5) . . .
122(6) . . .
113(6) . . .
104(5) . . .
116(6) . . .
113(6) . . .
118(6) . . .
102(5) . . .
104(5) . . .
123(6) . . .
119(6) . . .
102(5) . . .
122(6) . . .
111(5) . . .
112(6) . . .
118(6) . . .
113(6) . . .
122(6) . . .
110(5) . . .
121(6) . . .
129(6) . . .
124(6) . . .
115(6) . . .
114(6) . . .
110(6) . . .
115(6) . . .
130(6) . . .
111(5) . . .
122(6) . . .
117(6) . . .
113(6) . . .
116(6) . . .
110(5) . . .
107(6) . . .
113(6) . . .
105(6) . . .
108(6) . . .
101(5) . . .
110(6) . . .
103(5) . . .
116(6) . . .
117(6) . . .
112(5) . . .
108(6) . . .
114(6) . . .
124(6) . . .
118(6) . . .
115(6) . . .
116(6) . . .
122(6) . . .
109(6) . . .
108(6) . . .
106(5) . . .
110(6) . . .
112(6) . . .
107(5) . . .
113(6) . . .
107(5) . . .
113(6) . . .
123(6) . . .
108(6) . . .
107(6) . . .
124(6) . . .
116(6) . . .
116(6) . . .
114(6) . . .
108(5) . . .
116(6) . . .
119(6) . . .
112(6) . . .
119(6) . . .
124(6) . . .
139(6) . . .
120(6) . . .
123(6) . . .
101(6) . . .
113(6) . . .
101(5) . . .
122(6) . . .
126(6) . . .
109(5) . . .
120(6) . . .
119(6) . . .
116(6) . . .
110(6) . . .
115(6) . . .
132(6) . . .
100(5) . . .
114(6) . . .
127(6) . . .
122(6) . . .
128(6) . . .
112(6) . . .
112(6) . . .
115(6) . . .
127(6) . . .
105(5) . . .
133(6) . . .
114(6) . . .
117(6) . . .
123(6) . . .
115(6) . . .
116(6) . . .
110(5) . . .
112(6) . . .
120(6) . . .
117(6) . . .
120(6) . . .
116(6) . . .
113(6) . . .
113(6) . . .
106(5) . . .
107(5) . . .
121(6) . . .
132(6) . . .
115(6) . . .
114(6) . . .
99(5) . . .
119(6) . . .
103(5) . . .
103(5) . . .
116(6) . . .
108(6) . . .
102(6) . . .
120(6) . . .
120(6) . . .
113(6) . . .
115(6) . . .
123(6) . . .
121(6) . . .
125(6) . . .
118(6) . . .
113(6) . . .
120(6) . . .
117(6) . . .
115(6) . . .
122(6) . . .
114(6) . . .
123(6) . . .
117(6) . . .
116(6) . . .
129(6) . . .
112(6) . . .
117(6) . . .
126(6) . . .
121(6) . . .
121(6) . . .
110(6) . . .
129(6) . . .
110(6) . . .
108(5) . . .
110(5) . . .
121(6) . . .
123(6) . . .
114(6) . . .
129(6) . . .
123(6) . . .
128(6) . . .
100(5) . . .
110(6) . . .
120(6) . . .
123(6) . . .
107(6) . . .
124(6) . . .
116(6) . . .
115(6) . . .
130(6) . . .
118(6) . . .
137(7) . . .
110(6) . . .
134(6) . . .
109(5) . . .
115(6) . . .
114(6) . . .
125(6) . . .
124(6) . . .
118(6) . . .
129(6) . . .
115(6) . . .
111(5) . . .
114(6) . . .
114(6) . . .
126(6) . . .
113(6) . . .
110(5) . . .
113(6) . . .
113(6) . . .
109(6) . . .
104(6) . . .
118(6) . . .
117(6) . . .
103(5) . . .
121(6) . . .
107(6) . . .
114(6) . . .
115(6) . . .
109(6) . . .
116(6) . . .
117(6) . . .
94(5) . . .
110(5) . . .
117(6) . . .
103(6) . . .
108(6) . . .
112(5) . . .
101(5) . . .
107(6) . . .
118(6) . . .
110(6) . . .
108(5) . . .
99(5) . . .
102(6) . . .
97(5) . . .
117(6) . . .
125(6) . . .
119(6) . . .
111(6) . . .
113(6) . . .
94(5) . . .
109(5) . . .
121(6) . . .
106(6) . . .
114(6) . . .
132(6) . . .
117(6) . . .
112(6) . . .
124(6) . . .
102(5) . . .
130(6) . . .
104(5) . . .
115(6) . . .
120(6) . . .
123(6) . . .
120(6) . . .
111(6) . . .
106(6) . . .
109(6) . . .
113(6) . . .
117(6) . . .
111(5) . . .
120(6) . . .
127(6) . . .
114(6) . . .
126(6) . . .
109(5) . . .
124(6) . . .
109(6) . . .
114(6) . . .
124(6) . . .
104(6) . . .
113(6) . . .
119(6) . . .
110(5) . . .
108(5) . . .
104(6) . . .
118(6) . . .
110(6) . . .
114(6) . . .
117(6) . . .
113(6) . . .
110(6) . . .
113(6) . . .
112(6) . . .
113(6) . . .
114(6) . . .
104(5) . . .
120(6) . . .
123(6) . . .
119(6) . . .
116(6) . . .
111(6) . . .
113(6) . . .
118(6) . . .
107(5) . . .
109(6) . . .
105(5) . . .
124(6) . . .
115(6) . . .
111(5) . . .
103(5) . . .
102(6) . . .
103(6) . . .
104(5) . . .
121(6) . . .
108(6) . . .
88(5) . . .
93(5) . . .
104(5) . . .
107(5) . . .
118(6) . . .
105(6) . . .
105(6) . . .
105(5) . . .
111(6) . . .
124(6) . . .
112(6) . . .
106(6) . . .
107(5) . . .
99(5) . . .
105(5) . . .
116(6) . . .
117(6) . . .
96(5) . . .
114(6) . . .
117(6) . . .
109(6) . . .
102(5) . . .
108(5) . . .
105(6) . . .
100(5) . . .
115(6) . . .
103(5) . . .
124(6) . . .
119(6) . . .
111(6) . . .
122(6) . . .
120(6) . . .
116(6) . . .
107(6) . . .
99(5) . . .
113(6) . . .
124(6) . . .
119(6) . . .
118(6) . . .
94(6) . . .
106(5) . . .
126(6) . . .
110(5) . . .
117(6) . . .
94(5) . . .
108(5) . . .
110(5) . . .
116(6) . . .
102(6) . . .
109(6) . . .
100(5) . . .
97(5) . . .
97(5) . . .
115(6) . . .
120(6) . . .
116(6) . . .
105(5) . . .
113(6) . . .
116(6) . . .
109(6) . . .
112(6) . . .
117(6) . . .
120(6) . . .
113(6) . . .
112(6) . . .
102(5) . . .
120(6) . . .
107(5) . . .
101(6) . . .
101(6) . . .
110(6) . . .
112(5) . . .
105(5) . . .
128(6) . . .
109(5) . . .
121(6) . . .
112(6) . . .
111(6) . . .
112(6) . . .
117(6) . . .
118(6) . . .
100(5) . . .
121(6) . . .
105(6) . . .
107(5) . . .
116(6) . . .
115(6) . . .
99(5) . . .
125(6) . . .
105(5) . . .
113(6) . . .
118(6) . . .
112(6) . . .
124(6) . . .
110(6) . . .
118(6) . . .
114(6) . . .
99(5) . . .
112(6) . . .
107(6) . . .
119(6) . . .
122(6) . . .
111(6) . . .
96(5) . . .
108(6) . . .
104(5) . . .
102(5) . . .
99(5) . . .
94(5) . . .
122(6) . . .
135(6) . . .
119(6) . . .
111(5) . . .
109(6) . . .
110(6) . . .
110(5) . . .
114(6) . . .
122(6) . . .
110(6) . . .
121(6) . . .
110(5) . . .
98(5) . . .
124(6) . . .
114(6) . . .
115(6) . . .
115(6) . . .
119(6) . . .
108(6) . . .
102(5) . . .
105(5) . . .
122(6) . . .
107(6) . . .
104(6) . . .
106(6) . . .
121(6) . . .
119(6) . . .
122(6) . . .
113(6) . . .
113(6) . . .
114(6) . . .
118(6) . . .
95(5) . . .
124(6) . . .
140(6) . . .
119(6) . . .
116(6) . . .
142(6) . . .
120(6) . . .
121(6) . . .
117(6) . . .
108(5) . . .
112(6) . . .
108(6) . . .
111(6) . . .
120(6) . . .
104(5) . . .
124(6) . . .
122(6) . . .
118(6) . . .
113(6) . . .
105(5) . . .
112(6) . . .
125(6) . . .
114(6) . . .
112(5) . . .
107(5) . . .
106(6) . . .
122(6) . . .
112(6) . . .
105(5) . . .
126(6) . . .
122(6) . . .
106(6) . . .
108(6) . . .
122(6) . . .
107(5) . . .
112(6) . . .
110(5) . . .
133(6) . . .
124(6) . . .
114(6) . . .
111(6) . . .
107(5) . . .
120(6) . . .
106(5) . . .
120(6) . . .
115(6) . . .
123(6) . . .
121(6) . . .
120(6) . . .
115(6) . . .
111(6) . . .
102(6) . . .
107(5) . . .
112(6) . . .
116(6) . . .
117(6) . . .
109(5) . . .
104(5) . . .
94(5) . . .
99(5) . . .
108(6) . . .
117(6) . . .
101(5) . . .
114(6) . . .
111(5) . . .
113(6) . . .
112(6) . . .
114(6) . . .
117(6) . . .
110(6) . . .
113(6) . . .
121(6) . . .
111(5) . . .
108(5) . . .
133(6) . . .
106(5) . . .
113(6) . . .
113(5) . . .
103(5) . . .
105(6) . . .
119(6) . . .
126(6) . . .
112(6) . . .
111(6) . . .
115(6) . . .
109(6) . . .
123(6) . . .
121(6) . . .
103(6) . . .
113(6) . . .
108(6) . . .
123(6) . . .
112(6) . . .
121(6) . . .
119(6) . . .
116(6) . . .
102(5) . . .
105(5) . . .
112(6) . . .
120(6) . . .
121(6) . . .
108(6) . . .
122(6) . . .
116(6) . . .
116(6) . . .
121(6) . . .
118(6) . . .
135(6) . . .
104(5) . . .
114(6) . . .
110(6) . . .
110(5) . . .
102(5) . . .
117(6) . . .
108(6) . . .
106(6) . . .
86(5) . . .
114(6) . . .
122(6) . . .
116(6) . . .
98(5) . . .
124(6) . . .
113(6) . . .
113(6) . . .
115(6) . . .
122(6) . . .
117(6) . . .
114(6) . . .
128(6) . . .
101(5) . . .
104(5) . . .
98(5) . . .
101(5) . . .
97(5) . . .
103(5) . . .
110(5) . . .
124(6) . . .
106(6) . . .
115(6) . . .
112(6) . . .
114(6) . . .
109(5) . . .
103(5) . . .
118(6) . . .
114(6) . . .
105(5) . . .
113(5) . . .
132(6) . . .
115(6) . . .
106(5) . . .
95(5) . . .
101(5) . . .
113(6) . . .
107(6) . . .
121(6) . . .
112(6) . . .
113(6) . . .
107(5) . . .
100(6) . . .
113(6) . . .
118(6) . . .
111(5) . . .
103(5) . . .
118(6) . . .
114(6) . . .
101(5) . . .
117(6) . . .
93(5) . . .
108(6) . . .
116(6) . . .
116(6) . . .
101(5) . . .
96(5) . . .
108(6) . . .
110(6) . . .
97(5) . . .
99(5) . . .
97(5) . . .
96(5) . . .
97(5) . . .
119(6) . . .
110(5) . . .
105(5) . . .
108(6) . . .
97(5) . . .
122(6) . . .
117(6) . . .
96(5) . . .
117(6) . . .
115(6) . . .
116(6) . . .
119(6) . . .
92(5) . . .
104(6) . . .
103(5) . . .
111(6) . . .
115(6) . . .
116(6) . . .
114(6) . . .
92(5) . . .
107(5) . . .
124(6) . . .
109(6) . . .
104(5) . . .
109(5) . . .
113(5) . . .
114(6) . . .
121(6) . . .
99(5) . . .
110(5) . . .
115(6) . . .
123(6) . . .
123(6) . . .
119(6) . . .
100(5) . . .
103(5) . . .
92(5) . . .
108(6) . . .
112(6) . . .
106(5) . . .
104(5) . . .
113(6) . . .
125(6) . . .
113(6) . . .
116(6) . . .
106(5) . . .
95(5) . . .
102(5) . . .
104(5) . . .
111(6) . . .
91(5) . . .
103(6) . . .
114(6) . . .
109(6) . . .
100(5) . . .
104(6) . . .
95(5) . . .
104(6) . . .
107(5) . . .
111(5) . . .
97(5) . . .
109(6) . . .
110(6) . . .
113(5) . . .
109(5) . . .
105(6) . . .
111(6) . . .
125(6) . . .
124(6) . . .
114(6) . . .
110(6) . . .
99(6) . . .
97(5) . . .
108(5) . . .
109(5) . . .
119(6) . . .
107(6) . . .
100(5) . . .
108(5) . . .
110(5) . . .
109(5) . . .
108(6) . . .
121(6) . . .
123(6) . . .
90(5) . . .
104(6) . . .
106(6) . . .
108(6) . . .
103(5) . . .
107(5) . . .
112(6) . . .
105(6) . . .
97(6) . . .
102(5) . . .
114(6) . . .
107(6) . . .
111(6) . . .
115(6) . . .
99(5) . . .
111(6) . . .
112(6) . . .
108(6) . . .
98(5) . . .
110(5) . . .
109(6) . . .
112(6) . . .
126(6) . . .
98(5) . . .
97(5) . . .
122(6) . . .
100(5) . . .
119(6) . . .
124(6) . . .
101(5) . . .
106(6) . . .
100(5) . . .
124(6) . . .
109(5) . . .
103(5) . . .
120(6) . . .
114(6) . . .
99(5) . . .
109(5) . . .
101(5) . . .
99(5) . . .
103(6) . . .
91(5) . . .
98(5) . . .
120(6) . . .
104(6) . . .
97(5) . . .
108(6) . . .
119(6) . . .
104(5) . . .
99(5) . . .
100(5) . . .
101(5) . . .
108(5) . . .
112(6) . . .
101(5) . . .
109(6) . . .
93(5) . . .
97(5) . . .
105(6) . . .
112(6) . . .
105(6) . . .
121(6) . . .
102(5) . . .
112(6) . . .
122(6) . . .
122(6) . . .
113(6) . . .
98(5) . . .
108(6) . . .
111(6) . . .
99(5) . . .
109(5) . . .
121(6) . . .
92(5) . . .
104(6) . . .
106(5) . . .
107(5) . . .
132(6) . . .
117(6) . . .
105(6) . . .
105(5) . . .
95(5) . . .
101(5) . . .
106(6) . . .
114(6) . . .
93(5) . . .
109(5) . . .
112(6) . . .
104(6) . . .
103(6) . . .
106(6) . . .
104(5) . . .
88(5) . . .
95(5) . . .
107(6) . . .
116(6) . . .
103(5) . . .
110(6) . . .
106(6) . . .
105(6) . . .
105(5) . . .
110(5) . . .
109(5) . . .
112(6) . . .
102(6) . . .
123(6) . . .
109(5) . . .
118(6) . . .
103(6) . . .
106(6) . . .
109(6) . . .
108(5) . . .
98(5) . . .
102(5) . . .
95(5) . . .
95(5) . . .
103(5) . . .
96(5) . . .
109(6) . . .
101(5) . . .
115(6) . . .
110(5) . . .
93(5) . . .
95(5) . . .
99(5) . . .
105(5) . . .
108(5) . . .
112(6) . . .
110(6) . . .
98(5) . . .
92(5) . . .
95(5) . . .
107(6) . . .
120(6) . . .
111(6) . . .
114(6) . . .
90(5) . . .
107(6) . . .
111(6) . . .
101(5) . . .
116(6) . . .
94(5) . . .
102(5) . . .
119(6) . . .
109(6) . . .
99(5) . . .
99(5) . . .
114(6) . . .
98(6) . . .
102(5) . . .
89(5) . . .
97(5) . . .
91(5) . . .
115(6) . . .
100(6) . . .
100(5) . . .
112(6) . . .
101(5) . . .
109(6) . . .
116(6) . . .
105(5) . . .
104(5) . . .
107(6) . . .
109(6) . . .
104(6) . . .
97(5) . . .
106(5) . . .
116(6) . . .
91(5) . . .
104(5) . . .
106(5) . . .
100(5) . . .
101(5) . . .
108(6) . . .
112(6) . . .
113(5) . . .
104(5) . . .
108(6) . . .
106(6) . . .
107(5) . . .
100(5) . . .
101(5) . . .
107(6) . . .
129(6) . . .
109(5) . . .
107(5) . . .
101(5) . . .
111(6) . . .
103(5) . . .
106(5) . . .
109(5) . . .
106(6) . . .
112(6) . . .
101(5) . . .
96(5) . . .
107(5) . . .
108(6) . . .
111(6) . . .
115(6) . . .
105(5) . . .
109(5) . . .
116(6) . . .
121(6) . . .
116(6) . . .
106(5) . . .
81(5) . . .
100(5) . . .
114(6) . . .
108(5) . . .
120(6) . . .
113(6) . . .
102(6) . . .
99(5) . . .
110(6) . . .
99(5) . . .
109(6) . . .
120(6) . . .
111(6) . . .
86(5) . . .
104(5) . . .
107(6) . . .
103(6) . . .
98(5) . . .
103(5) . . .
97(5) . . .
112(6) . . .
110(6) . . .
102(5) . . .
110(5) . . .
112(5) . . .
103(5) . . .
107(6) . . .
114(6) . . .
97(5) . . .
105(5) . . .
103(6) . . .
111(6) . . .
95(5) . . .
99(5) . . .
100(5) . . .
115(6) . . .
117(6) . . .
117(6) . . .
109(5) . . .
93(5) . . .
120(6) . . .
110(6) . . .
96(5) . . .
103(5) . . .
104(5) . . .
122(6) . . .
108(6) . . .
114(6) . . .
110(5) . . .
110(5) . . .
107(6) . . .
111(6) . . .
109(6) . . .
97(5) . . .
99(5) . . .
111(6) . . .
104(6) . . .
104(6) . . .
113(6) . . .
107(5) . . .
108(6) . . .
110(6) . . .
107(5) . . .
115(6) . . .
93(5) . . .
110(6) . . .
104(6) . . .
106(5) . . .
120(6) . . .
113(6) . . .
109(6) . . .
90(5) . . .
108(5) . . .
104(5) . . .
98(5) . . .
114(6) . . .
114(6) . . .
104(5) . . .
104(5) . . .
111(6) . . .
132(6) . . .
113(6) . . .
97(5) . . .
93(5) . . .
118(6) . . .
106(6) . . .
94(5) . . .
98(5) . . .
109(5) . . .
107(6) . . .
106(6) . . .
115(6) . . .
110(5) . . .
103(5) . . .
104(6) . . .
97(5) . . .
101(5) . . .
92(5) . . .
101(5) . . .
103(5) . . .
100(5) . . .
104(5) . . .
96(5) . . .
97(5) . . .
92(5) . . .
102(6) . . .
89(5) . . .
93(5) . . .
102(5) . . .
106(6) . . .
96(5) . . .
99(5) . . .
118(6) . . .
93(5) . . .
99(5) . . .
110(6) . . .
101(5) . . .
108(5) . . .
110(5) . . .
109(6) . . .
109(6) . . .
102(5) . . .
102(5) . . .
107(6) . . .
107(6) . . .
112(6) . . .
103(5) . . .
121(6) . . .
108(6) . . .
101(5) . . .
97(5) . . .
97(5) . . .
99(5) . . .
96(5) . . .
101(6) . . .
107(6) . . .
104(5) . . .
111(5) . . .
120(6) . . .
125(7) . . .
107(5) . . .
108(5) . . .
116(6) . . .
123(6) . . .
121(6) . . .
104(5) . . .
95(5) . . .
102(5) . . .
108(6) . . .
102(5) . . .
115(6) . . .
112(6) . . .
98(5) . . .
100(5) . . .
110(6) . . .
101(5) . . .
106(5) . . .
112(6) . . .
115(6) . . .
110(6) . . .
106(5) . . .
103(5) . . .
104(5) . . .
109(6) . . .
103(6) . . .
106(6) . . .
105(5) . . .
106(6) . . .
89(5) . . .
110(6) . . .
112(5) . . .
107(5) . . .
111(6) . . .
103(6) . . .
93(5) . . .
87(5) . . .
123(6) . . .
119(6) . . .
100(6) . . .
93(5) . . .
110(6) . . .
116(6) . . .
98(5) . . .
113(6) . . .
106(6) . . .
95(5) . . .
110(5) . . .
108(6) . . .
97(5) . . .
109(6) . . .
119(6) . . .
95(5) . . .
108(5) . . .
106(6) . . .
108(6) . . .
98(5) . . .
119(6) . . .
108(6) . . .
95(5) . . .
95(5) . . .
107(5) . . .
110(6) . . .
106(6) . . .
112(6) . . .
108(6) . . .
106(5) . . .
110(5) . . .
101(5) . . .
110(6) . . .
96(5) . . .
96(5) . . .
96(5) . . .
103(5) . . .
96(5) . . .
84(5) . . .
103(5) . . .
110(6) . . .
113(6) . . .
102(6) . . .
103(5) . . .
103(5) . . .
91(5) . . .
96(5) . . .
97(5) . . .
103(5) . . .
119(6) . . .
107(6) . . .
108(6) . . .
106(5) . . .
100(5) . . .
89(5) . . .
99(5) . . .
105(6) . . .
93(5) . . .
96(5) . . .
102(5) . . .
124(6) . . .
115(6) . . .
110(6) . . .
100(5) . . .
108(5) . . .
95(5) . . .
95(5) . . .
95(5) . . .
89(5) . . .
106(5) . . .
95(5) . . .
99(6) . . .
97(6) . . .
99(5) . . .
114(6) . . .
90(5) . . .
89(5) . . .
88(5) . . .
103(5) . . .
105(5) . . .
98(5) . . .
98(5) . . .
105(6) . . .
104(5) . . .
99(5) . . .
103(5) . . .
112(6) . . .
102(6) . . .
103(5) . . .
98(5) . . .
99(5) . . .
97(5) . . .
98(5) . . .
93(5) . . .
91(5) . . .
98(5) . . .
98(5) . . .
111(6) . . .
105(5) . . .
105(6) . . .
99(5) . . .
92(5) . . .
99(5) . . .
100(5) . . .
96(5) . . .
96(5) . . .
104(6) . . .
98(5) . . .
100(5) . . .
100(5) . . .
89(5) . . .
91(5) . . .
102(5) . . .
114(6) . . .
108(6) . . .
92(5) . . .
104(5) . . .
104(5) . . .
102(5) . . .
108(6) . . .
106(6) . . .
108(6) . . .
91(5) . . .
89(5) . . .
93(5) . . .
89(5) . . .
91(5) . . .
108(5) . . .
105(5) . . .
105(5) . . .
114(6) . . .
99(5) . . .
90(5) . . .
96(5) . . .
107(6) . . .
107(6) . . .
102(5) . . .
112(6) . . .
91(5) . . .
100(5) . . .
100(6) . . .
93(5) . . .
102(5) . . .
108(5) . . .
103(6) . . .
93(5) . . .
103(5) . . .
85(5) . . .
88(5) . . .
106(6) . . .
103(5) . . .
112(6) . . .
107(5) . . .
96(5) . . .
105(6) . . .
105(6) . . .
94(5) . . .
96(5) . . .
111(6) . . .
96(5) . . .
107(6) . . .
103(5) . . .
102(5) . . .
98(5) . . .
97(5) . . .
95(5) . . .
113(6) . . .
109(5) . . .
105(6) . . .
104(6) . . .
110(6) . . .
97(5) . . .
102(5) . . .
102(6) . . .
102(6) . . .
103(5) . . .
98(5) . . .
90(5) . . .
100(6) . . .
98(5) . . .
91(5) . . .
102(5) . . .
89(5) . . .
106(6) . . .
113(6) . . .
103(6) . . .
101(5) . . .
114(6) . . .
105(6) . . .
105(6) . . .
98(5) . . .
119(6) . . .
107(5) . . .
104(6) . . .
105(6) . . .
102(5) . . .
113(6) . . .
104(6) . . .
109(6) . . .
101(5) . . .
99(5) . . .
102(5) . . .
99(5) . . .
96(5) . . .
99(5) . . .
96(5) . . .
115(6) . . .
97(5) . . .
96(5) . . .
99(5) . . .
99(5) . . .
104(5) . . .
104(5) . . .
98(5) . . .
92(5) . . .
108(5) . . .
99(5) . . .
104(6) . . .
93(5) . . .
95(5) . . .
104(5) . . .
103(5) . . .
90(5) . . .
100(6) . . .
102(5) . . .
105(5) . . .
97(5) . . .
104(6) . . .
111(6) . . .
96(5) . . .
102(5) . . .
104(5) . . .
92(5) . . .
107(6) . . .
89(5) . . .
95(5) . . .
103(5) . . .
104(6) . . .
94(5) . . .
104(5) . . .
108(5) . . .
105(5) . . .
98(5) . . .
80(5) . . .
92(5) . . .
82(5) . . .
108(6) . . .
90(5) . . .
85(5) . . .
99(5) . . .
108(5) . . .
99(5) . . .
107(6) . . .
105(5) . . .
103(5) . . .
89(5) . . .
92(5) . . .
112(6) . . .
97(5) . . .
100(5) . . .
99(5) . . .
107(6) . . .
106(6) . . .
85(5) . . .
102(5) . . .
108(5) . . .
112(6) . . .
105(6) . . .
83(5) . . .
95(5) . . .
105(5) . . .
106(6) . . .
107(6) . . .
98(5) . . .
86(5) . . .
107(5) . . .
108(6) . . .
108(6) . . .
104(6) . . .
110(5) . . .
97(5) . . .
100(5) . . .
94(5) . . .
104(5) . . .
97(5) . . .
97(5) . . .
111(6) . . .
99(5) . . .
94(5) . . .
104(5) . . .
94(5) . . .
98(5) . . .
97(5) . . .
92(5) . . .
102(5) . . .
83(5) . . .
100(5) . . .
108(6) . . .
95(5) . . .
112(5) . . .
106(6) . . .
120(6) . . .
101(5) . . .
101(5) . . .
101(5) . . .
103(5) . . .
105(6) . . .
98(5) . . .
116(6) . . .
103(5) . . .
116(6) . . .
86(5) . . .
90(5) . . .
96(5) . . .
89(5) . . .
95(5) . . .
106(6) . . .
115(6) . . .
104(5) . . .
103(5) . . .
90(5) . . .
104(6) . . .
102(6) . . .
91(5) . . .
100(5) . . .
96(5) . . .
112(6) . . .
99(5) . . .
97(5) . . .
87(5) . . .
101(5) . . .
86(5) . . .
103(6) . . .
104(5) . . .
103(5) . . .
97(5) . . .
102(6) . . .
91(5) . . .
104(5) . . .
106(6) . . .
103(6) . . .
104(6) . . .
95(5) . . .
103(5) . . .
105(6) . . .
97(5) . . .
109(6) . . .
96(5) . . .
94(5) . . .
102(5) . . .
101(6) . . .
93(5) . . .
95(5) . . .
89(5) . . .
101(6) . . .
81(5) . . .
107(6) . . .
99(5) . . .
98(5) . . .
97(5) . . .
102(6) . . .
110(6) . . .
104(5) . . .
111(5) . . .
106(6) . . .
108(6) . . .
107(6) . . .
108(5) . . .
104(5) . . .
105(5) . . .
102(5) . . .
105(6) . . .
101(5) . . .
102(5) . . .
104(5) . . .
100(6) . . .
102(5) . . .
104(5) . . .
102(5) . . .
98(5) . . .
94(5) . . .
101(5) . . .
107(5) . . .
99(5) . . .
110(6) . . .
100(6) . . .
107(6) . . .
103(5) . . .
100(5) . . .
93(5) . . .
97(5) . . .
91(5) . . .
92(5) . . .
103(5) . . .
92(5) . . .
95(5) . . .
95(5) . . .
105(5) . . .
94(5) . . .
95(5) . . .
103(6) . . .
103(5) . . .
86(5) . . .
101(5) . . .
100(5) . . .
104(5) . . .
88(5) . . .
98(5) . . .
107(6) . . .
93(5) . . .
109(6) . . .
104(5) . . .
106(5) . . .
99(5) . . .
101(5) . . .
102(5) . . .
104(5) . . .
104(5) . . .
107(5) . . .
97(6) . . .
88(5) . . .
98(5) . . .
91(5) . . .
92(5) . . .
99(5) . . .
101(5) . . .
97(5) . . .
85(5) . . .
88(5) . . .
95(5) . . .
93(5) . . .
93(5) . . .
118(6) . . .
99(5) . . .
98(5) . . .
91(5) . . .
106(5) . . .
102(5) . . .
103(6) . . .
101(5) . . .
86(5) . . .
93(5) . . .
104(6) . . .
83(5) . . .
84(5) . . .
98(5) . . .
101(5) . . .
94(5) . . .
88(5) . . .
91(5) . . .
98(5) . . .
101(5) . . .
91(5) . . .
92(5) . . .
105(6) . . .
101(5) . . .
99(5) . . .
97(5) . . .
105(6) . . .
106(5) . . .
110(5) . . .
95(5) . . .
102(5) . . .
106(6) . . .
92(5) . . .
101(5) . . .
102(5) . . .
107(5) . . .
94(6) . . .
101(5) . . .
95(5) . . .
107(5) . . .
102(5) . . .
104(6) . . .
115(6) . . .
103(5) . . .
94(5) . . .
103(5) . . .
105(5) . . .
103(5) . . .
96(5) . . .
96(5) . . .
104(6) . . .
98(5) . . .
86(5) . . .
98(5) . . .
98(5) . . .
94(5) . . .
104(6) . . .
107(6) . . .
103(5) . . .
93(5) . . .
90(5) . . .
101(5) . . .
106(5) . . .
98(5) . . .
100(6) . . .
102(6) . . .
103(5) . . .
88(5) . . .
99(5) . . .
102(5) . . .
95(5) . . .
104(5) . . .
105(5) . . .
84(5) . . .
102(5) . . .
101(6) . . .
86(5) . . .
95(5) . . .
81(5) . . .
99(6) . . .
96(6) . . .
103(6) . . .
91(5) . . .
91(5) . . .
107(6) . . .
89(5) . . .
89(5) . . .
91(5) . . .
96(5) . . .
103(6) . . .
96(5) . . .
92(5) . . .
98(5) . . .
107(5) . . .
106(6) . . .
99(5) . . .
105(6) . . .
102(5) . . .
96(5) . . .
99(5) . . .
102(6) . . .
98(5) . . .
98(5) . . .
99(5) . . .
97(5) . . .
109(6) . . .
93(5) . . .
110(5) . . .
93(5) . . .
96(5) . . .
104(5) . . .
97(5) . . .
97(5) . . .
99(5) . . .
109(6) . . .
90(5) . . .
97(5) . . .
87(5) . . .
125(6) . . .
98(5) . . .
98(5) . . .
100(5) . . .
93(5) . . .
94(5) . . .
84(5) . . .
110(6) . . .
90(5) . . .
91(5) . . .
94(5) . . .
90(5) . . .
94(6) . . .
74(5) . . .
79(5) . . .
86(5) . . .
92(5) . . .
96(5) . . .
98(5) . . .
100(5) . . .
104(6) . . .
85(5) . . .
99(5) . . .
101(5) . . .
89(5) . . .
91(5) . . .
83(5) . . .
81(5) . . .
89(5) . . .
95(5) . . .
97(5) . . .
89(5) . . .
97(5) . . .
100(5) . . .
92(5) . . .
103(6) . . .
89(5) . . .
94(5) . . .
86(5) . . .
90(5) . . .
97(5) . . .
104(5) . . .
114(6) . . .
107(5) . . .
93(5) . . .
118(6) . . .
99(5) . . .
90(5) . . .
86(5) . . .
97(5) . . .
102(6) . . .
101(5) . . .
104(5) . . .
97(5) . . .
94(5) . . .
86(5) . . .
103(6) . . .
91(5) . . .
98(5) . . .
92(5) . . .
89(5) . . .
95(5) . . .
88(5) . . .
81(5) . . .
85(5) . . .
89(5) . . .
91(5) . . .
110(5) . . .
93(5) . . .
96(5) . . .
95(5) . . .
109(6) . . .
108(5) . . .
95(5) . . .
97(5) . . .
93(5) . . .
95(5) . . .
109(5) . . .
96(5) . . .
94(5) . . .
94(5) . . .
99(6) . . .
96(5) . . .
104(5) . . .
92(5) . . .
97(5) . . .
95(5) . . .
88(5) . . .
86(5) . . .
97(5) . . .
110(6) . . .
96(5) . . .
82(5) . . .
81(5) . . .
90(5) . . .
104(6) . . .
88(5) . . .
101(5) . . .
106(5) . . .
98(6) . . .
86(5) . . .
101(5) . . .
97(5) . . .
108(6) . . .
92(5) . . .
82(5) . . .
97(5) . . .
91(5) . . .
93(5) . . .
102(6) . . .
87(5) . . .
88(5) . . .
96(5) . . .
101(5) . . .
88(5) . . .
92(5) . . .
91(5) . . .
101(5) . . .
86(5) . . .
100(6) . . .
98(5) . . .
91(5) . . .
93(5) . . .
94(5) . . .
89(5) . . .
98(5) . . .
94(5) . . .
85(5) . . .
97(5) . . .
100(5) . . .
111(6) . . .
101(5) . . .
105(5) . . .
96(5) . . .
103(5) . . .
106(6) . . .
96(5) . . .
97(5) . . .
106(6) . . .
109(6) . . .
99(5) . . .
95(5) . . .
100(5) . . .
104(6) . . .
106(6) . . .
88(5) . . .
101(5) . . .
88(5) . . .
98(5) . . .
98(6) . . .
92(5) . . .
102(5) . . .
87(5) . . .
79(5) . . .
110(6) . . .
104(5) . . .
99(5) . . .
90(5) . . .
105(6) . . .
96(5) . . .
108(5) . . .
92(5) . . .
83(5) . . .
90(5) . . .
97(5) . . .
102(5) . . .
106(5) . . .
97(5) . . .
96(5) . . .
106(6) . . .
106(5) . . .
98(5) . . .
97(5) . . .
96(5) . . .
92(5) . . .
105(5) . . .
102(5) . . .
101(5) . . .
99(5) . . .
94(5) . . .
83(5) . . .
103(5) . . .
98(5) . . .
100(5) . . .
94(5) . . .
99(5) . . .
95(5) . . .
85(5) . . .
92(5) . . .
83(5) . . .
84(5) . . .
92(5) . . .
84(5) . . .
100(5) . . .
99(5) . . .
102(5) . . .
102(6) . . .
94(5) . . .
93(5) . . .
96(5) . . .
93(5) . . .
90(5) . . .
88(5) . . .
96(5) . . .
91(5) . . .
89(5) . . .
101(6) . . .
88(5) . . .
90(5) . . .
96(5) . . .
99(5) . . .
96(5) . . .
102(6) . . .
102(5) . . .
104(5) . . .
97(5) . . .
87(5) . . .
83(5) . . .
96(5) . . .
99(5) . . .
99(5) . . .
85(5) . . .
95(6) . . .
101(5) . . .
106(5) . . .
114(6) . . .
99(5) . . .
89(5) . . .
104(6) . . .
95(5) . . .
97(5) . . .
85(5) . . .
80(5) . . .
95(5) . . .
93(5) . . .
108(5) . . .
90(5) . . .
94(5) . . .
99(5) . . .
95(5) . . .
87(5) . . .
85(5) . . .
84(5) . . .
91(5) . . .
105(5) . . .
83(5) . . .
91(5) . . .
98(5) . . .
102(5) . . .
98(5) . . .
95(5) . . .
87(5) . . .
90(5) . . .
96(5) . . .
94(5) . . .
96(5) . . .
87(5) . . .
101(5) . . .
100(5) . . .
96(5) . . .
84(5) . . .
87(5) . . .
102(6) . . .
81(5) . . .
90(5) . . .
102(5) . . .
100(5) . . .
96(5) . . .
95(5) . . .
87(5) . . .
99(6) . . .
84(5) . . .
97(5) . . .
87(5) . . .
111(6) . . .
100(5) . . .
102(6) . . .
107(6) . . .
100(5) . . .
102(5) . . .
94(5) . . .
101(5) . . .
97(5) . . .
93(5) . . .
85(5) . . .
98(5) . . .
98(5) . . .
106(5) . . .
104(5) . . .
91(5) . . .
95(5) . . .
85(5) . . .
85(5) . . .
94(5) . . .
99(5) . . .
84(5) . . .
87(5) . . .
89(5) . . .
108(5) . . .
99(5) . . .
98(5) . . .
91(5) . . .
96(5) . . .
95(5) . . .
93(5) . . .
110(6) . . .
96(5) . . .
94(5) . . .
109(5) . . .
76(5) . . .
81(5) . . .
96(5) . . .
98(5) . . .
96(5) . . .
107(6) . . .
93(5) . . .
100(5) . . .
90(5) . . .
90(5) . . .
101(6) . . .
88(5) . . .
82(5) . . .
92(5) . . .
93(5) . . .
112(6) . . .
90(5) . . .
97(5) . . .
109(5) . . .
88(5) . . .
90(5) . . .
108(6) . . .
100(5) . . .
83(5) . . .
99(5) . . .
92(5) . . .
90(5) . . .
80(5) . . .
86(5) . . .
90(5) . . .
96(5) . . .
100(5) . . .
88(5) . . .
97(5) . . .
112(6) . . .
98(5) . . .
104(6) . . .
94(5) . . .
90(5) . . .
102(5) . . .
97(5) . . .
83(5) . . .
105(5) . . .
80(5) . . .
91(5) . . .
92(5) . . .
93(5) . . .
98(5) . . .
97(5) . . .
96(5) . . .
94(5) . . .
100(5) . . .
93(5) . . .
100(5) . . .
91(5) . . .
99(6) . . .
109(6) . . .
95(5) . . .
101(5) . . .
84(5) . . .
87(5) . . .
94(5) . . .
86(5) . . .
101(5) . . .
103(5) . . .
97(5) . . .
104(6) . . .
93(5) . . .
99(5) . . .
93(5) . . .
107(6) . . .
94(5) . . .
116(6) . . .
106(5) . . .
100(5) . . .
91(5) . . .
93(5) . . .
89(5) . . .
90(5) . . .
95(5) . . .
87(5) . . .
81(5) . . .
77(5) . . .
101(5) . . .
88(5) . . .
87(5) . . .
95(5) . . .
97(5) . . .
104(5) . . .
103(6) . . .
98(5) . . .
101(5) . . .
99(5) . . .
107(6) . . .
104(6) . . .
109(6) . . .
106(5) . . .
99(5) . . .
101(5) . . .
101(6) . . .
97(5) . . .
88(5) . . .
92(5) . . .
93(5) . . .
93(5) . . .
96(5) . . .
99(5) . . .
94(5) . . .
99(5) . . .
100(6) . . .
101(6) . . .
99(5) . . .
92(5) . . .
93(5) . . .
104(6) . . .
99(5) . . .
92(5) . . .
81(5) . . .
90(5) . . .
91(5) . . .
95(5) . . .
90(5) . . .
98(5) . . .
96(5) . . .
101(5) . . .
100(5) . . .
88(5) . . .
82(5) . . .
85(5) . . .
111(6) . . .
97(6) . . .
91(5) . . .
93(5) . . .
81(5) . . .
81(5) . . .
86(5) . . .
92(5) . . .
99(5) . . .
100(6) . . .
87(5) . . .
84(5) . . .
98(5) . . .
102(5) . . .
90(5) . . .
90(5) . . .
101(5) . . .
83(5) . . .
97(5) . . .
85(5) . . .
101(5) . . .
109(5) . . .
99(5) . . .
104(5) . . .
95(5) . . .
96(5) . . .
105(5) . . .
101(5) . . .
87(5) . . .
90(5) . . .
103(5) . . .
105(5) . . .
100(5) . . .
89(5) . . .
91(5) . . .
98(5) . . .
85(5) . . .
80(5) . . .
97(5) . . .
85(5) . . .
85(5) . . .
102(5) . . .
83(5) . . .
83(5) . . .
87(5) . . .
93(5) . . .
108(5) . . .
98(5) . . .
106(6) . . .
89(5) . . .
93(5) . . .
96(5) . . .
96(5) . . .
93(5) . . .
90(5) . . .
75(5) . . .
105(5) . . .
99(5) . . .
91(5) . . .
85(5) . . .
96(5) . . .
93(5) . . .
102(5) . . .
86(5) . . .
92(5) . . .
101(5) . . .
86(5) . . .
97(5) . . .
97(6) . . .
86(5) . . .
100(5) . . .
111(6) . . .
94(5) . . .
91(5) . . .
92(5) . . .
105(5) . . .
95(5) . . .
93(5) . . .
103(6) . . .
87(5) . . .
95(5) . . .
81(5) . . .
96(5) . . .
107(6) . . .
101(5) . . .
108(6) . . .
103(5) . . .
94(5) . . .
102(6) . . .
97(5) . . .
102(5) . . .
100(5) . . .
97(5) . . .
85(5) . . .
90(5) . . .
111(5) . . .
89(5) . . .
106(6) . . .
97(5) . . .
100(5) . . .
98(5) . . .
91(5) . . .
102(5) . . .
105(6) . . .
103(5) . . .
98(5) . . .
93(5) . . .
97(5) . . .
87(5) . . .
103(5) . . .
100(5) . . .
97(5) . . .
85(5) . . .
88(5) . . .
81(5) . . .
93(5) . . .
90(5) . . .
85(5) . . .
85(5) . . .
102(6) . . .
86(5) . . .
76(5) . . .
78(5) . . .
99(5) . . .
96(5) . . .
95(5) . . .
117(6) . . .
80(5) . . .
86(5) . . .
90(5) . . .
95(5) . . .
92(5) . . .
92(5) . . .
85(5) . . .
89(5) . . .
99(5) . . .
100(5) . . .
100(6) . . .
96(5) . . .
113(6) . . .
98(5) . . .
84(5) . . .
94(5) . . .
93(5) . . .
89(5) . . .
96(5) . . .
97(5) . . .
92(5) . . .
89(5) . . .
88(5) . . .
90(5) . . .
106(6) . . .
114(6) . . .
92(5) . . .
101(5) . . .
94(5) . . .
93(5) . . .
99(5) . . .
95(5) . . .
93(5) . . .
95(5) . . .
93(5) . . .
88(5) . . .
94(5) . . .
86(5) . . .
88(5) . . .
89(5) . . .
87(5) . . .
90(5) . . .
92(5) . . .
87(5) . . .
102(5) . . .
99(5) . . .
92(5) . . .
103(5) . . .
93(5) . . .
96(5) . . .
93(5) . . .
94(5) . . .
89(5) . . .
100(5) . . .
93(5) . . .
90(5) . . .
87(5) . . .
100(5) . . .
94(5) . . .
78(5) . . .
98(5) . . .
91(5) . . .
95(5) . . .
89(5) . . .
102(6) . . .
90(5) . . .
92(5) . . .
100(5) . . .
84(5) . . .
92(5) . . .
97(5) . . .
102(5) . . .
100(5) . . .
95(5) . . .
90(5) . . .
96(5) . . .
93(5) . . .
85(5) . . .
96(5) . . .
96(5) . . .
84(5) . . .
94(5) . . .
93(5) . . .
92(5) . . .
96(5) . . .
92(5) . . .
94(5) . . .
85(5) . . .
92(5) . . .
89(5) . . .
108(6) . . .
87(5) . . .
90(5) . . .
96(5) . . .
100(5) . . .
91(5) . . .
100(5) . . .
93(5) . . .
92(5) . . .
95(5) . . .
101(5) . . .
94(5) . . .
90(5) . . .
95(6) . . .
89(5) . . .
99(5) . . .
98(5) . . .
103(5) . . .
87(5) . . .
89(5) . . .
94(5) . . .
86(5) . . .
95(5) . . .
86(5) . . .
95(5) . . .
90(5) . . .
74(4) . . .
84(5) . . .
91(5) . . .
91(5) . . .
99(5) . . .
91(5) . . .
95(5) . . .
89(5) . . .
91(5) . . .
91(5) . . .
93(5) . . .
82(5) . . .
89(5) . . .
86(5) . . .
105(5) . . .
96(5) . . .
89(5) . . .
91(5) . . .
105(6) . . .
88(5) . . .
86(5) . . .
89(5) . . .
88(5) . . .
98(5) . . .
97(5) . . .
94(5) . . .
93(5) . . .
83(5) . . .
87(5) . . .
106(5) . . .
90(5) . . .
99(5) . . .
92(5) . . .
84(5) . . .
94(5) . . .
81(5) . . .
90(5) . . .
94(5) . . .
98(5) . . .
93(5) . . .
96(5) . . .
113(6) . . .
96(5) . . .
110(5) . . .
93(5) . . .
95(5) . . .
107(6) . . .
87(5) . . .
85(5) . . .
104(5) . . .
94(5) . . .
100(5) . . .
85(5) . . .
86(5) . . .
89(5) . . .
101(5) . . .
90(5) . . .
80(5) . . .
86(5) . . .
99(5) . . .
86(5) . . .
85(5) . . .
88(5) . . .
96(5) . . .
92(5) . . .
100(5) . . .
98(5) . . .
97(5) . . .
107(5) . . .
80(5) . . .
82(5) . . .
89(5) . . .
102(5) . . .
99(5) . . .
93(5) . . .
105(6) . . .
94(5) . . .
90(5) . . .
87(5) . . .
79(5) . . .
95(5) . . .
84(5) . . .
87(5) . . .
82(5) . . .
104(6) . . .
106(6) . . .
87(5) . . .
98(5) . . .
97(5) . . .
96(5) . . .
95(6) . . .
88(5) . . .
96(5) . . .
81(5) . . .
98(5) . . .
97(5) . . .
103(6) . . .
89(5) . . .
92(5) . . .
88(5) . . .
89(5) . . .
106(6) . . .
99(5) . . .
83(5) . . .
94(5) . . .
82(5) . . .
100(5) . . .
89(5) . . .
95(5) . . .
93(5) . . .
89(5) . . .
111(6) . . .
90(5) . . .
96(5) . . .
83(5) . . .
102(6) . . .
109(6) . . .
88(5) . . .
80(5) . . .
91(5) . . .
94(5) . . .
76(4) . . .
81(5) . . .
82(5) . . .
94(5) . . .
92(5) . . .
88(5) . . .
84(5) . . .
89(5) . . .
97(5) . . .
91(5) . . .
88(5) . . .
92(5) . . .
110(6) . . .
78(5) . . .
75(5) . . .
92(5) . . .
95(5) . . .
91(5) . . .
102(6) . . .
78(5) . . .
88(5) . . .
84(5) . . .
102(6) . . .
90(5) . . .
109(6) . . .
98(5) . . .
94(5) . . .
86(5) . . .
98(5) . . .
96(5) . . .
81(5) . . .
77(5) . . .
88(5) . . .
94(5) . . .
80(5) . . .
87(5) . . .
83(5) . . .
84(5) . . .
98(5) . . .
111(6) . . .
100(5) . . .
96(5) . . .
92(5) . . .
91(5) . . .
84(5) . . .
97(5) . . .
87(5) . . .
83(5) . . .
90(5) . . .
83(5) . . .
79(5) . . .
104(5) . . .
96(5) . . .
103(6) . . .
87(5) . . .
91(5) . . .
86(5) . . .
92(5) . . .
77(5) . . .
100(5) . . .
100(5) . . .
94(5) . . .
85(5) . . .
88(5) . . .
91(5) . . .
92(5) . . .
90(5) . . .
115(6) . . .
97(5) . . .
92(5) . . .
95(5) . . .
88(5) . . .
84(5) . . .
88(5) . . .
91(5) . . .
88(5) . . .
97(5) . . .
90(5) . . .
97(5) . . .
98(5) . . .
108(6) . . .
87(5) . . .
77(5) . . .
88(5) . . .
90(5) . . .
88(5) . . .
74(5) . . .
87(5) . . .
80(5) . . .
91(5) . . .
94(5) . . .
92(5) . . .
91(5) . . .
77(5) . . .
99(5) . . .
89(5) . . .
86(5) . . .
83(5) . . .
90(5) . . .
94(5) . . .
98(5) . . .
89(5) . . .
88(5) . . .
73(4) . . .
85(5) . . .
88(5) . . .
78(5) . . .
95(5) . . .
81(5) . . .
93(5) . . .
94(5) . . .
96(5) . . .
97(5) . . .
76(5) . . .
93(5) . . .
89(5) . . .
102(6) . . .
96(5) . . .
93(5) . . .
91(5) . . .
85(5) . . .
89(5) . . .
106(6) . . .
90(5) . . .
94(5) . . .
87(5) . . .
97(6) . . .
78(5) . . .
83(5) . . .
79(5) . . .
77(5) . . .
72(4) . . .
103(6) . . .
84(5) . . .
90(5) . . .
90(5) . . .
87(5) . . .
76(5) . . .
89(5) . . .
78(5) . . .
84(5) . . .
78(5) . . .
92(5) . . .
84(5) . . .
78(5) . . .
99(5) . . .
97(5) . . .
81(5) . . .
88(5) . . .
87(5) . . .
85(5) . . .
88(5) . . .
91(5) . . .
93(5) . . .
94(5) . . .
74(5) . . .
94(6) . . .
71(4) . . .
77(5) . . .
86(5) . . .
92(6) . . .
88(5) . . .
99(5) . . .
98(5) . . .
96(5) . . .
102(6) . . .
91(5) . . .
94(5) . . .
97(5) . . .
84(5) . . .
78(5) . . .
81(5) . . .
91(5) . . .
89(5) . . .
83(5) . . .
92(5) . . .
84(5) . . .
84(5) . . .
97(5) . . .
90(5) . . .
91(5) . . .
95(5) . . .
100(5) . . .
74(5) . . .
88(5) . . .
87(5) . . .
86(5) . . .
85(5) . . .
97(5) . . .
99(5) . . .
98(5) . . .
91(5) . . .
79(5) . . .
86(5) . . .
78(5) . . .
90(5) . . .
90(5) . . .
94(5) . . .
99(5) . . .
83(5) . . .
86(5) . . .
85(5) . . .
78(5) . . .
97(5) . . .
88(5) . . .
101(5) . . .
83(5) . . .
72(4) . . .
87(5) . . .
83(5) . . .
95(5) . . .
82(5) . . .
93(5) . . .
91(5) . . .
86(5) . . .
90(5) . . .
101(5) . . .
95(5) . . .
72(4) . . .
87(5) . . .
89(5) . . .
76(5) . . .
80(5) . . .
85(5) . . .
82(5) . . .
88(5) . . .
98(5) . . .
97(5) . . .
92(5) . . .
86(5) . . .
82(5) . . .
90(5) . . .
85(5) . . .
84(5) . . .
78(5) . . .
77(5) . . .
85(5) . . .
83(5) . . .
81(5) . . .
93(6) . . .
88(5) . . .
87(5) . . .
90(5) . . .
106(6) . . .
94(5) . . .
79(5) . . .
98(5) . . .
72(5) . . .
97(5) . . .
92(5) . . .
83(5) . . .
83(5) . . .
87(5) . . .
99(5) . . .
89(5) . . .
88(5) . . .
88(5) . . .
94(5) . . .
74(5) . . .
90(5) . . .
96(5) . . .
84(5) . . .
69(5) . . .
78(5) . . .
91(5) . . .
76(5) . . .
94(5) . . .
104(5) . . .
73(5) . . .
79(5) . . .
93(5) . . .
84(5) . . .
94(5) . . .
78(5) . . .
89(5) . . .
72(4) . . .
86(5) . . .
90(5) . . .
88(5) . . .
70(5) . . .
79(5) . . .
99(5) . . .
93(5) . . .
81(5) . . .
95(5) . . .
83(5) . . .
84(5) . . .
92(5) . . .
78(5) . . .
80(5) . . .
85(5) . . .
92(5) . . .
101(5) . . .
87(5) . . .
89(5) . . .
73(4) . . .
90(5) . . .
97(5) . . .
91(5) . . .
91(5) . . .
94(5) . . .
102(6) . . .
90(5) . . .
92(5) . . .
77(5) . . .
75(5) . . .
105(6) . . .
88(5) . . .
92(5) . . .
86(5) . . .
75(5) . . .
88(5) . . .
86(5) . . .
101(5) . . .
92(5) . . .
91(5) . . .
97(5) . . .
89(5) . . .
90(5) . . .
99(5) . . .
91(5) . . .
76(5) . . .
81(5) . . .
87(5) . . .
90(5) . . .
93(5) . . .
88(5) . . .
91(5) . . .
85(5) . . .
89(5) . . .
85(5) . . .
90(5) . . .
81(5) . . .
83(5) . . .
102(5) . . .
101(5) . . .
78(5) . . .
87(5) . . .
85(5) . . .
95(5) . . .
84(5) . . .
81(5) . . .
90(5) . . .
94(5) . . .
91(5) . . .
96(5) . . .
96(5) . . .
92(5) . . .
93(5) . . .
91(5) . . .
92(5) . . .
96(5) . . .
80(5) . . .
85(5) . . .
85(5) . . .
89(5) . . .
84(5) . . .
86(5) . . .
87(5) . . .
80(5) . . .
91(5) . . .
79(5) . . .
80(5) . . .
92(5) . . .
89(5) . . .
102(5) . . .
86(5) . . .
82(5) . . .
84(5) . . .
92(5) . . .
89(5) . . .
81(5) . . .
95(5) . . .
95(5) . . .
90(5) . . .
116(6) . . .
96(5) . . .
89(5) . . .
93(5) . . .
100(5) . . .
95(5) . . .
89(5) . . .
80(5) . . .
92(5) . . .
101(5) . . .
97(5) . . .
91(5) . . .
88(5) . . .
83(5) . . .
99(5) . . .
93(5) . . .
90(5) . . .
91(5) . . .
94(5) . . .
91(5) . . .
87(5) . . .
92(5) . . .
82(5) . . .
71(4) . . .
88(5) . . .
90(5) . . .
80(5) . . .
84(5) . . .
83(5) . . .
94(5) . . .
94(5) . . .
85(5) . . .
99(5) . . .
83(5) . . .
98(5) . . .
108(6) . . .
87(5) . . .
91(5) . . .
87(5) . . .
77(5) . . .
92(5) . . .
86(5) . . .
83(5) . . .
97(5) . . .
75(5) . . .
82(5) . . .
96(5) . . .
84(5) . . .
84(5) . . .
92(5) . . .
89(5) . . .
81(5) . . .
87(5) . . .
92(5) . . .
87(5) . . .
75(5) . . .
91(5) . . .
90(5) . . .
96(5) . . .
89(5) . . .
79(5) . . .
96(5) . . .
89(5) . . .
89(5) . . .
87(5) . . .
85(5) . . .
90(5) . . .
80(5) . . .
96(5) . . .
93(5) . . .
90(5) . . .
88(5) . . .
92(5) . . .
77(5) . . .
96(5) . . .
89(5) . . .
89(5) . . .
75(5) . . .
89(5) . . .
89(5) . . .
88(5) . . .
83(5) . . .
86(5) . . .
82(5) . . .
84(5) . . .
86(5) . . .
92(5) . . .
100(5) . . .
77(5) . . .
90(5) . . .
90(5) . . .
90(5) . . .
94(5) . . .
74(5) . . .
79(5) . . .
86(5) . . .
73(4) . . .
82(5) . . .
92(5) . . .
98(6) . . .
75(5) . . .
71(4) . . .
79(5) . . .
85(5) . . .
85(5) . . .
86(5) . . .
88(5) . . .
75(4) . . .
78(5) . . .
86(5) . . .
81(5) . . .
94(5) . . .
86(5) . . .
81(5) . . .
81(5) . . .
99(5) . . .
70(4) . . .
82(5) . . .
93(5) . . .
76(5) . . .
87(5) . . .
85(5) . . .
89(5) . . .
96(5) . . .
91(5) . . .
88(5) . . .
78(5) . . .
88(5) . . .
74(5) . . .
84(5) . . .
85(5) . . .
88(5) . . .
93(5) . . .
89(5) . . .
89(5) . . .
85(5) . . .
70(4) . . .
83(5) . . .
79(5) . . .
85(5) . . .
95(5) . . .
80(5) . . .
76(5) . . .
74(5) . . .
80(5) . . .
83(5) . . .
76(5) . . .
90(5) . . .
85(5) . . .
91(5) . . .
89(5) . . .
80(5) . . .
93(5) . . .
87(5) . . .
80(5) . . .
87(5) . . .
82(5) . . .
78(5) . . .
89(5) . . .
87(5) . . .
102(5) . . .
82(5) . . .
91(5) . . .
92(5) . . .
89(5) . . .
89(5) . . .
73(5) . . .
79(5) . . .
91(5) . . .
81(5) . . .
92(5) . . .
87(5) . . .
87(5) . . .
78(5) . . .
89(5) . . .
90(5) . . .
88(5) . . .
84(5) . . .
100(6) . . .
98(5) . . .
80(5) . . .
80(5) . . .
108(6) . . .
91(5) . . .
89(5) . . .
88(5) . . .
92(5) . . .
82(5) . . .
82(5) . . .
89(5) . . .
83(5) . . .
95(5) . . .
82(5) . . .
81(5) . . .
71(4) . . .
95(5) . . .
85(5) . . .
88(5) . . .
78(5) . . .
85(5) . . .
88(5) . . .
89(5) . . .
83(5) . . .
75(5) . . .
76(5) . . .
89(5) . . .
88(5) . . .
93(5) . . .
98(5) . . .
84(5) . . .
75(5) . . .
75(5) . . .
87(5) . . .
87(5) . . .
74(4) . . .
81(5) . . .
99(5) . . .
91(5) . . .
86(5) . . .
88(5) . . .
77(5) . . .
87(5) . . .
80(5) . . .
90(5) . . .
82(5) . . .
92(5) . . .
85(5) . . .
96(5) . . .
78(5) . . .
75(5) . . .
92(5) . . .
84(5) . . .
84(5) . . .
82(5) . . .
72(4) . . .
69(4) . . .
87(5) . . .
98(5) . . .
97(5) . . .
86(5) . . .
85(5) . . .
85(5) . . .
85(5) . . .
68(4) . . .
83(5) . . .
92(5) . . .
87(5) . . .
97(5) . . .
84(5) . . .
96(5) . . .
88(5) . . .
83(5) . . .
93(5) . . .
87(5) . . .
81(5) . . .
78(5) . . .
81(5) . . .
93(5) . . .
86(5) . . .
90(5) . . .
90(5) . . .
85(5) . . .
78(5) . . .
77(5) . . .
85(5) . . .
101(6) . . .
84(5) . . .
98(5) . . .
84(5) . . .
69(5) . . .
76(5) . . .
78(5) . . .
86(5) . . .
82(5) . . .
86(5) . . .
75(5) . . .
79(5) . . .
77(5) . . .
82(5) . . .
74(5) . . .
76(5) . . .
71(4) . . .
85(5) . . .
91(5) . . .
88(5) . . .
81(5) . . .
89(5) . . .
88(5) . . .
75(5) . . .
84(5) . . .
82(5) . . .
78(5) . . .
88(5) . . .
75(5) . . .
73(5) . . .
89(5) . . .
93(5) . . .
83(5) . . .
82(5) . . .
92(5) . . .
83(5) . . .
90(5) . . .
90(5) . . .
70(4) . . .
82(5) . . .
84(5) . . .
80(5) . . .
85(5) . . .
79(5) . . .
83(5) . . .
91(5) . . .
87(5) . . .
98(5) . . .
90(5) . . .
85(5) . . .
91(5) . . .
80(5) . . .
94(5) . . .
86(5) . . .
95(5) . . .
82(5) . . .
73(4) . . .
67(4) . . .
88(5) . . .
85(5) . . .
89(5) . . .
82(5) . . .
79(5) . . .
76(5) . . .
89(5) . . .
84(5) . . .
79(5) . . .
94(5) . . .
75(5) . . .
79(5) . . .
79(5) . . .
80(5) . . .
71(4) . . .
77(5) . . .
77(5) . . .
85(5) . . .
98(5) . . .
88(5) . . .
80(5) . . .
78(5) . . .
77(5) . . .
81(5) . . .
87(5) . . .
76(5) . . .
69(5) . . .
94(5) . . .
88(5) . . .
89(5) . . .
90(5) . . .
85(5) . . .
79(5) . . .
90(5) . . .
93(5) . . .
86(5) . . .
88(5) . . .
79(5) . . .
90(5) . . .
74(5) . . .
81(5) . . .
87(5) . . .
79(5) . . .
89(5) . . .
71(4) . . .
80(5) . . .
80(5) . . .
99(5) . . .
75(4) . . .
80(5) . . .
69(5) . . .
74(5) . . .
76(4) . . .
83(5) . . .
89(5) . . .
91(5) . . .
83(5) . . .
82(5) . . .
86(5) . . .
85(5) . . .
91(5) . . .
85(5) . . .
69(4) . . .
78(5) . . .
84(5) . . .
85(5) . . .
79(5) . . .
81(5) . . .
76(4) . . .
87(5) . . .
86(5) . . .
83(5) . . .
77(5) . . .
90(5) . . .
90(5) . . .
79(5) . . .
67(4) . . .
84(5) . . .
76(5) . . .
85(5) . . .
74(5) . . .
74(4) . . .
90(5) . . .
73(4) . . .
76(5) . . .
71(5) . . .
72(4) . . .
79(5) . . .
83(5) . . .
90(5) . . .
77(5) . . .
71(5) . . .
79(5) . . .
80(5) . . .
96(5) . . .
90(5) . . .
89(5) . . .
82(5) . . .
68(4) . . .
81(5) . . .
87(5) . . .
90(5) . . .
97(5) . . .
77(5) . . .
89(5) . . .
81(5) . . .
85(5) . . .
85(5) . . .
78(5) . . .
83(5) . . .
92(5) . . .
92(5) . . .
88(5) . . .
79(5) . . .
79(5) . . .
87(5) . . .
109(6) . . .
85(5) . . .
71(4) . . .
88(5) . . .
80(5) . . .
87(5) . . .
75(4) . . .
84(5) . . .
83(5) . . .
88(5) . . .
74(4) . . .
80(5) . . .
78(5) . . .
82(5) . . .
92(5) . . .
82(5) . . .
84(5) . . .
84(5) . . .
97(6) . . .
81(5) . . .
91(5) . . .
88(5) . . .
88(5) . . .
93(5) . . .
78(5) . . .
75(5) . . .
78(5) . . .
70(4) . . .
78(5) . . .
94(5) . . .
85(5) . . .
71(4) . . .
83(5) . . .
76(5) . . .
83(5) . . .
80(5) . . .
92(5) . . .
77(5) . . .
91(5) . . .
92(5) . . .
95(5) . . .
75(5) . . .
86(5) . . .
70(4) . . .
80(5) . . .
75(5) . . .
84(5) . . .
85(5) . . .
82(5) . . .
74(5) . . .
80(5) . . .
80(5) . . .
91(5) . . .
98(5) . . .
75(4) . . .
87(5) . . .
91(5) . . .
73(5) . . .
66(4) . . .
81(5) . . .
82(5) . . .
89(5) . . .
86(5) . . .
82(5) . . .
79(5) . . .
95(5) . . .
89(5) . . .
78(5) . . .
74(5) . . .
90(5) . . .
87(5) . . .
75(5) . . .
65(4) . . .
90(5) . . .
86(5) . . .
91(5) . . .
84(5) . . .
95(5) . . .
94(5) . . .
78(5) . . .
90(5) . . .
88(5) . . .
73(4) . . .
84(5) . . .
80(5) . . .
76(5) . . .
76(5) . . .
94(5) . . .
81(5) . . .
75(4) . . .
90(5) . . .
86(5) . . .
78(5) . . .
87(5) . . .
84(5) . . .
85(5) . . .
86(5) . . .
80(5) . . .
74(5) . . .
80(5) . . .
72(5) . . .
78(5) . . .
90(5) . . .
81(5) . . .
88(5) . . .
80(5) . . .
75(5) . . .
89(5) . . .
81(5) . . .
77(5) . . .
84(5) . . .
88(5) . . .
88(5) . . .
86(5) . . .
89(5) . . .
94(5) . . .
86(5) . . .
89(5) . . .
99(5) . . .
83(5) . . .
90(5) . . .
86(5) . . .
82(5) . . .
78(5) . . .
93(5) . . .
79(5) . . .
83(5) . . .
83(5) . . .
95(5) . . .
96(5) . . .
80(5) . . .
88(5) . . .
84(5) . . .
80(5) . . .
89(5) . . .
87(5) . . .
82(5) . . .
95(5) . . .
94(5) . . .
73(5) . . .
85(5) . . .
84(5) . . .
81(5) . . .
79(5) . . .
79(5) . . .
77(5) . . .
84(5) . . .
77(5) . . .
87(5) . . .
89(5) . . .
79(5) . . .
88(5) . . .
86(5) . . .
81(5) . . .
77(5) . . .
67(5) . . .
75(5) . . .
92(5) . . .
92(5) . . .
91(5) . . .
75(5) . . .
78(5) . . .
75(5) . . .
75(5) . . .
78(5) . . .
84(5) . . .
66(4) . . .
77(5) . . .
80(5) . . .
74(5) . . .
84(5) . . .
74(5) . . .
81(5) . . .
67(4) . . .
77(5) . . .
79(5) . . .
89(5) . . .
78(5) . . .
74(5) . . .
71(5) . . .
77(5) . . .
69(4) . . .
74(4) . . .
84(5) . . .
95(5) . . .
70(5) . . .
73(5) . . .
69(4) . . .
79(5) . . .
76(5) . . .
79(5) . . .
82(5) . . .
76(5) . . .
78(5) . . .
87(5) . . .
81(5) . . .
85(5) . . .
81(5) . . .
90(5) . . .
79(5) . . .
82(5) . . .
88(5) . . .
78(5) . . .
80(5) . . .
81(5) . . .
83(5) . . .
79(5) . . .
77(5) . . .
68(5) . . .
70(5) . . .
75(5) . . .
82(5) . . .
84(5) . . .
75(4) . . .
82(5) . . .
73(5) . . .
78(5) . . .
71(4) . . .
85(5) . . .
95(6) . . .
78(5) . . .
70(4) . . .
77(5) . . .
82(5) . . .
80(5) . . .
77(5) . . .
65(4) . . .
73(4) . . .
80(5) . . .
81(5) . . .
79(5) . . .
84(5) . . .
75(5) . . .
92(5) . . .
87(5) . . .
79(5) . . .
84(5) . . .
91(5) . . .
85(5) . . .
89(5) . . .
82(5) . . .
78(5) . . .
73(5) . . .
73(5) . . .
76(5) . . .
93(5) . . .
76(5) . . .
83(5) . . .
73(5) . . .
82(5) . . .
79(5) . . .
99(5) . . .
95(5) . . .
81(5) . . .
75(5) . . .
93(5) . . .
90(5) . . .
79(5) . . .
76(5) . . .
75(5) . . .
84(5) . . .
79(5) . . .
80(5) . . .
85(5) . . .
79(5) . . .
72(4) . . .
66(4) . . .
70(5) . . .
81(5) . . .
75(5) . . .
76(5) . . .
76(5) . . .
81(5) . . .
72(5) . . .
87(5) . . .
83(5) . . .
89(5) . . .
74(5) . . .
84(5) . . .
74(4) . . .
80(5) . . .
78(5) . . .
75(5) . . .
81(5) . . .
79(5) . . .
73(4) . . .
81(5) . . .
74(5) . . .
71(5) . . .
86(5) . . .
73(4) . . .
70(4) . . .
85(5) . . .
85(5) . . .
83(5) . . .
93(5) . . .
83(5) . . .
84(5) . . .
76(5) . . .
70(4) . . .
74(4) . . .
92(5) . . .
79(5) . . .
88(5) . . .
82(5) . . .
86(5) . . .
83(5) . . .
75(5) . . .
78(5) . . .
85(5) . . .
79(5) . . .
79(5) . . .
77(5) . . .
79(5) . . .
65(4) . . .
64(4) . . .
80(5) . . .
71(5) . . .
89(5) . . .
86(5) . . .
84(5) . . .
86(5) . . .
87(5) . . .
79(5) . . .
94(5) . . .
89(5) . . .
85(5) . . .
74(5) . . .
81(5) . . .
88(5) . . .
71(4) . . .
77(5) . . .
79(5) . . .
84(5) . . .
79(5) . . .
75(5) . . .
77(5) . . .
69(4) . . .
69(5) . . .
72(4) . . .
79(5) . . .
84(5) . . .
88(5) . . .
87(5) . . .
86(5) . . .
81(5) . . .
66(5) . . .
83(5) . . .
68(4) . . .
80(5) . . .
86(5) . . .
89(5) . . .
81(5) . . .
78(5) . . .
80(5) . . .
74(5) . . .
80(5) . . .
77(5) . . .
72(4) . . .
73(4) . . .
85(5) . . .
81(5) . . .
77(5) . . .
75(5) . . .
71(4) . . .
89(5) . . .
77(5) . . .
83(5) . . .
77(5) . . .
75(4) . . .
78(5) . . .
84(5) . . .
75(5) . . .
77(5) . . .
74(4) . . .
81(5) . . .
75(5) . . .
85(5) . . .
83(5) . . .
75(5) . . .
76(5) . . .
85(5) . . .
99(5) . . .
72(4) . . .
71(4) . . .
78(5) . . .
84(5) . . .
84(5) . . .
65(4) . . .
93(5) . . .
83(5) . . .
78(5) . . .
75(5) . . .
80(5) . . .
79(5) . . .
70(5) . . .
78(5) . . .
82(5) . . .
72(4) . . .
74(4) . . .
78(5) . . .
73(5) . . .
87(5) . . .
66(4) . . .
83(5) . . .
82(5) . . .
84(5) . . .
77(5) . . .
76(5) . . .
84(5) . . .
79(5) . . .
78(5) . . .
89(5) . . .
75(5) . . .
80(5) . . .
76(5) . . .
86(5) . . .
82(5) . . .
78(5) . . .
67(4) . . .
77(5) . . .
81(5) . . .
78(5) . . .
100(5) . . .
83(5) . . .
77(5) . . .
76(5) . . .
83(5) . . .
76(5) . . .
90(5) . . .
81(5) . . .
73(5) . . .
74(4) . . .
87(5) . . .
105(6) . . .
77(5) . . .
78(5) . . .
72(4) . . .
83(5) . . .
87(5) . . .
79(5) . . .
87(5) . . .
94(5) . . .
73(5) . . .
81(5) . . .
84(5) . . .
85(5) . . .
76(5) . . .
85(5) . . .
85(5) . . .
74(5) . . .
86(5) . . .
85(5) . . .
87(5) . . .
84(5) . . .
88(5) . . .
90(5) . . .
82(5) . . .
91(5) . . .
94(5) . . .
104(5) . . .
81(5) . . .
82(5) . . .
81(5) . . .
82(5) . . .
90(5) . . .
84(5) . . .
79(5) . . .
75(5) . . .
71(5) . . .
80(5) . . .
73(4) . . .
69(4) . . .
75(5) . . .
72(5) . . .
74(5) . . .
85(5) . . .
83(5) . . .
80(5) . . .
83(5) . . .
73(5) . . .
64(4) . . .
72(4) . . .
69(5) . . .
64(4) . . .
82(5) . . .
64(4) . . .
75(5) . . .
72(5) . . .
80(5) . . .
91(5) . . .
71(4) . . .
87(5) . . .
72(5) . . .
74(5) . . .
94(5) . . .
82(5) . . .
82(5) . . .
80(5) . . .
73(5) . . .
71(4) . . .
76(5) . . .
81(5) . . .
85(5) . . .
80(5) . . .
77(5) . . .
66(4) . . .
85(5) . . .
75(5) . . .
82(5) . . .
86(5) . . .
88(5) . . .
82(5) . . .
71(5) . . .
62(4) . . .
66(4) . . .
67(4) . . .
70(4) . . .
77(5) . . .
78(5) . . .
77(5) . . .
62(4) . . .
75(5) . . .
81(5) . . .
72(4) . . .
80(5) . . .
79(5) . . .
83(5) . . .
89(5) . . .
87(5) . . .
85(5) . . .
66(4) . . .
84(5) . . .
73(5) . . .
82(5) . . .
82(5) . . .
85(5) . . .
80(5) . . .
75(5) . . .
80(5) . . .
84(5) . . .
82(5) . . .
77(5) . . .
88(5) . . .
78(5) . . .
87(5) . . .
77(5) . . .
77(5) . . .
78(5) . . .
84(5) . . .
86(5) . . .
76(5) . . .
78(5) . . .
71(4) . . .
75(4) . . .
70(4) . . .
77(5) . . .
79(5) . . .
77(5) . . .
77(5) . . .
73(4) . . .
79(5) . . .
71(5) . . .
80(5) . . .
83(5) . . .
82(5) . . .
66(4) . . .
71(5) . . .
89(5) . . .
85(5) . . .
84(5) . . .
83(5) . . .
68(4) . . .
79(5) . . .
77(5) . . .
72(4) . . .
79(5) . . .
94(6) . . .
67(4) . . .
71(4) . . .
86(5) . . .
83(5) . . .
70(4) . . .
82(5) . . .
80(5) . . .
69(4) . . .
78(5) . . .
68(4) . . .
88(5) . . .
76(4) . . .
69(4) . . .
99(6) . . .
85(5) . . .
79(5) . . .
82(5) . . .
70(4) . . .
81(5) . . .
65(4) . . .
80(5) . . .
79(5) . . .
83(5) . . .
84(5) . . .
72(4) . . .
77(5) . . .
86(5) . . .
90(5) . . .
88(5) . . .
80(5) . . .
72(4) . . .
76(4) . . .
80(5) . . .
75(5) . . .
84(5) . . .
87(5) . . .
75(5) . . .
83(5) . . .
68(5) . . .
75(5) . . .
88(5) . . .
76(4) . . .
79(5) . . .
83(5) . . .
67(4) . . .
72(4) . . .
82(5) . . .
83(5) . . .
85(5) . . .
76(5) . . .
72(4) . . .
84(5) . . .
84(5) . . .
80(5) . . .
81(5) . . .
87(5) . . .
78(5) . . .
74(5) . . .
86(5) . . .
74(5) . . .
71(4) . . .
77(5) . . .
73(5) . . .
82(5) . . .
78(5) . . .
73(4) . . .
73(5) . . .
91(5) . . .
82(5) . . .
70(4) . . .
71(4) . . .
83(5) . . .
87(5) . . .
83(5) . . .
88(5) . . .
73(4) . . .
70(4) . . .
85(5) . . .
83(5) . . .
79(5) . . .
82(5) . . .
88(5) . . .
79(5) . . .
81(5) . . .
82(5) . . .
66(4) . . .
75(4) . . .
84(5) . . .
92(5) . . .
76(5) . . .
73(5) . . .
78(5) . . .
70(5) . . .
88(5) . . .
67(4) . . .
80(5) . . .
79(5) . . .
91(5) . . .
95(5) . . .
81(5) . . .
74(5) . . .
77(5) . . .
93(5) . . .
73(5) . . .
75(4) . . .
75(4) . . .
65(4) . . .
76(5) . . .
63(4) . . .
83(5) . . .
80(5) . . .
78(5) . . .
70(4) . . .
79(5) . . .
66(4) . . .
88(5) . . .
89(5) . . .
80(5) . . .
74(4) . . .
71(4) . . .
76(5) . . .
77(5) . . .
73(5) . . .
64(4) . . .
74(4) . . .
79(5) . . .
77(5) . . .
78(5) . . .
72(4) . . .
86(5) . . .
79(5) . . .
83(5) . . .
83(5) . . .
65(4) . . .
63(4) . . .
92(5) . . .
92(5) . . .
93(5) . . .
67(4) . . .
82(5) . . .
72(4) . . .
97(6) . . .
75(5) . . .
80(5) . . .
79(5) . . .
84(5) . . .
85(5) . . .
81(5) . . .
69(4) . . .
79(5) . . .
78(5) . . .
77(5) . . .
75(5) . . .
88(5) . . .
70(4) . . .
66(4) . . .
73(5) . . .
81(5) . . .
85(5) . . .
88(5) . . .
79(5) . . .
76(5) . . .
71(5) . . .
71(4) . . .
78(5) . . .
71(5) . . .
78(5) . . .
72(4) . . .
86(5) . . .
82(5) . . .
79(5) . . .
84(5) . . .
79(5) . . .
72(4) . . .
66(4) . . .
68(4) . . .
90(5) . . .
83(5) . . .
84(5) . . .
86(5) . . .
73(5) . . .
66(4) . . .
72(4) . . .
74(4) . . .
76(5) . . .
81(5) . . .
82(5) . . .
84(5) . . .
71(4) . . .
78(5) . . .
79(5) . . .
84(5) . . .
72(4) . . .
84(5) . . .
92(5) . . .
82(5) . . .
91(5) . . .
75(5) . . .
89(5) . . .
68(4) . . .
72(5) . . .
75(5) . . .
82(5) . . .
89(5) . . .
72(5) . . .
72(5) . . .
78(5) . . .
85(5) . . .
77(5) . . .
69(5) . . .
81(5) . . .
71(4) . . .
75(5) . . .
76(5) . . .
100(6) . . .
78(5) . . .
82(5) . . .
74(4) . . .
72(4) . . .
73(5) . . .
79(5) . . .
88(5) . . .
81(5) . . .
87(5) . . .
68(5) . . .
54(4) . . .
74(5) . . .
72(4) . . .
67(4) . . .
72(5) . . .
82(5) . . .
79(5) . . .
81(5) . . .
76(5) . . .
70(5) . . .
70(4) . . .
78(5) . . .
76(5) . . .
68(4) . . .
79(5) . . .
80(5) . . .
81(5) . . .
76(5) . . .
68(4) . . .
78(5) . . .
82(5) . . .
85(5) . . .
79(5) . . .
76(5) . . .
83(5) . . .
70(4) . . .
63(4) . . .
70(4) . . .
78(5) . . .
91(5) . . .
82(5) . . .
79(5) . . .
76(5) . . .
77(5) . . .
75(5) . . .
78(5) . . .
78(5) . . .
85(5) . . .
84(5) . . .
84(5) . . .
82(5) . . .
82(5) . . .
83(5) . . .
80(5) . . .
73(5) . . .
84(5) . . .
78(5) . . .
83(5) . . .
66(4) . . .
89(5) . . .
69(4) . . .
77(5) . . .
76(5) . . .
84(5) . . .
72(5) . . .
82(5) . . .
75(5) . . .
85(5) . . .
91(6) . . .
83(5) . . .
71(4) . . .
70(4) . . .
70(4) . . .
74(5) . . .
82(5) . . .
81(5) . . .
70(4) . . .
67(4) . . .
68(5) . . .
63(4) . . .
80(5) . . .
86(5) . . .
85(5) . . .
77(5) . . .
69(4) . . .
78(5) . . .
71(5) . . .
86(5) . . .
80(5) . . .
66(4) . . .
77(5) . . .
68(4) . . .
80(5) . . .
68(4) . . .
78(5) . . .
82(5) . . .
69(5) . . .
83(5) . . .
72(4) . . .
67(4) . . .
79(5) . . .
72(5) . . .
68(5) . . .
79(5) . . .
84(5) . . .
79(5) . . .
80(5) . . .
76(5) . . .
84(5) . . .
84(5) . . .
83(5) . . .
84(5) . . .
76(5) . . .
86(5) . . .
65(4) . . .
76(5) . . .
78(5) . . .
65(4) . . .
80(5) . . .
72(4) . . .
76(5) . . .
64(4) . . .
73(5) . . .
68(5) . . .
62(4) . . .
81(5) . . .
74(5) . . .
75(5) . . .
84(5) . . .
69(5) . . .
63(4) . . .
65(4) . . .
78(5) . . .
74(5) . . .
66(4) . . .
76(5) . . .
82(5) . . .
82(5) . . .
77(5) . . .
73(4) . . .
82(5) . . .
80(5) . . .
70(4) . . .
74(5) . . .
77(5) . . .
81(5) . . .
81(5) . . .
65(5) . . .
69(5) . . .
74(5) . . .
79(5) . . .
80(5) . . .
80(5) . . .
78(5) . . .
71(4) . . .
68(4) . . .
86(5) . . .
85(5) . . .
80(5) . . .
76(5) . . .
77(5) . . .
91(5) . . .
79(5) . . .
77(5) . . .
67(4) . . .
71(5) . . .
86(5) . . .
69(4) . . .
82(5) . . .
81(5) . . .
69(4) . . .
80(5) . . .
68(4) . . .
78(5) . . .
64(4) . . .
72(4) . . .
79(5) . . .
86(5) . . .
72(4) . . .
78(5) . . .
82(5) . . .
75(5) . . .
74(5) . . .
69(4) . . .
77(5) . . .
86(5) . . .
75(5) . . .
76(5) . . .
73(4) . . .
85(5) . . .
78(5) . . .
84(5) . . .
65(4) . . .
66(4) . . .
73(5) . . .
68(4) . . .
78(5) . . .
81(5) . . .
83(5) . . .
75(5) . . .
75(5) . . .
76(5) . . .
75(5) . . .
77(5) . . .
73(5) . . .
80(5) . . .
76(5) . . .
69(4) . . .
70(4) . . .
80(5) . . .
79(5) . . .
77(5) . . .
82(5) . . .
69(4) . . .
77(5) . . .
76(5) . . .
73(4) . . .
78(5) . . .
78(5) . . .
76(5) . . .
69(4) . . .
67(4) . . .
84(5) . . .
70(4) . . .
67(4) . . .
69(5) . . .
86(5) . . .
71(4) . . .
69(4) . . .
68(4) . . .
75(5) . . .
71(5) . . .
78(5) . . .
78(5) . . .
73(5) . . .
79(5) . . .
91(5) . . .
77(5) . . .
81(5) . . .
73(5) . . .
68(4) . . .
63(4) . . .
79(5) . . .
67(4) . . .
86(5) . . .
78(5) . . .
84(5) . . .
87(5) . . .
75(5) . . .
69(5) . . .
64(4) . . .
74(5) . . .
73(4) . . .
71(4) . . .
72(5) . . .
78(5) . . .
75(5) . . .
85(5) . . .
84(5) . . .
79(5) . . .
81(5) . . .
73(4) . . .
87(5) . . .
62(4) . . .
69(5) . . .
95(5) . . .
75(4) . . .
71(4) . . .
75(5) . . .
82(5) . . .
82(5) . . .
68(4) . . .
75(5) . . .
78(5) . . .
73(5) . . .
72(4) . . .
87(5) . . .
69(4) . . .
64(4) . . .
74(5) . . .
86(5) . . .
76(5) . . .
77(5) . . .
74(5) . . .
82(5) . . .
67(5) . . .
66(4) . . .
84(5) . . .
82(5) . . .
64(4) . . .
71(5) . . .
82(5) . . .
74(4) . . .
76(5) . . .
84(5) . . .
72(4) . . .
66(4) . . .
75(5) . . .
71(5) . . .
78(5) . . .
80(5) . . .
72(4) . . .
76(5) . . .
81(5) . . .
68(4) . . .
70(5) . . .
72(4) . . .
80(5) . . .
76(5) . . .
73(5) . . .
73(5) . . .
76(5) . . .
77(5) . . .
84(5) . . .
76(5) . . .
77(5) . . .
82(5) . . .
70(5) . . .
68(5) . . .
73(5) . . .
74(4) . . .
74(5) . . .
75(5) . . .
86(5) . . .
74(5) . . .
78(5) . . .
70(4) . . .
75(5) . . .
75(5) . . .
76(5) . . .
73(4) . . .
81(5) . . .
79(5) . . .
76(5) . . .
75(5) . . .
73(4) . . .
74(5) . . .
81(5) . . .
77(5) . . .
71(4) . . .
77(5) . . .
77(5) . . .
90(5) . . .
71(5) . . .
74(5) . . .
73(4) . . .
80(5) . . .
72(4) . . .
82(5) . . .
74(5) . . .
83(5) . . .
69(4) . . .
83(5) . . .
80(5) . . .
67(5) . . .
81(5) . . .
68(4) . . .
81(5) . . .
81(5) . . .
95(5) . . .
73(5) . . .
74(5) . . .
79(5) . . .
72(5) . . .
81(5) . . .
80(5) . . .
65(4) . . .
69(4) . . .
78(5) . . .
80(5) . . .
75(5) . . .
64(4) . . .
67(5) . . .
68(5) . . .
76(5) . . .
66(4) . . .
80(5) . . .
73(5) . . .
78(5) . . .
79(5) . . .
85(5) . . .
74(5) . . .
83(5) . . .
70(4) . . .
85(5) . . .
79(5) . . .
69(4) . . .
77(5) . . .
73(5) . . .
75(4) . . .
71(5) . . .
71(4) . . .
73(5) . . .
73(5) . . .
69(4) . . .
77(5) . . .
86(5) . . .
79(5) . . .
81(5) . . .
74(4) . . .
73(4) . . .
67(4) . . .
73(5) . . .
75(5) . . .
78(5) . . .
81(5) . . .
71(4) . . .
73(5) . . .
75(4) . . .
88(5) . . .
77(5) . . .
79(5) . . .
78(5) . . .
78(5) . . .
71(4) . . .
78(5) . . .
73(5) . . .
77(5) . . .
80(5) . . .
87(5) . . .
88(5) . . .
77(5) . . .
73(5) . . .
79(5) . . .
70(4) . . .
91(5) . . .
80(5) . . .
76(5) . . .
76(5) . . .
87(5) . . .
85(5) . . .
85(5) . . .
75(5) . . .
68(4) . . .
77(5) . . .
82(5) . . .
74(5) . . .
81(5) . . .
68(4) . . .
71(4) . . .
79(5) . . .
80(5) . . .
69(5) . . .
65(4) . . .
60(4) . . .
90(5) . . .
75(5) . . .
64(4) . . .
72(4) . . .
74(5) . . .
72(5) . . .
72(5) . . .
81(5) . . .
70(4) . . .
65(4) . . .
81(5) . . .
88(5) . . .
73(5) . . .
71(4) . . .
78(5) . . .
78(5) . . .
73(4) . . .
72(4) . . .
66(4) . . .
69(4) . . .
73(5) . . .
80(5) . . .
70(4) . . .
83(5) . . .
78(5) . . .
75(5) . . .
64(4) . . .
70(4) . . .
85(5) . . .
70(4) . . .
76(5) . . .
65(4) . . .
72(4) . . .
83(5) . . .
80(5) . . .
79(5) . . .
90(5) . . .
71(4) . . .
88(5) . . .
67(4) . . .
68(4) . . .
74(5) . . .
83(5) . . .
79(5) . . .
79(5) . . .
80(5) . . .
77(5) . . .
73(4) . . .
60(4) . . .
72(5) . . .
82(5) . . .
87(5) . . .
77(4) . . .
77(5) . . .
85(5) . . .
83(5) . . .
69(4) . . .
67(4) . . .
70(4) . . .
70(5) . . .
71(5) . . .
75(5) . . .
69(4) . . .
78(5) . . .
73(5) . . .
78(5) . . .
70(4) . . .
74(5) . . .
82(5) . . .
68(5) . . .
72(5) . . .
67(4) . . .
89(5) . . .
69(4) . . .
74(5) . . .
72(5) . . .
69(4) . . .
72(4) . . .
67(4) . . .
78(5) . . .
73(5) . . .
73(4) . . .
71(4) . . .
67(4) . . .
80(5) . . .
76(5) . . .
71(4) . . .
72(4) . . .
66(4) . . .
68(4) . . .
78(5) . . .
84(5) . . .
86(5) . . .
72(4) . . .
69(5) . . .
77(5) . . .
73(4) . . .
66(4) . . .
64(5) . . .
79(5) . . .
77(5) . . .
77(5) . . .
70(4) . . .
74(4) . . .
78(5) . . .
68(4) . . .
66(4) . . .
63(4) . . .
75(5) . . .
82(5) . . .
83(5) . . .
72(4) . . .
68(4) . . .
80(5) . . .
71(4) . . .
65(4) . . .
75(5) . . .
77(5) . . .
81(5) . . .
92(5) . . .
79(5) . . .
69(4) . . .
70(5) . . .
77(5) . . .
79(5) . . .
79(5) . . .
66(4) . . .
66(4) . . .
81(5) . . .
70(5) . . .
58(4) . . .
87(5) . . .
89(5) . . .
70(5) . . .
76(5) . . .
82(5) . . .
79(5) . . .
76(5) . . .
77(5) . . .
73(4) . . .
78(5) . . .
77(5) . . .
64(4) . . .
80(5) . . .
68(4) . . .
75(5) . . .
77(5) . . .
72(4) . . .
85(5) . . .
73(5) . . .
73(4) . . .
69(4) . . .
58(4) . . .
80(5) . . .
71(4) . . .
76(5) . . .
82(5) . . .
78(5) . . .
74(5) . . .
73(5) . . .
70(4) . . .
72(5) . . .
78(5) . . .
68(5) . . .
81(5) . . .
87(5) . . .
70(5) . . .
63(4) . . .
76(5) . . .
83(5) . . .
72(4) . . .
74(5) . . .
58(4) . . .
71(5) . . .
76(5) . . .
68(4) . . .
72(5) . . .
74(5) . . .
78(5) . . .
73(4) . . .
73(5) . . .
70(5) . . .
79(5) . . .
82(5) . . .
85(5) . . .
77(5) . . .
72(5) . . .
65(4) . . .
75(5) . . .
76(5) . . .
67(4) . . .
86(5) . . .
75(5) . . .
78(5) . . .
82(5) . . .
74(4) . . .
83(5) . . .
83(5) . . .
87(5) . . .
74(5) . . .
72(5) . . .
69(4) . . .
82(5) . . .
87(5) . . .
74(4) . . .
86(5) . . .
79(5) . . .
75(5) . . .
74(5) . . .
66(4) . . .
85(5) . . .
76(5) . . .
85(5) . . .
72(4) . . .
68(4) . . .
63(5) . . .
67(4) . . .
71(5) . . .
75(5) . . .
77(4) . . .
71(5) . . .
70(4) . . .
74(5) . . .
75(5) . . .
78(5) . . .
81(5) . . .
70(4) . . .
73(5) . . .
75(4) . . .
72(4) . . .
75(5) . . .
73(5) . . .
66(4) . . .
82(5) . . .
78(5) . . .
73(5) . . .
77(5) . . .
88(5) . . .
81(5) . . .
90(5) . . .
78(5) . . .
73(5) . . .
78(5) . . .
76(5) . . .
68(4) . . .
67(4) . . .
79(5) . . .
71(5) . . .
88(5) . . .
81(5) . . .
76(5) . . .
75(5) . . .
68(5) . . .
66(4) . . .
77(5) . . .
74(5) . . .
71(5) . . .
69(4) . . .
81(5) . . .
71(5) . . .
78(5) . . .
68(4) . . .
84(5) . . .
71(4) . . .
68(5) . . .
69(5) . . .
69(4) . . .
66(4) . . .
76(5) . . .
73(5) . . .
66(4) . . .
74(5) . . .
86(5) . . .
79(5) . . .
93(5) . . .
72(5) . . .
83(5) . . .
75(4) . . .
70(4) . . .
73(4) . . .
78(5) . . .
69(4) . . .
64(4) . . .
67(4) . . .
62(4) . . .
66(5) . . .
69(4) . . .
86(5) . . .
79(5) . . .
77(5) . . .
75(5) . . .
75(5) . . .
70(4) . . .
77(5) . . .
70(5) . . .
77(5) . . .
80(5) . . .
68(4) . . .
75(4) . . .
83(5) . . .
83(5) . . .
66(4) . . .
74(5) . . .
85(5) . . .
74(5) . . .
66(4) . . .
75(5) . . .
75(4) . . .
64(4) . . .
62(4) . . .
74(5) . . .
62(4) . . .
67(4) . . .
81(5) . . .
71(4) . . .
76(5) . . .
68(4) . . .
80(5) . . .
75(5) . . .
78(5) . . .
82(5) . . .
80(5) . . .
71(4) . . .
72(5) . . .
75(5) . . .
91(5) . . .
70(4) . . .
77(5) . . .
86(5) . . .
77(5) . . .
90(5) . . .
86(5) . . .
72(4) . . .
56(4) . . .
67(4) . . .
77(4) . . .
71(4) . . .
67(4) . . .
79(5) . . .
74(5) . . .
68(4) . . .
68(4) . . .
66(4) . . .
69(4) . . .
69(4) . . .
79(5) . . .
76(4) . . .
64(4) . . .
69(4) . . .
72(5) . . .
70(4) . . .
67(4) . . .
74(4) . . .
82(5) . . .
72(5) . . .
70(5) . . .
73(4) . . .
78(5) . . .
75(5) . . .
78(5) . . .
72(4) . . .
69(4) . . .
63(4) . . .
55(4) . . .
72(5) . . .
70(4) . . .
70(4) . . .
69(5) . . .
66(4) . . .
67(4) . . .
84(5) . . .
76(5) . . .
62(4) . . .
67(5) . . .
76(5) . . .
74(5) . . .
74(4) . . .
77(5) . . .
63(4) . . .
66(4) . . .
81(5) . . .
87(5) . . .
79(5) . . .
64(4) . . .
77(5) . . .
80(5) . . .
88(5) . . .
73(4) . . .
68(5) . . .
73(5) . . .
71(4) . . .
79(5) . . .
80(5) . . .
77(5) . . .
72(4) . . .
69(4) . . .
62(4) . . .
67(4) . . .
77(5) . . .
67(4) . . .
59(4) . . .
79(5) . . .
64(4) . . .
72(5) . . .
71(5) . . .
90(5) . . .
76(5) . . .
77(5) . . .
95(5) . . .
83(5) . . .
71(4) . . .
78(5) . . .
76(5) . . .
76(5) . . .
83(5) . . .
68(4) . . .
70(4) . . .
72(5) . . .
62(4) . . .
77(5) . . .
76(5) . . .
73(5) . . .
72(5) . . .
74(5) . . .
64(4) . . .
68(4) . . .
70(5) . . .
68(4) . . .
79(5) . . .
70(4) . . .
70(4) . . .
80(5) . . .
72(5) . . .
82(5) . . .
60(4) . . .
66(4) . . .
61(4) . . .
57(4) . . .
67(4) . . .
69(4) . . .
72(4) . . .
75(5) . . .
71(5) . . .
69(4) . . .
66(4) . . .
83(5) . . .
78(5) . . .
76(5) . . .
84(5) . . .
74(4) . . .
65(4) . . .
71(5) . . .
78(5) . . .
88(5) . . .
67(4) . . .
82(5) . . .
74(5) . . .
74(5) . . .
67(4) . . .
77(5) . . .
75(5) . . .
79(5) . . .
77(5) . . .
77(5) . . .
70(4) . . .
73(5) . . .
66(4) . . .
61(4) . . .
65(4) . . .
75(4) . . .
66(4) . . .
60(4) . . .
73(5) . . .
78(5) . . .
75(4) . . .
63(4) . . .
69(5) . . .
70(4) . . .
71(4) . . .
78(5) . . .
79(5) . . .
74(5) . . .
71(5) . . .
76(4) . . .
81(5) . . .
67(5) . . .
77(5) . . .
67(4) . . .
71(4) . . .
80(5) . . .
80(5) . . .
86(5) . . .
83(5) . . .
78(5) . . .
63(4) . . .
65(4) . . .
68(5) . . .
69(4) . . .
86(5) . . .
68(4) . . .
77(5) . . .
75(5) . . .
72(5) . . .
72(4) . . .
76(5) . . .
71(5) . . .
70(5) . . .
55(4) . . .
60(4) . . .
67(4) . . .
71(4) . . .
65(4) . . .
69(5) . . .
69(4) . . .
68(4) . . .
74(5) . . .
69(4) . . .
73(4) . . .
71(4) . . .
74(5) . . .
72(5) . . .
82(5) . . .
65(4) . . .
77(5) . . .
83(5) . . .
80(5) . . .
70(5) . . .
79(5) . . .
72(4) . . .
71(5) . . .
77(5) . . .
92(5) . . .
69(4) . . .
79(5) . . .
64(4) . . .
64(5) . . .
74(5) . . .
74(4) . . .
71(4) . . .
76(5) . . .
72(5) . . .
69(5) . . .
72(4) . . .
80(5) . . .
73(5) . . .
84(5) . . .
69(4) . . .
68(4) . . .
67(4) . . .
74(5) . . .
79(5) . . .
79(5) . . .
79(5) . . .
78(5) . . .
78(5) . . .
81(5) . . .
71(5) . . .
74(4) . . .
77(5) . . .
71(4) . . .
81(5) . . .
68(4) . . .
68(4) . . .
74(5) . . .
66(4) . . .
70(5) . . .
67(4) . . .
70(4) . . .
71(5) . . .
69(5) . . .
71(4) . . .
83(5) . . .
80(5) . . .
68(4) . . .
72(5) . . .
86(5) . . .
62(4) . . .
75(5) . . .
73(5) . . .
90(5) . . .
67(4) . . .
70(4) . . .
73(5) . . .
76(5) . . .
70(5) . . .
76(5) . . .
75(5) . . .
63(4) . . .
60(4) . . .
79(5) . . .
80(5) . . .
73(4) . . .
74(4) . . .
63(4) . . .
67(5) . . .
72(5) . . .
81(5) . . .
67(4) . . .
69(4) . . .
78(5) . . .
72(4) . . .
74(5) . . .
80(5) . . .
77(5) . . .
75(5) . . .
66(4) . . .
75(5) . . .
70(4) . . .
82(5) . . .
78(5) . . .
71(4) . . .
59(4) . . .
83(5) . . .
78(5) . . .
80(5) . . .
77(5) . . .
71(4) . . .
71(5) . . .
66(5) . . .
68(5) . . .
69(4) . . .
62(4) . . .
63(4) . . .
73(5) . . .
88(5) . . .
70(4) . . .
71(4) . . .
67(4) . . .
62(4) . . .
60(4) . . .
71(4) . . .
70(4) . . .
79(5) . . .
78(5) . . .
74(5) . . .
90(5) . . .
72(5) . . .
86(5) . . .
82(5) . . .
67(4) . . .
70(4) . . .
66(4) . . .
71(4) . . .
88(5) . . .
77(5) . . .
74(4) . . .
76(5) . . .
64(4) . . .
70(5) . . .
78(5) . . .
85(5) . . .
65(4) . . .
68(4) . . .
76(5) . . .
68(4) . . .
70(4) . . .
71(5) . . .
72(5) . . .
78(5) . . .
72(5) . . .
64(4) . . .
81(5) . . .
71(4) . . .
84(5) . . .
80(5) . . .
74(4) . . .
73(5) . . .
69(5) . . .
66(4) . . .
72(4) . . .
66(4) . . .
66(4) . . .
78(5) . . .
74(5) . . .
74(4) . . .
85(5) . . .
78(5) . . .
68(5) . . .
65(4) . . .
74(4) . . .
73(4) . . .
76(5) . . .
67(5) . . .
69(5) . . .
72(4) . . .
83(5) . . .
69(5) . . .
71(5) . . .
75(5) . . .
73(4) . . .
64(4) . . .
75(5) . . .
69(5) . . .
80(5) . . .
70(4) . . .
67(4) . . .
65(4) . . .
76(5) . . .
70(5) . . .
73(4) . . .
76(5) . . .
74(5) . . .
81(5) . . .
86(5) . . .
90(5) . . .
70(4) . . .
70(5) . . .
72(5) . . .
71(5) . . .
70(4) . . .
71(4) . . .
70(5) . . .
74(5) . . .
73(5) . . .
74(4) . . .
70(5) . . .
73(5) . . .
69(5) . . .
65(4) . . .
67(4) . . .
69(4) . . .
70(5) . . .
72(5) . . .
73(5) . . .
63(4) . . .
75(5) . . .
76(5) . . .
74(4) . . .
82(5) . . .
73(4) . . .
69(4) . . .
69(5) . . .
72(5) . . .
71(4) . . .
70(4) . . .
63(4) . . .
78(5) . . .
80(5) . . .
86(5) . . .
66(4) . . .
77(5) . . .
77(5) . . .
64(4) . . .
45(4) . . .
69(4) . . .
80(5) . . .
74(5) . . .
70(4) . . .
70(4) . . .
53(4) . . .
77(5) . . .
71(5) . . .
79(5) . . .
74(5) . . .
71(4) . . .
65(4) . . .
75(5) . . .
65(4) . . .
83(5) . . .
70(4) . . .
74(5) . . .
71(5) . . .
69(4) . . .
62(4) . . .
60(4) . . .
70(5) . . .
65(4) . . .
63(4) . . .
75(4) . . .
64(4) . . .
70(5) . . .
66(4) . . .
63(4) . . .
73(4) . . .
66(4) . . .
76(5) . . .
84(5) . . .
72(4) . . .
81(5) . . .
75(5) . . .
70(4) . . .
72(5) . . .
80(5) . . .
74(4) . . .
76(5) . . .
77(5) . . .
67(4) . . .
77(5) . . .
72(4) . . .
72(5) . . .
74(5) . . .
77(5) . . .
65(4) . . .
57(4) . . .
78(5) . . .
68(4) . . .
76(5) . . .
87(5) . . .
69(4) . . .
79(5) . . .
83(5) . . .
79(5) . . .
77(4) . . .
66(4) . . .
71(5) . . .
66(4) . . .
72(5) . . .
87(5) . . .
74(5) . . .
73(5) . . .
83(5) . . .
86(5) . . .
69(4) . . .
67(4) . . .
65(4) . . .
61(4) . . .
74(5) . . .
79(5) . . .
81(5) . . .
74(5) . . .
71(4) . . .
73(4) . . .
67(4) . . .
70(4) . . .
69(5) . . .
69(4) . . .
65(4) . . .
80(5) . . .
92(5) . . .
69(4) . . .
57(4) . . .
66(4) . . .
80(5) . . .
82(5) . . .
81(5) . . .
68(4) . . .
75(5) . . .
66(4) . . .
70(5) . . .
75(5) . . .
81(5) . . .
67(4) . . .
80(5) . . .
78(5) . . .
66(4) . . .
76(5) . . .
68(4) . . .
77(5) . . .
65(4) . . .
75(5) . . .
75(5) . . .
77(5) . . .
74(4) . . .
73(5) . . .
62(4) . . .
72(5) . . .
73(4) . . .
66(4) . . .
78(5) . . .
70(5) . . .
78(5) . . .
73(4) . . .
76(5) . . .
81(5) . . .
71(4) . . .
86(5) . . .
75(4) . . .
72(5) . . .
76(5) . . .
62(4) . . .
73(5) . . .
61(4) . . .
65(4) . . .
68(5) . . .
66(4) . . .
72(4) . . .
70(4) . . .
86(5) . . .
68(4) . . .
61(4) . . .
73(4) . . .
84(5) . . .
72(5) . . .
86(5) . . .
77(5) . . .
60(4) . . .
71(4) . . .
72(4) . . .
66(4) . . .
71(5) . . .
67(4) . . .
83(5) . . .
71(5) . . .
67(5) . . .
81(5) . . .
74(4) . . .
58(4) . . .
65(4) . . .
64(4) . . .
71(4) . . .
75(4) . . .
79(5) . . .
63(4) . . .
74(5) . . .
58(4) . . .
66(4) . . .
70(5) . . .
67(4) . . .
57(4) . . .
61(4) . . .
71(4) . . .
70(4) . . .
80(5) . . .
66(4) . . .
80(5) . . .
74(5) . . .
72(5) . . .
65(4) . . .
68(4) . . .
62(4) . . .
55(4) . . .
70(5) . . .
64(4) . . .
68(5) . . .
67(4) . . .
76(4) . . .
66(4) . . .
71(5) . . .
79(5) . . .
67(4) . . .
75(5) . . .
78(5) . . .
73(5) . . .
71(5) . . .
75(5) . . .
62(4) . . .
77(5) . . .
81(5) . . .
56(4) . . .
68(4) . . .
69(4) . . .
77(5) . . .
76(5) . . .
61(4) . . .
64(4) . . .
65(4) . . .
70(4) . . .
74(5) . . .
71(4) . . .
63(4) . . .
70(4) . . .
82(5) . . .
76(5) . . .
68(4) . . .
83(5) . . .
75(5) . . .
64(4) . . .
62(4) . . .
61(4) . . .
73(5) . . .
79(5) . . .
83(5) . . .
75(5) . . .
70(4) . . .
84(5) . . .
66(4) . . .
65(4) . . .
69(4) . . .
76(5) . . .
72(4) . . .
75(5) . . .
68(5) . . .
56(4) . . .
71(5) . . .
83(5) . . .
76(5) . . .
67(4) . . .
74(5) . . .
77(5) . . .
71(4) . . .
79(5) . . .
73(5) . . .
73(5) . . .
66(4) . . .
66(4) . . .
67(4) . . .
69(5) . . .
63(4) . . .
75(4) . . .
76(5) . . .
82(5) . . .
64(4) . . .
82(5) . . .
76(5) . . .
73(4) . . .
84(5) . . .
71(5) . . .
63(4) . . .
61(4) . . .
70(4) . . .
68(4) . . .
69(5) . . .
62(4) . . .
71(4) . . .
64(4) . . .
65(4) . . .
69(4) . . .
73(4) . . .
58(4) . . .
68(4) . . .
61(4) . . .
73(5) . . .
64(4) . . .
68(4) . . .
79(5) . . .
73(5) . . .
76(5) . . .
74(5) . . .
70(4) . . .
64(4) . . .
71(4) . . .
84(5) . . .
77(5) . . .
66(4) . . .
74(5) . . .
72(5) . . .
69(4) . . .
80(5) . . .
77(5) . . .
64(4) . . .
68(4) . . .
75(5) . . .
73(5) . . .
71(4) . . .
68(4) . . .
68(5) . . .
66(4) . . .
72(5) . . .
65(4) . . .
69(4) . . .
75(5) . . .
64(4) . . .
76(5) . . .
77(5) . . .
65(4) . . .
71(5) . . .
79(5) . . .
72(4) . . .
65(4) . . .
68(4) . . .
80(5) . . .
72(5) . . .
66(4) . . .
56(4) . . .
69(5) . . .
70(5) . . .
62(4) . . .
73(4) . . .
60(4) . . .
70(5) . . .
71(4) . . .
79(5) . . .
70(4) . . .
67(4) . . .
69(4) . . .
65(4) . . .
68(4) . . .
69(4) . . .
75(5) . . .
73(5) . . .
75(5) . . .
68(4) . . .
65(4) . . .
65(4) . . .
79(5) . . .
69(5) . . .
78(5) . . .
81(5) . . .
71(4) . . .
83(5) . . .
71(4) . . .
66(4) . . .
65(4) . . .
73(5) . . .
72(5) . . .
74(5) . . .
76(5) . . .
75(5) . . .
73(5) . . .
72(5) . . .
69(5) . . .
68(4) . . .
79(5) . . .
82(5) . . .
58(4) . . .
66(4) . . .
72(4) . . .
65(4) . . .
72(5) . . .
74(5) . . .
77(5) . . .
75(4) . . .
77(5) . . .
73(5) . . .
70(4) . . .
77(5) . . .
72(4) . . .
67(4) . . .
69(4) . . .
70(5) . . .
70(4) . . .
77(5) . . .
70(4) . . .
77(5) . . .
72(5) . . .
70(5) . . .
76(5) . . .
79(5) . . .
61(4) . . .
72(5) . . .
66(4) . . .
73(4) . . .
77(5) . . .
64(4) . . .
70(5) . . .
65(4) . . .
65(4) . . .
74(5) . . .
77(5) . . .
72(5) . . .
69(4) . . .
70(4) . . .
80(5) . . .
77(5) . . .
71(4) . . .
66(4) . . .
74(4) . . .
71(5) . . .
71(5) . . .
87(5) . . .
69(4) . . .
67(4) . . .
67(4) . . .
68(5) . . .
80(5) . . .
92(5) . . .
67(4) . . .
82(5) . . .
81(5) . . .
75(5) . . .
67(4) . . .
76(5) . . .
72(5) . . .
63(4) . . .
75(5) . . .
67(4) . . .
61(4) . . .
76(5) . . .
72(5) . . .
66(4) . . .
75(5) . . .
74(5) . . .
68(5) . . .
77(5) . . .
59(4) . . .
69(4) . . .
66(4) . . .
66(4) . . .
72(5) . . .
67(4) . . .
68(4) . . .
67(4) . . .
66(4) . . .
66(4) . . .
70(4) . . .
72(4) . . .
63(4) . . .
61(4) . . .
74(5) . . .
65(4) . . .
65(4) . . .
72(5) . . .
61(5) . . .
60(4) . . .
70(5) . . .
59(4) . . .
75(5) . . .
72(5) . . .
64(4) . . .
72(4) . . .
72(4) . . .
69(4) . . .
73(5) . . .
82(5) . . .
66(4) . . .
67(4) . . .
64(4) . . .
62(4) . . .
70(5) . . .
70(4) . . .
68(4) . . .
75(5) . . .
74(5) . . .
69(5) . . .
65(4) . . .
75(5) . . .
72(5) . . .
65(5) . . .
66(4) . . .
75(4) . . .
66(4) . . .
70(5) . . .
69(5) . . .
62(4) . . .
69(4) . . .
75(5) . . .
71(5) . . .
74(5) . . .
70(4) . . .
77(5) . . .
74(5) . . .
66(4) . . .
72(5) . . .
80(5) . . .
78(5) . . .
65(4) . . .
69(5) . . .
78(5) . . .
78(5) . . .
71(4) . . .
72(5) . . .
78(5) . . .
67(4) . . .
75(4) . . .
63(4) . . .
75(5) . . .
71(4) . . .
84(5) . . .
67(4) . . .
70(4) . . .
68(5) . . .
74(5) . . .
80(5) . . .
69(4) . . .
65(4) . . .
69(4) . . .
73(5) . . .
65(4) . . .
72(4) . . .
64(4) . . .
66(4) . . .
66(5) . . .
67(4) . . .
84(5) . . .
69(4) . . .
68(4) . . .
62(4) . . .
69(5) . . .
73(4) . . .
65(4) . . .
62(4) . . .
71(5) . . .
66(4) . . .
77(5) . . .
70(4) . . .
80(5) . . .
59(4) . . .
68(4) . . .
76(5) . . .
79(5) . . .
72(5) . . .
63(4) . . .
64(4) . . .
73(4) . . .
78(5) . . .
74(5) . . .
75(5) . . .
69(4) . . .
73(4) . . .
68(4) . . .
74(5) . . .
63(4) . . .
72(4) . . .
72(4) . . .
80(5) . . .
74(5) . . .
71(5) . . .
71(4) . . .
71(4) . . .
74(5) . . .
66(4) . . .
80(5) . . .
75(4) . . .
65(4) . . .
58(4) . . .
69(5) . . .
70(4) . . .
76(5) . . .
73(5) . . .
62(4) . . .
63(4) . . .
67(5) . . .
74(4) . . .
70(4) . . .
65(4) . . .
69(4) . . .
72(4) . . .
67(4) . . .
63(4) . . .
54(4) . . .
54(4) . . .
80(5) . . .
77(5) . . .
70(4) . . .
73(5) . . .
72(5) . . .
62(4) . . .
70(4) . . .
65(4) . . .
65(4) . . .
69(4) . . .
76(5) . . .
72(4) . . .
73(5) . . .
72(5) . . .
78(5) . . .
83(5) . . .
65(4) . . .
69(4) . . .
89(5) . . .
66(4) . . .
66(4) . . .
74(4) . . .
67(4) . . .
61(4) . . .
73(5) . . .
55(4) . . .
62(4) . . .
63(4) . . .
74(5) . . .
74(5) . . .
79(5) . . .
76(4) . . .
64(4) . . .
65(5) . . .
62(4) . . .
75(5) . . .
72(4) . . .
73(5) . . .
70(5) . . .
61(4) . . .
71(4) . . .
73(4) . . .
80(5) . . .
67(4) . . .
75(5) . . .
72(4) . . .
73(4) . . .
56(4) . . .
71(5) . . .
63(4) . . .
72(4) . . .
68(4) . . .
63(4) . . .
75(4) . . .
79(5) . . .
64(4) . . .
82(5) . . .
77(5) . . .
71(4) . . .
76(5) . . .
64(5) . . .
74(5) . . .
65(4) . . .
70(4) . . .
65(4) . . .
73(5) . . .
79(5) . . .
69(4) . . .
67(4) . . .
71(5) . . .
79(5) . . .
71(5) . . .
65(4) . . .
67(4) . . .
61(4) . . .
70(5) . . .
61(4) . . .
72(4) . . .
73(4) . . .
66(4) . . .
75(5) . . .
70(5) . . .
70(4) . . .
81(5) . . .
66(4) . . .
76(5) . . .
69(4) . . .
57(4) . . .
77(5) . . .
75(5) . . .
72(5) . . .
68(4) . . .
60(4) . . .
82(5) . . .
80(5) . . .
78(5) . . .
70(5) . . .
73(4) . . .
67(4) . . .
63(4) . . .
79(5) . . .
62(4) . . .
64(4) . . .
68(4) . . .
68(5) . . .
67(4) . . .
65(4) . . .
73(4) . . .
71(4) . . .
82(5) . . .
66(4) . . .
69(4) . . .
76(4) . . .
73(5) . . .
77(5) . . .
77(5) . . .
69(4) . . .
68(4) . . .
68(4) . . .
73(5) . . .
68(4) . . .
69(4) . . .
67(4) . . .
67(4) . . .
61(4) . . .
73(5) . . .
72(4) . . .
80(5) . . .
70(4) . . .
89(5) . . .
74(5) . . .
56(4) . . .
70(4) . . .
73(5) . . .
66(5) . . .
65(4) . . .
73(4) . . .
84(5) . . .
81(5) . . .
68(5) . . .
64(4) . . .
68(4) . . .
70(4) . . .
76(5) . . .
65(4) . . .
63(4) . . .
76(5) . . .
63(4) . . .
61(4) . . .
66(5) . . .
78(5) . . .
76(5) . . .
74(4) . . .
78(5) . . .
69(5) . . .
71(4) . . .
79(5) . . .
73(4) . . .
72(5) . . .
61(4) . . .
70(4) . . .
76(5) . . .
71(4) . . .
57(4) . . .
83(5) . . .
86(5) . . .
67(4) . . .
76(5) . . .
70(5) . . .
71(5) . . .
73(4) . . .
81(5) . . .
62(4) . . .
74(5) . . .
63(4) . . .
64(4) . . .
66(4) . . .
64(4) . . .
74(5) . . .
82(5) . . .
71(4) . . .
82(5) . . .
78(5) . . .
76(5) . . .
69(4) . . .
77(5) . . .
75(5) . . .
77(5) . . .
75(5) . . .
77(5) . . .
71(4) . . .
76(5) . . .
63(4) . . .
66(4) . . .
81(5) . . .
66(4) . . .
64(4) . . .
67(4) . . .
59(4) . . .
66(5) . . .
59(4) . . .
71(4) . . .
78(5) . . .
61(4) . . .
65(4) . . .
71(4) . . .
72(5) . . .
65(4) . . .
72(5) . . .
66(4) . . .
61(4) . . .
65(4) . . .
68(4) . . .
67(4) . . .
64(4) . . .
71(4) . . .
62(4) . . .
65(4) . . .
63(4) . . .
64(4) . . .
70(4) . . .
68(5) . . .
70(5) . . .
78(5) . . .
68(4) . . .
66(4) . . .
77(5) . . .
78(5) . . .
69(4) . . .
72(4) . . .
66(4) . . .
60(4) . . .
58(4) . . .
65(4) . . .
70(5) . . .
66(4) . . .
66(4) . . .
65(4) . . .
65(4) . . .
55(4) . . .
74(4) . . .
55(4) . . .
60(4) . . .
75(5) . . .
70(4) . . .
50(4) . . .
58(4) . . .
70(5) . . .
64(4) . . .
78(5) . . .
69(4) . . .
68(4) . . .
78(5) . . .
62(4) . . .
60(4) . . .
69(4) . . .
63(4) . . .
67(4) . . .
69(4) . . .
66(4) . . .
77(5) . . .
65(4) . . .
62(4) . . .
68(4) . . .
81(5) . . .
79(5) . . .
69(4) . . .
73(5) . . .
68(4) . . .
66(4) . . .
68(4) . . .
65(4) . . .
71(4) . . .
73(4) . . .
75(5) . . .
71(4) . . .
70(5) . . .
61(4) . . .
65(4) . . .
72(4) . . .
61(4) . . .
75(5) . . .
66(4) . . .
70(4) . . .
60(4) . . .
65(4) . . .
65(4) . . .
69(4) . . .
62(4) . . .
85(5) . . .
73(5) . . .
65(4) . . .
67(5) . . .
63(4) . . .
70(4) . . .
72(5) . . .
70(5) . . .
68(5) . . .
70(4) . . .
59(4) . . .
69(4) . . .
69(5) . . .
63(4) . . .
67(4) . . .
79(5) . . .
67(4) . . .
62(4) . . .
70(4) . . .
77(5) . . .
67(5) . . .
57(4) . . .
56(4) . . .
71(5) . . .
63(4) . . .
63(4) . . .
69(5) . . .
58(4) . . .
65(4) . . .
63(4) . . .
66(4) . . .
59(4) . . .
67(5) . . .
73(5) . . .
68(4) . . .
66(4) . . .
63(4) . . .
69(4) . . .
80(5) . . .
67(4) . . .
60(4) . . .
67(5) . . .
68(4) . . .
67(4) . . .
77(5) . . .
81(5) . . .
79(5) . . .
69(4) . . .
74(4) . . .
58(4) . . .
71(5) . . .
64(4) . . .
65(4) . . .
69(4) . . .
66(4) . . .
70(5) . . .
63(4) . . .
59(4) . . .
68(4) . . .
69(4) . . .
78(5) . . .
71(5) . . .
75(5) . . .
62(4) . . .
62(4) . . .
66(4) . . .
74(5) . . .
69(4) . . .
70(4) . . .
69(4) . . .
72(5) . . .
67(4) . . .
63(4) . . .
64(4) . . .
62(4) . . .
71(5) . . .
59(4) . . .
62(4) . . .
77(5) . . .
84(5) . . .
70(4) . . .
69(5) . . .
56(4) . . .
67(4) . . .
70(4) . . .
68(5) . . .
65(4) . . .
67(4) . . .
64(4) . . .
71(4) . . .
61(4) . . .
60(4) . . .
67(4) . . .
67(4) . . .
73(5) . . .
65(5) . . .
71(5) . . .
79(5) . . .
73(5) . . .
68(4) . . .
65(4) . . .
67(4) . . .
79(5) . . .
72(4) . . .
75(5) . . .
63(4) . . .
72(5) . . .
72(4) . . .
66(4) . . .
63(4) . . .
62(4) . . .
69(4) . . .
64(4) . . .
58(4) . . .
67(4) . . .
65(4) . . .
66(4) . . .
66(4) . . .
65(4) . . .
67(4) . . .
76(5) . . .
54(4) . . .
68(4) . . .
73(4) . . .
66(4) . . .
75(5) . . .
75(4) . . .
81(5) . . .
73(5) . . .
72(5) . . .
59(4) . . .
61(4) . . .
57(4) . . .
65(4) . . .
69(5) . . .
70(4) . . .
78(5) . . .
73(4) . . .
77(5) . . .
61(4) . . .
65(4) . . .
66(4) . . .
56(4) . . .
70(5) . . .
71(5) . . .
65(4) . . .
66(4) . . .
64(4) . . .
65(4) . . .
64(4) . . .
60(4) . . .
71(4) . . .
74(5) . . .
72(5) . . .
81(5) . . .
67(4) . . .
69(4) . . .
63(4) . . .
66(4) . . .
63(4) . . .
72(5) . . .
67(4) . . .
75(5) . . .
64(4) . . .
72(5) . . .
75(5) . . .
68(4) . . .
69(4) . . .
70(5) . . .
63(4) . . .
65(4) . . .
77(5) . . .
62(4) . . .
76(5) . . .
59(4) . . .
63(4) . . .
68(4) . . .
74(5) . . .
74(5) . . .
71(4) . . .
72(4) . . .
72(5) . . .
67(4) . . .
58(4) . . .
79(5) . . .
71(4) . . .
74(5) . . .
58(4) . . .
68(5) . . .
67(4) . . .
74(4) . . .
65(4) . . .
71(5) . . .
67(5) . . .
65(4) . . .
69(4) . . .
75(5) . . .
60(4) . . .
59(4) . . .
69(5) . . .
59(4) . . .
70(5) . . .
61(4) . . .
62(4) . . .
62(4) . . .
65(4) . . .
63(4) . . .
52(4) . . .
73(5) . . .
69(5) . . .
70(4) . . .
68(4) . . .
66(4) . . .
57(4) . . .
69(5) . . .
79(5) . . .
87(5) . . .
65(4) . . .
61(4) . . .
56(4) . . .
59(4) . . .
72(5) . . .
56(4) . . .
64(4) . . .
74(5) . . .
71(4) . . .
60(4) . . .
80(5) . . .
68(4) . . .
63(4) . . .
64(4) . . .
79(5) . . .
75(5) . . .
79(5) . . .
74(5) . . .
72(4) . . .
78(5) . . .
67(4) . . .
58(4) . . .
70(4) . . .
59(4) . . .
57(4) . . .
63(4) . . .
62(4) . . .
75(5) . . .
73(4) . . .
69(4) . . .
70(5) . . .
81(5) . . .
72(4) . . .
64(4) . . .
69(4) . . .
68(4) . . .
66(4) . . .
59(4) . . .
65(4) . . .
73(5) . . .
74(5) . . .
70(5) . . .
71(4) . . .
75(5) . . .
64(4) . . .
69(4) . . .
73(5) . . .
71(4) . . .
68(4) . . .
70(4) . . .
67(4) . . .
68(4) . . .
67(4) . . .
70(4) . . .
75(5) . . .
69(4) . . .
70(5) . . .
77(5) . . .
68(4) . . .
65(4) . . .
70(5) . . .
70(4) . . .
66(4) . . .
63(4) . . .
70(5) . . .
65(4) . . .
56(4) . . .
62(4) . . .
70(4) . . .
60(4) . . .
60(4) . . .
59(4) . . .
72(4) . . .
81(5) . . .
74(5) . . .
64(4) . . .
76(5) . . .
56(4) . . .
63(4) . . .
70(5) . . .
58(4) . . .
69(4) . . .
65(4) . . .
65(4) . . .
59(4) . . .
66(4) . . .
65(4) . . .
72(4) . . .
68(4) . . .
61(4) . . .
67(5) . . .
68(4) . . .
71(4) . . .
67(4) . . .
71(5) . . .
75(5) . . .
67(4) . . .
67(4) . . .
72(5) . . .
65(4) . . .
73(4) . . .
73(4) . . .
65(4) . . .
70(5) . . .
68(4) . . .
58(4) . . .
63(4) . . .
65(4) . . .
72(5) . . .
71(5) . . .
76(5) . . .
63(4) . . .
73(5) . . .
71(5) . . .
62(4) . . .
67(4) . . .
63(4) . . .
61(4) . . .
65(4) . . .
59(4) . . .
71(4) . . .
62(4) . . .
77(5) . . .
73(5) . . .
65(4) . . .
65(4) . . .
66(4) . . .
59(4) . . .
65(5) . . .
58(4) . . .
60(4) . . .
63(4) . . .
62(4) . . .
62(5) . . .
69(4) . . .
69(4) . . .
63(4) . . .
64(4) . . .
75(5) . . .
72(4) . . .
65(4) . . .
81(5) . . .
70(4) . . .
68(4) . . .
71(4) . . .
68(4) . . .
66(4) . . .
73(5) . . .
66(4) . . .
72(5) . . .
64(4) . . .
73(5) . . .
67(5) . . .
57(4) . . .
56(4) . . .
63(4) . . .
64(4) . . .
70(5) . . .
66(4) . . .
58(4) . . .
72(4) . . .
64(4) . . .
68(4) . . .
71(5) . . .
60(4) . . .
67(4) . . .
67(4) . . .
61(4) . . .
63(4) . . .
69(4) . . .
71(4) . . .
73(5) . . .
73(5) . . .
68(5) . . .
64(4) . . .
74(4) . . .
59(4) . . .
58(4) . . .
66(4) . . .
61(4) . . .
56(4) . . .
78(5) . . .
59(4) . . .
70(4) . . .
72(4) . . .
69(4) . . .
73(5) . . .
60(4) . . .
70(5) . . .
59(4) . . .
60(4) . . .
69(5) . . .
58(4) . . .
68(5) . . .
65(4) . . .
75(5) . . .
68(4) . . .
72(5) . . .
52(4) . . .
65(4) . . .
66(4) . . .
76(5) . . .
65(4) . . .
71(5) . . .
62(4) . . .
57(4) . . .
76(5) . . .
55(4) . . .
55(4) . . .
70(4) . . .
67(4) . . .
81(5) . . .
64(4) . . .
67(4) . . .
73(4) . . .
59(4) . . .
54(4) . . .
72(5) . . .
70(4) . . .
60(4) . . .
65(4) . . .
65(4) . . .
63(4) . . .
66(4) . . .
71(4) . . .
59(4) . . .
63(5) . . .
68(4) . . .
72(4) . . .
76(5) . . .
63(4) . . .
63(4) . . .
60(4) . . .
57(4) . . .
68(4) . . .
67(4) . . .
58(4) . . .
68(4) . . .
71(4) . . .
71(4) . . .
67(4) . . .
73(5) . . .
76(5) . . .
59(4) . . .
56(4) . . .
57(4) . . .
54(4) . . .
63(4) . . .
54(4) . . .
64(4) . . .
69(4) . . .
72(5) . . .
69(5) . . .
58(4) . . .
65(4) . . .
65(4) . . .
56(4) . . .
71(5) . . .
71(4) . . .
61(4) . . .
61(4) . . .
66(4) . . .
62(4) . . .
63(4) . . .
68(4) . . .
67(5) . . .
73(5) . . .
71(4) . . .
70(4) . . .
70(5) . . .
64(4) . . .
69(5) . . .
66(4) . . .
70(4) . . .
77(5) . . .
68(5) . . .
70(4) . . .
69(4) . . .
68(4) . . .
55(4) . . .
64(5) . . .
68(5) . . .
72(4) . . .
67(4) . . .
61(4) . . .
73(5) . . .
65(4) . . .
76(5) . . .
65(4) . . .
64(4) . . .
68(5) . . .
64(4) . . .
62(4) . . .
57(4) . . .
73(5) . . .
75(5) . . .
70(5) . . .
72(4) . . .
70(4) . . .
64(4) . . .
69(4) . . .
73(4) . . .
63(4) . . .
68(5) . . .
74(5) . . .
62(4) . . .
60(4) . . .
67(4) . . .
59(4) . . .
63(5) . . .
64(4) . . .
69(4) . . .
70(4) . . .
62(4) . . .
59(4) . . .
54(4) . . .
66(4) . . .
70(4) . . .
65(4) . . .
64(5) . . .
70(4) . . .
67(4) . . .
71(4) . . .
69(5) . . .
60(4) . . .
69(4) . . .
69(4) . . .
64(4) . . .
62(4) . . .
62(4) . . .
71(5) . . .
69(4) . . .
59(4) . . .
66(5) . . .
63(4) . . .
72(5) . . .
66(4) . . .
60(4) . . .
76(5) . . .
63(4) . . .
63(4) . . .
67(4) . . .
68(4) . . .
59(4) . . .
63(4) . . .
65(4) . . .
61(4) . . .
71(4) . . .
62(4) . . .
62(4) . . .
71(4) . . .
81(5) . . .
63(4) . . .
67(4) . . .
75(5) . . .
66(4) . . .
63(4) . . .
61(4) . . .
69(5) . . .
61(4) . . .
57(4) . . .
57(4) . . .
71(4) . . .
62(4) . . .
66(4) . . .
65(4) . . .
52(4) . . .
60(4) . . .
67(4) . . .
78(5) . . .
65(4) . . .
68(4) . . .
60(4) . . .
52(4) . . .
51(4) . . .
62(4) . . .
62(4) . . .
63(4) . . .
69(5) . . .
71(4) . . .
71(4) . . .
71(4) . . .
74(5) . . .
68(5) . . .
63(4) . . .
68(4) . . .
64(4) . . .
55(4) . . .
53(4) . . .
55(4) . . .
59(4) . . .
66(4) . . .
66(4) . . .
75(5) . . .
72(5) . . .
76(5) . . .
75(4) . . .
69(4) . . .
71(5) . . .
68(4) . . .
64(4) . . .
59(4) . . .
75(5) . . .
65(4) . . .
80(5) . . .
64(4) . . .
70(4) . . .
64(4) . . .
65(4) . . .
76(5) . . .
57(4) . . .
61(4) . . .
72(4) . . .
74(5) . . .
66(4) . . .
70(4) . . .
61(4) . . .
62(4) . . .
72(5) . . .
63(4) . . .
61(4) . . .
57(4) . . .
64(4) . . .
63(4) . . .
74(5) . . .
65(4) . . .
51(4) . . .
62(4) . . .
58(4) . . .
66(4) . . .
62(4) . . .
76(5) . . .
69(4) . . .
68(4) . . .
62(4) . . .
62(4) . . .
64(4) . . .
64(4) . . .
61(4) . . .
61(4) . . .
65(4) . . .
67(5) . . .
60(4) . . .
65(4) . . .
71(4) . . .
62(4) . . .
65(4) . . .
63(4) . . .
56(4) . . .
72(4) . . .
83(5) . . .
72(5) . . .
51(4) . . .
62(4) . . .
67(4) . . .
57(4) . . .
57(4) . . .
64(4) . . .
62(4) . . .
68(4) . . .
63(4) . . .
74(5) . . .
69(4) . . .
64(4) . . .
59(4) . . .
67(4) . . .
66(4) . . .
70(5) . . .
56(4) . . .
62(4) . . .
63(4) . . .
58(4) . . .
59(4) . . .
52(4) . . .
53(4) . . .
55(4) . . .
75(5) . . .
70(5) . . .
74(5) . . .
62(4) . . .
50(4) . . .
56(4) . . .
56(4) . . .
61(4) . . .
65(4) . . .
71(5) . . .
67(4) . . .
62(4) . . .
62(4) . . .
60(4) . . .
65(4) . . .
70(5) . . .
70(5) . . .
51(4) . . .
63(4) . . .
66(4) . . .
55(4) . . .
64(4) . . .
64(4) . . .
77(5) . . .
71(5) . . .
65(5) . . .
63(4) . . .
63(4) . . .
73(5) . . .
70(5) . . .
61(4) . . .
65(4) . . .
60(4) . . .
70(4) . . .
68(4) . . .
71(5) . . .
67(4) . . .
68(4) . . .
62(4) . . .
70(4) . . .
65(4) . . .
57(4) . . .
57(4) . . .
67(5) . . .
63(4) . . .
67(4) . . .
63(4) . . .
63(4) . . .
61(4) . . .
55(4) . . .
57(4) . . .
59(4) . . .
63(4) . . .
67(5) . . .
57(4) . . .
66(4) . . .
70(4) . . .
65(4) . . .
62(4) . . .
55(4) . . .
63(4) . . .
64(4) . . .
72(4) . . .
62(4) . . .
66(5) . . .
60(4) . . .
71(4) . . .
68(4) . . .
64(4) . . .
66(4) . . .
62(4) . . .
63(4) . . .
62(4) . . .
59(4) . . .
69(5) . . .
65(4) . . .
67(4) . . .
66(4) . . .
55(4) . . .
68(4) . . .
70(4) . . .
66(4) . . .
61(4) . . .
63(4) . . .
55(4) . . .
66(4) . . .
64(4) . . .
73(5) . . .
70(4) . . .
72(5) . . .
62(4) . . .
67(4) . . .
60(4) . . .
57(4) . . .
59(4) . . .
62(4) . . .
63(4) . . .
59(4) . . .
63(4) . . .
70(5) . . .
70(4) . . .
62(4) . . .
66(4) . . .
63(5) . . .
61(4) . . .
55(4) . . .
59(4) . . .
67(4) . . .
66(5) . . .
58(4) . . .
94(5) . . .
63(4) . . .
63(4) . . .
64(4) . . .
64(4) . . .
61(4) . . .
54(4) . . .
74(5) . . .
63(4) . . .
66(4) . . .
58(4) . . .
70(4) . . .
65(4) . . .
59(4) . . .
58(4) . . .
59(4) . . .
62(4) . . .
73(5) . . .
63(4) . . .
71(4) . . .
73(4) . . .
62(4) . . .
59(4) . . .
66(4) . . .
82(5) . . .
55(4) . . .
63(4) . . .
67(5) . . .
58(4) . . .
60(4) . . .
70(4) . . .
62(4) . . .
63(4) . . .
72(5) . . .
73(5) . . .
57(4) . . .
60(4) . . .
56(4) . . .
61(4) . . .
61(4) . . .
65(4) . . .
58(4) . . .
57(4) . . .
56(4) . . .
63(4) . . .
63(4) . . .
63(4) . . .
64(5) . . .
61(4) . . .
66(4) . . .
62(4) . . .
55(4) . . .
69(5) . . .
56(4) . . .
80(5) . . .
71(4) . . .
64(4) . . .
65(4) . . .
72(5) . . .
75(5) . . .
73(5) . . .
74(5) . . .
61(4) . . .
48(4) . . .
62(4) . . .
64(4) . . .
60(4) . . .
56(4) . . .
69(4) . . .
58(4) . . .
71(5) . . .
67(5) . . .
61(4) . . .
71(5) . . .
74(4) . . .
62(4) . . .
62(4) . . .
53(4) . . .
74(5) . . .
72(4) . . .
64(4) . . .
61(4) . . .
68(4) . . .
59(4) . . .
58(4) . . .
76(5) . . .
71(5) . . .
64(4) . . .
62(4) . . .
64(4) . . .
61(4) . . .
67(5) . . .
63(4) . . .
62(4) . . .
62(4) . . .
56(4) . . .
69(5) . . .
65(4) . . .
71(4) . . .
73(4) . . .
69(4) . . .
64(4) . . .
59(4) . . .
67(4) . . .
72(4) . . .
63(4) . . .
73(5) . . .
68(5) . . .
74(5) . . .
65(4) . . .
65(5) . . .
61(4) . . .
49(4) . . .
54(4) . . .
71(4) . . .
64(4) . . .
61(4) . . .
62(4) . . .
62(4) . . .
60(4) . . .
74(5) . . .
67(4) . . .
66(4) . . .
62(4) . . .
67(5) . . .
66(4) . . .
73(5) . . .
64(4) . . .
62(4) . . .
69(5) . . .
64(4) . . .
63(4) . . .
59(4) . . .
57(4) . . .
63(4) . . .
57(4) . . .
64(4) . . .
60(4) . . .
64(4) . . .
52(4) . . .
69(5) . . .
70(4) . . .
64(4) . . .
70(4) . . .
66(4) . . .
72(5) . . .
65(4) . . .
54(4) . . .
62(4) . . .
65(5) . . .
71(5) . . .
53(4) . . .
66(4) . . .
69(4) . . .
70(5) . . .
62(4) . . .
60(4) . . .
64(4) . . .
69(4) . . .
58(4) . . .
58(4) . . .
57(4) . . .
58(4) . . .
71(4) . . .
74(5) . . .
57(4) . . .
58(4) . . .
69(4) . . .
70(5) . . .
60(4) . . .
53(4) . . .
58(4) . . .
61(4) . . .
58(4) . . .
71(5) . . .
58(4) . . .
64(4) . . .
67(4) . . .
57(4) . . .
69(4) . . .
65(4) . . .
69(4) . . .
60(4) . . .
52(4) . . .
65(4) . . .
72(4) . . .
72(5) . . .
59(4) . . .
56(4) . . .
66(4) . . .
63(4) . . .
77(5) . . .
66(4) . . .
60(4) . . .
58(4) . . .
76(5) . . .
72(4) . . .
70(4) . . .
67(4) . . .
55(4) . . .
80(5) . . .
59(4) . . .
68(4) . . .
49(4) . . .
59(4) . . .
60(4) . . .
67(4) . . .
62(4) . . .
56(4) . . .
71(5) . . .
66(4) . . .
70(4) . . .
64(4) . . .
68(5) . . .
56(4) . . .
56(4) . . .
63(4) . . .
60(4) . . .
67(4) . . .
67(5) . . .
65(4) . . .
69(4) . . .
55(4) . . .
57(4) . . .
69(4) . . .
67(4) . . .
58(4) . . .
62(4) . . .
66(4) . . .
61(4) . . .
62(4) . . .
66(4) . . .
58(4) . . .
67(5) . . .
68(5) . . .
60(4) . . .
67(4) . . .
60(4) . . .
67(5) . . .
63(4) . . .
61(4) . . .
68(4) . . .
75(5) . . .
63(5) . . .
62(4) . . .
62(4) . . .
72(4) . . .
55(4) . . .
61(4) . . .
69(4) . . .
72(4) . . .
72(4) . . .
52(4) . . .
61(4) . . .
66(4) . . .
63(4) . . .
65(4) . . .
60(4) . . .
66(4) . . .
56(4) . . .
65(4) . . .
67(4) . . .
62(4) . . .
65(5) . . .
67(5) . . .
60(4) . . .
51(4) . . .
66(4) . . .
53(4) . . .
60(4) . . .
58(4) . . .
62(4) . . .
60(4) . . .
63(4) . . .
57(4) . . .
62(4) . . .
57(4) . . .
56(4) . . .
53(4) . . .
71(5) . . .
77(5) . . .
53(4) . . .
59(4) . . .
65(4) . . .
69(4) . . .
60(4) . . .
70(5) . . .
55(4) . . .
61(4) . . .
63(4) . . .
65(4) . . .
74(5) . . .
70(5) . . .
69(4) . . .
70(4) . . .
59(4) . . .
57(4) . . .
70(5) . . .
66(4) . . .
47(4) . . .
53(4) . . .
70(5) . . .
65(4) . . .
68(4) . . .
74(4) . . .
58(4) . . .
64(4) . . .
67(5) . . .
55(4) . . .
65(4) . . .
68(4) . . .
60(4) . . .
70(5) . . .
65(4) . . .
71(4) . . .
61(4) . . .
61(4) . . .
55(4) . . .
61(4) . . .
72(4) . . .
63(4) . . .
59(4) . . .
64(4) . . .
63(4) . . .
60(4) . . .
63(4) . . .
62(4) . . .
60(4) . . .
57(4) . . .
60(4) . . .
56(4) . . .
57(4) . . .
64(4) . . .
63(4) . . .
58(4) . . .
60(4) . . .
76(5) . . .
69(4) . . .
66(4) . . .
66(4) . . .
56(4) . . .
64(5) . . .
59(4) . . .
59(4) . . .
61(4) . . .
68(5) . . .
67(5) . . .
70(5) . . .
63(4) . . .
50(4) . . .
58(4) . . .
64(5) . . .
61(4) . . .
68(4) . . .
66(4) . . .
67(4) . . .
73(5) . . .
59(4) . . .
64(4) . . .
63(4) . . .
62(4) . . .
61(4) . . .
72(5) . . .
62(4) . . .
63(4) . . .
64(4) . . .
72(5) . . .
70(4) . . .
69(4) . . .
60(4) . . .
64(4) . . .
64(4) . . .
65(5) . . .
61(4) . . .
54(4) . . .
65(4) . . .
67(4) . . .
68(4) . . .
69(4) . . .
61(4) . . .
63(4) . . .
59(4) . . .
55(4) . . .
62(4) . . .
65(4) . . .
62(4) . . .
55(4) . . .
62(4) . . .
63(4) . . .
70(5) . . .
64(5) . . .
68(5) . . .
56(4) . . .
63(4) . . .
60(4) . . .
65(5) . . .
52(4) . . .
55(4) . . .
57(4) . . .
66(4) . . .
67(4) . . .
64(4) . . .
63(4) . . .
55(4) . . .
65(4) . . .
54(4) . . .
64(4) . . .
67(4) . . .
54(4) . . .
61(4) . . .
64(4) . . .
61(4) . . .
48(4) . . .
61(4) . . .
64(4) . . .
72(5) . . .
70(5) . . .
62(4) . . .
58(4) . . .
62(4) . . .
64(4) . . .
62(4) . . .
65(4) . . .
56(4) . . .
53(4) . . .
58(4) . . .
62(4) . . .
54(4) . . .
62(4) . . .
59(4) . . .
69(5) . . .
56(4) . . .
57(4) . . .
74(4) . . .
71(4) . . .
66(4) . . .
67(4) . . .
59(4) . . .
63(4) . . .
66(4) . . .
66(5) . . .
69(4) . . .
58(4) . . .
59(4) . . .
61(4) . . .
68(5) . . .
63(4) . . .
56(4) . . .
67(4) . . .
65(5) . . .
57(4) . . .
60(4) . . .
64(4) . . .
56(4) . . .
64(5) . . .
59(4) . . .
61(4) . . .
59(4) . . .
66(4) . . .
61(4) . . .
59(4) . . .
67(4) . . .
56(4) . . .
67(4) . . .
60(4) . . .
61(4) . . .
63(4) . . .
60(4) . . .
61(4) . . .
72(5) . . .
69(4) . . .
60(4) . . .
63(4) . . .
71(5) . . .
67(4) . . .
63(4) . . .
64(4) . . .
66(4) . . .
48(4) . . .
54(4) . . .
58(4) . . .
74(4) . . .
62(4) . . .
59(4) . . .
65(4) . . .
63(4) . . .
66(4) . . .
67(4) . . .
59(4) . . .
61(4) . . .
65(4) . . .
57(4) . . .
56(4) . . .
67(5) . . .
51(4) . . .
65(4) . . .
60(4) . . .
61(4) . . .
68(5) . . .
65(4) . . .
52(4) . . .
60(4) . . .
54(4) . . .
59(4) . . .
57(4) . . .
54(4) . . .
56(4) . . .
61(4) . . .
67(5) . . .
62(4) . . .
66(4) . . .
59(4) . . .
59(4) . . .
66(4) . . .
67(4) . . .
53(4) . . .
56(4) . . .
71(5) . . .
65(4) . . .
57(4) . . .
63(4) . . .
64(4) . . .
53(4) . . .
60(4) . . .
67(4) . . .
58(4) . . .
61(4) . . .
67(5) . . .
65(4) . . .
63(4) . . .
72(4) . . .
56(4) . . .
66(5) . . .
63(4) . . .
59(4) . . .
64(4) . . .
68(4) . . .
69(5) . . .
71(4) . . .
67(4) . . .
52(4) . . .
58(4) . . .
56(4) . . .
71(5) . . .
54(4) . . .
57(4) . . .
55(4) . . .
68(5) . . .
59(4) . . .
54(4) . . .
63(4) . . .
56(4) . . .
55(4) . . .
62(4) . . .
66(4) . . .
63(4) . . .
64(4) . . .
64(4) . . .
67(4) . . .
59(4) . . .
66(4) . . .
65(4) . . .
66(4) . . .
61(4) . . .
60(4) . . .
61(4) . . .
66(4) . . .
66(4) . . .
61(4) . . .
59(4) . . .
61(4) . . .
49(4) . . .
59(4) . . .
57(4) . . .
63(4) . . .
59(4) . . .
50(4) . . .
74(5) . . .
70(4) . . .
65(4) . . .
61(4) . . .
64(4) . . .
63(4) . . .
51(4) . . .
59(4) . . .
64(4) . . .
55(4) . . .
55(4) . . .
67(4) . . .
68(4) . . .
59(4) . . .
65(5) . . .
57(4) . . .
55(4) . . .
69(4) . . .
47(4) . . .
54(4) . . .
68(5) . . .
53(4) . . .
57(4) . . .
58(4) . . .
59(4) . . .
60(4) . . .
58(4) . . .
61(4) . . .
67(5) . . .
65(5) . . .
60(4) . . .
52(4) . . .
57(4) . . .
66(4) . . .
68(4) . . .
58(4) . . .
53(4) . . .
62(4) . . .
60(4) . . .
65(5) . . .
59(4) . . .
64(4) . . .
59(4) . . .
54(4) . . .
65(4) . . .
73(5) . . .
63(4) . . .
65(4) . . .
67(5) . . .
64(5) . . .
54(4) . . .
60(4) . . .
56(4) . . .
59(4) . . .
65(4) . . .
75(5) . . .
60(4) . . .
69(4) . . .
69(5) . . .
54(4) . . .
61(4) . . .
68(4) . . .
65(4) . . .
59(4) . . .
56(4) . . .
72(5) . . .
64(4) . . .
55(4) . . .
63(5) . . .
56(4) . . .
56(4) . . .
55(4) . . .
59(4) . . .
63(4) . . .
70(5) . . .
65(4) . . .
56(4) . . .
64(4) . . .
58(4) . . .
58(4) . . .
57(4) . . .
59(4) . . .
65(4) . . .
63(4) . . .
55(4) . . .
65(4) . . .
65(4) . . .
66(4) . . .
59(4) . . .
61(4) . . .
56(4) . . .
61(4) . . .
63(4) . . .
49(4) . . .
51(4) . . .
61(4) . . .
69(5) . . .
68(5) . . .
64(4) . . .
71(4) . . .
68(4) . . .
61(4) . . .
64(4) . . .
58(4) . . .
48(4) . . .
65(4) . . .
56(4) . . .
52(4) . . .
65(4) . . .
66(4) . . .
63(4) . . .
70(4) . . .
54(4) . . .
63(4) . . .
74(4) . . .
76(5) . . .
75(5) . . .
61(4) . . .
68(4) . . .
70(4) . . .
66(4) . . .
60(4) . . .
65(5) . . .
60(4) . . .
52(4) . . .
59(4) . . .
57(4) . . .
56(4) . . .
67(4) . . .
56(4) . . .
60(4) . . .
57(4) . . .
58(4) . . .
60(4) . . .
62(4) . . .
58(4) . . .
54(4) . . .
66(5) . . .
66(4) . . .
61(4) . . .
54(4) . . .
58(4) . . .
67(4) . . .
60(4) . . .
62(4) . . .
70(4) . . .
68(4) . . .
52(4) . . .
64(4) . . .
67(4) . . .
63(4) . . .
53(4) . . .
61(4) . . .
60(4) . . .
64(4) . . .
56(4) . . .
64(4) . . .
69(5) . . .
67(4) . . .
54(4) . . .
61(4) . . .
50(4) . . .
56(4) . . .
60(4) . . .
55(4) . . .
55(4) . . .
65(5) . . .
53(4) . . .
56(4) . . .
62(4) . . .
61(4) . . .
69(5) . . .
55(4) . . .
54(4) . . .
59(4) . . .
55(4) . . .
49(4) . . .
64(4) . . .
56(4) . . .
59(4) . . .
57(4) . . .
64(4) . . .
64(4) . . .
58(4) . . .
52(4) . . .
62(4) . . .
52(4) . . .
65(4) . . .
56(4) . . .
54(4) . . .
63(4) . . .
72(5) . . .
57(4) . . .
68(4) . . .
66(4) . . .
56(4) . . .
54(4) . . .
63(4) . . .
64(4) . . .
68(5) . . .
56(4) . . .
67(5) . . .
55(4) . . .
62(4) . . .
60(4) . . .
55(4) . . .
64(4) . . .
63(4) . . .
64(4) . . .
58(4) . . .
55(4) . . .
64(4) . . .
71(4) . . .
59(4) . . .
56(4) . . .
66(5) . . .
64(5) . . .
45(4) . . .
59(4) . . .
62(4) . . .
53(4) . . .
63(4) . . .
58(4) . . .
52(4) . . .
64(4) . . .
59(4) . . .
64(4) . . .
71(4) . . .
67(4) . . .
61(4) . . .
60(4) . . .
56(4) . . .
55(4) . . .
54(4) . . .
54(4) . . .
53(4) . . .
50(4) . . .
57(4) . . .
65(4) . . .
64(4) . . .
65(4) . . .
71(5) . . .
81(5) . . .
57(4) . . .
59(4) . . .
66(4) . . .
68(4) . . .
50(4) . . .
64(4) . . .
61(4) . . .
82(5) . . .
67(4) . . .
63(4) . . .
62(4) . . .
61(4) . . .
53(4) . . .
62(4) . . .
55(4) . . .
65(4) . . .
63(4) . . .
56(4) . . .
63(4) . . .
57(4) . . .
52(4) . . .
50(4) . . .
67(4) . . .
71(4) . . .
58(4) . . .
60(4) . . .
66(5) . . .
54(4) . . .
69(4) . . .
55(4) . . .
58(4) . . .
52(4) . . .
58(4) . . .
62(4) . . .
71(4) . . .
57(4) . . .
56(4) . . .
56(4) . . .
57(4) . . .
52(4) . . .
54(4) . . .
58(4) . . .
68(4) . . .
56(4) . . .
63(4) . . .
66(5) . . .
50(4) . . .
61(4) . . .
55(4) . . .
55(4) . . .
68(4) . . .
65(4) . . .
54(4) . . .
59(4) . . .
52(4) . . .
63(4) . . .
64(4) . . .
58(4) . . .
57(4) . . .
65(4) . . .
61(4) . . .
60(4) . . .
63(4) . . .
56(4) . . .
60(4) . . .
48(4) . . .
57(4) . . .
58(4) . . .
63(4) . . .
56(4) . . .
52(4) . . .
58(4) . . .
44(4) . . .
59(4) . . .
59(4) . . .
64(4) . . .
65(4) . . .
61(4) . . .
58(4) . . .
60(4) . . .
69(5) . . .
71(5) . . .
63(4) . . .
66(4) . . .
57(4) . . .
55(4) . . .
58(4) . . .
52(4) . . .
65(4) . . .
73(5) . . .
56(4) . . .
62(4) . . .
48(4) . . .
63(4) . . .
53(4) . . .
64(4) . . .
47(4) . . .
60(4) . . .
58(4) . . .
60(4) . . .
63(4) . . .
61(4) . . .
65(4) . . .
48(4) . . .
61(4) . . .
53(4) . . .
64(4) . . .
53(4) . . .
56(4) . . .
60(4) . . .
64(4) . . .
65(4) . . .
64(4) . . .
59(4) . . .
61(4) . . .
58(4) . . .
74(5) . . .
65(4) . . .
61(4) . . .
64(4) . . .
58(4) . . .
57(4) . . .
59(4) . . .
67(5) . . .
52(4) . . .
59(4) . . .
54(4) . . .
62(4) . . .
62(4) . . .
53(4) . . .
59(4) . . .
60(4) . . .
59(4) . . .
59(4) . . .
69(5) . . .
61(4) . . .
58(4) . . .
69(4) . . .
64(4) . . .
58(4) . . .
64(4) . . .
54(4) . . .
63(4) . . .
69(5) . . .
66(4) . . .
61(4) . . .
64(4) . . .
51(4) . . .
56(4) . . .
64(4) . . .
53(4) . . .
66(4) . . .
63(4) . . .
57(4) . . .
52(4) . . .
51(4) . . .
53(4) . . .
54(4) . . .
51(4) . . .
53(4) . . .
47(4) . . .
65(4) . . .
59(4) . . .
63(4) . . .
57(4) . . .
60(4) . . .
66(4) . . .
63(4) . . .
59(4) . . .
68(4) . . .
60(4) . . .
64(4) . . .
71(4) . . .
68(5) . . .
60(4) . . .
59(4) . . .
56(4) . . .
52(4) . . .
52(4) . . .
52(4) . . .
66(4) . . .
66(4) . . .
48(4) . . .
51(4) . . .
66(5) . . .
60(4) . . .
57(4) . . .
56(4) . . .
44(4) . . .
61(4) . . .
64(4) . . .
70(4) . . .
63(4) . . .
62(4) . . .
62(4) . . .
57(4) . . .
53(4) . . .
65(4) . . .
55(4) . . .
56(4) . . .
56(4) . . .
59(4) . . .
59(4) . . .
63(4) . . .
71(5) . . .
65(4) . . .
63(4) . . .
72(5) . . .
51(4) . . .
54(4) . . .
54(4) . . .
53(4) . . .
63(4) . . .
52(4) . . .
59(4) . . .
56(4) . . .
52(4) . . .
58(4) . . .
67(5) . . .
61(4) . . .
64(4) . . .
52(4) . . .
59(4) . . .
67(4) . . .
54(4) . . .
57(4) . . .
52(4) . . .
57(4) . . .
61(4) . . .
65(4) . . .
56(4) . . .
63(4) . . .
52(4) . . .
45(4) . . .
58(4) . . .
63(4) . . .
51(4) . . .
63(5) . . .
55(4) . . .
59(4) . . .
51(4) . . .
55(4) . . .
63(5) . . .
63(4) . . .
55(4) . . .
63(4) . . .
55(4) . . .
58(4) . . .
66(5) . . .
60(4) . . .
65(4) . . .
65(4) . . .
67(5) . . .
54(4) . . .
48(4) . . .
57(4) . . .
64(4) . . .
61(4) . . .
57(4) . . .
49(4) . . .
58(4) . . .
65(4) . . .
66(4) . . .
54(4) . . .
61(4) . . .
47(4) . . .
64(5) . . .
52(4) . . .
60(4) . . .
62(4) . . .
54(4) . . .
54(4) . . .
56(4) . . .
56(4) . . .
66(4) . . .
57(4) . . .
64(4) . . .
59(4) . . .
60(4) . . .
56(4) . . .
58(4) . . .
54(4) . . .
48(4) . . .
64(4) . . .
55(4) . . .
60(4) . . .
62(4) . . .
75(5) . . .
78(5) . . .
62(4) . . .
63(4) . . .
58(4) . . .
55(4) . . .
58(4) . . .
53(4) . . .
55(4) . . .
65(4) . . .
65(4) . . .
63(4) . . .
59(4) . . .
66(4) . . .
60(4) . . .
61(4) . . .
59(4) . . .
57(4) . . .
65(4) . . .
53(4) . . .
65(4) . . .
60(4) . . .
70(5) . . .
60(4) . . .
60(4) . . .
56(4) . . .
59(4) . . .
63(4) . . .
56(4) . . .
63(4) . . .
63(4) . . .
58(4) . . .
67(4) . . .
61(4) . . .
61(4) . . .
57(4) . . .
60(4) . . .
56(4) . . .
69(5) . . .
60(4) . . .
65(4) . . .
58(4) . . .
54(4) . . .
63(4) . . .
59(4) . . .
65(4) . . .
58(4) . . .
57(4) . . .
57(4) . . .
69(5) . . .
59(4) . . .
57(4) . . .
56(4) . . .
67(5) . . .
58(4) . . .
51(4) . . .
59(4) . . .
58(4) . . .
57(4) . . .
59(4) . . .
58(4) . . .
61(4) . . .
60(4) . . .
54(4) . . .
56(4) . . .
54(4) . . .
64(4) . . .
55(4) . . .
56(4) . . .
55(4) . . .
54(4) . . .
55(4) . . .
47(4) . . .
58(4) . . .
61(4) . . .
62(4) . . .
59(4) . . .
60(4) . . .
63(4) . . .
56(4) . . .
53(4) . . .
60(4) . . .
57(4) . . .
59(4) . . .
59(4) . . .
57(4) . . .
50(4) . . .
62(4) . . .
61(4) . . .
58(4) . . .
62(4) . . .
52(4) . . .
60(4) . . .
66(4) . . .
61(4) . . .
63(4) . . .
53(4) . . .
53(4) . . .
57(4) . . .
63(4) . . .
66(4) . . .
63(4) . . .
69(5) . . .
68(4) . . .
62(4) . . .
61(4) . . .
54(4) . . .
54(4) . . .
63(4) . . .
59(4) . . .
55(4) . . .
49(4) . . .
59(4) . . .
47(4) . . .
50(4) . . .
53(4) . . .
52(4) . . .
68(5) . . .
61(4) . . .
63(4) . . .
60(4) . . .
57(4) . . .
58(4) . . .
58(4) . . .
60(4) . . .
60(4) . . .
55(4) . . .
62(4) . . .
57(4) . . .
69(4) . . .
59(4) . . .
57(4) . . .
64(5) . . .
61(4) . . .
65(4) . . .
58(4) . . .
55(4) . . .
62(4) . . .
58(4) . . .
64(4) . . .
70(5) . . .
63(5) . . .
66(4) . . .
62(4) . . .
62(4) . . .
65(4) . . .
62(5) . . .
53(4) . . .
51(4) . . .
67(4) . . .
66(4) . . .
55(4) . . .
66(4) . . .
61(4) . . .
52(4) . . .
57(4) . . .
54(4) . . .
57(4) . . .
63(4) . . .
55(4) . . .
66(5) . . .
59(4) . . .
66(5) . . .
53(4) . . .
57(4) . . .
53(4) . . .
60(4) . . .
56(4) . . .
65(4) . . .
68(4) . . .
69(4) . . .
75(5) . . .
58(4) . . .
51(4) . . .
53(4) . . .
65(4) . . .
64(4) . . .
65(4) . . .
58(4) . . .
51(4) . . .
67(5) . . .
62(4) . . .
68(4) . . .
65(4) . . .
61(4) . . .
63(4) . . .
55(4) . . .
60(4) . . .
67(4) . . .
63(4) . . .
62(4) . . .
59(4) . . .
59(4) . . .
57(4) . . .
60(4) . . .
53(4) . . .
54(4) . . .
53(4) . . .
57(4) . . .
65(4) . . .
61(4) . . .
54(4) . . .
61(4) . . .
55(4) . . .
65(4) . . .
51(4) . . .
50(4) . . .
60(4) . . .
51(4) . . .
61(4) . . .
65(5) . . .
64(4) . . .
50(4) . . .
62(4) . . .
43.5(33) . . .
61(4) . . .
73(5) . . .
63(4) . . .
64(4) . . .
55(4) . . .
59(4) . . .
58(4) . . .
64(4) . . .
67(5) . . .
54(4) . . .
53(4) . . .
50(4) . . .
68(4) . . .
49(4) . . .
64(5) . . .
59(4) . . .
55(4) . . .
62(4) . . .
53(4) . . .
58(4) . . .
56(4) . . .
67(4) . . .
59(4) . . .
56(4) . . .
51(4) . . .
51(4) . . .
53(4) . . .
69(4) . . .
65(4) . . .
52(4) . . .
70(5) . . .
43.3(34) . . .
55(4) . . .
51(4) . . .
55(4) . . .
54(4) . . .
64(4) . . .
55(4) . . .
58(4) . . .
68(4) . . .
60(4) . . .
63(4) . . .
61(4) . . .
61(4) . . .
57(4) . . .
66(4) . . .
57(4) . . .
65(4) . . .
66(4) . . .
72(5) . . .
73(5) . . .
54(4) . . .
70(4) . . .
68(4) . . .
64(4) . . .
65(5) . . .
57(4) . . .
51(4) . . .
69(5) . . .
58(4) . . .
53(4) . . .
62(4) . . .
52(4) . . .
57(4) . . .
65(4) . . .
56(4) . . .
50(4) . . .
56(4) . . .
61(4) . . .
63(4) . . .
57(4) . . .
69(4) . . .
56(4) . . .
54(4) . . .
61(4) . . .
67(4) . . .
62(4) . . .
55(4) . . .
50(4) . . .
54(4) . . .
57(4) . . .
58(4) . . .
62(4) . . .
69(5) . . .
56(4) . . .
58(4) . . .
67(4) . . .
58(4) . . .
60(4) . . .
54(4) . . .
69(4) . . .
53(4) . . .
70(5) . . .
67(4) . . .
50(4) . . .
57(4) . . .
51(4) . . .
63(4) . . .
54(4) . . .
60(4) . . .
66(4) . . .
51(4) . . .
42.7(34) . . .
50(4) . . .
62(4) . . .
66(4) . . .
65(4) . . .
56(4) . . .
69(5) . . .
66(4) . . .
67(4) . . .
63(4) . . .
56(4) . . .
58(4) . . .
63(4) . . .
49(4) . . .
57(4) . . .
60(4) . . .
65(5) . . .
61(4) . . .
55(4) . . .
60(4) . . .
61(4) . . .
54(4) . . .
58(4) . . .
60(4) . . .
51(4) . . .
53(4) . . .
59(4) . . .
52(4) . . .
70(4) . . .
56(4) . . .
56(4) . . .
58(4) . . .
62(4) . . .
60(4) . . .
62(4) . . .
71(5) . . .
67(4) . . .
62(4) . . .
53(4) . . .
58(4) . . .
60(4) . . .
65(5) . . .
52(4) . . .
62(4) . . .
67(4) . . .
56(4) . . .
65(4) . . .
63(4) . . .
61(4) . . .
65(4) . . .
64(4) . . .
62(4) . . .
64(4) . . .
59(4) . . .
70(5) . . .
69(5) . . .
54(4) . . .
56(4) . . .
49(4) . . .
52(4) . . .
57(4) . . .
61(4) . . .
71(4) . . .
53(4) . . .
58(4) . . .
65(4) . . .
53(4) . . .
53(4) . . .
54(4) . . .
62(4) . . .
59(4) . . .
50(4) . . .
51(4) . . .
56(4) . . .
62(4) . . .
68(4) . . .
67(4) . . .
46(4) . . .
54(4) . . .
55(4) . . .
66(4) . . .
56(4) . . .
64(4) . . .
57(4) . . .
52(4) . . .
61(4) . . .
62(4) . . .
60(4) . . .
56(4) . . .
53(4) . . .
64(4) . . .
50(4) . . .
53(4) . . .
53(4) . . .
61(4) . . .
72(5) . . .
57(4) . . .
51(4) . . .
62(4) . . .
54(4) . . .
52(4) . . .
54(4) . . .
59(4) . . .
58(4) . . .
57(4) . . .
55(4) . . .
58(4) . . .
59(4) . . .
57(4) . . .
68(4) . . .
68(4) . . .
57(4) . . .
58(4) . . .
53(4) . . .
66(4) . . .
55(4) . . .
58(4) . . .
59(4) . . .
51(4) . . .
58(4) . . .
43.8(34) . . .
52(4) . . .
56(4) . . .
58(4) . . .
61(4) . . .
55(4) . . .
66(4) . . .
58(4) . . .
64(5) . . .
67(4) . . .
64(4) . . .
56(4) . . .
48(4) . . .
50(4) . . .
53(4) . . .
52(4) . . .
64(4) . . .
56(4) . . .
46(4) . . .
57(4) . . .
58(4) . . .
54(4) . . .
61(4) . . .
61(4) . . .
59(4) . . .
52(4) . . .
64(4) . . .
68(5) . . .
62(4) . . .
58(4) . . .
58(4) . . .
60(4) . . .
54(4) . . .
72(5) . . .
61(4) . . .
61(4) . . .
63(4) . . .
68(5) . . .
62(4) . . .
60(4) . . .
62(4) . . .
53(4) . . .
57(4) . . .
56(4) . . .
56(4) . . .
63(4) . . .
73(5) . . .
62(4) . . .
69(5) . . .
64(4) . . .
61(4) . . .
51(4) . . .
61(4) . . .
63(4) . . .
56(4) . . .
50(4) . . .
65(4) . . .
57(4) . . .
71(5) . . .
59(4) . . .
52(4) . . .
48(4) . . .
57(4) . . .
53(4) . . .
51(4) . . .
66(4) . . .
53(4) . . .
60(4) . . .
68(4) . . .
68(4) . . .
52(4) . . .
57(4) . . .
53(4) . . .
60(4) . . .
57(4) . . .
48(4) . . .
47(4) . . .
60(4) . . .
62(5) . . .
57(4) . . .
45(4) . . .
52(4) . . .
54(4) . . .
51(4) . . .
50(4) . . .
66(4) . . .
64(4) . . .
56(4) . . .
57(4) . . .
56(4) . . .
49(4) . . .
51(4) . . .
60(4) . . .
47(4) . . .
58(4) . . .
52(4) . . .
52(4) . . .
56(4) . . .
62(4) . . .
63(4) . . .
68(5) . . .
61(4) . . .
61(4) . . .
59(4) . . .
71(4) . . .
66(4) . . .
50(4) . . .
52(4) . . .
63(4) . . .
55(4) . . .
65(4) . . .
65(5) . . .
69(5) . . .
58(4) . . .
61(4) . . .
60(4) . . .
61(4) . . .
64(4) . . .
52(4) . . .
51(4) . . .
62(4) . . .
56(4) . . .
66(4) . . .
59(4) . . .
55(4) . . .
59(4) . . .
62(4) . . .
59(4) . . .
55(4) . . .
60(4) . . .
72(5) . . .
60(4) . . .
53(4) . . .
55(4) . . .
46(4) . . .
61(4) . . .
57(4) . . .
71(5) . . .
62(4) . . .
60(4) . . .
66(5) . . .
49(4) . . .
57(4) . . .
50(4) . . .
60(4) . . .
49(4) . . .
47(4) . . .
54(4) . . .
59(4) . . .
60(4) . . .
62(4) . . .
60(4) . . .
57(4) . . .
60(4) . . .
59(4) . . .
70(5) . . .
63(4) . . .
66(4) . . .
67(4) . . .
52(4) . . .
56(4) . . .
47(4) . . .
63(4) . . .
57(4) . . .
60(4) . . .
59(4) . . .
58(4) . . .
55(4) . . .
62(4) . . .
58(4) . . .
58(4) . . .
53(4) . . .
72(4) . . .
61(4) . . .
56(4) . . .
67(5) . . .
60(4) . . .
57(4) . . .
62(4) . . .
61(4) . . .
54(4) . . .
54(4) . . .
47(4) . . .
60(4) . . .
66(4) . . .
73(5) . . .
57(4) . . .
51(4) . . .
61(4) . . .
56(4) . . .
59(4) . . .
58(4) . . .
63(4) . . .
69(5) . . .
50(4) . . .
65(4) . . .
57(4) . . .
56(4) . . .
52(4) . . .
61(4) . . .
58(4) . . .
61(4) . . .
59(4) . . .
50(4) . . .
50(4) . . .
54(4) . . .
53(4) . . .
60(4) . . .
59(4) . . .
59(4) . . .
63(4) . . .
60(4) . . .
56(4) . . .
51(4) . . .
54(4) . . .
61(4) . . .
63(4) . . .
55(4) . . .
56(4) . . .
56(4) . . .
67(4) . . .
68(4) . . .
47(4) . . .
60(4) . . .
52(4) . . .
56(4) . . .
65(4) . . .
57(4) . . .
48(4) . . .
68(4) . . .
63(4) . . .
49(4) . . .
47(4) . . .
66(4) . . .
60(4) . . .
63(4) . . .
55(4) . . .
59(4) . . .
60(4) . . .
65(4) . . .
57(4) . . .
53(4) . . .
61(4) . . .
63(4) . . .
63(4) . . .
61(4) . . .
57(4) . . .
52(4) . . .
52(4) . . .
59(4) . . .
59(4) . . .
48(4) . . .
56(4) . . .
61(4) . . .
52(4) . . .
68(4) . . .
62(4) . . .
53(4) . . .
57(4) . . .
58(4) . . .
63(4) . . .
52(4) . . .
51(4) . . .
50(4) . . .
57(4) . . .
55(4) . . .
59(4) . . .
54(4) . . .
60(5) . . .
52(4) . . .
56(4) . . .
54(4) . . .
68(5) . . .
60(4) . . .
64(4) . . .
60(4) . . .
54(4) . . .
52(4) . . .
47(4) . . .
55(4) . . .
52(4) . . .
55(4) . . .
48(4) . . .
49(4) . . .
45(4) . . .
64(4) . . .
66(4) . . .
69(4) . . .
55(4) . . .
62(4) . . .
49(4) . . .
70(5) . . .
64(4) . . .
58(4) . . .
54(4) . . .
53(4) . . .
55(4) . . .
56(4) . . .
51(4) . . .
61(4) . . .
53(4) . . .
61(4) . . .
51(4) . . .
58(4) . . .
53(4) . . .
49(4) . . .
63(4) . . .
63(4) . . .
59(4) . . .
52(4) . . .
63(4) . . .
58(4) . . .
53(4) . . .
46(4) . . .
55(4) . . .
59(4) . . .
57(4) . . .
56(4) . . .
55(4) . . .
57(4) . . .
62(4) . . .
56(4) . . .
57(4) . . .
49(4) . . .
65(4) . . .
62(4) . . .
54(4) . . .
69(5) . . .
59(4) . . .
61(4) . . .
58(4) . . .
58(4) . . .
55(4) . . .
63(4) . . .
47(4) . . .
52(4) . . .
58(4) . . .
59(4) . . .
58(4) . . .
63(4) . . .
61(4) . . .
58(4) . . .
52(4) . . .
61(4) . . .
56(4) . . .
53(4) . . .
64(4) . . .
63(4) . . .
53(4) . . .
54(4) . . .
60(4) . . .
50(4) . . .
55(4) . . .
66(4) . . .
55(4) . . .
64(4) . . .
57(4) . . .
55(4) . . .
51(4) . . .
57(4) . . .
56(4) . . .
44(4) . . .
56(4) . . .
63(4) . . .
60(4) . . .
55(4) . . .
64(5) . . .
52(4) . . .
62(4) . . .
54(4) . . .
53(4) . . .
53(4) . . .
55(4) . . .
52(4) . . .
61(4) . . .
57(4) . . .
54(4) . . .
57(4) . . .
69(4) . . .
59(4) . . .
55(4) . . .
65(4) . . .
53(4) . . .
50(4) . . .
54(4) . . .
53(4) . . .
49(4) . . .
63(4) . . .
63(4) . . .
49(4) . . .
56(4) . . .
58(4) . . .
63(4) . . .
57(4) . . .
60(4) . . .
54(4) . . .
49(4) . . .
55(4) . . .
56(4) . . .
55(4) . . .
53(4) . . .
58(4) . . .
62(4) . . .
56(4) . . .
50(4) . . .
66(5) . . .
59(4) . . .
64(4) . . .
50(4) . . .
51(4) . . .
57(4) . . .
49(4) . . .
60(4) . . .
60(4) . . .
65(4) . . .
53(4) . . .
47(4) . . .
56(4) . . .
55(4) . . .
50(4) . . .
58(4) . . .
57(4) . . .
56(4) . . .
54(4) . . .
53(4) . . .
51(4) . . .
69(5) . . .
62(4) . . .
55(4) . . .
56(4) . . .
54(4) . . .
54(4) . . .
67(4) . . .
68(4) . . .
56(4) . . .
51(4) . . .
52(4) . . .
67(4) . . .
58(4) . . .
58(4) . . .
64(4) . . .
51(4) . . .
51(4) . . .
46.7(35) . . .
69(5) . . .
54(4) . . .
57(4) . . .
66(4) . . .
52(4) . . .
67(4) . . .
60(4) . . .
63(4) . . .
56(4) . . .
60(4) . . .
62(4) . . .
68(4) . . .
51(4) . . .
51(4) . . .
51(4) . . .
66(5) . . .
63(4) . . .
70(4) . . .
59(4) . . .
49(4) . . .
63(4) . . .
64(4) . . .
58(4) . . .
48(4) . . .
53(4) . . .
54(4) . . .
65(4) . . .
47(4) . . .
54(4) . . .
65(4) . . .
66(5) . . .
60(4) . . .
56(4) . . .
55(4) . . .
53(4) . . .
56(4) . . .
55(4) . . .
56(4) . . .
59(4) . . .
56(4) . . .
67(4) . . .
62(4) . . .
56(4) . . .
53(4) . . .
50(4) . . .
63(4) . . .
60(4) . . .
49(4) . . .
57(4) . . .
60(4) . . .
60(4) . . .
49(4) . . .
56(4) . . .
49(4) . . .
44(4) . . .
45(4) . . .
62(4) . . .
58(4) . . .
53(4) . . .
53(4) . . .
56(4) . . .
51(4) . . .
50(4) . . .
46(4) . . .
61(4) . . .
51(4) . . .
62(4) . . .
53(4) . . .
59(4) . . .
55(4) . . .
58(4) . . .
58(4) . . .
58(4) . . .
52(4) . . .
56(4) . . .
61(4) . . .
57(4) . . .
68(4) . . .
52(4) . . .
54(4) . . .
65(4) . . .
59(4) . . .
50(4) . . .
51(4) . . .
61(4) . . .
56(4) . . .
53(4) . . .
60(4) . . .
48(4) . . .
51(4) . . .
61(4) . . .
49(4) . . .
52(4) . . .
51(4) . . .
47(4) . . .
56(4) . . .
56(4) . . .
62(4) . . .
47(4) . . .
50(4) . . .
54(4) . . .
62(4) . . .
59(4) . . .
56(4) . . .
56(4) . . .
60(4) . . .
61(4) . . .
54(4) . . .
57(4) . . .
57(4) . . .
57(4) . . .
57(4) . . .
58(4) . . .
48(4) . . .
62(4) . . .
56(4) . . .
67(4) . . .
64(4) . . .
58(4) . . .
48(4) . . .
49(4) . . .
51(4) . . .
54(4) . . .
54(4) . . .
53(4) . . .
59(4) . . .
53(4) . . .
71(5) . . .
59(4) . . .
61(4) . . .
66(4) . . .
61(4) . . .
66(4) . . .
55(4) . . .
59(4) . . .
59(4) . . .
56(4) . . .
53(4) . . .
57(4) . . .
54(4) . . .
51(4) . . .
62(4) . . .
59(4) . . .
45(4) . . .
63(4) . . .
52(4) . . .
59(4) . . .
49(4) . . .
65(5) . . .
69(4) . . .
52(4) . . .
43.6(34) . . .
56(4) . . .
54(4) . . .
73(4) . . .
51(4) . . .
50(4) . . .
59(5) . . .
59(4) . . .
69(4) . . .
59(4) . . .
54(4) . . .
57(4) . . .
60(4) . . .
78(5) . . .
56(4) . . .
63(5) . . .
52(4) . . .
53(4) . . .
54(4) . . .
57(4) . . .
52(4) . . .
63(5) . . .
66(4) . . .
65(4) . . .
58(4) . . .
61(4) . . .
62(4) . . .
60(4) . . .
57(4) . . .
64(4) . . .
60(4) . . .
57(4) . . .
53(4) . . .
50(4) . . .
56(4) . . .
64(4) . . .
59(4) . . .
62(4) . . .
52(4) . . .
50(4) . . .
62(4) . . .
65(4) . . .
66(4) . . .
58(4) . . .
58(4) . . .
52(4) . . .
56(4) . . .
51(4) . . .
64(4) . . .
47(4) . . .
48(4) . . .
60(4) . . .
63(4) . . .
72(4) . . .
65(4) . . .
60(4) . . .
52(4) . . .
60(4) . . .
49(4) . . .
54(4) . . .
54(4) . . .
49(4) . . .
54(4) . . .
57(4) . . .
49(4) . . .
57(4) . . .
61(4) . . .
58(4) . . .
58(4) . . .
52(4) . . .
45(4) . . .
49(4) . . .
64(4) . . .
64(4) . . .
60(4) . . .
52(4) . . .
53(4) . . .
62(4) . . .
66(4) . . .
56(4) . . .
49(4) . . .
54(4) . . .
58(4) . . .
55(4) . . .
57(4) . . .
59(4) . . .
57(4) . . .
55(4) . . .
61(4) . . .
54(4) . . .
50(4) . . .
52(4) . . .
61(4) . . .
71(5) . . .
52(4) . . .
56(4) . . .
56(4) . . .
58(4) . . .
56(4) . . .
62(4) . . .
62(4) . . .
60(4) . . .
66(4) . . .
54(4) . . .
62(4) . . .
59(4) . . .
46(4) . . .
56(4) . . .
61(4) . . .
50(4) . . .
54(4) . . .
57(4) . . .
58(4) . . .
61(4) . . .
67(5) . . .
57(4) . . .
58(4) . . .
55(4) . . .
54(4) . . .
62(5) . . .
56(4) . . .
62(4) . . .
56(4) . . .
52(4) . . .
56(4) . . .
60(4) . . .
62(4) . . .
60(4) . . .
54(4) . . .
64(5) . . .
59(4) . . .
59(4) . . .
56(4) . . .
67(4) . . .
73(5) . . .
62(4) . . .
64(4) . . .
55(4) . . .
56(4) . . .
59(4) . . .
61(4) . . .
50(4) . . .
61(4) . . .
62(4) . . .
56(4) . . .
56(4) . . .
62(4) . . .
50(4) . . .
58(4) . . .
57(4) . . .
50(4) . . .
52(4) . . .
47(4) . . .
55(4) . . .
49(4) . . .
56(4) . . .
56(4) . . .
61(4) . . .
54(4) . . .
65(5) . . .
56(4) . . .
65(4) . . .
65(4) . . .
71(5) . . .
63(4) . . .
61(4) . . .
44(4) . . .
56(4) . . .
58(4) . . .
58(4) . . .
66(4) . . .
62(4) . . .
62(4) . . .
53(4) . . .
57(4) . . .
58(4) . . .
64(4) . . .
61(4) . . .
62(4) . . .
47(4) . . .
65(4) . . .
57(4) . . .
68(4) . . .
64(4) . . .
56(4) . . .
56(4) . . .
59(4) . . .
52(4) . . .
61(4) . . .
65(4) . . .
51(4) . . .
49(4) . . .
51(4) . . .
63(4) . . .
61(4) . . .
50(4) . . .
59(4) . . .
61(4) . . .
62(4) . . .
65(4) . . .
58(4) . . .
72(5) . . .
48(4) . . .
69(4) . . .
57(4) . . .
66(4) . . .
49(4) . . .
54(4) . . .
52(4) . . .
52(4) . . .
72(4) . . .
59(4) . . .
57(4) . . .
63(4) . . .
50(4) . . .
63(4) . . .
64(4) . . .
59(4) . . .
55(4) . . .
61(4) . . .
54(4) . . .
51(4) . . .
59(4) . . .
59(4) . . .
63(4) . . .
66(4) . . .
46(4) . . .
59(4) . . .
57(4) . . .
51(4) . . .
50(4) . . .
61(4) . . .
65(5) . . .
54(4) . . .
59(4) . . .
51(4) . . .
55(4) . . .
50(4) . . .
46(4) . . .
65(4) . . .
65(4) . . .
65(4) . . .
52(4) . . .
52(4) . . .
66(4) . . .
59(4) . . .
55(4) . . .
53(4) . . .
54(4) . . .
54(4) . . .
62(4) . . .
51(4) . . .
61(4) . . .
66(4) . . .
57(4) . . .
61(4) . . .
64(4) . . .
60(4) . . .
63(4) . . .
54(4) . . .
56(4) . . .
51(4) . . .
47(4) . . .
62(4) . . .
60(4) . . .
63(4) . . .
65(5) . . .
61(4) . . .
53(4) . . .
56(4) . . .
53(4) . . .
60(4) . . .
62(4) . . .
43.3(34) . . .
60(4) . . .
63(4) . . .
63(4) . . .
62(4) . . .
57(4) . . .
57(4) . . .
58(4) . . .
57(4) . . .
58(4) . . .
60(4) . . .
52(4) . . .
60(4) . . .
48(4) . . .
64(4) . . .
56(4) . . .
62(4) . . .
67(4) . . .
59(4) . . .
57(4) . . .
53(4) . . .
60(4) . . .
56(4) . . .
66(4) . . .
60(4) . . .
55(4) . . .
58(4) . . .
46(4) . . .
57(4) . . .
48(4) . . .
61(4) . . .
47(4) . . .
57(4) . . .
60(4) . . .
51(4) . . .
56(4) . . .
54(4) . . .
53(4) . . .
55(4) . . .
55(4) . . .
41.8(34) . . .
59(4) . . .
67(5) . . .
54(4) . . .
53(4) . . .
53(4) . . .
58(4) . . .
63(5) . . .
57(4) . . .
52(4) . . .
56(4) . . .
45(4) . . .
60(4) . . .
57(4) . . .
65(4) . . .
60(4) . . .
58(4) . . .
54(4) . . .
47(4) . . .
56(4) . . .
54(4) . . .
60(4) . . .
54(4) . . .
57(4) . . .
56(4) . . .
62(4) . . .
60(4) . . .
55(4) . . .
53(4) . . .
55(4) . . .
52(4) . . .
54(4) . . .
59(4) . . .
59(4) . . .
55(4) . . .
63(4) . . .
58(4) . . .
53(4) . . .
60(4) . . .
47(4) . . .
54(4) . . .
62(4) . . .
62(4) . . .
52(4) . . .
64(4) . . .
46(4) . . .
54(4) . . .
48(4) . . .
67(4) . . .
60(4) . . .
65(4) . . .
56(4) . . .
49(4) . . .
54(4) . . .
54(4) . . .
56(4) . . .
64(4) . . .
60(4) . . .
59(4) . . .
58(4) . . .
54(4) . . .
54(4) . . .
62(4) . . .
63(4) . . .
61(4) . . .
49(4) . . .
59(4) . . .
47(4) . . .
57(4) . . .
54(4) . . .
59(4) . . .
43.8(35) . . .
51(4) . . .
57(4) . . .
56(4) . . .
57(4) . . .
53(4) . . .
53(4) . . .
52(4) . . .
68(4) . . .
50(4) . . .
57(4) . . .
45(4) . . .
56(4) . . .
56(4) . . .
60(4) . . .
53(4) . . .
53(4) . . .
69(4) . . .
62(4) . . .
62(4) . . .
56(4) . . .
56(4) . . .
53(4) . . .
61(4) . . .
64(4) . . .
63(4) . . .
55(4) . . .
51(4) . . .
47(4) . . .
51(4) . . .
56(4) . . .
50(4) . . .
57(4) . . .
63(4) . . .
61(4) . . .
58(4) . . .
54(4) . . .
62(4) . . .
54(4) . . .
48(4) . . .
72(5) . . .
58(4) . . .
58(4) . . .
62(4) . . .
68(5) . . .
52(4) . . .
59(4) . . .
55(4) . . .
60(4) . . .
61(4) . . .
53(4) . . .
55(4) . . .
57(4) . . .
59(4) . . .
65(4) . . .
63(4) . . .
57(4) . . .
59(4) . . .
47(4) . . .
58(4) . . .
64(4) . . .
62(4) . . .
47(4) . . .
67(4) . . .
60(4) . . .
54(4) . . .
57(4) . . .
64(4) . . .
65(4) . . .
51(4) . . .
50(4) . . .
63(4) . . .
58(4) . . .
54(4) . . .
58(4) . . .
53(4) . . .
50(4) . . .
54(4) . . .
64(4) . . .
52(4) . . .
57(4) . . .
61(4) . . .
52(4) . . .
56(4) . . .
56(4) . . .
60(4) . . .
59(4) . . .
55(4) . . .
48(4) . . .
52(4) . . .
47.1(35) . . .
57(4) . . .
54(4) . . .
56(4) . . .
57(4) . . .
62(4) . . .
65(4) . . .
62(4) . . .
54(4) . . .
49(4) . . .
49(4) . . .
59(4) . . .
53(4) . . .
69(5) . . .
54(4) . . .
41.9(35) . . .
54(4) . . .
66(4) . . .
54(4) . . .
55(4) . . .
56(4) . . .
57(4) . . .
58(4) . . .
62(4) . . .
50(4) . . .
59(4) . . .
50(4) . . .
45(4) . . .
43.3(34) . . .
67(4) . . .
59(4) . . .
61(4) . . .
56(4) . . .
50(4) . . .
53(4) . . .
56(4) . . .
48(4) . . .
59(4) . . .
55(4) . . .
51(4) . . .
54(4) . . .
64(4) . . .
57(4) . . .
58(4) . . .
64(4) . . .
62(4) . . .
63(4) . . .
64(5) . . .
60(4) . . .
54(4) . . .
51(4) . . .
53(4) . . .
51(4) . . .
55(4) . . .
59(4) . . .
68(4) . . .
51(4) . . .
56(4) . . .
44(4) . . .
62(4) . . .
52(4) . . .
55(4) . . .
53(4) . . .
65(4) . . .
60(4) . . .
48(4) . . .
55(4) . . .
59(4) . . .
59(4) . . .
56(4) . . .
50(4) . . .
49(4) . . .
53(4) . . .
50(4) . . .
61(4) . . .
54(4) . . .
49(4) . . .
52(4) . . .
57(4) . . .
54(4) . . .
58(4) . . .
52(4) . . .
52(4) . . .
56(4) . . .
51(4) . . .
52(4) . . .
52(4) . . .
55(4) . . .
61(4) . . .
54(4) . . .
53(4) . . .
62(4) . . .
69(5) . . .
57(4) . . .
58(4) . . .
56(4) . . .
54(4) . . .
61(4) . . .
51(4) . . .
51(4) . . .
68(4) . . .
54(4) . . .
49(4) . . .
47(4) . . .
56(4) . . .
60(4) . . .
61(4) . . .
56(4) . . .
52(4) . . .
61(4) . . .
50(4) . . .
64(4) . . .
57(4) . . .
47(4) . . .
59(4) . . .
51(4) . . .
67(5) . . .
70(5) . . .
58(4) . . .
60(4) . . .
50(4) . . .
56(4) . . .
51(4) . . .
59(4) . . .
56(4) . . .
51(4) . . .
59(4) . . .
56(4) . . .
53(4) . . .
54(4) . . .
63(4) . . .
62(4) . . .
65(4) . . .
67(4) . . .
54(4) . . .
59(4) . . .
58(4) . . .
52(4) . . .
55(4) . . .
59(4) . . .
63(4) . . .
66(4) . . .
48(4) . . .
61(4) . . .
56(4) . . .
50(4) . . .
49(4) . . .
51(4) . . .
51(4) . . .
60(4) . . .
63(4) . . .
61(4) . . .
57(4) . . .
52(4) . . .
62(4) . . .
64(4) . . .
54(4) . . .
55(4) . . .
57(4) . . .
61(4) . . .
46(4) . . .
59(4) . . .
52(4) . . .
54(4) . . .
54(4) . . .
53(4) . . .
50(4) . . .
46(4) . . .
52(4) . . .
55(4) . . .
65(5) . . .
46(4) . . .
54(4) . . .
53(4) . . .
62(4) . . .
64(4) . . .
53(4) . . .
54(4) . . .
54(4) . . .
67(4) . . .
64(4) . . .
66(4) . . .
65(4) . . .
65(4) . . .
55(4) . . .
55(4) . . .
66(5) . . .
50(4) . . .
64(4) . . .
53(4) . . .
52(4) . . .
50(4) . . .
68(4) . . .
59(4) . . .
62(4) . . .
68(4) . . .
62(4) . . .
49(4) . . .
51(4) . . .
65(5) . . .
65(4) . . .
67(4) . . .
57(4) . . .
62(4) . . .
55(4) . . .
47(4) . . .
65(4) . . .
54(4) . . .
56(4) . . .
56(4) . . .
53(4) . . .
61(4) . . .
60(4) . . .
62(4) . . .
59(4) . . .
58(4) . . .
54(4) . . .
76(5) . . .
71(5) . . .
50(4) . . .
55(4) . . .
52(4) . . .
51(4) . . .
62(4) . . .
49(4) . . .
53(4) . . .
59(4) . . .
58(4) . . .
55(4) . . .
59(4) . . .
66(4) . . .
67(4) . . .
57(4) . . .
57(4) . . .
58(4) . . .
59(4) . . .
57(4) . . .
66(4) . . .
65(4) . . .
65(4) . . .
62(4) . . .
60(4) . . .
59(4) . . .
58(4) . . .
43(4) . . .
58(4) . . .
53(4) . . .
57(4) . . .
57(4) . . .
37.7(33) . . .
58(4) . . .
59(4) . . .
61(4) . . .
47(4) . . .
46(4) . . .
59(4) . . .
68(4) . . .
60(4) . . .
54(4) . . .
60(4) . . .
62(4) . . .
67(4) . . .
67(4) . . .
54(4) . . .
49(4) . . .
52(4) . . .
61(4) . . .
59(4) . . .
58(4) . . .
50(4) . . .
48(4) . . .
63(4) . . .
52(4) . . .
56(4) . . .
51(4) . . .
50(4) . . .
52(4) . . .
52(4) . . .
59(4) . . .
63(4) . . .
58(4) . . .
56(4) . . .
51(4) . . .
65(4) . . .
59(4) . . .
58(4) . . .
57(4) . . .
55(4) . . .
60(4) . . .
58(4) . . .
59(4) . . .
44.3(35) . . .
51(4) . . .
50(4) . . .
54(4) . . .
51(4) . . .
55(4) . . .
48(4) . . .
53(4) . . .
57(4) . . .
60(4) . . .
59(4) . . .
54(4) . . .
51(4) . . .
61(4) . . .
66(4) . . .
64(4) . . .
60(4) . . .
48(4) . . .
59(4) . . .
59(4) . . .
61(4) . . .
61(4) . . .
57(4) . . .
55(4) . . .
55(4) . . .
58(4) . . .
57(4) . . .
57(4) . . .
46(4) . . .
60(4) . . .
53(4) . . .
55(4) . . .
61(4) . . .
55(4) . . .
50(4) . . .
51(4) . . .
57(4) . . .
60(4) . . .
63(4) . . .
52(4) . . .
51(4) . . .
60(4) . . .
66(4) . . .
61(4) . . .
48(4) . . .
56(4) . . .
63(4) . . .
61(4) . . .
53(4) . . .
63(4) . . .
62(4) . . .
54(4) . . .
59(4) . . .
60(4) . . .
50(4) . . .
46(4) . . .
54(4) . . .
61(4) . . .
52(4) . . .
57(4) . . .
48(4) . . .
50(4) . . .
46(4) . . .
62(4) . . .
60(4) . . .
57(4) . . .
52(4) . . .
60(4) . . .
56(4) . . .
45(4) . . .
51(4) . . .
61(4) . . .
49(4) . . .
63(4) . . .
47(4) . . .
56(4) . . .
57(4) . . .
55(4) . . .
56(4) . . .
67(4) . . .
60(4) . . .
57(4) . . .
63(4) . . .
60(4) . . .
56(4) . . .
50(4) . . .
55(4) . . .
56(4) . . .
49(4) . . .
56(4) . . .
63(4) . . .
61(4) . . .
57(4) . . .
64(5) . . .
67(5) . . .
54(4) . . .
56(4) . . .
48(4) . . .
48(4) . . .
56(4) . . .
60(4) . . .
62(4) . . .
48(4) . . .
47(4) . . .
51(4) . . .
61(4) . . .
45.7(35) . . .
49(4) . . .
65(4) . . .
59(4) . . .
59(4) . . .
51(4) . . .
54(4) . . .
42.8(34) . . .
61(5) . . .
55(4) . . .
58(4) . . .
52(4) . . .
55(4) . . .
48(4) . . .
55(4) . . .
59(4) . . .
68(4) . . .
61(4) . . .
57(4) . . .
52(4) . . .
48(4) . . .
51(4) . . .
59(4) . . .
55(4) . . .
65(4) . . .
55(4) . . .
55(4) . . .
61(4) . . .
58(4) . . .
56(4) . . .
52(4) . . .
46(4) . . .
55(4) . . .
64(4) . . .
57(4) . . .
53(4) . . .
51(4) . . .
56(4) . . .
63(4) . . .
54(4) . . .
70(4) . . .
63(4) . . .
55(4) . . .
49(4) . . .
57(4) . . .
48(4) . . .
64(4) . . .
61(4) . . .
67(4) . . .
61(4) . . .
52(4) . . .
62(4) . . .
69(5) . . .
64(4) . . .
58(4) . . .
58(4) . . .
56(4) . . .
56(4) . . .
47(4) . . .
54(4) . . .
55(4) . . .
58(4) . . .
54(4) . . .
56(4) . . .
56(4) . . .
51(4) . . .
58(4) . . .
55(4) . . .
66(5) . . .
56(4) . . .
54(4) . . .
55(4) . . .
52(4) . . .
51(4) . . .
56(4) . . .
52(4) . . .
50(4) . . .
55(4) . . .
65(4) . . .
60(4) . . .
59(4) . . .
52(4) . . .
44.8(34) . . .
61(4) . . .
54(4) . . .
66(4) . . .
60(4) . . .
51(4) . . .
48(4) . . .
54(4) . . .
47(4) . . .
50(4) . . .
61(4) . . .
62(4) . . .
57(4) . . .
57(4) . . .
57(4) . . .
49(4) . . .
46(4) . . .
57(4) . . .
50(4) . . .
62(5) . . .
57(4) . . .
64(4) . . .
57(4) . . .
48(4) . . .
53(4) . . .
61(4) . . .
55(4) . . .
51(4) . . .
59(4) . . .
64(4) . . .
68(4) . . .
63(4) . . .
66(4) . . .
59(4) . . .
65(5) . . .
67(5) . . .
62(4) . . .
58(4) . . .
63(4) . . .
49(4) . . .
50(4) . . .
68(4) . . .
66(4) . . .
58(4) . . .
53(4) . . .
56(4) . . .
56(4) . . .
47(4) . . .
53(4) . . .
55(4) . . .
61(4) . . .
60(4) . . .
53(4) . . .
56(4) . . .
62(4) . . .
61(4) . . .
56(4) . . .
57(4) . . .
65(4) . . .
58(4) . . .
49(4) . . .
56(4) . . .
52(4) . . .
55(4) . . .
51(4) . . .
54(4) . . .
61(4) . . .
57(4) . . .
60(4) . . .
58(4) . . .
55(4) . . .
54(4) . . .
61(4) . . .
56(4) . . .
49(4) . . .
58(4) . . .
64(4) . . .
63(4) . . .
54(4) . . .
60(4) . . .
60(4) . . .
50(4) . . .
48(4) . . .
53(4) . . .
60(4) . . .
51(4) . . .
57(4) . . .
59(4) . . .
51(4) . . .
53(4) . . .
51(4) . . .
65(4) . . .
64(4) . . .
47(4) . . .
44(4) . . .
45(4) . . .
51(4) . . .
45(4) . . .
60(4) . . .
53(4) . . .
55(4) . . .
48(4) . . .
61(4) . . .
55(4) . . .
60(4) . . .
62(4) . . .
51(4) . . .
57(4) . . .
63(4) . . .
55(4) . . .
59(4) . . .
52(4) . . .
58(4) . . .
54(4) . . .
63(4) . . .
66(4) . . .
57(4) . . .
62(4) . . .
63(4) . . .
64(4) . . .
61(4) . . .
57(4) . . .
59(4) . . .
52(4) . . .
62(4) . . .
62(4) . . .
60(4) . . .
58(4) . . .
58(4) . . .
63(4) . . .
66(4) . . .
63(4) . . .
64(5) . . .
51(4) . . .
60(4) . . .
69(4) . . .
56(4) . . .
52(4) . . .
61(4) . . .
55(4) . . .
60(4) . . .
52(4) . . .
62(4) . . .
52(4) . . .
55(4) . . .
54(4) . . .
61(4) . . .
59(4) . . .
57(4) . . .
46(4) . . .
54(4) . . .
47(4) . . .
61(4) . . .
60(4) . . .
51(4) . . .
46(4) . . .
64(5) . . .
45(4) . . .
56(4) . . .
63(4) . . .
59(4) . . .
48(4) . . .
53(4) . . .
61(4) . . .
51(4) . . .
57(4) . . .
59(4) . . .
64(4) . . .
50(4) . . .
62(4) . . .
52(4) . . .
64(5) . . .
59(4) . . .
54(4) . . .
45.8(35) . . .
50(4) . . .
54(4) . . .
51(4) . . .
64(4) . . .
56(4) . . .
54(4) . . .
54(4) . . .
59(4) . . .
55(4) . . .
62(4) . . .
62(4) . . .
58(4) . . .
54(4) . . .
58(4) . . .
51(4) . . .
57(4) . . .
50(4) . . .
51(4) . . .
73(4) . . .
56(4) . . .
54(4) . . .
59(4) . . .
60(4) . . .
49(4) . . .
47(4) . . .
49(4) . . .
56(4) . . .
61(4) . . .
63(4) . . .
61(4) . . .
53(4) . . .
53(4) . . .
62(4) . . .
55(4) . . .
57(4) . . .
54(4) . . .
49(4) . . .
61(4) . . .
72(4) . . .
54(4) . . .
62(5) . . .
50(4) . . .
58(4) . . .
45.5(35) . . .
57(4) . . .
48(4) . . .
58(4) . . .
63(4) . . .
55(4) . . .
61(4) . . .
54(4) . . .
59(4) . . .
62(4) . . .
55(4) . . .
56(4) . . .
52(4) . . .
50(4) . . .
57(4) . . .
49(4) . . .
52(4) . . .
56(4) . . .
53(4) . . .
48(4) . . .
50(4) . . .
48(4) . . .
64(5) . . .
57(4) . . .
58(4) . . .
60(4) . . .
46(4) . . .
58(4) . . .
54(4) . . .
46(4) . . .
62(4) . . .
58(4) . . .
63(5) . . .
68(5) . . .
63(4) . . .
64(4) . . .
60(4) . . .
65(4) . . .
57(4) . . .
54(4) . . .
58(4) . . .
56(4) . . .
53(4) . . .
56(4) . . .
51(4) . . .
54(4) . . .
57(4) . . .
48(4) . . .
53(4) . . .
54(4) . . .
61(4) . . .
63(4) . . .
58(4) . . .
60(4) . . .
61(4) . . .
64(4) . . .
56(4) . . .
50(4) . . .
43.3(34) . . .
48(4) . . .
71(5) . . .
61(4) . . .
60(4) . . .
59(4) . . .
59(4) . . .
50(4) . . .
54(4) . . .
50(4) . . .
54(4) . . .
53(4) . . .
53(4) . . .
44(4) . . .
55(4) . . .
50(4) . . .
53(4) . . .
63(4) . . .
55(4) . . .
58(4) . . .
54(4) . . .
59(4) . . .
64(5) . . .
59(4) . . .
50(4) . . .
42.6(34) . . .
60(4) . . .
63(4) . . .
57(4) . . .
54(4) . . .
64(4) . . .
52(4) . . .
50(4) . . .
58(4) . . .
61(4) . . .
49(4) . . .
54(4) . . .
61(4) . . .
52(4) . . .
71(4) . . .
55(4) . . .
57(4) . . .
57(4) . . .
62(4) . . .
53(4) . . .
54(4) . . .
56(4) . . .
54(4) . . .
59(4) . . .
67(4) . . .
78(5) . . .
68(4) . . .
53(4) . . .
52(4) . . .
41.9(33) . . .
47(4) . . .
50(4) . . .
56(4) . . .
53(4) . . .
57(4) . . .
49(4) . . .
52(4) . . .
52(4) . . .
59(4) . . .
53(4) . . .
60(4) . . .
48(4) . . .
66(5) . . .
52(4) . . .
66(4) . . .
68(4) . . .
67(5) . . .
56(4) . . .
60(4) . . .
55(4) . . .
60(4) . . .
59(4) . . .
62(4) . . .
65(4) . . .
56(4) . . .
51(4) . . .
58(4) . . .
61(4) . . .
51(4) . . .
60(4) . . .
60(4) . . .
57(4) . . .
59(4) . . .
56(4) . . .
54(4) . . .
49(4) . . .
57(4) . . .
57(4) . . .
55(4) . . .
57(4) . . .
65(4) . . .
46(4) . . .
61(4) . . .
56(4) . . .
58(4) . . .
58(4) . . .
58(4) . . .
66(4) . . .
58(4) . . .
44.3(34) . . .
60(4) . . .
50(4) . . .
56(4) . . .
49(4) . . .
50(4) . . .
57(4) . . .
53(4) . . .
55(4) . . .
62(4) . . .
61(4) . . .
54(4) . . .
58(4) . . .
64(4) . . .
50(4) . . .
54(4) . . .
48(4) . . .
48(4) . . .
61(4) . . .
51(4) . . .
61(4) . . .
64(4) . . .
69(4) . . .
62(4) . . .
55(4) . . .
60(4) . . .
63(4) . . .
68(5) . . .
56(4) . . .
63(4) . . .
60(4) . . .
50(4) . . .
55(4) . . .
53(4) . . .
54(4) . . .
67(4) . . .
58(4) . . .
54(4) . . .
53(4) . . .
52(4) . . .
49(4) . . .
59(4) . . .
59(4) . . .
60(4) . . .
58(4) . . .
45.6(34) . . .
49(4) . . .
54(4) . . .
60(4) . . .
62(4) . . .
55(4) . . .
52(4) . . .
54(4) . . .
56(4) . . .
59(4) . . .
53(4) . . .
58(4) . . .
48(4) . . .
55(4) . . .
69(4) . . .
49(4) . . .
58(4) . . .
53(4) . . .
63(4) . . .
54(4) . . .
52(4) . . .
59(4) . . .
58(4) . . .
60(4) . . .
62(4) . . .
48(4) . . .
48(4) . . .
57(4) . . .
52(4) . . .
57(4) . . .
66(5) . . .
65(4) . . .
51(4) . . .
54(4) . . .
56(4) . . .
54(4) . . .
50(4) . . .
58(4) . . .
52(4) . . .
50(4) . . .
51(4) . . .
54(4) . . .
54(4) . . .
54(4) . . .
60(4) . . .
48(4) . . .
54(4) . . .
59(4) . . .
59(4) . . .
63(4) . . .
62(4) . . .
56(4) . . .
52(4) . . .
58(4) . . .
59(4) . . .
60(4) . . .
58(4) . . .
54(4) . . .
68(4) . . .
65(4) . . .
52(4) . . .
56(4) . . .
59(4) . . .
54(4) . . .
65(4) . . .
56(4) . . .
64(4) . . .
60(4) . . .
72(5) . . .
53(4) . . .
59(4) . . .
57(4) . . .
56(4) . . .
65(4) . . .
51(4) . . .
60(4) . . .
61(4) . . .
56(4) . . .
50(4) . . .
59(4) . . .
50(4) . . .
59(4) . . .
68(4) . . .
58(4) . . .
47(4) . . .
50(4) . . .
51(4) . . .
53(4) . . .
59(4) . . .
55(4) . . .
58(4) . . .
57(4) . . .
61(4) . . .
51(4) . . .
61(4) . . .
56(4) . . .
53(4) . . .
56(4) . . .
55(4) . . .
50(4) . . .
56(4) . . .
60(4) . . .
55(4) . . .
45.4(34) . . .
61(4) . . .
51(4) . . .
55(4) . . .
63(4) . . .
65(4) . . .
59(4) . . .
51(4) . . .
55(4) . . .
55(4) . . .
54(4) . . .
62(5) . . .
54(4) . . .
57(4) . . .
71(5) . . .
49(4) . . .
61(4) . . .
68(5) . . .
55(4) . . .
58(4) . . .
59(4) . . .
56(4) . . .
54(4) . . .
53(4) . . .
57(4) . . .
57(4) . . .
62(4) . . .
63(4) . . .
64(4) . . .
61(4) . . .
61(4) . . .
49(4) . . .
47(4) . . .
49(4) . . .
50(4) . . .
55(4) . . .
61(4) . . .
53(4) . . .
48(4) . . .
60(4) . . .
47(4) . . .
63(5) . . .
66(4) . . .
61(4) . . .
55(4) . . .
54(4) . . .
58(4) . . .
57(4) . . .
49(4) . . .
59(4) . . .
61(4) . . .
54(4) . . .
56(4) . . .
54(4) . . .
57(4) . . .
54(4) . . .
51(4) . . .
55(4) . . .
52(4) . . .
58(4) . . .
43(4) . . .
59(4) . . .
56(4) . . .
62(4) . . .
61(4) . . .
56(4) . . .
64(4) . . .
56(4) . . .
48(4) . . .
62(4) . . .
56(4) . . .
57(4) . . .
53(4) . . .
52(4) . . .
51(4) . . .
53(4) . . .
53(4) . . .
53(4) . . .
52(4) . . .
68(5) . . .
53(4) . . .
59(4) . . .
50(4) . . .
60(4) . . .
63(4) . . .
68(4) . . .
58(4) . . .
60(4) . . .
60(4) . . .
50(4) . . .
49(4) . . .
55(4) . . .
66(4) . . .
59(4) . . .
57(4) . . .
48(4) . . .
52(4) . . .
51(4) . . .
51(4) . . .
59(4) . . .
51(4) . . .
54(4) . . .
48(4) . . .
67(4) . . .
52(4) . . .
57(4) . . .
60(4) . . .
52(4) . . .
56(4) . . .
56(4) . . .
50(4) . . .
57(4) . . .
68(4) . . .
60(4) . . .
49(4) . . .
54(4) . . .
53(4) . . .
54(4) . . .
59(4) . . .
53(4) . . .
59(4) . . .
52(4) . . .
47(4) . . .
54(4) . . .
57(4) . . .
55(4) . . .
59(4) . . .
53(4) . . .
50(4) . . .
52(4) . . .
59(4) . . .
54(4) . . .
66(4) . . .
55(4) . . .
50(4) . . .
62(4) . . .
66(4) . . .
61(4) . . .
57(4) . . .
50(4) . . .
47(4) . . .
54(4) . . .
57(4) . . .
56(4) . . .
54(4) . . .
54(4) . . .
55(4) . . .
49(4) . . .
53(4) . . .
60(4) . . .
63(4) . . .
60(4) . . .
58(4) . . .
63(5) . . .
59(4) . . .
58(4) . . .
60(4) . . .
59(4) . . .
56(4) . . .
69(5) . . .
58(4) . . .
66(4) . . .
49(4) . . .
56(4) . . .
61(4) . . .
60(4) . . .
50(4) . . .
49(4) . . .
63(4) . . .
59(4) . . .
58(4) . . .
64(4) . . .
58(4) . . .
65(4) . . .
54(4) . . .
56(4) . . .
52(4) . . .
56(4) . . .
52(4) . . .
45(4) . . .
60(4) . . .
59(4) . . .
48(4) . . .
58(4) . . .
73(5) . . .
65(4) . . .
55(4) . . .
61(4) . . .
57(4) . . .
60(4) . . .
55(4) . . .
63(4) . . .
54(4) . . .
59(4) . . .
56(4) . . .
56(4) . . .
47(4) . . .
50(4) . . .
54(4) . . .
46(4) . . .
55(4) . . .
55(4) . . .
64(5) . . .
52(4) . . .
54(4) . . .
65(4) . . .
56(4) . . .
58(4) . . .
62(4) . . .
40.9(33) . . .
61(4) . . .
53(4) . . .
69(5) . . .
56(4) . . .
46(4) . . .
45(4) . . .
54(4) . . .
54(4) . . .
59(4) . . .
61(4) . . .
52(4) . . .
62(4) . . .
66(4) . . .
55(4) . . .
56(4) . . .
48(4) . . .
56(4) . . .
56(4) . . .
67(4) . . .
44.0(34) . . .
49(4) . . .
60(4) . . .
55(4) . . .
58(4) . . .
56(4) . . .
43.6(34) . . .
55(4) . . .
52(4) . . .
53(4) . . .
57(4) . . .
59(4) . . .
62(4) . . .
55(4) . . .
56(4) . . .
51(4) . . .
46(4) . . .
56(4) . . .
53(4) . . .
60(4) . . .
51(4) . . .
46(4) . . .
62(5) . . .
56(4) . . .
58(4) . . .
55(4) . . .
48(4) . . .
53(4) . . .
55(4) . . .
56(4) . . .
53(4) . . .
55(4) . . .
51(4) . . .
50(4) . . .
56(4) . . .
46(4) . . .
52(4) . . .
53(4) . . .
62(4) . . .
64(4) . . .
62(4) . . .
51(4) . . .
63(5) . . .
54(4) . . .
56(4) . . .
59(4) . . .
57(4) . . .
50(4) . . .
62(4) . . .
51(4) . . .
60(4) . . .
59(4) . . .
55(4) . . .
54(4) . . .
60(4) . . .
62(4) . . .
62(4) . . .
51(4) . . .
60(4) . . .
51(4) . . .
59(4) . . .
62(4) . . .
57(4) . . .
48(4) . . .
55(4) . . .
63(4) . . .
59(4) . . .
55(4) . . .
52(4) . . .
68(4) . . .
55(4) . . .
58(5) . . .
55(4) . . .
45(4) . . .
52(4) . . .
54(4) . . .
50(4) . . .
55(4) . . .
68(4) . . .
50(4) . . .
60(4) . . .
57(4) . . .
49(4) . . .
52(4) . . .
61(4) . . .
52(4) . . .
60(4) . . .
63(4) . . .
60(4) . . .
62(4) . . .
62(4) . . .
51(4) . . .
52(4) . . .
48(4) . . .
49(4) . . .
59(4) . . .
58(4) . . .
53(4) . . .
54(4) . . .
64(4) . . .
61(4) . . .
51(4) . . .
49(4) . . .
45(4) . . .
70(4) . . .
63(4) . . .
59(4) . . .
60(4) . . .
46(4) . . .
55(4) . . .
50(4) . . .
60(4) . . .
58(4) . . .
60(4) . . .
54(4) . . .
52(4) . . .
58(4) . . .
47(4) . . .
48(4) . . .
49(4) . . .
58(4) . . .
60(4) . . .
58(4) . . .
55(4) . . .
50(4) . . .
52(4) . . .
43.3(34) . . .
64(4) . . .
51(4) . . .
55(4) . . .
57(4) . . .
57(4) . . .
58(4) . . .
59(4) . . .
62(4) . . .
65(5) . . .
69(4) . . .
52(4) . . .
67(5) . . .
54(4) . . .
61(4) . . .
63(4) . . .
66(4) . . .
51(4) . . .
56(4) . . .
55(4) . . .
58(4) . . .
51(4) . . .
51(4) . . .
51(4) . . .
47(4) . . .
51(4) . . .
57(4) . . .
62(4) . . .
59(4) . . .
62(4) . . .
63(4) . . .
58(4) . . .
55(4) . . .
54(4) . . .
45(4) . . .
62(4) . . .
62(4) . . .
56(4) . . .
56(4) . . .
68(4) . . .
54(4) . . .
58(4) . . .
45(4) . . .
52(4) . . .
56(4) . . .
54(4) . . .
53(4) . . .
67(4) . . .
64(5) . . .
58(4) . . .
65(4) . . .
61(4) . . .
53(4) . . .
51(4) . . .
58(4) . . .
45.5(35) . . .
58(4) . . .
52(4) . . .
55(4) . . .
47(4) . . .
61(4) . . .
61(4) . . .
55(4) . . .
50(4) . . .
46(4) . . .
67(4) . . .
54(4) . . .
60(4) . . .
64(4) . . .
52(4) . . .
61(4) . . .
60(4) . . .
55(4) . . .
59(4) . . .
47(4) . . .
59(4) . . .
55(4) . . .
63(4) . . .
59(4) . . .
55(4) . . .
53(4) . . .
62(4) . . .
54(4) . . .
61(4) . . .
61(4) . . .
45(4) . . .
57(4) . . .
71(5) . . .
63(4) . . .
49(4) . . .
47(4) . . .
57(4) . . .
58(4) . . .
59(4) . . .
62(4) . . .
58(4) . . .
59(4) . . .
54(4) . . .
53(4) . . .
50(4) . . .
53(4) . . .
55(4) . . .
59(4) . . .
57(4) . . .
58(4) . . .
53(4) . . .
51(4) . . .
60(4) . . .
47(4) . . .
55(4) . . .
61(4) . . .
55(4) . . .
56(4) . . .
61(4) . . .
67(4) . . .
55(4) . . .
53(4) . . .
72(5) . . .
62(4) . . .
66(4) . . .
55(4) . . .
52(4) . . .
55(4) . . .
52(4) . . .
65(4) . . .
57(4) . . .
53(4) . . .
57(4) . . .
62(4) . . .
51(4) . . .
49(4) . . .
69(5) . . .
48(4) . . .
56(4) . . .
52(4) . . .
56(4) . . .
54(4) . . .
57(4) . . .
55(4) . . .
52(4) . . .
61(4) . . .
51(4) . . .
67(4) . . .
57(4) . . .
49(4) . . .
60(4) . . .
51(4) . . .
61(4) . . .
60(4) . . .
53(4) . . .
52(4) . . .
71(5) . . .
54(4) . . .
56(4) . . .
51(4) . . .
55(4) . . .
61(4) . . .
50(4) . . .
56(4) . . .
52(4) . . .
54(4) . . .
53(4) . . .
62(4) . . .
52(4) . . .
51(4) . . .
55(4) . . .
53(4) . . .
58(4) . . .
61(4) . . .
63(4) . . .
61(4) . . .
51(4) . . .
51(4) . . .
66(4) . . .
54(4) . . .
57(4) . . .
54(4) . . .
61(4) . . .
57(4) . . .
60(4) . . .
54(4) . . .
53(4) . . .
49(4) . . .
59(4) . . .
46(4) . . .
54(4) . . .
53(4) . . .
52(4) . . .
62(4) . . .
59(4) . . .
57(4) . . .
59(4) . . .
54(4) . . .
62(4) . . .
53(4) . . .
52(4) . . .
53(4) . . .
59(4) . . .
51(4) . . .
52(4) . . .
51(4) . . .
57(4) . . .
58(4) . . .
56(4) . . .
54(4) . . .
48(4) . . .
52(4) . . .
60(4) . . .
57(4) . . .
62(4) . . .
51(4) . . .
54(4) . . .
54(4) . . .
49(4) . . .
56(4) . . .
57(4) . . .
57(4) . . .
50(4) . . .
65(4) . . .
46.0(35) . . .
49(4) . . .
55(4) . . .
60(4) . . .
49(4) . . .
48(4) . . .
51(4) . . .
50(4) . . .
49(4) . . .
67(5) . . .
57(4) . . .
55(4) . . .
50(4) . . .
57(4) . . .
57(4) . . .
50(4) . . .
53(4) . . .
57(4) . . .
52(4) . . .
53(4) . . .
58(4) . . .
53(4) . . .
59(4) . . .
60(4) . . .
52(4) . . .
68(5) . . .
50(4) . . .
48(4) . . .
54(4) . . .
50(4) . . .
49(4) . . .
51(4) . . .
60(4) . . .
56(4) . . .
46(4) . . .
50(4) . . .
57(4) . . .
56(4) . . .
61(4) . . .
54(4) . . .
52(4) . . .
56(4) . . .
60(4) . . .
61(4) . . .
56(4) . . .
57(4) . . .
56(4) . . .
60(4) . . .
62(4) . . .
55(4) . . .
54(4) . . .
50(4) . . .
66(4) . . .
61(4) . . .
61(4) . . .
57(4) . . .
54(4) . . .
50(4) . . .
53(4) . . .
63(4) . . .
57(4) . . .
65(4) . . .
60(4) . . .
62(4) . . .
53(4) . . .
54(4) . . .
56(4) . . .
48(4) . . .
63(4) . . .
54(4) . . .
49(4) . . .
53(4) . . .
60(4) . . .
62(4) . . .
59(4) . . .
60(4) . . .
49(4) . . .
52(4) . . .
52(4) . . .
56(4) . . .
54(4) . . .
58(4) . . .
57(4) . . .
49(4) . . .
56(4) . . .
51(4) . . .
49(4) . . .
52(4) . . .
50(4) . . .
57(4) . . .
59(4) . . .
64(4) . . .
55(4) . . .
57(4) . . .
56(4) . . .
56(4) . . .
61(4) . . .
51(4) . . .
53(4) . . .
48(4) . . .
45.1(35) . . .
59(4) . . .
65(4) . . .
56(4) . . .
53(4) . . .
51(4) . . .
57(4) . . .
59(4) . . .
41.6(33) . . .
52(4) . . .
58(4) . . .
52(4) . . .
53(4) . . .
71(5) . . .
56(4) . . .
56(4) . . .
53(4) . . .
53(4) . . .
50(4) . . .
52(4) . . .
57(4) . . .
47(4) . . .
59(4) . . .
61(4) . . .
56(4) . . .
42.8(34) . . .
56(4) . . .
50(4) . . .
52(4) . . .
55(4) . . .
55(4) . . .
52(4) . . .
64(4) . . .
56(4) . . .
57(4) . . .
58(4) . . .
49(4) . . .
59(4) . . .
57(4) . . .
54(4) . . .
49(4) . . .
59(4) . . .
49(4) . . .
47(4) . . .
54(4) . . .
50(4) . . .
67(4) . . .
49(4) . . .
58(4) . . .
56(4) . . .
59(4) . . .
56(4) . . .
59(4) . . .
58(4) . . .
52(4) . . .
66(4) . . .
57(4) . . .
45(4) . . .
54(4) . . .
59(4) . . .
62(4) . . .
62(4) . . .
60(4) . . .
77(5) . . .
47(4) . . .
65(4) . . .
49(4) . . .
56(4) . . .
65(4) . . .
66(4) . . .
61(4) . . .
62(4) . . .
56(4) . . .
54(4) . . .
53(4) . . .
60(4) . . .
42.6(35) . . .
51(4) . . .
61(4) . . .
56(4) . . .
52(4) . . .
59(4) . . .
48(4) . . .
59(4) . . .
55(4) . . .
55(4) . . .
55(4) . . .
57(4) . . .
51(4) . . .
58(4) . . .
50(4) . . .
60(4) . . .
49(4) . . .
56(4) . . .
55(4) . . .
57(4) . . .
57(4) . . .
59(4) . . .
63(4) . . .
58(4) . . .
57(4) . . .
63(4) . . .
55(4) . . .
51(4) . . .
64(4) . . .
64(4) . . .
48(4) . . .
53(4) . . .
54(4) . . .
53(4) . . .
60(4) . . .
66(4) . . .
65(4) . . .
61(4) . . .
51(4) . . .
56(4) . . .
54(4) . . .
49(4) . . .
62(4) . . .
53(4) . . .
60(4) . . .
53(4) . . .
53(4) . . .
52(4) . . .
64(4) . . .
58(4) . . .
53(4) . . .
47(4) . . .
58(4) . . .
53(4) . . .
50(4) . . .
39.3(34) . . .
43.5(35) . . .
49(4) . . .
60(4) . . .
55(4) . . .
51(4) . . .
53(4) . . .
56(4) . . .
55(4) . . .
56(4) . . .
40.6(34) . . .
50(4) . . .
53(4) . . .
58(4) . . .
59(4) . . .
55(4) . . .
57(4) . . .
49(4) . . .
50(4) . . .
55(4) . . .
58(4) . . .
50(4) . . .
59(4) . . .
55(4) . . .
64(4) . . .
62(4) . . .
59(4) . . .
65(4) . . .
53(4) . . .
53(4) . . .
55(4) . . .
52(4) . . .
55(4) . . .
56(4) . . .
53(4) . . .
61(4) . . .
50(4) . . .
58(4) . . .
51(4) . . .
50(4) . . .
56(4) . . .
50(4) . . .
50(4) . . .
55(4) . . .
53(4) . . .
59(4) . . .
57(4) . . .
42.1(33) . . .
58(4) . . .
66(5) . . .
61(4) . . .
59(4) . . .
59(4) . . .
58(4) . . .
52(4) . . .
61(4) . . .
49(4) . . .
56(4) . . .
54(4) . . .
49(4) . . .
51(4) . . .
59(4) . . .
45.9(35) . . .
49(4) . . .
54(4) . . .
61(4) . . .
52(4) . . .
57(4) . . .
56(4) . . .
52(4) . . .
51(4) . . .
58(4) . . .
52(4) . . .
54(4) . . .
56(4) . . .
53(4) . . .
55(4) . . .
52(4) . . .
44(4) . . .
53(4) . . .
59(4) . . .
66(4) . . .
55(4) . . .
59(4) . . .
53(4) . . .
48(4) . . .
57(4) . . .
57(4) . . .
53(4) . . .
54(4) . . .
63(4) . . .
50(4) . . .
51(4) . . .
57(4) . . .
43.3(35) . . .
50(4) . . .
56(4) . . .
45(4) . . .
61(5) . . .
53(4) . . .
55(4) . . .
55(4) . . .
58(4) . . .
63(4) . . .
55(4) . . .
57(4) . . .
64(4) . . .
59(4) . . .
67(5) . . .
54(4) . . .
58(4) . . .
67(4) . . .
59(4) . . .
56(4) . . .
57(4) . . .
52(4) . . .
53(4) . . .
52(4) . . .
58(4) . . .
52(4) . . .
52(4) . . .
55(4) . . .
49(4) . . .
64(4) . . .
63(5) . . .
61(4) . . .
54(4) . . .
58(4) . . .
53(4) . . .
56(4) . . .
52(4) . . .
46(4) . . .
49(4) . . .
46.0(35) . . .
58(4) . . .
53(4) . . .
72(5) . . .
62(4) . . .
62(4) . . .
55(4) . . .
43.5(34) . . .
49(4) . . .
56(4) . . .
52(4) . . .
57(4) . . .
53(4) . . .
60(4) . . .
52(4) . . .
51(4) . . .
64(4) . . .
52(4) . . .
44.0(35) . . .
60(4) . . .
57(4) . . .
56(4) . . .
53(4) . . .
50(4) . . .
65(5) . . .
57(4) . . .
51(4) . . .
62(4) . . .
47(4) . . .
59(4) . . .
58(4) . . .
45(4) . . .
50(4) . . .
54(4) . . .
49(4) . . .
53(4) . . .
51(4) . . .
54(4) . . .
57(4) . . .
61(4) . . .
56(4) . . .
51(4) . . .
49(4) . . .
61(4) . . .
51(4) . . .
55(4) . . .
51(4) . . .
42.1(33) . . .
54(4) . . .
53(4) . . .
69(4) . . .
57(4) . . .
52(4) . . .
59(4) . . .
60(4) . . .
56(4) . . .
58(4) . . .
50(4) . . .
55(4) . . .
63(4) . . .
57(4) . . .
55(4) . . .
58(4) . . .
63(4) . . .
58(4) . . .
49(4) . . .
45(4) . . .
59(4) . . .
62(4) . . .
58(4) . . .
61(4) . . .
50(4) . . .
62(4) . . .
54(4) . . .
61(4) . . .
68(4) . . .
61(4) . . .
64(4) . . .
61(5) . . .
57(4) . . .
68(4) . . .
55(4) . . .
59(4) . . .
49(4) . . .
59(4) . . .
56(4) . . .
58(4) . . .
56(4) . . .
50(4) . . .
62(4) . . .
55(4) . . .
51(4) . . .
56(4) . . .
41.7(34) . . .
55(4) . . .
54(4) . . .
61(4) . . .
57(4) . . .
59(4) . . .
53(4) . . .
61(4) . . .
51(4) . . .
66(4) . . .
50(4) . . .
55(4) . . .
53(4) . . .
50(4) . . .
61(4) . . .
56(4) . . .
55(4) . . .
55(4) . . .
55(4) . . .
61(4) . . .
52(4) . . .
49(4) . . .
51(4) . . .
48(4) . . .
57(4) . . .
67(4) . . .
57(4) . . .
61(4) . . .
63(4) . . .
58(4) . . .
58(4) . . .
53(4) . . .
64(4) . . .
54(4) . . .
55(4) . . .
53(4) . . .
47(4) . . .
43.7(34) . . .
55(4) . . .
54(4) . . .
63(4) . . .
56(4) . . .
62(4) . . .
57(4) . . .
56(4) . . .
57(4) . . .
55(4) . . .
60(4) . . .
49(4) . . .
49(4) . . .
50(4) . . .
60(4) . . .
52(4) . . .
48(4) . . .
55(4) . . .
60(4) . . .
55(4) . . .
45(4) . . .
53(4) . . .
64(5) . . .
59(4) . . .
55(4) . . .
58(4) . . .
51(4) . . .
60(4) . . .
58(4) . . .
58(4) . . .
56(4) . . .
62(4) . . .
62(4) . . .
54(4) . . .
61(4) . . .
59(4) . . .
56(4) . . .
46(4) . . .
49(4) . . .
54(4) . . .
53(4) . . .
62(4) . . .
51(4) . . .
46(4) . . .
51(4) . . .
54(4) . . .
53(4) . . .
48(4) . . .
57(4) . . .
55(4) . . .
43.8(34) . . .
56(4) . . .
60(4) . . .
54(4) . . .
57(4) . . .
48(4) . . .
55(4) . . .
60(4) . . .
59(4) . . .
54(4) . . .
44(4) . . .
51(4) . . .
64(4) . . .
59(4) . . .
60(4) . . .
51(4) . . .
41.1(33) . . .
54(4) . . .
51(4) . . .
54(4) . . .
57(4) . . .
60(4) . . .
61(4) . . .
57(4) . . .
62(4) . . .
59(4) . . .
52(4) . . .
48(4) . . .
58(4) . . .
59(4) . . .
63(4) . . .
54(4) . . .
58(4) . . .
56(4) . . .
43(4) . . .
54(4) . . .
50(4) . . .
56(4) . . .
58(4) . . .
51(4) . . .
53(4) . . .
52(4) . . .
46(4) . . .
63(4) . . .
51(4) . . .
58(4) . . .
49(4) . . .
58(4) . . .
57(4) . . .
51(4) . . .
54(4) . . .
55(4) . . .
58(4) . . .
55(4) . . .
53(4) . . .
60(4) . . .
58(4) . . .
47(4) . . .
47(4) . . .
56(4) . . .
59(4) . . .
58(4) . . .
53(4) . . .
49(4) . . .
52(4) . . .
50(4) . . .
54(4) . . .
57(4) . . .
66(4) . . .
57(4) . . .
60(4) . . .
58(4) . . .
55(4) . . .
62(4) . . .
54(4) . . .
52(4) . . .
71(4) . . .
52(4) . . .
52(4) . . .
62(5) . . .
55(4) . . .
61(4) . . .
55(4) . . .
58(4) . . .
59(4) . . .
62(4) . . .
57(4) . . .
50(4) . . .
55(4) . . .
54(4) . . .
39.4(32) . . .
52(4) . . .
56(4) . . .
58(4) . . .
49(4) . . .
43(4) . . .
47(4) . . .
57(4) . . .
57(4) . . .
55(4) . . .
65(4) . . .
58(4) . . .
52(4) . . .
51(4) . . .
59(5) . . .
48(4) . . .
45(4) . . .
53(4) . . .
57(4) . . .
60(4) . . .
50(4) . . .
55(4) . . .
54(4) . . .
61(4) . . .
59(4) . . .
57(4) . . .
57(4) . . .
58(4) . . .
59(4) . . .
62(4) . . .
52(4) . . .
55(4) . . .
53(4) . . .
46(4) . . .
62(4) . . .
55(4) . . .
45(4) . . .
53(4) . . .
56(4) . . .
52(4) . . .
51(4) . . .
51(4) . . .
50(4) . . .
55(4) . . .
58(4) . . .
59(4) . . .
53(4) . . .
48(4) . . .
52(4) . . .
57(4) . . .
51(4) . . .
61(4) . . .
50(4) . . .
56(4) . . .
60(4) . . .
65(4) . . .
50(4) . . .
49(4) . . .
58(4) . . .
54(4) . . .
52(4) . . .
46(4) . . .
52(4) . . .
54(4) . . .
48(4) . . .
49(4) . . .
50(4) . . .
61(4) . . .
61(4) . . .
54(4) . . .
62(4) . . .
54(4) . . .
54(4) . . .
56(4) . . .
50(4) . . .
53(4) . . .
54(4) . . .
60(4) . . .
53(4) . . .
59(4) . . .
47(4) . . .
57(4) . . .
61(4) . . .
57(4) . . .
61(4) . . .
60(4) . . .
61(4) . . .
62(4) . . .
48(4) . . .
55(4) . . .
54(4) . . .
49(4) . . .
58(4) . . .
54(4) . . .
48(4) . . .
56(4) . . .
59(4) . . .
46(4) . . .
63(4) . . .
54(4) . . .
60(4) . . .
57(4) . . .
48(4) . . .
44(4) . . .
63(4) . . .
61(4) . . .
55(4) . . .
59(4) . . .
57(4) . . .
58(4) . . .
55(4) . . .
47(4) . . .
49(4) . . .
50(4) . . .
57(4) . . .
56(4) . . .
59(4) . . .
48(4) . . .
59(4) . . .
50(4) . . .
50(4) . . .
49(4) . . .
48(4) . . .
62(4) . . .
49(4) . . .
59(4) . . .
63(4) . . .
55(4) . . .
61(4) . . .
57(4) . . .
57(4) . . .
56(4) . . .
53(4) . . .
58(4) . . .
56(4) . . .
55(4) . . .
63(4) . . .
60(4) . . .
63(4) . . .
51(4) . . .
54(4) . . .
48(4) . . .
48(4) . . .
57(4) . . .
60(4) . . .
59(4) . . .
54(4) . . .
46(4) . . .
53(4) . . .
50(4) . . .
53(4) . . .
50(4) . . .
47(4) . . .
54(4) . . .
52(4) . . .
50(4) . . .
54(4) . . .
61(4) . . .
55(4) . . .
51(4) . . .
53(4) . . .
51(4) . . .
49(4) . . .
64(4) . . .
54(4) . . .
57(4) . . .
52(4) . . .
62(4) . . .
63(4) . . .
56(4) . . .
59(4) . . .
52(4) . . .
52(4) . . .
42.3(34) . . .
47(4) . . .
52(4) . . .
53(4) . . .
60(4) . . .
51(4) . . .
50(4) . . .
47(4) . . .
57(4) . . .
60(4) . . .
54(4) . . .
55(4) . . .
61(4) . . .
53(4) . . .
61(4) . . .
53(4) . . .
51(4) . . .
56(4) . . .
42.7(34) . . .
43(4) . . .
59(4) . . .
58(4) . . .
57(4) . . .
55(4) . . .
47(4) . . .
53(4) . . .
54(4) . . .
56(4) . . .
50(4) . . .
53(4) . . .
49(4) . . .
60(4) . . .
45(4) . . .
64(4) . . .
55(4) . . .
50(4) . . .
51(4) . . .
63(5) . . .
51(4) . . .
55(4) . . .
57(4) . . .
60(4) . . .
57(4) . . .
58(4) . . .
56(4) . . .
54(4) . . .
64(4) . . .
57(4) . . .
63(4) . . .
63(4) . . .
52(4) . . .
56(4) . . .
55(4) . . .
60(4) . . .
55(4) . . .
49(4) . . .
56(4) . . .
60(4) . . .
68(4) . . .
54(4) . . .
57(4) . . .
60(4) . . .
49(4) . . .
49(4) . . .
52(4) . . .
47(4) . . .
53(4) . . .
63(4) . . .
64(4) . . .
57(4) . . .
55(4) . . .
66(4) . . .
55(4) . . .
48(4) . . .
53(4) . . .
50(4) . . .
63(5) . . .
57(4) . . .
60(4) . . .
55(4) . . .
53(4) . . .
47(4) . . .
60(4) . . .
53(4) . . .
50(4) . . .
55(4) . . .
62(5) . . .
50(4) . . .
54(4) . . .
49(4) . . .
44.3(34) . . .
53(4) . . .
49(4) . . .
58(4) . . .
56(4) . . .
57(4) . . .
59(4) . . .
55(4) . . .
56(4) . . .
66(4) . . .
49(4) . . .
51(4) . . .
59(4) . . .
56(4) . . .
49(4) . . .
56(4) . . .
58(4) . . .
53(4) . . .
59(4) . . .
54(4) . . .
58(4) . . .
49(4) . . .
57(4) . . .
65(4) . . .
49(4) . . .
53(4) . . .
62(4) . . .
56(4) . . .
47(4) . . .
52(4) . . .
59(4) . . .
45.1(34) . . .
66(4) . . .
50(4) . . .
51(4) . . .
51(4) . . .
57(4) . . .
51(4) . . .
61(4) . . .
48(4) . . .
48(4) . . .
50(4) . . .
51(4) . . .
44.2(34) . . .
63(4) . . .
57(4) . . .
50(4) . . .
51(4) . . .
48(4) . . .
56(4) . . .
46(4) . . .
49(4) . . .
51(4) . . .
53(4) . . .
58(4) . . .
56(4) . . .
56(4) . . .
63(4) . . .
59(4) . . .
55(4) . . .
57(4) . . .
62(4) . . .
60(4) . . .
53(4) . . .
55(4) . . .
54(4) . . .
49(4) . . .
60(4) . . .
59(4) . . .
57(4) . . .
51(4) . . .
49(4) . . .
55(4) . . .
56(4) . . .
53(4) . . .
52(4) . . .
54(4) . . .
53(4) . . .
55(4) . . .
56(4) . . .
53(4) . . .
66(4) . . .
62(4) . . .
58(4) . . .
52(4) . . .
48(4) . . .
57(4) . . .
58(4) . . .
61(4) . . .
58(4) . . .
62(4) . . .
54(4) . . .
62(4) . . .
67(4) . . .
57(4) . . .
53(4) . . .
49(4) . . .
58(4) . . .
54(4) . . .
57(4) . . .
63(4) . . .
56(4) . . .
48(4) . . .
61(4) . . .
53(4) . . .
56(4) . . .
63(4) . . .
55(4) . . .
44(4) . . .
47(4) . . .
54(4) . . .
61(4) . . .
55(4) . . .
53(4) . . .
57(4) . . .
41.1(34) . . .
49(4) . . .
61(4) . . .
50(4) . . .
55(4) . . .
54(4) . . .
56(4) . . .
50(4) . . .
70(5) . . .
48(4) . . .
48(4) . . .
49(4) . . .
56(4) . . .
49(4) . . .
58(4) . . .
51(4) . . .
54(4) . . .
44(4) . . .
57(4) . . .
60(4) . . .
52(4) . . .
55(4) . . .
42(4) . . .
54(4) . . .
61(4) . . .
61(4) . . .
60(4) . . .
63(4) . . .
67(4) . . .
59(4) . . .
58(4) . . .
51(4) . . .
56(4) . . .
54(4) . . .
54(4) . . .
43.2(34) . . .
49(4) . . .
48.2(35) . . .
61(4) . . .
66(4) . . .
60(4) . . .
47(4) . . .
49(4) . . .
57(4) . . .
56(4) . . .
59(4) . . .
67(4) . . .
55(4) . . .
51(4) . . .
59(4) . . .
61(4) . . .
53(4) . . .
56(4) . . .
58(4) . . .
60(4) . . .
50(4) . . .
58(4) . . .
67(5) . . .
58(4) . . .
56(4) . . .
61(4) . . .
49(4) . . .
48(4) . . .
54(4) . . .
55(4) . . .
49(4) . . .
62(4) . . .
58(4) . . .
52(4) . . .
54(4) . . .
56(4) . . .
49(4) . . .
48(4) . . .
52(4) . . .
63(4) . . .
46(4) . . .
59(4) . . .
62(4) . . .
54(4) . . .
43.2(34) . . .
58(4) . . .
48(4) . . .
52(4) . . .
52(4) . . .
52(4) . . .
51(4) . . .
55(4) . . .
59(4) . . .
51(4) . . .
60(4) . . .
48(4) . . .
51(4) . . .
60(4) . . .
65(4) . . .
57(4) . . .
59(4) . . .
53(4) . . .
52(4) . . .
61(4) . . .
52(4) . . .
49(4) . . .
58(4) . . .
51(4) . . .
53(4) . . .
54(4) . . .
57(4) . . .
51(4) . . .
61(4) . . .
65(4) . . .
56(4) . . .
50(4) . . .
59(4) . . .
57(4) . . .
62(4) . . .
56(4) . . .
56(4) . . .
51(4) . . .
52(4) . . .
56(4) . . .
55(4) . . .
58(4) . . .
55(4) . . .
54(4) . . .
56(4) . . .
57(4) . . .
58(4) . . .
54(4) . . .
50(4) . . .
47(4) . . .
57(4) . . .
56(4) . . .
46(4) . . .
55(4) . . .
58(4) . . .
52(4) . . .
54(4) . . .
49(4) . . .
46(4) . . .
56(4) . . .
46(4) . . .
49(4) . . .
57(4) . . .
52(4) . . .
57(4) . . .
52(4) . . .
66(5) . . .
50(4) . . .
59(4) . . .
60(4) . . .
60(4) . . .
49(4) . . .
55(4) . . .
49(4) . . .
56(4) . . .
56(4) . . .
52(4) . . .
59(4) . . .
48(4) . . .
53(4) . . .
54(4) . . .
52(4) . . .
53(4) . . .
67(4) . . .
53(4) . . .
47(4) . . .
55(4) . . .
51(4) . . .
54(4) . . .
51(4) . . .
52(4) . . .
56(4) . . .
59(4) . . .
52(4) . . .
52(4) . . .
59(4) . . .
51(4) . . .
54(4) . . .
47(4) . . .
43.1(34) . . .
53(4) . . .
46.3(35) . . .
58(4) . . .
55(4) . . .
57(4) . . .
58(4) . . .
48(4) . . .
49(4) . . .
54(4) . . .
62(4) . . .
48(4) . . .
57(4) . . .
46(4) . . .
43.3(34) . . .
57(4) . . .
62(4) . . .
54(4) . . .
48(4) . . .
47(4) . . .
51(4) . . .
46(4) . . .
49(4) . . .
58(4) . . .
56(4) . . .
56(4) . . .
56(4) . . .
49(4) . . .
56(4) . . .
41.5(34) . . .
55(4) . . .
54(4) . . .
56(4) . . .
55(4) . . .
65(4) . . .
61(4) . . .
48(4) . . .
50(4) . . .
50(4) . . .
50(4) . . .
54(4) . . .
51(4) . . .
60(4) . . .
56(4) . . .
54(4) . . .
53(4) . . .
44(4) . . .
54(4) . . .
48(4) . . .
54(4) . . .
64(5) . . .
51(4) . . .
47(4) . . .
42.2(34) . . .
48(4) . . .
55(4) . . .
63(4) . . .
54(4) . . .
54(4) . . .
47(4) . . .
56(4) . . .
53(4) . . .
53(4) . . .
57(4) . . .
48(4) . . .
65(5) . . .
56(4) . . .
61(4) . . .
55(4) . . .
58(4) . . .
48(4) . . .
49(4) . . .
46(4) . . .
56(4) . . .
52(4) . . .
57(4) . . .
55(4) . . .
58(4) . . .
54(4) . . .
52(4) . . .
58(4) . . .
51(4) . . .
55(4) . . .
56(4) . . .
60(4) . . .
55(4) . . .
52(4) . . .
60(4) . . .
54(4) . . .
55(4) . . .
63(4) . . .
57(4) . . .
51(4) . . .
51(4) . . .
52(4) . . .
59(4) . . .
55(4) . . .
54(4) . . .
51(4) . . .
54(4) . . .
57(4) . . .
54(4) . . .
39.9(33) . . .
52(4) . . .
54(4) . . .
48(4) . . .
55(4) . . .
58(4) . . .
46.0(35) . . .
55(4) . . .
49(4) . . .
46(4) . . .
54(4) . . .
42.8(34) . . .
45(4) . . .
53(4) . . .
55(4) . . .
53(4) . . .
59(4) . . .
56(4) . . .
53(4) . . .
55(4) . . .
55(4) . . .
61(4) . . .
48(4) . . .
54(4) . . .
52(4) . . .
46(4) . . .
53(4) . . .
58(4) . . .
61(4) . . .
62(4) . . .
53(4) . . .
62(4) . . .
57(4) . . .
63(4) . . .
52(4) . . .
53(4) . . .
47(4) . . .
57(4) . . .
62(4) . . .
59(4) . . .
53(4) . . .
44(4) . . .
43(4) . . .
47(4) . . .
56(4) . . .
49(4) . . .
57(4) . . .
57(4) . . .
52(4) . . .
44.1(34) . . .
48(4) . . .
48(4) . . .
50(4) . . .
50(4) . . .
57(4) . . .
54(4) . . .
43.3(34) . . .
43(4) . . .
54(4) . . .
56(4) . . .
55(4) . . .
46(4) . . .
47(4) . . .
50(4) . . .
57(4) . . .
53(4) . . .
63(4) . . .
61(4) . . .
64(4) . . .
59(4) . . .
59(4) . . .
55(4) . . .
49(4) . . .
51(4) . . .
49(4) . . .
46(4) . . .
57(4) . . .
69(4) . . .
61(4) . . .
55(4) . . .
54(4) . . .
56(4) . . .
57(4) . . .
51(4) . . .
59(4) . . .
59(4) . . .
55(4) . . .
49(4) . . .
59(4) . . .
57(4) . . .
60(4) . . .
62(4) . . .
56(4) . . .
55(4) . . .
57(4) . . .
55(4) . . .
60(4) . . .
49(4) . . .
52(4) . . .
56(4) . . .
54(4) . . .
60(4) . . .
54(4) . . .
48(4) . . .
58(4) . . .
57(4) . . .
57(4) . . .
58(4) . . .
55(4) . . .
48(4) . . .
47(4) . . .
58(4) . . .
49(4) . . .
51(4) . . .
52(4) . . .
55(4) . . .
43.5(34) . . .
51(4) . . .
52(4) . . .
56(4) . . .
65(5) . . .
60(4) . . .
57(4) . . .
60(4) . . .
50(4) . . .
52(4) . . .
48(4) . . .
53(4) . . .
59(4) . . .
49(4) . . .
57(4) . . .
56(4) . . .
56(4) . . .
60(4) . . .
48(4) . . .
45(4) . . .
52(4) . . .
57(4) . . .
50(4) . . .
60(4) . . .
55(4) . . .
58(4) . . .
59(4) . . .
54(4) . . .
50(4) . . .
43(4) . . .
45(4) . . .
56(4) . . .
53(4) . . .
54(4) . . .
55(4) . . .
65(4) . . .
54(4) . . .
52(4) . . .
54(4) . . .
48(4) . . .
51(4) . . .
58(4) . . .
62(4) . . .
58(4) . . .
48(4) . . .
57(4) . . .
52(4) . . .
54(4) . . .
53(4) . . .
45(4) . . .
48(4) . . .
54(4) . . .
46(4) . . .
54(4) . . .
59(4) . . .
58(4) . . .
46(4) . . .
48(4) . . .
55(4) . . .
57(4) . . .
66(4) . . .
53(4) . . .
54(4) . . .
47(4) . . .
62(4) . . .
66(4) . . .
60(4) . . .
51(4) . . .
49(4) . . .
47(4) . . .
61(4) . . .
51(4) . . .
45(4) . . .
47(4) . . .
57(4) . . .
63(4) . . .
51(4) . . .
54(4) . . .
50(4) . . .
53(4) . . .
50(4) . . .
58(4) . . .
49(4) . . .
63(5) . . .
57(4) . . .
55(4) . . .
63(4) . . .
59(4) . . .
58(4) . . .
55(4) . . .
57(4) . . .
57(4) . . .
57(4) . . .
55(4) . . .
54(4) . . .
51(4) . . .
53(4) . . .
54(4) . . .
55(4) . . .
58(4) . . .
57(4) . . .
53(4) . . .
53(4) . . .
53(4) . . .
61(4) . . .
55(4) . . .
59(4) . . .
62(4) . . .
58(4) . . .
52(4) . . .
58(4) . . .
54(4) . . .
54(4) . . .
54(4) . . .
52(4) . . .
51(4) . . .
47(4) . . .
39.8(34) . . .
53(4) . . .
49(4) . . .
52(4) . . .
43(4) . . .
61(4) . . .
55(4) . . .
50(4) . . .
46(4) . . .
49(4) . . .
58(4) . . .
40.6(32) . . .
51(4) . . .
54(4) . . .
53(4) . . .
48(4) . . .
41.8(34) . . .
51(4) . . .
57(4) . . .
56(4) . . .
54(4) . . .
50(4) . . .
48(4) . . .
53(4) . . .
51(4) . . .
49(4) . . .
60(5) . . .
49(4) . . .
51(4) . . .
55(4) . . .
46(4) . . .
46(4) . . .
53(4) . . .
48(4) . . .
56(4) . . .
47(4) . . .
52(4) . . .
60(4) . . .
53(4) . . .
55(4) . . .
54(4) . . .
49(4) . . .
62(4) . . .
53(4) . . .
62(4) . . .
52(4) . . .
69(4) . . .
60(4) . . .
64(4) . . .
58(4) . . .
57(4) . . .
61(4) . . .
52(4) . . .
47(4) . . .
55(4) . . .
68(5) . . .
51(4) . . .
56(4) . . .
57(4) . . .
61(4) . . .
52(4) . . .
54(4) . . .
60(4) . . .
59(4) . . .
49(4) . . .
51(4) . . .
54(4) . . .
55(4) . . .
54(4) . . .
46(4) . . .
52(4) . . .
60(4) . . .
59(4) . . .
55(4) . . .
58(4) . . .
54(4) . . .
57(4) . . .
50(4) . . .
50(4) . . .
55(4) . . .
51(4) . . .
53(4) . . .
55(4) . . .
53(4) . . .
52(4) . . .
49(4) . . .
57(4) . . .
48(4) . . .
57(4) . . .
55(4) . . .
56(4) . . .
52(4) . . .
56(4) . . .
53(4) . . .
50(4) . . .
50(4) . . .
57(4) . . .
48(4) . . .
51(4) . . .
48(4) . . .
48(4) . . .
47(4) . . .
46(4) . . .
58(4) . . .
54(4) . . .
44(4) . . .
60(4) . . .
58(4) . . .
55(4) . . .
56(4) . . .
49(4) . . .
55(4) . . .
57(4) . . .
55(4) . . .
55(4) . . .
61(4) . . .
56(4) . . .
54(4) . . .
52(4) . . .
57(4) . . .
54(4) . . .
51(4) . . .
57(4) . . .
54(4) . . .
54(4) . . .
49(4) . . .
51(4) . . .
56(4) . . .
51(4) . . .
50(4) . . .
53(4) . . .
61(4) . . .
50(4) . . .
58(4) . . .
55(4) . . .
58(4) . . .
58(4) . . .
52(4) . . .
63(4) . . .
52(4) . . .
56(4) . . .
60(4) . . .
57(4) . . .
50(4) . . .
57(4) . . .
51(4) . . .
52(4) . . .
54(4) . . .
54(4) . . .
48(4) . . .
51(4) . . .
44(4) . . .
52(4) . . .
50(4) . . .
51(4) . . .
58(4) . . .
55(4) . . .
60(4) . . .
52(4) . . .
49(4) . . .
56(4) . . .
45.8(35) . . .
54(4) . . .
60(4) . . .
61(4) . . .
50(4) . . .
43.3(34) . . .
42(4) . . .
49(4) . . .
64(4) . . .
40.3(33) . . .
48(4) . . .
48(4) . . .
58(4) . . .
57(4) . . .
62(4) . . .
54(4) . . .
59(4) . . .
59(4) . . .
47(4) . . .
51(4) . . .
53(4) . . .
58(4) . . .
62(4) . . .
55(4) . . .
50(4) . . .
51(4) . . .
52(4) . . .
61(4) . . .
53(4) . . .
56(4) . . .
61(4) . . .
52(4) . . .
65(4) . . .
53(4) . . .
57(4) . . .
52(4) . . .
46(4) . . .
47(4) . . .
49(4) . . .
48(4) . . .
50(4) . . .
48(4) . . .
56(4) . . .
43.7(34) . . .
50(4) . . .
54(4) . . .
53(4) . . .
51(4) . . .
60(4) . . .
50(4) . . .
53(4) . . .
53(4) . . .
53(4) . . .
49(4) . . .
50(4) . . .
55(4) . . .
57(4) . . .
55(4) . . .
50(4) . . .
51(4) . . .
55(4) . . .
49(4) . . .
62(4) . . .
53(4) . . .
57(4) . . .
54(4) . . .
42(4) . . .
61(4) . . .
48(4) . . .
55(4) . . .
55(4) . . .
54(4) . . .
52(4) . . .
61(4) . . .
59(4) . . .
54(4) . . .
54(4) . . .
58(4) . . .
59(4) . . .
50(4) . . .
50(4) . . .
41.8(34) . . .
50(4) . . .
60(4) . . .
57(4) . . .
56(4) . . .
63(4) . . .
51(4) . . .
57(4) . . .
56(4) . . .
61(4) . . .
61(4) . . .
48(4) . . .
56(4) . . .
59(4) . . .
49(4) . . .
54(4) . . .
53(4) . . .
53(4) . . .
57(4) . . .
58(4) . . .
64(4) . . .
54(4) . . .
59(4) . . .
55(4) . . .
68(5) . . .
54(4) . . .
56(4) . . .
53(4) . . .
54(4) . . .
60(4) . . .
59(4) . . .
54(4) . . .
51(4) . . .
59(4) . . .
59(4) . . .
54(4) . . .
56(4) . . .
52(4) . . .
50(4) . . .
58(4) . . .
53(4) . . .
55(4) . . .
52(4) . . .
54(4) . . .
59(4) . . .
47(4) . . .
53(4) . . .
48(4) . . .
46(4) . . .
50(4) . . .
53(4) . . .
56(4) . . .
54(4) . . .
55(4) . . .
56(4) . . .
45(4) . . .
46(4) . . .
55(4) . . .
56(4) . . .
62(4) . . .
52(4) . . .
53(4) . . .
55(4) . . .
50(4) . . .
60(4) . . .
57(4) . . .
46(4) . . .
51(4) . . .
55(4) . . .
54(4) . . .
54(4) . . .
53(4) . . .
56(4) . . .
56(4) . . .
55(4) . . .
53(4) . . .
58(4) . . .
50(4) . . .
60(4) . . .
46(4) . . .
49(4) . . .
53(4) . . .
57(4) . . .
63(4) . . .
58(4) . . .
66(4) . . .
59(4) . . .
57(4) . . .
62(4) . . .
59(4) . . .
47(4) . . .
54(4) . . .
54(4) . . .
60(4) . . .
67(4) . . .
55(4) . . .
62(4) . . .
58(4) . . .
46(4) . . .
51(4) . . .
54(4) . . .
49(4) . . .
53(4) . . .
61(4) . . .
49(4) . . .
57(4) . . .
50(4) . . .
60(4) . . .
55(4) . . .
53(4) . . .
50(4) . . .
54(4) . . .
54(4) . . .
50(4) . . .
56(4) . . .
53(4) . . .
46(4) . . .
51(4) . . .
59(4) . . .
51(4) . . .
47(4) . . .
48(4) . . .
57(4) . . .
56(4) . . .
56(4) . . .
62(4) . . .
68(5) . . .
56(4) . . .
62(4) . . .
50(4) . . .
48(4) . . .
50(4) . . .
49(4) . . .
51(4) . . .
58(4) . . .
46(4) . . .
51(4) . . .
52(4) . . .
56(4) . . .
64(4) . . .
56(4) . . .
58(4) . . .
53(4) . . .
46(4) . . .
52(4) . . .
56(4) . . .
52(4) . . .
63(4) . . .
56(4) . . .
56(4) . . .
52(4) . . .
40.7(33) . . .
61(4) . . .
51(4) . . .
52(4) . . .
60(4) . . .
55(4) . . .
55(4) . . .
54(4) . . .
62(4) . . .
56(4) . . .
56(4) . . .
48(4) . . .
49(4) . . .
44(4) . . .
46(4) . . .
47(4) . . .
44.3(34) . . .
43.5(34) . . .
55(4) . . .
58(4) . . .
47(4) . . .
57(4) . . .
54(4) . . .
50(4) . . .
65(4) . . .
66(4) . . .
56(4) . . .
46(4) . . .
55(4) . . .
51(4) . . .
51(4) . . .
64(4) . . .
59(4) . . .
50(4) . . .
51(4) . . .
51(4) . . .
60(4) . . .
56(4) . . .
62(4) . . .
54(4) . . .
58(4) . . .
49(4) . . .
62(4) . . .
54(4) . . .
48(4) . . .
45(4) . . .
55(4) . . .
52(4) . . .
51(4) . . .
52(4) . . .
50(4) . . .
46(4) . . .
41.5(33) . . .
57(4) . . .
52(4) . . .
46(4) . . .
49(4) . . .
54(4) . . .
53(4) . . .
55(4) . . .
44.6(35) . . .
48(4) . . .
63(4) . . .
63(4) . . .
54(4) . . .
51(4) . . .
53(4) . . .
54(4) . . .
50(4) . . .
53(4) . . .
62(4) . . .
48(4) . . .
48(4) . . .
55(4) . . .
53(4) . . .
55(4) . . .
59(4) . . .
46.0(34) . . .
56(4) . . .
46(4) . . .
48(4) . . .
50(4) . . .
61(4) . . .
45(4) . . .
53(4) . . .
67(4) . . .
49(4) . . .
55(4) . . .
61(4) . . .
62(4) . . .
63(4) . . .
60(4) . . .
47(4) . . .
47(4) . . .
61(4) . . .
54(4) . . .
53(4) . . .
45(4) . . .
55(4) . . .
61(4) . . .
54(4) . . .
53(4) . . .
59(4) . . .
55(4) . . .
56(4) . . .
54(4) . . .
54(4) . . .
58(4) . . .
53(4) . . .
64(4) . . .
47(4) . . .
67(5) . . .
54(4) . . .
50(4) . . .
63(4) . . .
54(4) . . .
51(4) . . .
44(4) . . .
55(4) . . .
43.9(34) . . .
42.8(34) . . .
52(4) . . .
56(4) . . .
55(4) . . .
46(4) . . .
50(4) . . .
60(4) . . .
50(4) . . .
55(4) . . .
55(4) . . .
55(4) . . .
56(4) . . .
58(4) . . .
53(4) . . .
54(4) . . .
56(4) . . .
50(4) . . .
51(4) . . .
45(4) . . .
47(4) . . .
42.2(34) . . .
47(4) . . .
54(4) . . .
70(5) . . .
51(4) . . .
58(4) . . .
71(5) . . .
52(4) . . .
49(4) . . .
50(4) . . .
52(4) . . .
57(4) . . .
48(4) . . .
56(4) . . .
55(4) . . .
58(4) . . .
61(4) . . .
61(4) . . .
45(4) . . .
53(4) . . .
50(4) . . .
58(4) . . .
57(4) . . .
54(4) . . .
49(4) . . .
58(4) . . .
47(4) . . .
47(4) . . .
52(4) . . .
56(4) . . .
64(4) . . .
46(4) . . .
44.1(34) . . .
52(4) . . .
44.7(35) . . .
51(4) . . .
53(4) . . .
44.8(34) . . .
46(4) . . .
53(4) . . .
68(4) . . .
43.8(35) . . .
54(4) . . .
58(4) . . .
48(4) . . .
47(4) . . .
58(4) . . .
49(4) . . .
57(4) . . .
59(4) . . .
56(4) . . .
54(4) . . .
59(4) . . .
46(4) . . .
48(4) . . .
42.8(34) . . .
48(4) . . .
48(4) . . .
50(4) . . .
52(4) . . .
51(4) . . .
57(4) . . .
48(4) . . .
59(4) . . .
49(4) . . .
48(4) . . .
47(4) . . .
52(4) . . .
52(4) . . .
44(4) . . .
57(4) . . .
64(5) . . .
57(4) . . .
60(4) . . .
56(4) . . .
57(4) . . .
43.1(34) . . .
54(4) . . .
52(4) . . .
59(4) . . .
51(4) . . .
50(4) . . .
49(4) . . .
48(4) . . .
46(4) . . .
48(4) . . .
53(4) . . .
50(4) . . .
54(4) . . .
44.3(35) . . .
43.3(35) . . .
51(4) . . .
57(4) . . .
48(4) . . .
47(4) . . .
51(4) . . .
50(4) . . .
46(4) . . .
57(4) . . .
52(4) . . .
52(4) . . .
59(4) . . .
54(4) . . .
45.5(35) . . .
49(4) . . .
54(4) . . .
55(4) . . .
53(4) . . .
51(4) . . .
55(4) . . .
65(4) . . .
41.0(34) . . .
51(4) . . .
52(4) . . .
58(4) . . .
51(4) . . .
51(4) . . .
56(4) . . .
51(4) . . .
54(4) . . .
56(4) . . .
54(4) . . .
62(4) . . .
45(4) . . .
54(4) . . .
52(4) . . .
66(4) . . .
55(4) . . .
46(4) . . .
48(4) . . .
54(4) . . .
53(4) . . .
44.2(34) . . .
42.4(34) . . .
53(4) . . .
44(4) . . .
64(4) . . .
50(4) . . .
57(4) . . .
48(4) . . .
52(4) . . .
57(4) . . .
51(4) . . .
55(4) . . .
43(4) . . .
52(4) . . .
50(4) . . .
49(4) . . .
52(4) . . .
56(4) . . .
59(4) . . .
55(4) . . .
53(4) . . .
48(4) . . .
41.4(33) . . .
55(4) . . .
53(4) . . .
43.7(35) . . .
57(4) . . .
51(4) . . .
56(4) . . .
52(4) . . .
50(4) . . .
42.8(33) . . .
60(4) . . .
56(4) . . .
53(4) . . .
57(4) . . .
46(4) . . .
47(4) . . .
57(4) . . .
59(4) . . .
45(4) . . .
51(4) . . .
64(5) . . .
47(4) . . .
51(4) . . .
56(4) . . .
56(4) . . .
57(4) . . .
39.6(34) . . .
54(4) . . .
56(4) . . .
51(4) . . .
59(4) . . .
48(4) . . .
47(4) . . .
47(4) . . .
50(4) . . .
61(4) . . .
56(4) . . .
61(4) . . .
50(4) . . .
57(4) . . .
54(4) . . .
56(4) . . .
53(4) . . .
64(4) . . .
53(4) . . .
53(4) . . .
48(4) . . .
44.5(35) . . .
48(4) . . .
58(4) . . .
55(4) . . .
58(4) . . .
52(4) . . .
47(4) . . .
59(4) . . .
60(4) . . .
60(4) . . .
53(4) . . .
53(4) . . .
54(4) . . .
49(4) . . .
45.2(35) . . .
57(4) . . .
54(4) . . .
58(4) . . .
51(4) . . .
55(4) . . .
45(4) . . .
53(4) . . .
53(4) . . .
53(4) . . .
57(4) . . .
55(4) . . .
55(4) . . .
55(4) . . .
57(4) . . .
52(4) . . .
66(4) . . .
60(4) . . .
56(4) . . .
53(4) . . .
64(4) . . .
53(4) . . .
56(4) . . .
47(4) . . .
54(4) . . .
59(4) . . .
51(4) . . .
52(4) . . .
49(4) . . .
49(4) . . .
56(4) . . .
58(4) . . .
50(4) . . .
47(4) . . .
44.0(34) . . .
46(4) . . .
54(4) . . .
51(4) . . .
62(4) . . .
53(4) . . .
56(4) . . .
58(4) . . .
44(4) . . .
40.0(35) . . .
51(4) . . .
46(4) . . .
61(4) . . .
53(4) . . .
49(4) . . .
50(4) . . .
49(4) . . .
52(4) . . .
51(4) . . .
43.6(34) . . .
54(4) . . .
51(4) . . .
56(4) . . .
44(4) . . .
51(4) . . .
57(4) . . .
42(4) . . .
55(4) . . .
54(4) . . .
47(4) . . .
52(4) . . .
50(4) . . .
49(4) . . .
51(4) . . .
51(4) . . .
59(4) . . .
58(4) . . .
49(4) . . .
57(4) . . .
52(4) . . .
53(4) . . .
58(4) . . .
58(4) . . .
51(4) . . .
57(4) . . .
57(4) . . .
52(4) . . .
51(4) . . .
45(4) . . .
49(4) . . .
48(4) . . .
48(4) . . .
52(4) . . .
55(4) . . .
52(4) . . .
55(4) . . .
46(4) . . .
52(4) . . .
54(4) . . .
45(4) . . .
56(4) . . .
59(4) . . .
48(4) . . .
51(4) . . .
57(4) . . .
52(4) . . .
59(4) . . .
56(4) . . .
56(4) . . .
52(4) . . .
46(4) . . .
55(4) . . .
58(4) . . .
50(4) . . .
50(4) . . .
53(4) . . .
57(4) . . .
54(4) . . .
51(4) . . .
49(4) . . .
51(4) . . .
47(4) . . .
45(4) . . .
52(4) . . .
58(4) . . .
58(4) . . .
57(4) . . .
58(4) . . .
53(4) . . .
47(4) . . .
60(4) . . .
51(4) . . .
50(4) . . .
45(4) . . .
58(4) . . .
60(4) . . .
52(4) . . .
50(4) . . .
53(4) . . .
50(4) . . .
58(4) . . .
48(4) . . .
54(4) . . .
56(4) . . .
52(4) . . .
54(4) . . .
49(4) . . .
48(4) . . .
52(4) . . .
50(4) . . .
53(4) . . .
45(4) . . .
47(4) . . .
52(4) . . .
49(4) . . .
54(4) . . .
51(4) . . .
46(4) . . .
66(4) . . .
59(4) . . .
50(4) . . .
52(4) . . .
47(4) . . .
47(4) . . .
53(4) . . .
56(4) . . .
54(4) . . .
55(4) . . .
50(4) . . .
46(4) . . .
52(4) . . .
49(4) . . .
44.8(35) . . .
52(4) . . .
60(4) . . .
59(4) . . .
52(4) . . .
53(4) . . .
57(4) . . .
56(4) . . .
55(4) . . .
49(4) . . .
50(4) . . .
55(4) . . .
56(4) . . .
56(4) . . .
51(4) . . .
48(4) . . .
64(4) . . .
57(4) . . .
48(4) . . .
48(4) . . .
47(4) . . .
37.3(32) . . .
53(4) . . .
55(4) . . .
51(4) . . .
46(4) . . .
55(4) . . .
55(4) . . .
54(4) . . .
54(4) . . .
51(4) . . .
49(4) . . .
46.1(34) . . .
56(4) . . .
49(4) . . .
57(4) . . .
52(4) . . .
52(4) . . .
51(4) . . .
51(4) . . .
52(4) . . .
53(4) . . .
58(4) . . .
52(4) . . .
57(4) . . .
47(4) . . .
58(4) . . .
51(4) . . .
41.4(34) . . .
52(4) . . .
50(4) . . .
54(4) . . .
55(4) . . .
53(4) . . .
47(4) . . .
48(4) . . .
44(4) . . .
50(4) . . .
69(4) . . .
56(4) . . .
52(4) . . .
48(4) . . .
53(4) . . .
56(4) . . .
58(4) . . .
49(4) . . .
52(4) . . .
55(4) . . .
56(4) . . .
54(4) . . .
45(4) . . .
50(4) . . .
49(4) . . .
52(4) . . .
48(4) . . .
48(4) . . .
54(4) . . .
54(4) . . .
45(4) . . .
59(4) . . .
57(4) . . .
44(4) . . .
49(4) . . .
54(4) . . .
47(4) . . .
56(4) . . .
51(4) . . .
52(4) . . .
47(4) . . .
50(4) . . .
56(4) . . .
52(4) . . .
57(4) . . .
48(4) . . .
52(4) . . .
62(4) . . .
49(4) . . .
49(4) . . .
50(4) . . .
55(4) . . .
54(4) . . .
50(4) . . .
43.1(34) . . .
50(4) . . .
50(4) . . .
52(4) . . .
53(4) . . .
55(4) . . .
48(4) . . .
50(4) . . .
59(4) . . .
55(4) . . .
55(4) . . .
53(4) . . .
50(4) . . .
55(4) . . .
53(4) . . .
52(4) . . .
52(4) . . .
42.9(34) . . .
49(4) . . .
56(4) . . .
58(4) . . .
59(4) . . .
41.0(33) . . .
54(4) . . .
56(4) . . .
43.3(35) . . .
44.5(34) . . .
52(4) . . .
54(4) . . .
55(4) . . .
41.8(34) . . .
58(4) . . .
46(4) . . .
47(4) . . .
44.7(35) . . .
58(4) . . .
57(4) . . .
38.9(34) . . .
45(4) . . .
44(4) . . .
52(4) . . .
50(4) . . .
52(4) . . .
51(4) . . .
51(4) . . .
51(4) . . .
58(4) . . .
50(4) . . .
49(4) . . .
44(4) . . .
57(4) . . .
52(4) . . .
48(4) . . .
56(4) . . .
47(4) . . .
48(4) . . .
53(4) . . .
65(5) . . .
50(4) . . .
54(4) . . .
56(4) . . .
48(4) . . .
46(4) . . .
52(4) . . .
61(4) . . .
58(4) . . .
58(4) . . .
51(4) . . .
51(4) . . .
50(4) . . .
50(4) . . .
65(4) . . .
76(5) . . .
53(4) . . .
55(4) . . .
48(4) . . .
47(4) . . .
57(4) . . .
42.8(33) . . .
51(4) . . .
52(4) . . .
44(4) . . .
41.4(34) . . .
48(4) . . .
56(4) . . .
47(4) . . .
43(4) . . .
50(4) . . .
61(4) . . .
58(4) . . .
52(4) . . .
51(4) . . .
50(4) . . .
59(4) . . .
54(4) . . .
57(4) . . .
51(4) . . .
47(4) . . .
56(4) . . .
53(4) . . .
51(4) . . .
59(4) . . .
49(4) . . .
52(4) . . .
50(4) . . .
43.5(35) . . .
54(4) . . .
57(4) . . .
62(4) . . .
57(4) . . .
52(4) . . .
51(4) . . .
54(4) . . .
52(4) . . .
52(4) . . .
54(4) . . .
56(4) . . .
52(4) . . .
46(4) . . .
50(4) . . .
48(4) . . .
56(4) . . .
42(4) . . .
52(4) . . .
44.6(35) . . .
48(4) . . .
51(4) . . .
50(4) . . .
48(4) . . .
58(4) . . .
45(4) . . .
35.8(30) . . .
54(4) . . .
49(4) . . .
63(4) . . .
40.2(33) . . .
55(4) . . .
58(4) . . .
61(4) . . .
52(4) . . .
41.7(34) . . .
45(4) . . .
57(4) . . .
54(4) . . .
45(4) . . .
54(4) . . .
61(4) . . .
63(4) . . .
52(4) . . .
43.1(34) . . .
46(4) . . .
45(4) . . .
48(4) . . .
46(4) . . .
60(4) . . .
53(4) . . .
70(5) . . .
48(4) . . .
60(4) . . .
60(4) . . .
60(4) . . .
64(5) . . .
52(4) . . .
54(4) . . .
38.0(32) . . .
55(4) . . .
50(4) . . .
47(4) . . .
54(4) . . .
43(4) . . .
46(4) . . .
58(4) . . .
62(4) . . .
55(4) . . .
48(4) . . .
55(4) . . .
54(4) . . .
52(4) . . .
47(4) . . .
56(4) . . .
59(4) . . .
57(4) . . .
51(4) . . .
49(4) . . .
47(4) . . .
55(4) . . .
52(4) . . .
41.5(34) . . .
48(4) . . .
55(4) . . .
51(4) . . .
37.3(33) . . .
54(4) . . .
59(4) . . .
60(4) . . .
50(4) . . .
47(4) . . .
46(4) . . .
46(4) . . .
49(4) . . .
51(4) . . .
52(4) . . .
54(4) . . .
51(4) . . .
47(4) . . .
54(4) . . .
49(4) . . .
57(4) . . .
46(4) . . .
44(4) . . .
42(4) . . .
50(4) . . .
51(4) . . .
53(4) . . .
49(4) . . .
51(4) . . .
62(4) . . .
57(4) . . .
51(4) . . .
48(4) . . .
49(4) . . .
44(4) . . .
63(4) . . .
53(4) . . .
47(4) . . .
52(4) . . .
46(4) . . .
47(4) . . .
42.7(34) . . .
56(4) . . .
54(4) . . .
45.8(35) . . .
44.0(35) . . .
52(4) . . .
52(4) . . .
40.8(34) . . .
49(4) . . .
55(4) . . .
48(4) . . .
44(4) . . .
43(4) . . .
54(4) . . .
69(4) . . .
63(4) . . .
55(4) . . .
42.6(34) . . .
54(4) . . .
56(4) . . .
58(4) . . .
50(4) . . .
50(4) . . .
49(4) . . .
51(4) . . .
55(4) . . .
51(4) . . .
54(4) . . .
49(4) . . .
53(4) . . .
48(4) . . .
43(4) . . .
42(4) . . .
48(4) . . .
51(4) . . .
44(4) . . .
41.3(34) . . .
53(4) . . .
62(4) . . .
61(4) . . .
50(4) . . .
55(4) . . .
47(4) . . .
47(4) . . .
44.6(35) . . .
45(4) . . .
48(4) . . .
48(4) . . .
52(4) . . .
56(4) . . .
56(4) . . .
44(4) . . .
61(4) . . .
63(4) . . .
50(4) . . .
51(4) . . .
49(4) . . .
44.2(35) . . .
50(4) . . .
40.0(33) . . .
53(4) . . .
54(4) . . .
48(4) . . .
46(4) . . .
50(4) . . .
60(4) . . .
49(4) . . .
51(4) . . .
45(4) . . .
53(4) . . .
63(4) . . .
54(4) . . .
47(4) . . .
51(4) . . .
55(4) . . .
49(4) . . .
51(4) . . .
54(4) . . .
51(4) . . .
54(4) . . .
55(4) . . .
44.7(35) . . .
54(4) . . .
58(4) . . .
44.0(35) . . .
62(5) . . .
60(4) . . .
65(4) . . .
52(4) . . .
43.9(34) . . .
50(4) . . .
54(4) . . .
56(4) . . .
56(4) . . .
53(4) . . .
48(4) . . .
54(4) . . .
56(4) . . .
60(4) . . .
50(4) . . .
58(4) . . .
49(4) . . .
50(4) . . .
47(4) . . .
46(4) . . .
45(4) . . .
44.9(35) . . .
46(4) . . .
48(4) . . .
50(4) . . .
53(4) . . .
52(4) . . .
56(4) . . .
51(4) . . .
50(4) . . .
48(4) . . .
53(4) . . .
51(4) . . .
47(4) . . .
50(4) . . .
62(4) . . .
58(4) . . .
47(4) . . .
49(4) . . .
49(4) . . .
50(4) . . .
54(4) . . .
52(4) . . .
56(4) . . .
56(4) . . .
51(4) . . .
52(4) . . .
56(4) . . .
55(4) . . .
58(4) . . .
43.9(34) . . .
49(4) . . .
59(4) . . .
51(4) . . .
47(4) . . .
62(4) . . .
49(4) . . .
52(4) . . .
49(4) . . .
35.8(33) . . .
42(4) . . .
48(4) . . .
51(4) . . .
59(4) . . .
49(4) . . .
54(4) . . .
43.6(35) . . .
48(4) . . .
59(4) . . .
53(4) . . .
49(4) . . .
50(4) . . .
54(4) . . .
47(4) . . .
44(4) . . .
47(4) . . .
48(4) . . .
60(4) . . .
55(4) . . .
41.7(34) . . .
45(4) . . .
51(4) . . .
44(4) . . .
43.3(35) . . .
56(4) . . .
51(4) . . .
51(4) . . .
52(4) . . .
47(4) . . .
50(4) . . .
43.7(34) . . .
53(4) . . .
45(4) . . .
46(4) . . .
52(4) . . .
54(4) . . .
49(4) . . .
57(4) . . .
56(4) . . .
50(4) . . .
46.8(35) . . .
46(4) . . .
51(4) . . .
51(4) . . .
46(4) . . .
50(4) . . .
49(4) . . .
52(4) . . .
45(4) . . .
53(4) . . .
55(4) . . .
46.3(35) . . .
53(4) . . .
52(4) . . .
52(4) . . .
50(4) . . .
47(4) . . .
48(4) . . .
50(4) . . .
57(4) . . .
65(4) . . .
47(4) . . .
46(4) . . .
47(4) . . .
57(4) . . .
56(4) . . .
58(4) . . .
53(4) . . .
49(4) . . .
41.3(34) . . .
51(4) . . .
44(4) . . .
47(4) . . .
49(4) . . .
45.9(35) . . .
50(4) . . .
46(4) . . .
44(4) . . .
48(4) . . .
56(4) . . .
40.8(34) . . .
44(4) . . .
45(4) . . .
49(4) . . .
54(4) . . .
50(4) . . .
49(4) . . .
43.5(35) . . .
44(4) . . .
51(4) . . .
46.7(35) . . .
54(4) . . .
60(4) . . .
45(4) . . .
40.3(33) . . .
52(4) . . .
53(4) . . .
43(4) . . .
46(4) . . .
52(4) . . .
53(4) . . .
52(4) . . .
50(4) . . .
55(4) . . .
51(4) . . .
51(4) . . .
49(4) . . .
48(4) . . .
55(4) . . .
51(4) . . .
47(4) . . .
57(4) . . .
54(4) . . .
39.0(33) . . .
43.5(34) . . .
55(4) . . .
52(4) . . .
56(4) . . .
49(4) . . .
60(4) . . .
56(4) . . .
50(4) . . .
59(4) . . .
53(4) . . .
51(4) . . .
45(4) . . .
53(4) . . .
58(4) . . .
50(4) . . .
55(4) . . .
48(4) . . .
53(4) . . .
47(4) . . .
47(4) . . .
43.3(34) . . .
53(4) . . .
58(4) . . .
53(4) . . .
46.4(35) . . .
49(4) . . .
52(4) . . .
47(4) . . .
51(4) . . .
61(4) . . .
39.5(32) . . .
40.7(34) . . .
45(4) . . .
44.6(34) . . .
50(4) . . .
48(4) . . .
51(4) . . .
55(4) . . .
39.4(33) . . .
42.4(34) . . .
48(4) . . .
38.6(34) . . .
51(4) . . .
49(4) . . .
52(4) . . .
53(4) . . .
46(4) . . .
51(4) . . .
48(4) . . .
57(4) . . .
56(4) . . .
47(4) . . .
39.8(33) . . .
54(4) . . .
54(4) . . .
43.2(33) . . .
56(4) . . .
48(4) . . .
49(4) . . .
53(4) . . .
52(4) . . .
54(4) . . .
53(4) . . .
47(4) . . .
53(4) . . .
47(4) . . .
44(4) . . .
57(4) . . .
53(4) . . .
58(4) . . .
49(4) . . .
45(4) . . .
47(4) . . .
56(4) . . .
52(4) . . .
55(4) . . .
48(4) . . .
51(4) . . .
58(4) . . .
46.6(35) . . .
53(4) . . .
52(4) . . .
56(4) . . .
51(4) . . .
56(4) . . .
49(4) . . .
51(4) . . .
60(4) . . .
52(4) . . .
47(4) . . .
53(4) . . .
45(4) . . .
49(4) . . .
48(4) . . .
49(4) . . .
43.2(34) . . .
56(4) . . .
51(4) . . .
50(4) . . .
44(4) . . .
52(4) . . .
52(4) . . .
49(4) . . .
45.0(35) . . .
45(4) . . .
57(4) . . .
43(4) . . .
57(4) . . .
43.6(34) . . .
52(4) . . .
54(4) . . .
57(4) . . .
55(4) . . .
56(4) . . .
48(4) . . .
53(4) . . .
55(4) . . .
54(4) . . .
43.3(34) . . .
49(4) . . .
51(4) . . .
50(4) . . .
56(4) . . .
53(4) . . .
57(4) . . .
60(4) . . .
48(4) . . .
43.7(34) . . .
50(4) . . .
41.2(35) . . .
50(4) . . .
47(4) . . .
49(4) . . .
53(4) . . .
44(4) . . .
62(5) . . .
57(4) . . .
58(4) . . .
51(4) . . .
54(4) . . .
43(4) . . .
48(4) . . .
43.4(35) . . .
56(4) . . .
55(4) . . .
53(4) . . .
53(4) . . .
55(4) . . .
46(4) . . .
57(4) . . .
46(4) . . .
40.2(33) . . .
50(4) . . .
44(4) . . .
44(4) . . .
45(4) . . .
51(4) . . .
40.4(33) . . .
49(4) . . .
57(4) . . .
53(4) . . .
44.3(34) . . .
44.3(35) . . .
44(4) . . .
48(4) . . .
45(4) . . .
47(4) . . .
54(4) . . .
48(4) . . .
50(4) . . .
43(4) . . .
48(4) . . .
44.2(35) . . .
41.4(34) . . .
54(4) . . .
53(4) . . .
51(4) . . .
45(4) . . .
43.1(34) . . .
46(4) . . .
46(4) . . .
43.7(34) . . .
52(4) . . .
54(4) . . .
52(4) . . .
48(4) . . .
49(4) . . .
50(4) . . .
53(4) . . .
59(4) . . .
48(4) . . .
56(4) . . .
48(4) . . .
52(4) . . .
48(4) . . .
46(4) . . .
46(4) . . .
48(4) . . .
49(4) . . .
42.2(35) . . .
50(4) . . .
55(4) . . .
43.9(34) . . .
59(4) . . .
48(4) . . .
43.4(35) . . .
47(4) . . .
52(4) . . .
49(4) . . .
58(4) . . .
49(4) . . .
46(4) . . .
39(4) . . .
62(4) . . .
60(4) . . .
46(4) . . .
59(4) . . .
52(4) . . .
54(4) . . .
44.1(35) . . .
51(4) . . .
50(4) . . .
50(4) . . .
46(4) . . .
48(4) . . .
56(4) . . .
53(4) . . .
54(4) . . .
59(4) . . .
47(4) . . .
56(4) . . .
49(4) . . .
51(4) . . .
45(4) . . .
47(4) . . .
35.6(31) . . .
54(4) . . .
57(4) . . .
52(4) . . .
47(4) . . .
52(4) . . .
45(4) . . .
50(4) . . .
50(4) . . .
49(4) . . .
58(4) . . .
47(4) . . .
53(4) . . .
48(4) . . .
51(4) . . .
51(4) . . .
57(4) . . .
59(4) . . .
55(4) . . .
52(4) . . .
58(4) . . .
49(4) . . .
45(4) . . .
53(4) . . .
46(4) . . .
51(4) . . .
52(4) . . .
46(4) . . .
48(4) . . .
41.2(35) . . .
38.7(33) . . .
45(4) . . .
47(4) . . .
43.7(35) . . .
44(4) . . .
45.1(35) . . .
48(4) . . .
55(4) . . .
45.7(35) . . .
47(4) . . .
49(4) . . .
49(4) . . .
55(4) . . .
50(4) . . .
58(4) . . .
52(4) . . .
51(4) . . .
54(4) . . .
53(4) . . .
48(4) . . .
45(4) . . .
44.8(34) . . .
49(4) . . .
44.5(35) . . .
48(4) . . .
43.0(34) . . .
49(4) . . .
39.2(33) . . .
58(4) . . .
49(4) . . .
52(4) . . .
54(4) . . .
45(4) . . .
57(4) . . .
54(4) . . .
49(4) . . .
46(4) . . .
46(4) . . .
53(4) . . .
47(4) . . .
50(4) . . .
41(4) . . .
49(4) . . .
53(4) . . .
50(4) . . .
49(4) . . .
50(4) . . .
50(4) . . .
46.0(35) . . .
47(4) . . .
37.6(33) . . .
49(4) . . .
48(4) . . .
43.5(34) . . .
52(4) . . .
50(4) . . .
51(4) . . .
44.2(35) . . .
51(4) . . .
46(4) . . .
49(4) . . .
52(4) . . .
39.0(33) . . .
49(4) . . .
49(4) . . .
54(4) . . .
44(4) . . .
51(4) . . .
49(4) . . .
54(4) . . .
60(4) . . .
48(4) . . .
52(4) . . .
41.3(33) . . .
50(4) . . .
47(4) . . .
52(4) . . .
47(4) . . .
49(4) . . .
53(4) . . .
45(4) . . .
46(4) . . .
46(4) . . .
53(4) . . .
47(4) . . .
53(4) . . .
51(4) . . .
46.5(35) . . .
48(4) . . .
46(4) . . .
45(4) . . .
46(4) . . .
53(4) . . .
51(4) . . .
43(4) . . .
53(4) . . .
54(4) . . .
53(4) . . .
49(4) . . .
47(4) . . .
39.2(35) . . .
42(4) . . .
45.5(35) . . .
53(4) . . .
45(4) . . .
35.7(34) . . .
42.3(35) . . .
55(4) . . .
45(4) . . .
51(4) . . .
42(4) . . .
57(4) . . .
51(4) . . .
56(4) . . .
59(4) . . .
52(4) . . .
46(4) . . .
51(4) . . .
56(4) . . .
47(4) . . .
41(4) . . .
40.1(34) . . .
45(4) . . .
56(4) . . .
57(4) . . .
55(4) . . .
39.8(34) . . .
56(4) . . .
53(4) . . .
43.5(35) . . .
47(4) . . .
53(4) . . .
44.9(35) . . .
55(4) . . .
36.8(32) . . .
47(4) . . .
52(4) . . .
45.1(35) . . .
50(4) . . .
47(4) . . .
44.0(35) . . .
49(4) . . .
57(4) . . .
43.7(35) . . .
47(4) . . .
54(4) . . .
56(4) . . .
45(4) . . .
50(4) . . .
42.8(35) . . .
45(4) . . .
51(4) . . .
43.8(34) . . .
51(4) . . .
45(4) . . .
52(4) . . .
47(4) . . .
50(4) . . .
51(4) . . .
53(4) . . .
41.4(33) . . .
44.8(35) . . .
41.7(34) . . .
40.3(34) . . .
46(4) . . .
53(4) . . .
46(4) . . .
50(4) . . .
42.3(33) . . .
43(4) . . .
49(4) . . .
49(4) . . .
46(4) . . .
53(4) . . .
54(4) . . .
38.7(33) . . .
44.1(35) . . .
49(4) . . .
50(4) . . .
54(4) . . .
52(4) . . .
50(4) . . .
50(4) . . .
46(4) . . .
56(4) . . .
43.1(35) . . .
50(4) . . .
54(4) . . .
60(4) . . .
41.3(33) . . .
48(4) . . .
46(4) . . .
42.3(35) . . .
48(4) . . .
61(4) . . .
57(4) . . .
41.7(33) . . .
53(4) . . .
59(4) . . .
42.4(34) . . .
45(4) . . .
50(4) . . .
48(4) . . .
44(4) . . .
43(4) . . .
49(4) . . .
52(4) . . .
49(4) . . .
49(4) . . .
49(4) . . .
49(4) . . .
51(4) . . .
46(4) . . .
48(4) . . .
44(4) . . .
46(4) . . .
43.0(34) . . .
56(4) . . .
49(4) . . .
55(4) . . .
49(4) . . .
41.5(34) . . .
43.2(35) . . .
50(4) . . .
40.7(33) . . .
58(4) . . .
46(4) . . .
50(4) . . .
49(4) . . .
39.6(33) . . .
41.8(34) . . .
47(4) . . .
49(4) . . .
45(4) . . .
47(4) . . .
52(4) . . .
53(4) . . .
47(4) . . .
44(4) . . .
38.8(33) . . .
35.2(31) . . .
49(4) . . .
49(4) . . .
44(4) . . .
50(4) . . .
50(4) . . .
52(4) . . .
48(4) . . .
41.8(34) . . .
46(4) . . .
55(4) . . .
53(4) . . .
43(4) . . .
38.8(33) . . .
49(4) . . .
54(4) . . .
49(4) . . .
46(4) . . .
50(4) . . .
47(4) . . .
52(4) . . .
51(4) . . .
41(4) . . .
52(4) . . .
53(4) . . .
44(4) . . .
46(4) . . .
44(4) . . .
52(4) . . .
49(4) . . .
48(4) . . .
44.1(35) . . .
50(4) . . .
44(4) . . .
49(4) . . .
45.0(35) . . .
50(4) . . .
51(4) . . .
45(4) . . .
48(4) . . .
49(4) . . .
48(4) . . .
44.5(35) . . .
51(4) . . .
53(4) . . .
41.0(34) . . .
53(4) . . .
53(4) . . .
48(4) . . .
48(4) . . .
44.3(34) . . .
36.7(32) . . .
44(4) . . .
58(4) . . .
48(4) . . .
40.7(35) . . .
52(4) . . .
45.5(35) . . .
50(4) . . .
45.9(35) . . .
40(4) . . .
52(4) . . .
61(4) . . .
53(4) . . .
56(4) . . .
48(4) . . .
40(4) . . .
53(4) . . .
51(4) . . .
49(4) . . .
49(4) . . .
49(4) . . .
48(4) . . .
50(4) . . .
53(4) . . .
51(4) . . .
57(4) . . .
47(4) . . .
51(4) . . .
48(4) . . .
46(4) . . .
49(4) . . .
47(4) . . .
43.6(34) . . .
39.4(32) . . .
43.4(34) . . .
48(4) . . .
48(4) . . .
47(4) . . .
52(4) . . .
50(4) . . .
51(4) . . .
57(4) . . .
56(4) . . .
46(4) . . .
42(4) . . .
52(4) . . .
49(4) . . .
57(4) . . .
40.3(34) . . .
49(4) . . .
43(4) . . .
52(4) . . .
44.8(35) . . .
44(4) . . .
40.0(35) . . .
42.2(33) . . .
47(4) . . .
55(4) . . .
46(4) . . .
42(4) . . .
57(4) . . .
54(4) . . .
50(4) . . .
46(4) . . .
54(4) . . .
48(4) . . .
46(4) . . .
50(4) . . .
51(4) . . .
42(4) . . .
39.9(33) . . .
46(4) . . .
40.4(34) . . .
47(4) . . .
51(4) . . .
48(4) . . .
55(4) . . .
51(4) . . .
45(4) . . .
45(4) . . .
43.8(35) . . .
46(4) . . .
44(4) . . .
40.3(33) . . .
46(4) . . .
45(4) . . .
55(4) . . .
56(4) . . .
49(4) . . .
46(4) . . .
51(4) . . .
58(4) . . .
55(4) . . .
42.3(34) . . .
46(4) . . .
56(4) . . .
44.0(34) . . .
49(4) . . .
53(4) . . .
48(4) . . .
55(4) . . .
49(4) . . .
47(4) . . .
41.5(35) . . .
53(4) . . .
46(4) . . .
45.0(35) . . .
47(4) . . .
54(4) . . .
43(4) . . .
43.3(34) . . .
50(4) . . .
49(4) . . .
51(4) . . .
52(4) . . .
39(4) . . .
44.1(34) . . .
48(4) . . .
48(4) . . .
44.4(35) . . .
42.3(35) . . .
44.0(34) . . .
45.4(34) . . .
58(4) . . .
47(4) . . .
52(4) . . .
51(4) . . .
51(4) . . .
45.4(35) . . .
58(4) . . .
39.9(32) . . .
47(4) . . .
51(4) . . .
49(4) . . .
51(4) . . .
48(4) . . .
47(4) . . .
42(4) . . .
44(4) . . .
46(4) . . .
45.0(35) . . .
41.5(34) . . .
40.8(35) . . .
57(4) . . .
47(4) . . .
54(4) . . .
50(4) . . .
54(4) . . .
48(4) . . .
36.9(32) . . .
38.7(32) . . .
46(4) . . .
42(4) . . .
52(4) . . .
44(4) . . .
42.7(34) . . .
41.1(34) . . .
49(4) . . .
48(4) . . .
52(4) . . .
62(4) . . .
38.8(33) . . .
46(4) . . .
49(4) . . .
47(4) . . .
51(4) . . .
45(4) . . .
51(4) . . .
53(4) . . .
49(4) . . .
45(4) . . .
43(4) . . .
45(4) . . .
40.8(35) . . .
48(4) . . .
47(4) . . .
54(4) . . .
49(4) . . .
45(4) . . .
48(4) . . .
39.6(33) . . .
51(4) . . .
50(4) . . .
47(4) . . .
48(4) . . .
50(4) . . .
47(4) . . .
55(4) . . .
43.9(35) . . .
50(4) . . .
55(4) . . .
44.1(34) . . .
50(4) . . .
50(4) . . .
45.6(35) . . .
49(4) . . .
51(4) . . .
38.6(34) . . .
43.6(35) . . .
56(4) . . .
52(4) . . .
44(4) . . .
41.5(35) . . .
48(4) . . .
43.5(34) . . .
44(4) . . .
57(4) . . .
53(4) . . .
51(4) . . .
41.7(34) . . .
47(4) . . .
54(4) . . .
53(4) . . .
51(4) . . .
39.1(32) . . .
50(4) . . .
48(4) . . .
40.6(33) . . .
40.1(33) . . .
51(4) . . .
46(4) . . .
43.1(34) . . .
55(4) . . .
43.1(34) . . .
48(4) . . .
48(4) . . .
53(4) . . .
37.2(32) . . .
56(4) . . .
47(4) . . .
46(4) . . .
45(4) . . .
51(4) . . .
56(4) . . .
53(4) . . .
53(4) . . .
50(4) . . .
42.6(34) . . .
51(4) . . .
50(4) . . .
52(4) . . .
47(4) . . .
51(4) . . .
50(4) . . .
46(4) . . .
47(4) . . .
51(4) . . .
50(4) . . .
46(4) . . .
36.7(32) . . .
48(4) . . .
50(4) . . .
46(4) . . .
53(4) . . .
50(4) . . .
43.3(34) . . .
33.5(29) . . .
56(4) . . .
51(4) . . .
52(4) . . .
55(4) . . .
52(4) . . .
45.2(35) . . .
40.7(33) . . .
50(4) . . .
51(4) . . .
48(4) . . .
56(4) . . .
54(4) . . .
47(4) . . .
47(4) . . .
51(4) . . .
46.0(35) . . .
50(4) . . .
49(4) . . .
47(4) . . .
46(4) . . .
45(4) . . .
42.7(34) . . .
49(4) . . .
48(4) . . .
50(4) . . .
51(4) . . .
46(4) . . .
41.0(34) . . .
48(4) . . .
41(4) . . .
48(4) . . .
50(4) . . .
56(4) . . .
51(4) . . .
46(4) . . .
44(4) . . .
52(4) . . .
51(4) . . .
63(5) . . .
52(4) . . .
43.4(35) . . .
50(4) . . .
46(4) . . .
36.4(32) . . .
51(4) . . .
51(4) . . .
49(4) . . .
44.6(35) . . .
61(4) . . .
48(4) . . .
49(4) . . .
44(4) . . .
45(4) . . .
42.7(35) . . .
41.3(34) . . .
50(4) . . .
46(4) . . .
41(4) . . .
43(4) . . .
51(4) . . .
49(4) . . .
44(4) . . .
51(4) . . .
49(4) . . .
41.0(33) . . .
49(4) . . .
49(4) . . .
43(4) . . .
47(4) . . .
51(4) . . .
49(4) . . .
46(4) . . .
47(4) . . .
40.5(35) . . .
50(4) . . .
47(4) . . .
41.2(33) . . .
55(4) . . .
49(4) . . .
55(4) . . .
49(4) . . .
44(4) . . .
44.1(34) . . .
51(4) . . .
51(4) . . .
45.0(35) . . .
44(4) . . .
53(4) . . .
62(4) . . .
51(4) . . .
48(4) . . .
48(4) . . .
48(4) . . .
42.2(34) . . .
44.4(35) . . .
43.1(34) . . .
45(4) . . .
48(4) . . .
48(4) . . .
51(4) . . .
57(4) . . .
49(4) . . .
38.0(31) . . .
55(4) . . .
46(4) . . .
50(4) . . .
47(4) . . .
44(4) . . .
53(4) . . .
43.7(34) . . .
39.8(34) . . .
43(4) . . .
46(4) . . .
35.6(31) . . .
48(4) . . .
52(4) . . .
56(4) . . .
43(4) . . .
50(4) . . .
49(4) . . .
49(4) . . .
60(4) . . .
51(4) . . .
49(4) . . .
49(4) . . .
45(4) . . .
51(4) . . .
56(4) . . .
45(4) . . .
58(4) . . .
54(4) . . .
36.2(32) . . .
44(4) . . .
38.9(33) . . .
49(4) . . .
52(4) . . .
49(4) . . .
53(4) . . .
52(4) . . .
56(4) . . .
50(4) . . .
45(4) . . .
44.2(35) . . .
45(4) . . .
51(4) . . .
50(4) . . .
47(4) . . .
57(4) . . .
51(4) . . .
57(4) . . .
55(4) . . .
35.2(32) . . .
51(4) . . .
47(4) . . .
37.5(32) . . .
40.8(35) . . .
41.9(34) . . .
43.7(35) . . .
49(4) . . .
47(4) . . .
42(4) . . .
33.2(29) . . .
42.7(34) . . .
49(4) . . .
46(4) . . .
53(4) . . .
53(4) . . .
47(4) . . .
46.6(35) . . .
42.4(34) . . .
50(4) . . .
44.8(35) . . .
62(4) . . .
50(4) . . .
46(4) . . .
47(4) . . .
46(4) . . .
42.6(34) . . .
52(4) . . .
49(4) . . .
42(4) . . .
48(4) . . .
52(4) . . .
44.5(35) . . .
53(4) . . .
50(4) . . .
47(4) . . .
44.8(35) . . .
42(4) . . .
41(4) . . .
45(4) . . .
38.1(34) . . .
39.7(33) . . .
47(4) . . .
48(4) . . .
47(4) . . .
52(4) . . .
51(4) . . .
42.8(35) . . .
55(4) . . .
52(4) . . .
40.3(33) . . .
48(4) . . .
38.2(32) . . .
53(4) . . .
57(4) . . .
39.7(34) . . .
45(4) . . .
37.8(33) . . .
45(4) . . .
44(4) . . .
43.8(35) . . .
42.7(34) . . .
37.7(33) . . .
55(4) . . .
53(4) . . .
49(4) . . .
53(4) . . .
52(4) . . .
40(4) . . .
40.0(33) . . .
49(4) . . .
51(4) . . .
52(4) . . .
46(4) . . .
52(4) . . .
42.0(33) . . .
45(4) . . .
36.1(31) . . .
42(4) . . .
38.1(35) . . .
49(4) . . .
49(4) . . .
46(4) . . .
54(4) . . .
49(4) . . .
50(4) . . .
43.9(35) . . .
53(4) . . .
40.5(33) . . .
52(4) . . .
47(4) . . .
53(4) . . .
40.6(33) . . .
39.6(33) . . .
52(4) . . .
42.9(34) . . .
53(4) . . .
52(4) . . .
47(4) . . .
39.7(32) . . .
43.0(35) . . .
46(4) . . .
47(4) . . .
43(4) . . .
54(4) . . .
42.4(34) . . .
53(4) . . .
47(4) . . .
46(4) . . .
50(4) . . .
52(4) . . .
54(4) . . .
51(4) . . .
52(4) . . .
44(4) . . .
45.0(34) . . .
37.6(32) . . .
52(4) . . .
51(4) . . .
40.4(34) . . .
48(4) . . .
44.7(35) . . .
51(4) . . .
55(4) . . .
44.5(34) . . .
47(4) . . .
43.2(34) . . .
51(4) . . .
40.2(33) . . .
50(4) . . .
45(4) . . .
45(4) . . .
43.7(35) . . .
50(4) . . .
52(4) . . .
49(4) . . .
51(4) . . .
54(4) . . .
49(4) . . .
52(4) . . .
44.2(35) . . .
36.4(33) . . .
53(4) . . .
41.3(34) . . .
40.5(33) . . .
44(4) . . .
50(4) . . .
52(4) . . .
50(4) . . .
58(4) . . .
46(4) . . .
40.5(35) . . .
42(4) . . .
44.7(35) . . .
48(4) . . .
51(4) . . .
47(4) . . .
48(4) . . .
38.9(33) . . .
37.9(32) . . .
42(4) . . .
41(4) . . .
47(4) . . .
54(4) . . .
44.6(34) . . .
47(4) . . .
43.1(35) . . .
54(4) . . .
42.5(34) . . .
54(4) . . .
42(4) . . .
51(4) . . .
41.0(33) . . .
45.4(35) . . .
48(4) . . .
45(4) . . .
41(4) . . .
40.0(34) . . .
56(4) . . .
41.3(34) . . .
46(4) . . .
50(4) . . .
42.2(34) . . .
49(4) . . .
56(4) . . .
51(4) . . .
47(4) . . .
47(4) . . .
48(4) . . .
38.8(32) . . .
41.2(34) . . .
47(4) . . .
50(4) . . .
48(4) . . .
41.5(35) . . .
52(4) . . .
51(4) . . .
53(4) . . .
44.1(34) . . .
40.1(33) . . .
54(4) . . .
50(4) . . .
39.5(33) . . .
45.7(35) . . .
45(4) . . .
52(4) . . .
54(4) . . .
47(4) . . .
47(4) . . .
52(4) . . .
42(4) . . .
52(4) . . .
49(4) . . .
43.6(35) . . .
59(4) . . .
46(4) . . .
46(4) . . .
39.4(32) . . .
48(4) . . .
44(4) . . .
47(4) . . .
52(4) . . .
52(4) . . .
43.5(34) . . .
41.3(35) . . .
38.0(33) . . .
46(4) . . .
39.4(33) . . .
46(4) . . .
48(4) . . .
50(4) . . .
50(4) . . .
46(4) . . .
43(4) . . .
53(4) . . .
47(4) . . .
43(4) . . .
47(4) . . .
46(4) . . .
44(4) . . .
49(4) . . .
51(4) . . .
55(4) . . .
46(4) . . .
45(4) . . .
38.3(34) . . .
44.0(34) . . .
47(4) . . .
45.0(35) . . .
48(4) . . .
38.0(34) . . .
45(4) . . .
47(4) . . .
47(4) . . .
45(4) . . .
42.7(33) . . .
57(4) . . .
50(4) . . .
45(4) . . .
39.1(32) . . .
46(4) . . .
55(4) . . .
42.3(33) . . .
47(4) . . .
45(4) . . .
35.5(31) . . .
47(4) . . .
49(4) . . .
41.1(35) . . .
36.0(33) . . .
49(4) . . .
45.3(35) . . .
50(4) . . .
42.0(35) . . .
50(4) . . .
50(4) . . .
43(4) . . .
36.5(32) . . .
47(4) . . .
47(4) . . .
48(4) . . .
42.5(34) . . .
52(4) . . .
47(4) . . .
55(4) . . .
46(4) . . .
44.4(35) . . .
46(4) . . .
44(4) . . .
50(4) . . .
50(4) . . .
46(4) . . .
51(4) . . .
49(4) . . .
47(4) . . .
52(4) . . .
49(4) . . .
53(4) . . .
55(4) . . .
43.2(34) . . .
48(4) . . .
43.3(34) . . .
42.4(34) . . .
38.8(33) . . .
47(4) . . .
48(4) . . .
53(4) . . .
40.7(33) . . .
40.7(35) . . .
35.9(33) . . .
46(4) . . .
47(4) . . .
56(4) . . .
49(4) . . .
39.6(33) . . .
50(4) . . .
43.4(34) . . .
50(4) . . .
50(4) . . .
46(4) . . .
42.4(34) . . .
47(4) . . .
53(4) . . .
46(4) . . .
49(4) . . .
47(4) . . .
49(4) . . .
42(4) . . .
45(4) . . .
44(4) . . .
54(4) . . .
50(4) . . .
50(4) . . .
38.8(33) . . .
55(4) . . .
49(4) . . .
39.0(33) . . .
49(4) . . .
36.8(33) . . .
35.5(31) . . .
52(4) . . .
40.5(33) . . .
42(4) . . .
45(4) . . .
39.3(32) . . .
42.6(34) . . .
53(4) . . .
37.5(33) . . .
37.1(32) . . .
38.1(33) . . .
49(4) . . .
53(4) . . .
47(4) . . .
44(4) . . .
42.2(34) . . .
48(4) . . .
47(4) . . .
45(4) . . .
37.8(33) . . .
43.9(34) . . .
45(4) . . .
51(4) . . .
46(4) . . .
49(4) . . .
50(4) . . .
59(4) . . .
51(4) . . .
43(4) . . .
45(4) . . .
45.9(35) . . .
45(4) . . .
43(4) . . .
61(5) . . .
43(4) . . .
50(4) . . .
51(4) . . .
40.5(34) . . .
41.5(35) . . .
49(4) . . .
44.9(35) . . .
52(4) . . .
45(4) . . .
42.6(35) . . .
46(4) . . .
38.4(32) . . .
55(4) . . .
47(4) . . .
48(4) . . .
49(4) . . .
42.0(34) . . .
45.1(35) . . .
43(4) . . .
45(4) . . .
51(4) . . .
40.7(34) . . .
41.8(35) . . .
47(4) . . .
51(4) . . .
43(4) . . .
42.9(34) . . .
48(4) . . .
49(4) . . .
48(4) . . .
42.7(34) . . .
50(4) . . .
51(4) . . .
44(4) . . .
45(4) . . .
61(4) . . .
46.2(35) . . .
47(4) . . .
54(4) . . .
44(4) . . .
46(4) . . .
45.7(35) . . .
45(4) . . .
41.2(35) . . .
47(4) . . .
43(4) . . .
50(4) . . .
45(4) . . .
52(4) . . .
49(4) . . .
49(4) . . .
46(4) . . .
49(4) . . .
49(4) . . .
45(4) . . .
44.0(34) . . .
38.8(33) . . .
46(4) . . .
49(4) . . .
48(4) . . .
47(4) . . .
50(4) . . .
45(4) . . .
47(4) . . .
43.3(35) . . .
55(4) . . .
48(4) . . .
51(4) . . .
51(4) . . .
50(4) . . .
48(4) . . .
46(4) . . .
50(4) . . .
45(4) . . .
40.5(34) . . .
46(4) . . .
48(4) . . .
55(4) . . .
52(4) . . .
43(4) . . .
50(4) . . .
45(4) . . .
50(4) . . .
51(4) . . .
53(4) . . .
50(4) . . .
51(4) . . .
46(4) . . .
49(4) . . .
42.4(34) . . .
49(4) . . .
53(4) . . .
51(4) . . .
51(4) . . .
44(4) . . .
51(4) . . .
48(4) . . .
39.2(33) . . .
49(4) . . .
53(4) . . .
47(4) . . .
47(4) . . .
52(4) . . .
52(4) . . .
50(4) . . .
44(4) . . .
42(4) . . .
48(4) . . .
45(4) . . .
46(4) . . .
46(4) . . .
48(4) . . .
52(4) . . .
46(4) . . .
47(4) . . .
38.9(33) . . .
41.7(35) . . .
37.9(33) . . .
47(4) . . .
45.4(35) . . .
43.1(35) . . .
45(4) . . .
52(4) . . .
43.8(35) . . .
49(4) . . .
45(4) . . .
43(4) . . .
46(4) . . .
37.9(32) . . .
47(4) . . .
35.8(31) . . .
48(4) . . .
52(4) . . .
47(4) . . .
46(4) . . .
46(4) . . .
50(4) . . .
47(4) . . .
48(4) . . .
41.5(34) . . .
45(4) . . .
43(4) . . .
35.1(33) . . .
51(4) . . .
48(4) . . .
47(4) . . .
49(4) . . .
41.7(35) . . .
48(4) . . .
48(4) . . .
52(4) . . .
47(4) . . .
49(4) . . .
42.0(34) . . .
49(4) . . .
47(4) . . .
45(4) . . .
46(4) . . .
38.4(32) . . .
40.5(34) . . .
39.5(33) . . .
47(4) . . .
45(4) . . .
43.4(34) . . .
49(4) . . .
53(4) . . .
43(4) . . .
40.8(34) . . .
51(4) . . .
50(4) . . .
41.0(34) . . .
44(4) . . .
42(4) . . .
49(4) . . .
48(4) . . .
46(4) . . .
40.9(34) . . .
56(4) . . .
55(4) . . .
47(4) . . .
46(4) . . .
38.6(34) . . .
50(4) . . .
45.4(35) . . .
42(4) . . .
46(4) . . .
49(4) . . .
48(4) . . .
41.2(33) . . .
47(4) . . .
42(4) . . .
39.0(33) . . .
49(4) . . .
61(4) . . .
48(4) . . .
45(4) . . .
46(4) . . .
49(4) . . .
42.7(35) . . .
49(4) . . .
43(4) . . .
47(4) . . .
42.6(34) . . .
49(4) . . .
55(4) . . .
50(4) . . .
39.7(35) . . .
50(4) . . .
45(4) . . .
47(4) . . .
35.9(32) . . .
42(4) . . .
52(4) . . .
45(4) . . .
51(4) . . .
44(4) . . .
43(4) . . .
48(4) . . .
40.8(33) . . .
43.6(35) . . .
51(4) . . .
43.5(35) . . .
44.5(34) . . .
44(4) . . .
47(4) . . .
54(4) . . .
47(4) . . .
44.1(34) . . .
44(4) . . .
50(4) . . .
41(4) . . .
40.6(33) . . .
50(4) . . .
62(4) . . .
50(4) . . .
56(4) . . .
46(4) . . .
50(4) . . .
49(4) . . .
40.3(33) . . .
51(4) . . .
48(4) . . .
43.4(34) . . .
42.6(35) . . .
42.6(34) . . .
51(4) . . .
51(4) . . .
34.0(30) . . .
47(4) . . .
53(4) . . .
51(4) . . .
44.3(34) . . .
49(4) . . .
51(4) . . .
44(4) . . .
47(4) . . .
47(4) . . .
51(4) . . .
49(4) . . .
48(4) . . .
49(4) . . .
45(4) . . .
43(4) . . .
50(4) . . .
59(4) . . .
49(4) . . .
46(4) . . .
51(4) . . .
51(4) . . .
56(4) . . .
41.5(34) . . .
35.1(31) . . .
51(4) . . .
49(4) . . .
60(4) . . .
43(4) . . .
50(4) . . .
52(4) . . .
41.1(35) . . .
39.2(35) . . .
41.3(33) . . .
40.7(33) . . .
37.8(34) . . .
45(4) . . .
47(4) . . .
46(4) . . .
40.8(33) . . .
43(4) . . .
45(4) . . .
50(4) . . .
38.0(32) . . .
49(4) . . .
48(4) . . .
45(4) . . .
43.8(35) . . .
48(4) . . .
49(4) . . .
40.2(33) . . .
52(4) . . .
42.4(35) . . .
36.8(32) . . .
45(4) . . .
56(4) . . .
46(4) . . .
42.4(35) . . .
42.5(34) . . .
47(4) . . .
43.2(34) . . .
51(4) . . .
48(4) . . .
43.1(34) . . .
37.3(32) . . .
46(4) . . .
42.8(35) . . .
44(4) . . .
53(4) . . .
39.3(32) . . .
47(4) . . .
51(4) . . .
50(4) . . .
42.8(34) . . .
49(4) . . .
39.3(35) . . .
48(4) . . .
46(4) . . .
44.2(35) . . .
39.0(33) . . .
43(4) . . .
41(4) . . .
53(4) . . .
43.5(34) . . .
45(4) . . .
43(4) . . .
46(4) . . .
50(4) . . .
36.0(31) . . .
42(4) . . .
42(4) . . .
57(4) . . .
41.2(34) . . .
51(4) . . .
37.8(32) . . .
50(4) . . .
44.2(34) . . .
45.0(35) . . .
50(4) . . .
47(4) . . .
48(4) . . .
40.7(32) . . .
51(4) . . .
46(4) . . .
50(4) . . .
45(4) . . .
42.2(35) . . .
49(4) . . .
44.1(34) . . .
45(4) . . .
43(4) . . .
41.5(34) . . .
40.1(33) . . .
53(4) . . .
43(4) . . .
47(4) . . .
48(4) . . .
50(4) . . .
47(4) . . .
50(4) . . .
48(4) . . .
55(4) . . .
54(4) . . .
38.8(32) . . .
44(4) . . .
40.2(35) . . .
47(4) . . .
41.8(34) . . .
49(4) . . .
49(4) . . .
50(4) . . .
50(4) . . .
50(4) . . .
39.1(32) . . .
42(4) . . .
53(4) . . .
45(4) . . .
41.0(34) . . .
53(4) . . .
58(4) . . .
46(4) . . .
42(4) . . .
37.3(32) . . .
45(4) . . .
45(4) . . .
50(4) . . .
50(4) . . .
38.8(32) . . .
50(4) . . .
43(4) . . .
37.3(33) . . .
54(4) . . .
46.0(35) . . .
44(4) . . .
48(4) . . .
45(4) . . .
43.3(34) . . .
42(4) . . .
41.8(34) . . .
52(4) . . .
42.2(34) . . .
43.5(35) . . .
47(4) . . .
42(4) . . .
37.1(32) . . .
53(4) . . .
45.0(35) . . .
43.0(34) . . .
42.7(34) . . .
44(4) . . .
42.5(35) . . .
37.3(32) . . .
42(4) . . .
51(4) . . .
41.8(35) . . .
42.5(35) . . .
40.9(33) . . .
50(4) . . .
49(4) . . .
48(4) . . .
49(4) . . .
43.4(34) . . .
43(4) . . .
43(4) . . .
43(4) . . .
48(4) . . .
48(4) . . .
45(4) . . .
47(4) . . .
46(4) . . .
45(4) . . .
47(4) . . .
46(4) . . .
34.5(33) . . .
40.9(34) . . .
48(4) . . .
51(4) . . .
36.9(33) . . .
44(4) . . .
47(4) . . .
46(4) . . .
42.8(34) . . .
42.6(35) . . .
47(4) . . .
31.9(30) . . .
46(4) . . .
38.4(32) . . .
46(4) . . .
37.5(35) . . .
43.1(35) . . .
38.8(32) . . .
39.5(33) . . .
37.1(32) . . .
43(4) . . .
44(4) . . .
40.6(34) . . .
39.2(33) . . .
40(4) . . .
37.7(34) . . .
46(4) . . .
44.1(35) . . .
38.9(32) . . .
48(4) . . .
44.8(34) . . .
46(4) . . .
37.3(31) . . .
46(4) . . .
41(4) . . .
41.6(34) . . .
39.4(33) . . .
43.9(35) . . .
42.6(34) . . .
44(4) . . .
48(4) . . .
42.3(33) . . .
44.2(35) . . .
48(4) . . .
38.6(34) . . .
38.3(34) . . .
45(4) . . .
45.6(35) . . .
46(4) . . .
48(4) . . .
46(4) . . .
40.5(33) . . .
43.8(35) . . .
39.7(33) . . .
42(4) . . .
45(4) . . .
43.8(34) . . .
47(4) . . .
40.1(34) . . .
38.7(35) . . .
45(4) . . .
44(4) . . .
37.3(32) . . .
46(4) . . .
44(4) . . .
42.5(35) . . .
38.2(32) . . .
42.5(35) . . .
44(4) . . .
45(4) . . .
33.8(31) . . .
42.6(34) . . .
50(4) . . .
54(4) . . .
44(4) . . .
48(4) . . .
48(4) . . .
47(4) . . .
37.3(32) . . .
48(4) . . .
42.3(35) . . .
34.0(31) . . .
37.4(32) . . .
47(4) . . .
43(4) . . .
45(4) . . .
40.6(34) . . .
38.8(33) . . .
42.7(35) . . .
52(4) . . .
42.2(33) . . .
50(4) . . .
45(4) . . .
40.1(34) . . .
47(4) . . .
41.4(34) . . .
42.3(34) . . .
39.9(33) . . .
41.8(34) . . .
40.6(35) . . .
38.2(32) . . .
49(4) . . .
34.2(31) . . .
36.9(33) . . .
45(4) . . .
41.8(33) . . .
50(4) . . .
42(4) . . .
43(4) . . .
49(4) . . .
44.5(34) . . .
37.2(33) . . .
42.2(34) . . .
45(4) . . .
42(4) . . .
39.0(33) . . .
51(4) . . .
47(4) . . .
44(4) . . .
46(4) . . .
56(4) . . .
44.8(34) . . .
50(4) . . .
39.6(34) . . .
40.4(33) . . .
38.4(32) . . .
39.8(33) . . .
49(4) . . .
46(4) . . .
49(4) . . .
43.4(34) . . .
54(4) . . .
43.4(34) . . .
40.7(34) . . .
52(4) . . .
34.1(30) . . .
42.1(34) . . .
54(4) . . .
57(4) . . .
45(4) . . .
41.3(33) . . .
48(4) . . .
42.3(34) . . .
48(4) . . .
34.2(30) . . .
50(4) . . .
50(4) . . .
40.5(35) . . .
37.1(34) . . .
44(4) . . .
40.7(33) . . .
50(4) . . .
41(4) . . .
34.5(32) . . .
39.5(34) . . .
46(4) . . .
49(4) . . .
42(4) . . .
41.7(35) . . .
41.7(35) . . .
50(4) . . .
47(4) . . .
45(4) . . .
42(4) . . .
43.3(34) . . .
51(4) . . .
43.6(35) . . .
49(4) . . .
46(4) . . .
51(4) . . .
43(4) . . .
45(4) . . .
47(4) . . .
50(4) . . .
42.4(34) . . .
37.5(33) . . .
44(4) . . .
39(4) . . .
38.5(34) . . .
49(4) . . .
48(4) . . .
48.9(35) . . .
57(4) . . .
40.7(33) . . .
44.7(34) . . .
45(4) . . .
45(4) . . .
38.5(34) . . .
43(4) . . .
44.3(34) . . .
51(4) . . .
38.4(31) . . .
45(4) . . .
43(4) . . .
36.3(32) . . .
44.1(34) . . .
47(4) . . .
48(4) . . .
36.8(31) . . .
43.4(35) . . .
46(4) . . .
55(4) . . .
44.5(35) . . .
44.0(35) . . .
41.1(33) . . .
41.9(34) . . .
40.9(35) . . .
47(4) . . .
44.8(34) . . .
41.7(34) . . .
40.3(35) . . .
31.9(29) . . .
38.5(32) . . .
39.9(33) . . .
55(4) . . .
54(4) . . .
52(4) . . .
44(4) . . .
44(4) . . .
53(4) . . .
46.2(35) . . .
42(4) . . .
41.8(35) . . .
48(4) . . .
41.7(33) . . .
42(4) . . .
42(4) . . .
48(4) . . .
58(4) . . .
53(4) . . .
39.2(33) . . .
40.5(35) . . .
35.4(32) . . .
43.1(34) . . .
43.3(34) . . .
58(4) . . .
55(4) . . .
44.3(35) . . .
51(4) . . .
37.5(32) . . .
43(4) . . .
42.0(35) . . .
45(4) . . .
45.1(35) . . .
44(4) . . .
38.2(34) . . .
44(4) . . .
41.5(33) . . .
42.5(34) . . .
45(4) . . .
50(4) . . .
42.8(34) . . .
46(4) . . .
41.3(34) . . .
43(4) . . .
29.9(29) . . .
41.0(34) . . .
42.7(34) . . .
41.8(34) . . .
41.5(34) . . .
45(4) . . .
42.3(35) . . .
42.9(34) . . .
43.9(35) . . .
42.2(34) . . .
41(4) . . .
45(4) . . .
41.9(33) . . .
49(4) . . .
46(4) . . .
47(4) . . .
44(4) . . .
33.7(30) . . .
33.7(30) . . .
45(4) . . .
41.6(35) . . .
40.5(34) . . .
41.5(34) . . .
50(4) . . .
36.6(32) . . .
39(4) . . .
38.6(34) . . .
47(4) . . .
53(4) . . .
38(4) . . .
46(4) . . .
44(4) . . .
49(4) . . .
42(4) . . .
42(4) . . .
50(4) . . .
51(4) . . .
37.7(33) . . .
40(4) . . .
42(4) . . .
51(4) . . .
43.0(34) . . .
46(4) . . .
48(4) . . .
33.3(32) . . .
36.1(35) . . .
41.3(34) . . .
47(4) . . .
36.3(32) . . .
48(4) . . .
42(4) . . .
45.3(35) . . .
44.3(34) . . .
33.0(30) . . .
33.4(32) . . .
41(4) . . .
46.1(35) . . .
39.2(33) . . .
43(4) . . .
43(4) . . .
44.1(34) . . .
47(4) . . .
53(4) . . .
43(4) . . .
38(4) . . .
46(4) . . .
39.9(33) . . .
44.9(35) . . .
39.3(34) . . .
28.7(29) . . .
39(4) . . .
48(4) . . .
45(4) . . .
36.6(35) . . .
40(4) . . .
34.7(31) . . .
40.1(33) . . .
38.6(34) . . .
40.6(35) . . .
41(4) . . .
39.2(34) . . .
43.8(34) . . .
39.4(33) . . .
44(4) . . .
47(4) . . .
45(4) . . .
47(4) . . .
58(4) . . .
50(4) . . .
40.7(33) . . .
42.8(34) . . .
47(4) . . .
46(4) . . .
50(4) . . .
44(4) . . .
38.0(32) . . .
41.6(34) . . .
37.2(33) . . .
41(4) . . .
44.1(34) . . .
47(4) . . .
44.4(35) . . .
45(4) . . .
41(4) . . .
40.7(33) . . .
39.3(33) . . .
39.8(33) . . .
46(4) . . .
43(4) . . .
45.7(35) . . .
51(4) . . .
48(4) . . .
46(4) . . .
49(4) . . .
46(4) . . .
45(4) . . .
39.9(33) . . .
51(4) . . .
47(4) . . .
43.8(35) . . .
34.4(30) . . .
49(4) . . .
42(4) . . .
46(4) . . .
37.7(32) . . .
46.6(35) . . .
39.5(33) . . .
38.6(33) . . .
41.0(35) . . .
42.0(34) . . .
40.4(33) . . .
43(4) . . .
43(4) . . .
39.3(35) . . .
46(4) . . .
41.7(34) . . .
35.0(31) . . .
40.8(34) . . .
38.0(32) . . .
43.4(34) . . .
46(4) . . .
39.5(34) . . .
38.5(34) . . .
38.1(33) . . .
51(4) . . .
43.1(34) . . .
52(4) . . .
50(4) . . .
47(4) . . .
48(4) . . .
43.2(34) . . .
36.8(32) . . .
43(4) . . .
37.2(34) . . .
41.1(33) . . .
46(4) . . .
53(4) . . .
47(4) . . .
55(4) . . .
27.6(28) . . .
37.1(32) . . .
40.6(35) . . .
44(4) . . .
47(4) . . .
33.3(30) . . .
34.4(31) . . .
48(4) . . .
49(4) . . .
46(4) . . .
39.8(33) . . .
35.3(31) . . .
37.5(34) . . .
36.2(33) . . .
36.4(32) . . .
43.9(35) . . .
48(4) . . .
38.6(33) . . .
40.3(33) . . .
44.2(35) . . .
45(4) . . .
40.0(34) . . .
28.8(27) . . .
43(4) . . .
48(4) . . .
43.4(34) . . .
37.6(32) . . .
40.5(34) . . .
41.3(34) . . .
54(4) . . .
47(4) . . .
31.4(30) . . .
34.6(31) . . .
40.0(34) . . .
35.8(31) . . .
45.2(35) . . .
45(4) . . .
41(4) . . .
43(4) . . .
44.2(35) . . .
40.9(33) . . .
40.4(34) . . .
36.5(32) . . .
47(4) . . .
45.4(35) . . .
43(4) . . .
45(4) . . .
41(4) . . .
50(4) . . .
49(4) . . .
42.0(34) . . .
43(4) . . .
43(4) . . .
36.7(31) . . .
47(4) . . .
40.2(34) . . .
49(4) . . .
40.2(34) . . .
44(4) . . .
39.4(33) . . .
47(4) . . .
41.6(35) . . .
38.0(34) . . .
45(4) . . .
46(4) . . .
42.9(35) . . .
41(4) . . .
37.2(33) . . .
40.7(33) . . .
51(4) . . .
43.7(34) . . .
44(4) . . .
49(4) . . .
46(4) . . .
36.3(31) . . .
42(4) . . .
45(4) . . .
39.6(33) . . .
39.7(34) . . .
38.4(32) . . .
45(4) . . .
47(4) . . .
43(4) . . .
38.5(33) . . .
41.5(33) . . .
38.5(35) . . .
33.1(32) . . .
32.6(29) . . .
40.2(34) . . .
43.1(34) . . .
49(4) . . .
54(4) . . .
47(4) . . .
43.1(34) . . .
40.3(34) . . .
47(4) . . .
54(4) . . .
45(4) . . .
31.2(29) . . .
43.2(34) . . .
35.3(31) . . .
38.7(34) . . .
41.8(34) . . .
39.8(33) . . .
53(4) . . .
55(4) . . .
43.1(34) . . .
50(4) . . .
45(4) . . .
49(4) . . .
35.5(32) . . .
42(4) . . .
44(4) . . .
45.4(35) . . .
37.1(31) . . .
34.9(31) . . .
43(4) . . .
48(4) . . .
41.0(33) . . .
36.4(31) . . .
41(4) . . .
41.2(35) . . .
42.1(34) . . .
39.8(33) . . .
39.2(34) . . .
39.7(34) . . .
46(4) . . .
47(4) . . .
42.3(34) . . .
37.5(32) . . .
39.5(34) . . .
52(4) . . .
49(4) . . .
42.3(34) . . .
40.8(35) . . .
36.8(33) . . .
41(4) . . .
48(4) . . .
38.0(32) . . .
41(4) . . .
33.7(32) . . .
38.1(33) . . .
41.3(33) . . .
46(4) . . .
41(4) . . .
34.9(33) . . .
37.5(32) . . .
43.1(34) . . .
37.7(32) . . .
39.0(34) . . .
56(4) . . .
45(4) . . .
42.5(34) . . .
40.8(34) . . .
41(4) . . .
38.4(35) . . .
35.3(32) . . .
39.6(33) . . .
47(4) . . .
44(4) . . .
44(4) . . .
45(4) . . .
39.7(33) . . .
43.6(35) . . .
41(4) . . .
39(4) . . .
36.1(32) . . .
37.1(32) . . .
37.6(33) . . .
55(4) . . .
36.4(32) . . .
48(4) . . .
40.1(33) . . .
35.3(32) . . .
39.5(35) . . .
37.3(33) . . .
43.2(34) . . .
40.6(34) . . .
45(4) . . .
35.2(33) . . .
38.5(33) . . .
46(4) . . .
46(4) . . .
43(4) . . .
42(4) . . .
42(4) . . .
42(4) . . .
51(4) . . .
49(4) . . .
43(4) . . .
36.3(32) . . .
41.2(33) . . .
46(4) . . .
42.6(35) . . .
41(4) . . .
57(4) . . .
43.8(35) . . .
48(4) . . .
48(4) . . .
44(4) . . .
42.2(34) . . .
44.7(35) . . .
38.6(33) . . .
43(4) . . .
48(4) . . .
47(4) . . .
50(4) . . .
41.7(34) . . .
43.6(35) . . .
45(4) . . .
37.8(34) . . .
41.2(32) . . .
48(4) . . .
47(4) . . .
42(4) . . .
48(4) . . .
50(4) . . .
46(4) . . .
36.8(31) . . .
41.8(34) . . .
38(4) . . .
33.5(31) . . .
32.8(30) . . .
34.1(31) . . .
39.8(35) . . .
43.4(35) . . .
39.3(33) . . .
40(4) . . .
39.4(33) . . .
38.6(33) . . .
51(4) . . .
40.5(34) . . .
47(4) . . .
40.2(34) . . .
45(4) . . .
40.8(33) . . .
43.8(34) . . .
38.6(34) . . .
47(4) . . .
41.5(35) . . .
39.1(33) . . .
42.4(34) . . .
35.0(32) . . .
41.3(34) . . .
56(4) . . .
48(4) . . .
58(4) . . .
46(4) . . .
44(4) . . .
44(4) . . .
35.8(31) . . .
39.5(32) . . .
43.2(35) . . .
47(4) . . .
36.7(33) . . .
35.3(31) . . .
45.0(34) . . .
38.7(34) . . .
39(4) . . .
33.9(32) . . .
42.5(34) . . .
39.6(33) . . .
47(4) . . .
44(4) . . .
44(4) . . .
47(4) . . .
51(4) . . .
56(4) . . .
38.9(31) . . .
41(4) . . .
36.8(31) . . .
37.3(34) . . .
38.8(34) . . .
46(4) . . .
42(4) . . .
42.1(34) . . .
45(4) . . .
45(4) . . .
44(4) . . .
42.5(34) . . .
43.9(35) . . .
40.4(35) . . .
45(4) . . .
38.9(33) . . .
43.7(34) . . .
39.4(33) . . .
37.0(32) . . .
37.0(33) . . .
43.7(35) . . .
40.1(33) . . .
50(4) . . .
47(4) . . .
48(4) . . .
50(4) . . .
51(4) . . .
44.0(34) . . .
48(4) . . .
44(4) . . .
44(4) . . .
42.8(34) . . .
48(4) . . .
46(4) . . .
39.3(34) . . .
47(4) . . .
39.3(33) . . .
37.9(33) . . .
37.0(32) . . .
48(4) . . .
37.5(32) . . .
41.8(34) . . .
39.9(33) . . .
45(4) . . .
44.0(35) . . .
32.5(30) . . .
46(4) . . .
38.9(32) . . .
45(4) . . .
48(4) . . .
36.5(32) . . .
40.8(34) . . .
38.7(34) . . .
40.4(35) . . .
33.5(32) . . .
45(4) . . .
42.1(34) . . .
40.4(35) . . .
52(4) . . .
40.0(33) . . .
42(4) . . .
44.0(35) . . .
37.3(32) . . .
39.7(34) . . .
31.0(30) . . .
45(4) . . .
45.9(35) . . .
39.4(34) . . .
37.5(33) . . .
40.7(34) . . .
35.8(32) . . .
32.4(30) . . .
43(4) . . .
44(4) . . .
41.2(33) . . .
40.2(33) . . .
41.1(35) . . .
41.0(34) . . .
48(4) . . .
39.9(34) . . .
40.0(33) . . .
34.5(31) . . .
37.8(31) . . .
37.2(34) . . .
39(4) . . .
38.9(33) . . .
48(4) . . .
38.1(32) . . .
32.6(32) . . .
33.9(32) . . .
47(4) . . .
40.1(33) . . .
42.3(34) . . .
37.7(32) . . .
43(4) . . .
44(4) . . .
38.3(33) . . .
41.3(34) . . .
39.4(34) . . .
31.7(31) . . .
38.7(33) . . .
48(4) . . .
50(4) . . .
36.0(34) . . .
39(4) . . .
32.9(30) . . .
35.8(31) . . .
38.6(33) . . .
43(4) . . .
39.1(35) . . .
49(4) . . .
40.3(34) . . .
39.4(34) . . .
45(4) . . .
39.7(33) . . .
50(4) . . .
38.2(33) . . .
48(4) . . .
46(4) . . .
46(4) . . .
46(4) . . .
44(4) . . .
41(4) . . .
46(4) . . .
42.2(34) . . .
49(4) . . .
49(4) . . .
46(4) . . .
49(4) . . .
41.6(34) . . .
32.9(30) . . .
34.8(32) . . .
46(4) . . .
39.7(34) . . .
42.7(34) . . .
37.9(32) . . .
45(4) . . .
40.4(33) . . .
40.4(33) . . .
38.6(32) . . .
31.4(30) . . .
34.8(34) . . .
35.5(32) . . .
51(4) . . .
44.6(35) . . .
32.0(30) . . .
39(4) . . .
43(4) . . .
41.9(34) . . .
42.0(34) . . .
41.1(34) . . .
38.8(33) . . .
47(4) . . .
39.7(34) . . .
37.9(32) . . .
42.5(35) . . .
47(4) . . .
36.7(34) . . .
45(4) . . .
52(4) . . .
45.5(35) . . .
40.6(34) . . .
37.6(34) . . .
38.6(33) . . .
47(4) . . .
40.2(34) . . .
34.8(32) . . .
41(4) . . .
35.3(31) . . .
41.9(34) . . .
43(4) . . .
35.5(35) . . .
40.7(34) . . .
38.8(32) . . .
44(4) . . .
53(4) . . .
48(4) . . .
43(4) . . .
35.1(31) . . .
41.7(34) . . .
39.2(33) . . .
44(4) . . .
50(4) . . .
44.2(35) . . .
46(4) . . .
46(4) . . .
29.1(29) . . .
42(4) . . .
46(4) . . .
43(4) . . .
45(4) . . .
49(4) . . .
52(4) . . .
38.3(32) . . .
47(4) . . .
45(4) . . .
35.7(32) . . .
39.7(34) . . .
52(4) . . .
48(4) . . .
36.1(30) . . .
39.3(33) . . .
45.6(35) . . .
39.3(33) . . .
39.6(34) . . .
43(4) . . .
43(4) . . .
37.6(33) . . .
31.6(30) . . .
39.0(33) . . .
45(4) . . .
42(4) . . .
47(4) . . .
31.2(29) . . .
34.2(32) . . .
35.2(31) . . .
53(4) . . .
41.4(33) . . .
47(4) . . .
38.3(32) . . .
38.5(34) . . .
44(4) . . .
47(4) . . .
49(4) . . .
41.5(35) . . .
47(4) . . .
42.1(34) . . .
39.9(33) . . .
44.1(34) . . .
40.2(34) . . .
49(4) . . .
29.3(29) . . .
40.4(33) . . .
42.0(34) . . .
43.0(35) . . .
39.6(35) . . .
38.7(33) . . .
43.6(34) . . .
50(4) . . .
44(4) . . .
44(4) . . .
34.4(31) . . .
51(4) . . .
48(4) . . .
54(4) . . .
45(4) . . .
48(4) . . .
42.4(34) . . .
48(4) . . .
39.7(34) . . .
40.1(34) . . .
40.0(35) . . .
49(4) . . .
45(4) . . .
38.1(33) . . .
31.5(30) . . .
33.9(30) . . .
38.1(33) . . .
49(4) . . .
40.0(34) . . .
33.2(30) . . .
50(4) . . .
41.6(34) . . .
42(4) . . .
43(4) . . .
39.1(33) . . .
40.0(34) . . .
31.8(30) . . .
35.8(32) . . .
37.8(33) . . .
48(4) . . .
34.6(31) . . .
42.5(35) . . .
46(4) . . .
49(4) . . .
53(4) . . .
37.6(32) . . .
39.8(33) . . .
36.1(32) . . .
39(4) . . .
49(4) . . .
45.1(35) . . .
41.6(33) . . .
36.6(34) . . .
43(4) . . .
52(4) . . .
41.1(33) . . .
43.7(34) . . .
40(4) . . .
36.8(34) . . .
41(4) . . .
34.5(31) . . .
50(4) . . .
40.5(34) . . .
43(4) . . .
41.2(34) . . .
51(4) . . .
38.3(34) . . .
37.1(34) . . .
36.5(33) . . .
40.3(34) . . .
41.0(34) . . .
39.1(33) . . .
31.3(30) . . .
43.2(35) . . .
48(4) . . .
43.3(34) . . .
43(4) . . .
41(4) . . .
30.4(30) . . .
34.5(31) . . .
44.2(34) . . .
40.3(33) . . .
50(4) . . .
45(4) . . .
47(4) . . .
49(4) . . .
42(4) . . .
39.2(34) . . .
44.6(35) . . .
39.8(32) . . .
47(4) . . .
45(4) . . .
45(4) . . .
42(4) . . .
39.2(34) . . .
39.9(33) . . .
35.8(34) . . .
46(4) . . .
37.8(32) . . .
39.5(33) . . .
39.5(33) . . .
48(4) . . .
48(4) . . .
38.9(33) . . .
33.7(31) . . .
43.2(34) . . .
43(4) . . .
39.1(33) . . .
40(4) . . .
32.7(30) . . .
41.5(33) . . .
34.2(30) . . .
35.8(32) . . .
43(4) . . .
39.9(33) . . .
43.1(34) . . .
42(4) . . .
37.6(34) . . .
37.2(33) . . .
44.6(35) . . .
45(4) . . .
43(4) . . .
33.5(31) . . .
39.4(34) . . .
37.3(32) . . .
38.6(34) . . .
35.6(32) . . .
34.1(32) . . .
44.2(35) . . .
49(4) . . .
41(4) . . .
33.8(33) . . .
38.6(34) . . .
33.2(30) . . .
36.5(32) . . .
38.3(35) . . .
28.8(28) . . .
43(4) . . .
38.2(33) . . .
35.3(32) . . .
50(4) . . .
38.5(35) . . .
37.9(32) . . .
44.0(34) . . .
37.5(33) . . .
39.4(34) . . .
44(4) . . .
42.1(35) . . .
45.2(35) . . .
33.9(31) . . .
37.8(34) . . .
43.1(35) . . .
40.4(34) . . .
44.8(35) . . .
43.0(34) . . .
31.2(32) . . .
39.8(35) . . .
51(4) . . .
43.0(34) . . .
46(4) . . .
40.4(35) . . .
30.5(31) . . .
38.3(35) . . .
48(4) . . .
42.1(33) . . .
44(4) . . .
46(4) . . .
41.4(33) . . .
45.3(35) . . .
35.1(31) . . .
44(4) . . .
39.3(34) . . .
36.2(31) . . .
43.1(35) . . .
47(4) . . .
41.6(33) . . .
39.5(33) . . .
35.2(32) . . .
36.0(31) . . .
50(4) . . .
39.8(34) . . .
40(4) . . .
42.0(34) . . .
46(4) . . .
35.3(31) . . .
53(4) . . .
41.2(34) . . .
40.2(33) . . .
38.2(33) . . .
41(4) . . .
37.0(34) . . .
37.4(34) . . .
38.3(32) . . .
39.1(33) . . .
43(4) . . .
44(4) . . .
39.8(33) . . .
40.4(33) . . .
41.1(33) . . .
36.2(32) . . .
34.1(33) . . .
38.8(34) . . .
42.1(34) . . .
47(4) . . .
33.0(31) . . .
37.7(35) . . .
36(4) . . .
41.8(34) . . .
43(4) . . .
44(4) . . .
45(4) . . .
41.3(34) . . .
37.1(31) . . .
39.8(34) . . .
44(4) . . .
35.5(31) . . .
43.6(35) . . .
43.1(34) . . .
46(4) . . .
43(4) . . .
53(4) . . .
38.7(33) . . .
38.3(33) . . .
43(4) . . .
41(4) . . .
27.4(29) . . .
37.8(34) . . .
37.3(32) . . .
41.0(33) . . .
42.2(34) . . .
32.0(29) . . .
38.7(33) . . .
44.8(35) . . .
41.4(34) . . .
47(4) . . .
42.6(35) . . .
45(4) . . .
44.2(34) . . .
49(4) . . .
41.0(34) . . .
39.6(33) . . .
45.2(35) . . .
36.2(32) . . .
42.2(35) . . .
44(4) . . .
53(4) . . .
43.4(34) . . .
44.2(34) . . .
38.4(32) . . .
32.4(29) . . .
41.5(34) . . .
51(4) . . .
40.5(33) . . .
38.5(33) . . .
49(4) . . .
43(4) . . .
48(4) . . .
48(4) . . .
36.5(33) . . .
45(4) . . .
45(4) . . .
39.0(32) . . .
48(4) . . .
49(4) . . .
34.8(31) . . .
38.0(33) . . .
37.3(32) . . .
49(4) . . .
43.3(35) . . .
34.5(31) . . .
40(4) . . .
36.2(31) . . .
39.3(33) . . .
48(4) . . .
42.5(35) . . .
39.6(32) . . .
40.7(34) . . .
38.8(35) . . .
45(4) . . .
42(4) . . .
42(4) . . .
40.3(33) . . .
46(4) . . .
41.5(34) . . .
39.0(34) . . .
44.3(34) . . .
40.7(33) . . .
45(4) . . .
42(4) . . .
31.3(30) . . .
33.0(30) . . .
43.2(34) . . .
43(4) . . .
37.0(35) . . .
51(4) . . .
49(4) . . .
48(4) . . .
47(4) . . .
37.0(32) . . .
32.9(30) . . .
36.7(32) . . .
38.1(33) . . .
48(4) . . .
54(4) . . .
36.3(31) . . .
42.4(35) . . .
45.2(35) . . .
39.9(33) . . .
39(4) . . .
34.1(32) . . .
39.8(33) . . .
45(4) . . .
39.8(34) . . .
44(4) . . .
43(4) . . .
42.6(34) . . .
45(4) . . .
35.8(31) . . .
43(4) . . .
49(4) . . .
43.7(34) . . .
44(4) . . .
38.5(33) . . .
41.1(33) . . .
41.0(35) . . .
50(4) . . .
49(4) . . .
49(4) . . .
44(4) . . .
34.1(30) . . .
42.8(34) . . .
36.5(32) . . .
44(4) . . .
36.9(31) . . .
41.6(34) . . .
31.5(30) . . .
51(4) . . .
46(4) . . .
39.1(34) . . .
39.2(33) . . .
45.2(35) . . .
38.7(33) . . .
38(4) . . .
42(4) . . .
34.8(31) . . .
43.9(34) . . .
48(4) . . .
47(4) . . .
40.2(34) . . .
38.3(32) . . .
38.4(33) . . .
45(4) . . .
45(4) . . .
37.2(33) . . .
42.7(34) . . .
45.2(35) . . .
38.7(34) . . .
41(4) . . .
39.3(33) . . .
47(4) . . .
37.9(32) . . .
39.0(35) . . .
43(4) . . .
40.5(33) . . .
39.1(33) . . .
39.3(34) . . .
38.0(33) . . .
43(4) . . .
42.9(35) . . .
38.0(32) . . .
39.0(34) . . .
37(4) . . .
34.7(34) . . .
41.2(34) . . .
38.8(33) . . .
39.7(33) . . .
35.2(33) . . .
38.3(33) . . .
41.3(33) . . .
44.6(35) . . .
37.1(32) . . .
50(4) . . .
46(4) . . .
43(4) . . .
42.8(35) . . .
39.9(34) . . .
30.1(29) . . .
45(4) . . .
40.8(35) . . .
40.6(34) . . .
38.4(34) . . .
45(4) . . .
50(4) . . .
35.9(32) . . .
34.9(31) . . .
41.2(34) . . .
42(4) . . .
35.7(32) . . .
41.0(33) . . .
34.3(31) . . .
36(4) . . .
53(4) . . .
34.1(31) . . .
43.8(34) . . .
46(4) . . .
39.7(34) . . .
44(4) . . .
36.3(32) . . .
39.5(33) . . .
42.8(35) . . .
35.1(32) . . .
46(4) . . .
41(4) . . .
34.9(31) . . .
46(4) . . .
38.4(33) . . .
42(4) . . .
49(4) . . .
45.3(35) . . .
39.5(35) . . .
36.3(32) . . .
44(4) . . .
40.4(34) . . .
40.6(33) . . .
46(4) . . .
50(4) . . .
50(4) . . .
49(4) . . .
38.8(32) . . .
31.2(29) . . .
37.9(34) . . .
42.0(33) . . .
45(4) . . .
37.5(32) . . .
39.1(33) . . .
41(4) . . .
40.8(35) . . .
34.0(31) . . .
47(4) . . .
35.8(31) . . .
38(4) . . .
31.4(29) . . .
50(4) . . .
38.4(33) . . .
42(4) . . .
41.7(34) . . .
41.6(35) . . .
46(4) . . .
32.9(29) . . .
37.4(32) . . .
42(4) . . .
33.0(30) . . .
38.2(32) . . .
34.4(30) . . .
37.1(34) . . .
44(4) . . .
39.8(33) . . .
38.3(32) . . .
39.4(34) . . .
39.1(34) . . .
37.0(33) . . .
43(4) . . .
43.3(35) . . .
38.7(33) . . .
43.0(35) . . .
44(4) . . .
29.7(29) . . .
44.3(34) . . .
42(4) . . .
44(4) . . .
39.0(34) . . .
42(4) . . .
50(4) . . .
48(4) . . .
47(4) . . .
42(4) . . .
37.8(34) . . .
40.9(34) . . .
44.6(35) . . .
46(4) . . .
50(4) . . .
40.3(33) . . .
35.4(32) . . .
33.2(30) . . .
33.3(29) . . .
39.9(34) . . .
41.1(33) . . .
40.8(33) . . .
39.4(35) . . .
44(4) . . .
43(4) . . .
40.1(34) . . .
39.3(33) . . .
41.3(34) . . .
39.1(34) . . .
35.5(31) . . .
39.5(32) . . .
40.4(34) . . .
38.2(33) . . .
32.7(30) . . .
41.4(34) . . .
43.9(35) . . .
40.5(33) . . .
39.8(35) . . .
46(4) . . .
40(4) . . .
34.1(30) . . .
39.4(32) . . .
31.9(30) . . .
29.5(31) . . .
36.2(32) . . .
34.3(31) . . .
40.5(33) . . .
45(4) . . .
43(4) . . .
41.4(34) . . .
46(4) . . .
47(4) . . .
43(4) . . .
37.8(33) . . .
42.9(35) . . .
40.6(33) . . .
36.5(32) . . .
43(4) . . .
38.6(32) . . .
39.1(34) . . .
47(4) . . .
40.3(33) . . .
31.2(29) . . .
44(4) . . .
38.8(33) . . .
42.3(34) . . .
37.4(33) . . .
42(4) . . .
49(4) . . .
44.8(35) . . .
36.2(32) . . .
36.5(31) . . .
35.6(31) . . .
41(4) . . .
43(4) . . .
40.0(33) . . .
41.9(34) . . .
35.3(33) . . .
41.7(34) . . .
45.1(34) . . .
42.5(33) . . .
42.7(35) . . .
42(4) . . .
33.6(31) . . .
41.0(34) . . .
37.3(32) . . .
44(4) . . .
40(4) . . .
34.3(32) . . .
38.7(32) . . .
41.7(35) . . .
33.1(31) . . .
30.4(31) . . .
44(4) . . .
41.5(34) . . .
38.7(33) . . .
43(4) . . .
39.1(35) . . .
35.1(31) . . .
45.7(35) . . .
40.0(34) . . .
48(4) . . .
42.8(35) . . .
43(4) . . .
41.8(35) . . .
34.5(32) . . .
40.5(35) . . .
41(4) . . .
42.2(34) . . .
51(4) . . .
50(4) . . .
46(4) . . .
37.7(32) . . .
44.1(35) . . .
36.7(31) . . .
37.9(32) . . .
38.0(33) . . .
34.1(31) . . .
35.2(31) . . .
34.6(31) . . .
40(4) . . .
40.2(34) . . .
44.2(34) . . .
48(4) . . .
44.0(35) . . .
43(4) . . .
38.2(33) . . .
44(4) . . .
41.8(33) . . .
44.2(35) . . .
44(4) . . .
39(4) . . .
34.6(31) . . .
44(4) . . .
47(4) . . .
40.9(34) . . .
40(4) . . .
43.0(35) . . .
54(4) . . .
57(4) . . .
48(4) . . .
35.6(34) . . .
33.4(31) . . .
43.9(35) . . .
38.8(33) . . .
40.0(33) . . .
42(4) . . .
34.3(31) . . .
44.4(35) . . .
45(4) . . .
42.0(34) . . .
46(4) . . .
33.7(31) . . .
38.6(32) . . .
42.1(34) . . .
38.9(31) . . .
46(4) . . .
43(4) . . .
40.7(34) . . .
40.8(34) . . .
39(4) . . .
43(4) . . .
44(4) . . .
32.3(30) . . .
46(4) . . .
36.8(33) . . .
42.0(34) . . .
47(4) . . .
35.0(31) . . .
33.3(32) . . .
45(4) . . .
46(4) . . .
42.8(34) . . .
38.0(32) . . .
31.5(31) . . .
37(4) . . .
45(4) . . .
43.2(35) . . .
39.3(35) . . .
41(4) . . .
46(4) . . .
42.7(34) . . .
38.9(33) . . .
42.0(33) . . .
44(4) . . .
45(4) . . .
27.3(27) . . .
35.9(32) . . .
34.2(30) . . .
38(4) . . .
40(4) . . .
48(4) . . .
37.9(32) . . .
45(4) . . .
37.3(32) . . .
34.5(32) . . .
41.0(34) . . .
44.1(34) . . .
39.5(33) . . .
41.2(35) . . .
41.4(35) . . .
37.3(32) . . .
38.7(32) . . .
47(4) . . .
50(4) . . .
42(4) . . .
51(4) . . .
50(4) . . .
34.2(31) . . .
43(4) . . .
45(4) . . .
46(4) . . .
42.4(33) . . .
38.6(33) . . .
35.8(32) . . .
36.9(33) . . .
37.5(33) . . .
40.8(33) . . .
39(4) . . .
36.2(34) . . .
39.8(34) . . .
36.7(31) . . .
39.4(32) . . .
34.3(30) . . .
46(4) . . .
49(4) . . .
32.5(29) . . .
40.8(33) . . .
50(4) . . .
46(4) . . .
39.2(33) . . .
39.5(33) . . .
41.7(34) . . .
52(4) . . .
38.0(33) . . .
39.0(34) . . .
40.2(33) . . .
39.6(33) . . .
31.7(30) . . .
28.9(29) . . .
31.3(30) . . .
47(4) . . .
44.9(34) . . .
45(4) . . .
47(4) . . .
41(4) . . .
42.0(34) . . .
42.0(34) . . .
32.8(31) . . .
40(4) . . .
42.7(34) . . .
42.2(34) . . .
41.2(35) . . .
35.8(33) . . .
41(4) . . .
23.3(25) . . .
40.6(33) . . .
39.4(34) . . .
36.5(35) . . .
38.7(34) . . .
38.9(32) . . .
41.8(34) . . .
44(4) . . .
36.0(32) . . .
39.5(34) . . .
35.4(30) . . .
37.7(33) . . .
38.1(34) . . .
45(4) . . .
51(4) . . .
45(4) . . .
43.6(35) . . .
32.9(31) . . .
36.6(33) . . .
52(4) . . .
43.0(35) . . .
43.7(35) . . .
31.3(29) . . .
34.3(30) . . .
41.7(33) . . .
46(4) . . .
45(4) . . .
43.0(34) . . .
30.9(30) . . .
42(4) . . .
36.6(32) . . .
38.7(32) . . .
36.4(34) . . .
44(4) . . .
38.7(34) . . .
35.7(31) . . .
40.7(33) . . .
45(4) . . .
42(4) . . .
42(4) . . .
38.0(32) . . .
42(4) . . .
41.0(35) . . .
42(4) . . .
36.4(33) . . .
41.0(33) . . .
39.3(34) . . .
41(4) . . .
49(4) . . .
44.0(35) . . .
31.3(29) . . .
29.8(29) . . .
45(4) . . .
35.4(30) . . .
48(4) . . .
47(4) . . .
48(4) . . .
52(4) . . .
47(4) . . .
40.4(34) . . .
37.0(32) . . .
39.4(33) . . .
40(4) . . .
50(4) . . .
38.7(33) . . .
35.6(31) . . .
48(4) . . .
45(4) . . .
36.2(32) . . .
41.1(33) . . .
42.4(35) . . .
40.7(35) . . .
47(4) . . .
38.0(34) . . .
43.8(35) . . .
48(4) . . .
42.0(34) . . .
45(4) . . .
42(4) . . .
43.0(35) . . .
42.8(35) . . .
28.1(28) . . .
36.0(35) . . .
36.5(32) . . .
38.8(32) . . .
34.7(30) . . .
41.0(34) . . .
47(4) . . .
40.9(34) . . .
48(4) . . .
36.2(31) . . .
35.7(33) . . .
33.8(32) . . .
36.3(32) . . .
38.1(34) . . .
54(4) . . .
46(4) . . .
34.7(33) . . .
41.5(34) . . .
51(4) . . .
47(4) . . .
38.7(33) . . .
46(4) . . .
36.0(33) . . .
42.8(34) . . .
38.5(32) . . .
44(4) . . .
38.1(34) . . .
40.1(35) . . .
37.0(32) . . .
46(4) . . .
32.9(31) . . .
34.1(32) . . .
47(4) . . .
36.4(32) . . .
50(4) . . .
38.3(32) . . .
38.1(35) . . .
34.3(30) . . .
56(4) . . .
45(4) . . .
46(4) . . .
55(4) . . .
44.3(35) . . .
41.0(33) . . .
39.8(34) . . .
34.8(31) . . .
47(4) . . .
33.3(29) . . .
46(4) . . .
36.8(34) . . .
39(4) . . .
40.5(34) . . .
43.5(35) . . .
34.2(31) . . .
45(4) . . .
35.4(32) . . .
37.3(33) . . .
39.6(33) . . .
39.6(33) . . .
49(4) . . .
38.6(35) . . .
33.7(30) . . .
37.2(32) . . .
36.7(31) . . .
49(4) . . .
38.0(32) . . .
37.5(33) . . .
39.8(33) . . .
47(4) . . .
44(4) . . .
42(4) . . .
38.9(34) . . .
45.9(35) . . .
45(4) . . .
40.9(33) . . .
47(4) . . .
43(4) . . .
41.6(34) . . .
40.5(34) . . .
36.3(32) . . .
34.1(31) . . .
40.6(34) . . .
35.3(31) . . .
39.5(34) . . .
37.4(34) . . .
37.2(33) . . .
39.8(34) . . .
43.3(35) . . .
37.5(33) . . .
42.1(35) . . .
47(4) . . .
39.9(34) . . .
33.6(30) . . .
39.1(34) . . .
42.0(34) . . .
51(4) . . .
42(4) . . .
31.3(30) . . .
35.0(34) . . .
31.0(32) . . .
31.7(31) . . .
31.0(29) . . .
36.5(31) . . .
38.2(32) . . .
42(4) . . .
43.8(35) . . .
43.5(35) . . .
39.8(33) . . .
32.6(29) . . .
35.3(31) . . .
45(4) . . .
44.8(35) . . .
31.9(30) . . .
41(4) . . .
37(4) . . .
28.5(29) . . .
33.4(30) . . .
40.3(34) . . .
33.6(30) . . .
31.2(31) . . .
44(4) . . .
42.2(34) . . .
43.0(34) . . .
46(4) . . .
44(4) . . .
44(4) . . .
44.3(35) . . .
38.8(33) . . .
37.7(34) . . .
52(4) . . .
54(4) . . .
36.2(32) . . .
42.3(34) . . .
44(4) . . .
40.9(35) . . .
51(4) . . .
44(4) . . .
44(4) . . .
32.8(30) . . .
37.1(32) . . .
42.6(34) . . .
40.3(33) . . .
38.2(33) . . .
35.5(33) . . .
37.7(33) . . .
33.5(30) . . .
50(4) . . .
48(4) . . .
47(4) . . .
42.6(34) . . .
36.8(32) . . .
29.1(28) . . .
32.6(30) . . .
38(4) . . .
36.0(32) . . .
41.8(34) . . .
42.0(33) . . .
46(4) . . .
43(4) . . .
44(4) . . .
53(4) . . .
36.0(31) . . .
46(4) . . .
41(4) . . .
39.4(35) . . .
43.0(34) . . .
48(4) . . .
37.8(33) . . .
31.9(31) . . .
41(4) . . .
43(4) . . .
40.3(33) . . .
33.5(31) . . .
38.0(35) . . .
38.6(34) . . .
41.6(34) . . .
40.7(33) . . .
37.4(32) . . .
40(4) . . .
32.5(29) . . .
40.4(33) . . .
44(4) . . .
42.0(35) . . .
50(4) . . .
44(4) . . .
46(4) . . .
38.7(35) . . .
47(4) . . .
44(4) . . .
53(4) . . .
40.8(33) . . .
37.2(33) . . .
36.1(32) . . .
33.8(30) . . .
37.1(32) . . .
39.7(33) . . .
44(4) . . .
44(4) . . .
44(4) . . .
32.2(30) . . .
33.4(31) . . .
37.2(34) . . .
52(4) . . .
40.5(34) . . .
35.5(31) . . .
42.7(34) . . .
44(4) . . .
46(4) . . .
39.8(34) . . .
35.7(31) . . .
53(4) . . .
41.1(34) . . .
41(4) . . .
38.5(32) . . .
47(4) . . .
50(4) . . .
49(4) . . .
39.0(33) . . .
45(4) . . .
45.1(35) . . .
50(4) . . .
42(4) . . .
35.7(33) . . .
38.3(34) . . .
38.7(32) . . .
41.5(33) . . .
39.8(35) . . .
37.1(32) . . .
41.1(35) . . .
31.4(29) . . .
40.7(35) . . .
54(4) . . .
44(4) . . .
32.6(32) . . .
28.6(28) . . .
40(4) . . .
36.2(31) . . .
49(4) . . .
42.3(35) . . .
36.1(31) . . .
38.5(33) . . .
35.2(33) . . .
36.8(32) . . .
48(4) . . .
44.2(35) . . .
45(4) . . .
39.3(33) . . .
52(4) . . .
48(4) . . .
34.9(32) . . .
37.0(32) . . .
35.9(32) . . .
46(4) . . .
39.7(33) . . .
38.0(32) . . .
34.7(32) . . .
41(4) . . .
39.3(33) . . .
40.5(33) . . .
41.0(34) . . .
37.2(33) . . .
38.5(34) . . .
47(4) . . .
45.5(35) . . .
33.3(32) . . .
40.3(34) . . .
43(4) . . .
42.0(34) . . .
40.6(33) . . .
43.0(35) . . .
40.1(33) . . .
49(4) . . .
50(4) . . .
38.1(32) . . .
44(4) . . .
41.2(34) . . .
34.3(31) . . .
41(4) . . .
33.2(30) . . .
37.0(31) . . .
37.0(32) . . .
46(4) . . .
39.3(34) . . .
38.5(32) . . .
38.6(33) . . .
42(4) . . .
36.8(35) . . .
36.8(34) . . .
33.4(30) . . .
31.0(30) . . .
44(4) . . .
46(4) . . .
39.8(33) . . .
35.6(31) . . .
37.3(32) . . .
39.0(34) . . .
35.8(32) . . .
43.7(35) . . .
43.9(35) . . .
44(4) . . .
33.0(31) . . .
31.2(30) . . .
35.0(31) . . .
52(4) . . .
42(4) . . .
32.4(33) . . .
45(4) . . .
46.0(35) . . .
34.9(32) . . .
48(4) . . .
34.0(32) . . .
33.8(31) . . .
39.1(33) . . .
36.4(32) . . .
42.0(34) . . .
48(4) . . .
49(4) . . .
43.5(34) . . .
38.0(32) . . .
36.9(32) . . .
40(4) . . .
37.0(33) . . .
35.0(31) . . .
34.8(30) . . .
50(4) . . .
38.8(34) . . .
38.8(34) . . .
37.4(32) . . .
30.7(29) . . .
36.8(33) . . .
45(4) . . .
45(4) . . .
45(4) . . .
48(4) . . .
42.3(35) . . .
37.1(33) . . .
42.4(34) . . .
45(4) . . .
35.8(32) . . .
38(4) . . .
37.2(33) . . .
45(4) . . .
42.4(34) . . .
35.8(31) . . .
27.8(27) . . .
41(4) . . .
38.0(35) . . .
34.5(31) . . .
29.7(30) . . .
37.5(34) . . .
36.5(31) . . .
34.7(31) . . .
38.9(34) . . .
33.8(31) . . .
46(4) . . .
44(4) . . .
39.9(33) . . .
41.8(35) . . .
42(4) . . .
38.8(35) . . .
40.4(34) . . .
34.8(31) . . .
40.3(35) . . .
34.7(30) . . .
38.7(33) . . .
46(4) . . .
37.2(32) . . .
36.8(32) . . .
35.7(32) . . .
34.5(34) . . .
42(4) . . .
40.4(33) . . .
43(4) . . .
41.6(34) . . .
42(4) . . .
31.6(31) . . .
41.5(34) . . .
36.9(32) . . .
39.2(32) . . .
37.0(31) . . .
40.9(34) . . .
39.1(33) . . .
36.8(32) . . .
44(4) . . .
41.4(34) . . .
39.7(33) . . .
41.9(33) . . .
38.7(34) . . .
43(4) . . .
36.0(33) . . .
40.5(35) . . .
51(4) . . .
37.3(32) . . .
46(4) . . .
42(4) . . .
41.2(33) . . .
40.7(33) . . .
37.7(33) . . .
43(4) . . .
36.8(31) . . .
39.1(33) . . .
35.9(31) . . .
36.3(33) . . .
36.3(34) . . .
40.2(33) . . .
40.2(33) . . .
36.0(31) . . .
41(4) . . .
45(4) . . .
42.6(34) . . .
47(4) . . .
36.7(31) . . .
33.5(31) . . .
38(4) . . .
38.5(33) . . .
41.1(34) . . .
37.9(33) . . .
43(4) . . .
37.9(32) . . .
41.5(34) . . .
36.8(32) . . .
41.0(33) . . .
36.7(32) . . .
39.3(33) . . .
36.9(32) . . .
40.3(34) . . .
38.1(33) . . .
44(4) . . .
48(4) . . .
43(4) . . .
34.0(31) . . .
32.5(29) . . .
39.1(33) . . .
38.4(34) . . .
48(4) . . .
39.8(33) . . .
37.7(33) . . .
38.0(33) . . .
37.3(33) . . .
36.0(31) . . .
41.2(33) . . .
36.0(32) . . .
37.6(32) . . .
38.8(33) . . .
34.9(30) . . .
39.5(33) . . .
39.5(34) . . .
35.7(34) . . .
41.2(35) . . .
42.3(35) . . .
39.6(34) . . .
35.8(32) . . .
36.4(33) . . .
46(4) . . .
35.9(31) . . .
32.0(29) . . .
37.2(33) . . .
44(4) . . .
37.7(31) . . .
48(4) . . .
41.3(35) . . .
28.6(30) . . .
37.2(34) . . .
39.8(34) . . .
47(4) . . .
38.4(33) . . .
34.2(31) . . .
42.0(34) . . .
34.4(32) . . .
31.9(29) . . .
43(4) . . .
41(4) . . .
48(4) . . .
44(4) . . .
43.1(34) . . .
43(4) . . .
37.2(32) . . .
37.8(35) . . .
37.9(34) . . .
34.0(31) . . .
39.2(34) . . .
36.7(33) . . .
40.5(34) . . .
39.8(34) . . .
37.2(32) . . .
24.2(25) . . .
33.1(32) . . .
35.6(33) . . .
39.4(32) . . .
41.9(34) . . .
38.0(34) . . .
35.4(33) . . .
45(4) . . .
44(4) . . .
39.4(32) . . .
38.9(32) . . .
42(4) . . .
37.6(32) . . .
47(4) . . .
37.3(32) . . .
42.0(34) . . .
44(4) . . .
42(4) . . .
44(4) . . .
37.8(32) . . .
47(4) . . .
36.6(32) . . .
35.0(32) . . .
42.3(34) . . .
44(4) . . .
39.0(33) . . .
40.5(35) . . .
34.8(32) . . .
36.5(32) . . .
42.0(34) . . .
38.4(33) . . .
40(4) . . .
36.9(32) . . .
33.7(30) . . .
32.4(29) . . .
44(4) . . .
39.4(34) . . .
36.7(32) . . .
40.2(33) . . .
40.6(35) . . .
40.0(33) . . .
49(4) . . .
52(4) . . .
40.2(33) . . .
43.6(34) . . .
48(4) . . .
43(4) . . .
42(4) . . .
31.4(30) . . .
42.3(35) . . .
38.1(34) . . .
46(4) . . .
40.3(33) . . .
39.1(33) . . .
35.3(32) . . .
39(4) . . .
32.6(30) . . .
36.8(32) . . .
39.1(33) . . .
38.0(33) . . .
37.6(32) . . .
44.0(34) . . .
40.6(33) . . .
54(4) . . .
47(4) . . .
34.6(32) . . .
39.8(33) . . .
35.5(31) . . .
35.1(31) . . .
46(4) . . .
44(4) . . .
42.1(35) . . .
44.4(35) . . .
47(4) . . .
35.5(31) . . .
35.0(34) . . .
39.3(34) . . .
40.9(34) . . .
44(4) . . .
40(4) . . .
35.1(32) . . .
47(4) . . .
31.6(29) . . .
39.8(33) . . .
43(4) . . .
38.4(35) . . .
42(4) . . .
34.8(31) . . .
29.9(28) . . .
38.0(34) . . .
32.8(33) . . .
33.0(30) . . .
47(4) . . .
38.5(33) . . .
42.5(33) . . .
40.9(34) . . .
32.1(30) . . .
46(4) . . .
45.7(35) . . .
39.6(35) . . .
39.5(34) . . .
48(4) . . .
33.8(31) . . .
41.7(35) . . .
34.8(33) . . .
44(4) . . .
51(4) . . .
38.3(32) . . .
35.6(31) . . .
41(4) . . .
33.7(31) . . .
34.1(31) . . .
39.7(33) . . .
40.6(35) . . .
38(4) . . .
34.2(31) . . .
43.1(34) . . .
55(4) . . .
37.3(35) . . .
32.2(34) . . .
39.8(34) . . .
37.3(31) . . .
48(4) . . .
36.6(32) . . .
49(4) . . .
41(4) . . .
41.7(33) . . .
44(4) . . .
38.5(35) . . .
34.2(34) . . .
43(4) . . .
43.3(34) . . .
42.3(34) . . .
37.4(32) . . .
35.5(31) . . .
45(4) . . .
41.7(34) . . .
39.4(33) . . .
37.5(31) . . .
35.8(32) . . .
35.7(33) . . .
34.5(31) . . .
37.8(33) . . .
39(4) . . .
39.0(34) . . .
49(4) . . .
46(4) . . .
41.0(34) . . .
34.9(33) . . .
33.3(33) . . .
36.9(33) . . .
38.0(32) . . .
38.9(35) . . .
37.5(32) . . .
41.6(33) . . .
40.2(33) . . .
42.8(34) . . .
39.5(33) . . .
39.6(35) . . .
33.2(31) . . .
28.5(28) . . .
44.2(34) . . .
42(4) . . .
42(4) . . .
29.4(31) . . .
38.4(33) . . .
39.0(34) . . .
43.2(35) . . .
34.6(32) . . .
35.5(31) . . .
34.0(30) . . .
44.5(34) . . .
42(4) . . .
44(4) . . .
46(4) . . .
30.5(29) . . .
35.2(31) . . .
30.6(30) . . .
34.0(31) . . .
35.7(31) . . .
54(4) . . .
39.7(33) . . .
40.4(34) . . .
34.7(33) . . .
40.2(34) . . .
44.4(35) . . .
43(4) . . .
46(4) . . .
46(4) . . .
37.1(33) . . .
38.8(33) . . .
46.2(35) . . .
52(4) . . .
43(4) . . .
41.8(34) . . .
40.1(33) . . .
41.9(35) . . .
37.7(34) . . .
39.7(35) . . .
27.5(28) . . .
37.5(32) . . .
35.2(31) . . .
45(4) . . .
37.3(34) . . .
34.5(32) . . .
37.7(32) . . .
40.2(33) . . .
33.7(31) . . .
32.2(31) . . .
40.7(34) . . .
41.5(33) . . .
37.9(34) . . .
32.6(30) . . .
45(4) . . .
46(4) . . .
38.1(33) . . .
39.9(34) . . .
48(4) . . .
43(4) . . .
35.2(31) . . .
37.9(32) . . .
39.8(33) . . .
38(4) . . .
41(4) . . .
37.6(31) . . .
37.0(32) . . .
37.7(34) . . .
31.5(32) . . .
39.7(33) . . .
42.0(34) . . .
37.3(32) . . .
40.5(34) . . .
42(4) . . .
36.4(32) . . .
45.5(35) . . .
41.0(34) . . .
44(4) . . .
38.5(33) . . .
48(4) . . .
43.1(34) . . .
38.8(33) . . .
39(4) . . .
34.0(33) . . .
38.0(33) . . .
35.8(32) . . .
49(4) . . .
40.8(35) . . .
34.4(32) . . .
35.0(31) . . .
42.9(34) . . .
41(4) . . .
37.5(34) . . .
30.6(29) . . .
33.9(30) . . .
40.0(34) . . .
30.3(30) . . .
41(4) . . .
41(4) . . .
39.0(33) . . .
38.7(34) . . .
45(4) . . .
37.9(33) . . .
36.2(32) . . .
37.9(33) . . .
56(4) . . .
42(4) . . .
33.2(31) . . .
41(4) . . .
37.2(34) . . .
31.1(29) . . .
33.7(32) . . .
39(4) . . .
38.3(34) . . .
33.7(30) . . .
40.3(34) . . .
39.7(35) . . .
40.5(34) . . .
43(4) . . .
40.5(33) . . .
43.0(35) . . .
41.8(34) . . .
39.1(33) . . .
42(4) . . .
35.7(32) . . .
43.2(35) . . .
37.7(33) . . .
32.1(30) . . .
34.8(33) . . .
40.5(34) . . .
42.7(35) . . .
49(4) . . .
48(4) . . .
32.4(29) . . .
38.0(32) . . .
35.4(33) . . .
44(4) . . .
29.0(29) . . .
39.0(34) . . .
37.3(32) . . .
41.6(35) . . .
32.9(32) . . .
32.2(30) . . .
40.2(34) . . .
41.9(33) . . .
44(4) . . .
35.2(32) . . .
36.9(32) . . .
38.8(33) . . .
39.9(33) . . .
33.8(31) . . .
39.1(34) . . .
37.1(33) . . .
38.6(33) . . .
41.7(33) . . .
38.8(32) . . .
34.7(33) . . .
40.1(34) . . .
33.9(31) . . .
41.5(34) . . .
44.4(35) . . .
36.8(33) . . .
41.2(34) . . .
40.3(33) . . .
32.8(30) . . .
33.0(30) . . .
41.0(33) . . .
38.9(32) . . .
42.0(34) . . .
39.8(33) . . .
43(4) . . .
35.8(33) . . .
43(4) . . .
39.5(33) . . .
39.0(34) . . .
39.4(34) . . .
41(4) . . .
46(4) . . .
34.5(31) . . .
45(4) . . .
39.3(34) . . .
38.7(34) . . .
41(4) . . .
44.4(34) . . .
45(4) . . .
44.7(34) . . .
41(4) . . .
40.0(33) . . .
38.3(32) . . .
42.7(35) . . .
38.5(33) . . .
38.5(33) . . .
40.5(34) . . .
39.1(32) . . .
42.2(34) . . .
44(4) . . .
36.9(34) . . .
33.3(30) . . .
37.5(32) . . .
35.4(33) . . .
43(4) . . .
33.4(31) . . .
41.5(34) . . .
46(4) . . .
36.8(32) . . .
43(4) . . .
36.0(35) . . .
36.3(32) . . .
37.1(32) . . .
33.0(31) . . .
26.0(28) . . .
37.5(33) . . .
41.4(34) . . .
41.7(33) . . .
41(4) . . .
35.8(32) . . .
33.1(30) . . .
35.6(30) . . .
42.0(34) . . .
48(4) . . .
50(4) . . .
45(4) . . .
36.7(32) . . .
33.5(31) . . .
43(4) . . .
40(4) . . .
36.9(33) . . .
33.0(30) . . .
37.9(33) . . .
42(4) . . .
32.6(31) . . .
27.7(28) . . .
46.0(35) . . .
39.9(32) . . .
39.2(33) . . .
27.0(27) . . .
38.2(33) . . .
40.4(34) . . .
41.5(33) . . .
43(4) . . .
38.6(33) . . .
52(4) . . .
33.7(30) . . .
49(4) . . .
37.2(32) . . .
34.0(31) . . .
33.8(30) . . .
39.2(33) . . .
36.1(31) . . .
38.8(33) . . .
37.0(33) . . .
35.8(31) . . .
42.0(34) . . .
46(4) . . .
53(4) . . .
35.4(30) . . .
32.0(29) . . .
42.3(34) . . .
43.2(34) . . .
32.1(30) . . .
41.6(35) . . .
46(4) . . .
38.2(32) . . .
39.1(33) . . .
45(4) . . .
43(4) . . .
34.2(30) . . .
39.1(33) . . .
37.2(33) . . .
38(4) . . .
42.9(34) . . .
43.6(34) . . .
40.5(34) . . .
46(4) . . .
33.4(32) . . .
43.1(35) . . .
44.2(34) . . .
31.6(29) . . .
31.4(31) . . .
41.0(35) . . .
39.0(33) . . .
41.6(33) . . .
31.7(30) . . .
33.0(30) . . .
36.8(32) . . .
36.0(31) . . .
38.4(33) . . .
41.6(34) . . .
33.1(31) . . .
39.3(33) . . .
52(4) . . .
46(4) . . .
38.6(33) . . .
38.2(35) . . .
36.1(35) . . .
37.0(31) . . .
40.0(33) . . .
46(4) . . .
40.7(35) . . .
35.8(33) . . .
44.1(35) . . .
38.6(33) . . .
31.8(30) . . .
40(4) . . .
30.4(31) . . .
35.4(32) . . .
37.9(33) . . .
35.1(31) . . .
44(4) . . .
40.7(34) . . .
45(4) . . .
34.9(31) . . .
37.2(33) . . .
42(4) . . .
30.5(31) . . .
31.5(29) . . .
45(4) . . .
34.9(31) . . .
35.3(35) . . .
33.0(32) . . .
32.8(30) . . .
38.7(33) . . .
37.9(32) . . .
33.3(31) . . .
37.3(34) . . .
38.0(32) . . .
42.5(34) . . .
41.8(33) . . .
45(4) . . .
39.9(33) . . .
39.0(33) . . .
39.4(33) . . .
38.6(33) . . .
34.0(31) . . .
35.0(31) . . .
38.7(33) . . .
44(4) . . .
37.4(34) . . .
39.2(35) . . .
43.0(34) . . .
40.0(34) . . .
42.2(35) . . .
43(4) . . .
42(4) . . .
27.8(28) . . .
35.1(31) . . .
44(4) . . .
46(4) . . .
42.5(34) . . .
42.8(34) . . .
42.8(34) . . .
46(4) . . .
35.1(33) . . .
38.2(33) . . .
39.9(33) . . .
44.2(34) . . .
42(4) . . .
46(4) . . .
48(4) . . .
46.3(35) . . .
43.1(34) . . .
34.9(34) . . .
40(4) . . .
45(4) . . .
37.5(32) . . .
36.2(31) . . .
32.0(29) . . .
36.7(33) . . .
47(4) . . .
46(4) . . .
35.3(30) . . .
38.1(32) . . .
33.2(30) . . .
34.0(31) . . .
40.4(33) . . .
41.7(34) . . .
36.7(32) . . .
45(4) . . .
36.3(31) . . .
40.7(33) . . .
37.0(32) . . .
39.6(34) . . .
37(4) . . .
31.2(30) . . .
41.2(34) . . .
37.1(32) . . .
38.9(32) . . .
46(4) . . .
44(4) . . .
41.7(34) . . .
44.1(35) . . .
40.7(34) . . .
38.1(34) . . .
39.2(33) . . .
35.2(32) . . .
50(4) . . .
37.3(33) . . .
35.7(32) . . .
42(4) . . .
39.9(32) . . .
34.7(32) . . .
41(4) . . .
39.3(35) . . .
32.1(29) . . .
34.8(31) . . .
43.2(35) . . .
41.1(34) . . .
50(4) . . .
40.4(33) . . .
35.3(31) . . .
42.5(34) . . .
30.5(29) . . .
41(4) . . .
42.8(34) . . .
43.5(34) . . .
37.0(32) . . .
35.6(33) . . .
44(4) . . .
52(4) . . .
43.9(35) . . .
42.2(35) . . .
43(4) . . .
41.5(34) . . .
41.5(34) . . .
35.6(31) . . .
42.9(35) . . .
36.5(33) . . .
36.3(33) . . .
31.8(29) . . .
41.8(33) . . .
37.4(32) . . .
40.6(34) . . .
39.9(34) . . .
37.5(32) . . .
40.5(34) . . .
36.4(32) . . .
38.0(33) . . .
43(4) . . .
34.8(31) . . .
38.5(32) . . .
44(4) . . .
43.2(34) . . .
47(4) . . .
39.0(33) . . .
32.3(29) . . .
39.0(35) . . .
44(4) . . .
47(4) . . .
42.7(33) . . .
41.2(33) . . .
37.6(33) . . .
41.5(34) . . .
48(4) . . .
36.2(31) . . .
33.7(30) . . .
42(4) . . .
32.7(32) . . .
37.9(34) . . .
38.9(33) . . .
32.2(31) . . .
35(4) . . .
36.2(33) . . .
40.0(33) . . .
39.9(33) . . .
44(4) . . .
35.3(34) . . .
29.3(28) . . .
31.1(30) . . .
43.1(34) . . .
30.9(31) . . .
38(4) . . .
40.9(35) . . .
37.9(32) . . .
37.0(31) . . .
44(4) . . .
38.3(35) . . .
46(4) . . .
37.5(32) . . .
45.1(35) . . .
47(4) . . .
47(4) . . .
35.6(33) . . .
38.0(32) . . .
40.2(33) . . .
41.9(34) . . .
42.2(35) . . .
42.7(35) . . .
36.1(32) . . .
39.3(33) . . .
42(4) . . .
35.1(31) . . .
38.0(34) . . .
39.5(32) . . .
38.5(35) . . .
35.3(33) . . .
40.4(34) . . .
44.2(34) . . .
39.4(33) . . .
38.6(34) . . .
36.2(32) . . .
44(4) . . .
39.6(33) . . .
38.3(32) . . .
40.7(34) . . .
40.8(34) . . .
40.3(33) . . .
45(4) . . .
47(4) . . .
39.3(34) . . .
36.4(34) . . .
43(4) . . .
32.3(32) . . .
43.3(34) . . .
48(4) . . .
40.3(34) . . .
33.1(29) . . .
44(4) . . .
48(4) . . .
41.4(34) . . .
45(4) . . .
37.5(34) . . .
34.5(31) . . .
42.1(33) . . .
53(4) . . .
42(4) . . .
42.4(35) . . .
46(4) . . .
38.6(32) . . .
41(4) . . .
39(4) . . .
37.5(33) . . .
35.2(31) . . .
49(4) . . .
32.8(33) . . .
34.7(32) . . .
29.2(29) . . .
39.4(33) . . .
38.0(33) . . .
35.8(32) . . .
39.1(33) . . .
38.7(33) . . .
48(4) . . .
29.8(28) . . .
45(4) . . .
45.3(35) . . .
35.4(31) . . .
36.4(32) . . .
39.6(35) . . .
35.4(33) . . .
41.7(35) . . .
50(4) . . .
46(4) . . .
41(4) . . .
32.7(30) . . .
41(4) . . .
42.5(33) . . .
40.2(33) . . .
46(4) . . .
42.8(35) . . .
42(4) . . .
38.2(32) . . .
47(4) . . .
36.1(31) . . .
45(4) . . .
38.5(35) . . .
40.3(33) . . .
37.2(31) . . .
38.0(33) . . .
46(4) . . .
37.5(34) . . .
44.3(35) . . .
39.1(32) . . .
34.9(32) . . .
31.5(32) . . .
33.7(33) . . .
43.3(35) . . .
53(4) . . .
33.8(30) . . .
31.7(31) . . .
34.4(33) . . .
40.2(33) . . .
40.8(34) . . .
43(4) . . .
43(4) . . .
42(4) . . .
37.7(33) . . .
39.5(33) . . .
34.5(31) . . .
35.2(33) . . .
45(4) . . .
36.0(31) . . .
42(4) . . .
41(4) . . .
42(4) . . .
42.9(34) . . .
44.1(34) . . .
38.3(32) . . .
33.1(30) . . .
36.2(33) . . .
40(4) . . .
31.1(29) . . .
36.5(33) . . .
46(4) . . .
38.4(35) . . .
35.8(31) . . .
42.5(34) . . .
45(4) . . .
51(4) . . .
39.1(34) . . .
34.1(30) . . .
34.2(30) . . .
39.0(33) . . .
46(4) . . .
38.6(33) . . .
34.3(31) . . .
43.9(34) . . .
40.0(34) . . .
36.4(34) . . .
28.7(27) . . .
35.3(31) . . .
36.5(32) . . .
41.2(35) . . .
47(4) . . .
43(4) . . .
35.5(31) . . .
33.2(31) . . .
39.2(34) . . .
44(4) . . .
49(4) . . .
41.5(34) . . .
42(4) . . .
39.8(34) . . .
35.5(32) . . .
33.0(31) . . .
34.7(31) . . .
39(4) . . .
40.1(35) . . .
38.2(33) . . .
40.5(33) . . .
41.4(34) . . .
35.5(32) . . .
34.2(32) . . .
37.9(35) . . .
37.1(32) . . .
41.8(34) . . .
38.2(33) . . .
37.9(34) . . .
38.0(32) . . .
37.8(33) . . .
51(4) . . .
37.7(34) . . .
38.2(34) . . .
42(4) . . .
32.1(30) . . .
36.1(32) . . .
41.5(34) . . .
33.0(30) . . .
32.7(30) . . .
41.2(34) . . .
37.6(32) . . .
35.0(31) . . .
35.9(32) . . .
46(4) . . .
35.3(31) . . .
34.6(31) . . .
50(4) . . .
43(4) . . .
36.7(33) . . .
29.4(28) . . .
34.0(31) . . .
46(4) . . .
43(4) . . .
41(4) . . .
37.8(32) . . .
40.0(34) . . .
28.3(28) . . .
41(4) . . .
34.3(32) . . .
44(4) . . .
38.7(33) . . .
39.4(35) . . .
33.1(31) . . .
42.2(35) . . .
49(4) . . .
48(4) . . .
47(4) . . .
42(4) . . .
40.7(34) . . .
42.8(34) . . .
36.1(32) . . .
44.0(35) . . .
46(4) . . .
40.1(33) . . .
38.1(33) . . .
37.6(32) . . .
42.6(34) . . .
41.2(33) . . .
34.8(31) . . .
35.6(32) . . .
30.1(28) . . .
38.5(34) . . .
40.4(34) . . .
40.4(33) . . .
37.3(32) . . .
42.0(34) . . .
36.8(34) . . .
39.2(33) . . .
46.0(35) . . .
37.7(34) . . .
38.6(33) . . .
34.0(31) . . .
47(4) . . .
39.1(33) . . .
30.2(29) . . .
35.5(30) . . .
41.6(35) . . .
47(4) . . .
34.9(31) . . .
39.5(33) . . .
35.4(31) . . .
32.4(29) . . .
37.5(31) . . .
38.3(32) . . .
42.3(34) . . .
40.1(34) . . .
45(4) . . .
40.7(35) . . .
31.7(29) . . .
39.5(33) . . .
29.4(29) . . .
36.8(33) . . .
37.4(32) . . .
45(4) . . .
41.1(34) . . .
39.6(35) . . .
36.7(32) . . .
42.0(34) . . .
44(4) . . .
32.9(31) . . .
36.4(33) . . .
39(4) . . .
28.4(29) . . .
40.4(33) . . .
40.1(35) . . .
36.0(35) . . .
42(4) . . .
41.0(33) . . .
30.4(29) . . .
37.0(32) . . .
49(4) . . .
38.1(32) . . .
51(4) . . .
39.0(34) . . .
31.0(32) . . .
34.4(34) . . .
29.0(30) . . .
30.0(29) . . .
30.0(28) . . .
43(4) . . .
32.2(30) . . .
39.8(35) . . .
41.3(35) . . .
42.4(33) . . .
30.7(29) . . .
36.6(34) . . .
35.5(31) . . .
49(4) . . .
51(4) . . .
39.4(34) . . .
37.2(33) . . .
31.5(29) . . .
38.0(33) . . .
36.3(31) . . .
37.5(33) . . .
41.5(35) . . .
43(4) . . .
34.3(31) . . .
39.3(32) . . .
36.3(34) . . .
36.6(32) . . .
36.4(33) . . .
37.2(32) . . .
38.5(33) . . .
37.6(32) . . .
37.7(35) . . .
29.5(31) . . .
39.9(33) . . .
43.5(35) . . .
42.3(33) . . .
45(4) . . .
40(4) . . .
36.5(32) . . .
45(4) . . .
27.8(28) . . .
43(4) . . .
34.4(30) . . .
37.5(32) . . .
31.7(31) . . .
41(4) . . .
45(4) . . .
47(4) . . .
31.8(30) . . .
40.0(34) . . .
42(4) . . .
38.2(32) . . .
40.2(34) . . .
36.4(32) . . .
48(4) . . .
37.0(33) . . .
40(4) . . .
37.2(32) . . .
38.9(32) . . .
40.1(34) . . .
38.5(35) . . .
42.9(35) . . .
42.9(35) . . .
50(4) . . .
31.2(30) . . .
37(4) . . .
40.0(34) . . .
38.0(32) . . .
34.9(31) . . .
40.1(34) . . .
44(4) . . .
30.1(29) . . .
51(4) . . .
48(4) . . .
55(4) . . .
50(4) . . .
35.7(31) . . .
47(4) . . .
30.9(29) . . .
39.2(35) . . .
45(4) . . .
42.0(34) . . .
42.1(33) . . .
39.7(33) . . .
34.7(31) . . .
40(4) . . .
36.0(33) . . .
40.5(33) . . .
40.2(35) . . .
45(4) . . .
29.5(28) . . .
40.7(34) . . .
35.4(31) . . .
35.1(32) . . .
32.6(31) . . .
42(4) . . .
42.2(34) . . .
37.4(32) . . .
34.3(31) . . .
46(4) . . .
44.1(35) . . .
47(4) . . .
38.2(32) . . .
32.6(31) . . .
45(4) . . .
49(4) . . .
41.6(34) . . .
50(4) . . .
35.4(32) . . .
33.8(32) . . .
32.9(32) . . .
40.7(34) . . .
36.9(32) . . .
33.7(31) . . .
42(4) . . .
37.4(32) . . .
36.3(31) . . .
32.2(30) . . .
46(4) . . .
39.0(33) . . .
37.5(32) . . .
37.0(32) . . .
44(4) . . .
31.1(29) . . .
40.0(35) . . .
43(4) . . .
36.2(32) . . .
32.0(30) . . .
36.4(33) . . .
35.6(33) . . .
27.1(27) . . .
30.9(29) . . .
38.4(34) . . .
39.0(33) . . .
45(4) . . .
41.8(34) . . .
37.4(32) . . .
43.9(35) . . .
43(4) . . .
34.5(30) . . .
34.9(31) . . .
37.5(32) . . .
35.0(31) . . .
41.3(34) . . .
37.3(32) . . .
30.2(29) . . .
42.5(34) . . .
38.0(33) . . .
43(4) . . .
43(4) . . .
39.0(32) . . .
37.9(32) . . .
34.3(33) . . .
38.6(35) . . .
42(4) . . .
35.5(31) . . .
35.9(31) . . .
33.9(32) . . .
44(4) . . .
39(4) . . .
29.6(29) . . .
44.3(34) . . .
30.0(29) . . .
43(4) . . .
40(4) . . .
36.3(31) . . .
40.8(33) . . .
46(4) . . .
48(4) . . .
45(4) . . .
43.1(34) . . .
40.9(33) . . .
44(4) . . .
36.8(34) . . .
30.5(30) . . .
40.1(34) . . .
47(4) . . .
36.0(34) . . .
34.0(33) . . .
40(4) . . .
30.7(29) . . .
30.0(29) . . .
39(4) . . .
31.0(29) . . .
35.6(32) . . .
31.6(29) . . .
36.3(31) . . .
38.0(32) . . .
34.7(33) . . .
31.9(32) . . .
36.9(32) . . .
41.6(35) . . .
47(4) . . .
45(4) . . .
36.4(31) . . .
43.7(34) . . .
36.5(32) . . .
37.5(32) . . .
36.7(32) . . .
32.6(30) . . .
45.4(35) . . .
40.2(35) . . .
37(4) . . .
40.1(34) . . .
46(4) . . .
37.9(32) . . .
40.4(35) . . .
29.4(29) . . .
35.9(31) . . .
44.1(35) . . .
32.7(29) . . .
40.2(33) . . .
43.2(34) . . .
47(4) . . .
44.6(34) . . .
38.3(33) . . .
44(4) . . .
33.2(31) . . .
47(4) . . .
37.7(32) . . .
36.2(31) . . .
35.4(32) . . .
40(4) . . .
43(4) . . .
38.9(32) . . .
44.4(35) . . .
47(4) . . .
42(4) . . .
33.3(31) . . .
42.7(34) . . .
45(4) . . .
46(4) . . .
34.5(32) . . .
40.3(34) . . .
41.6(35) . . .
36.0(33) . . .
38.5(34) . . .
36.0(34) . . .
43(4) . . .
43.6(34) . . .
36.7(32) . . .
40.8(34) . . .
42(4) . . .
40.3(34) . . .
39.1(32) . . .
35.3(32) . . .
39(4) . . .
40.1(33) . . .
34.9(31) . . .
36.9(31) . . .
41(4) . . .
36.1(33) . . .
43(4) . . .
35.2(31) . . .
43.0(34) . . .
46(4) . . .
39.3(35) . . .
30.5(29) . . .
39.2(33) . . .
36.9(31) . . .
34.7(32) . . .
35.6(33) . . .
39.5(33) . . .
36.9(31) . . .
42.3(34) . . .
45(4) . . .
46(4) . . .
41.6(34) . . .
35.9(31) . . .
40.2(33) . . .
41(4) . . .
34.5(33) . . .
35.5(31) . . .
31.7(29) . . .
37.8(32) . . .
37.3(33) . . .
43(4) . . .
39.1(35) . . .
41.8(33) . . .
41.3(33) . . .
46(4) . . .
38.8(33) . . .
31.9(30) . . .
39.4(32) . . .
35.5(32) . . .
28.0(29) . . .
39.0(34) . . .
42.9(35) . . .
25.6(26) . . .
33.4(31) . . .
42(4) . . .
25.3(26) . . .
36.1(31) . . .
38.7(32) . . .
38.3(33) . . .
40(4) . . .
38(4) . . .
32.0(30) . . .
38.1(32) . . .
27.0(27) . . .
32.3(29) . . .
45(4) . . .
38.0(32) . . .
33.2(30) . . .
40.0(34) . . .
37.1(35) . . .
38.2(34) . . .
40.8(34) . . .
39.0(32) . . .
34.4(31) . . .
35.0(34) . . .
31.1(30) . . .
38.5(33) . . .
35.7(31) . . .
31.5(30) . . .
33.6(30) . . .
35.9(32) . . .
35.2(31) . . .
31.0(30) . . .
33.5(32) . . .
40(4) . . .
39.9(33) . . .
36.7(31) . . .
29.4(28) . . .
40.5(34) . . .
36.0(31) . . .
39.7(35) . . .
36.2(31) . . .
39.7(33) . . .
40(4) . . .
34.3(33) . . .
35.3(32) . . .
38.8(32) . . .
33.5(31) . . .
40(4) . . .
44(4) . . .
49(4) . . .
32.3(30) . . .
40(4) . . .
37.6(33) . . .
34.1(33) . . .
40.8(34) . . .
35.1(31) . . .
40.5(34) . . .
35.5(34) . . .
42(4) . . .
40.3(34) . . .
44.6(34) . . .
37.8(33) . . .
41(4) . . .
46(4) . . .
34.8(30) . . .
44.1(34) . . .
42.8(35) . . .
35.8(34) . . .
34.3(30) . . .
35.2(31) . . .
34.8(31) . . .
37.0(32) . . .
35.5(33) . . .
34.0(31) . . .
41.7(34) . . .
41.0(34) . . .
40.0(34) . . .
38(4) . . .
36.2(32) . . .
34.4(30) . . .
40.0(33) . . .
38.4(33) . . .
39(4) . . .
38.5(35) . . .
35.0(33) . . .
35.3(31) . . .
37.9(33) . . .
43(4) . . .
39.3(34) . . .
39.9(33) . . .
32.1(31) . . .
34.8(33) . . .
27.3(27) . . .
33.2(29) . . .
36.6(31) . . .
33.9(30) . . .
37.3(33) . . .
37.4(34) . . .
36.0(34) . . .
38.8(33) . . .
34.2(31) . . .
40(4) . . .
39(4) . . .
42(4) . . .
36.7(31) . . .
33.2(31) . . .
34.2(32) . . .
36.2(33) . . .
38.0(32) . . .
42.6(34) . . .
32.4(30) . . .
42(4) . . .
35.4(33) . . .
35.1(31) . . .
40.7(33) . . .
36.9(33) . . .
44(4) . . .
44(4) . . .
41.0(33) . . .
30.0(28) . . .
40.4(34) . . .
41(4) . . .
37.4(33) . . .
40.3(33) . . .
28.3(28) . . .
26.6(28) . . .
46(4) . . .
37.9(33) . . .
39.2(32) . . .
42.3(34) . . .
38.5(33) . . .
41(4) . . .
36.5(31) . . .
40.7(33) . . .
25.3(27) . . .
36.3(32) . . .
49(4) . . .
35.3(32) . . .
39.0(33) . . .
29.9(29) . . .
37.2(33) . . .
41.0(35) . . .
34.6(31) . . .
34.0(30) . . .
36.5(32) . . .
45(4) . . .
37.2(32) . . .
38.2(33) . . .
33.8(31) . . .
35.5(31) . . .
39(4) . . .
32.8(32) . . .
41.3(35) . . .
37.6(32) . . .
40.6(35) . . .
36.6(33) . . .
30.6(30) . . .
39(4) . . .
39.0(32) . . .
34.2(32) . . .
37.5(33) . . .
39.6(34) . . .
41.4(34) . . .
33.8(31) . . .
36.2(31) . . .
34.7(31) . . .
31.4(28) . . .
49(4) . . .
35.9(31) . . .
36(4) . . .
38(4) . . .
38.6(33) . . .
45.6(35) . . .
32.7(30) . . .
38.3(34) . . .
37.2(35) . . .
42.2(34) . . .
51(4) . . .
43.9(34) . . .
35.8(31) . . .
35.7(34) . . .
36.4(33) . . .
33.7(30) . . .
36.3(32) . . .
36.6(32) . . .
49(4) . . .
52(4) . . .
46(4) . . .
32.0(29) . . .
39.2(34) . . .
45(4) . . .
39.5(34) . . .
35.0(31) . . .
33.0(31) . . .
41.6(35) . . .
41(4) . . .
44(4) . . .
34.7(31) . . .
38.6(33) . . .
41.6(34) . . .
40.5(34) . . .
41.0(35) . . .
32.2(30) . . .
35.5(32) . . .
34.1(31) . . .
41(4) . . .
38.4(32) . . .
34.1(30) . . .
33.0(30) . . .
44(4) . . .
36.2(33) . . .
37.3(32) . . .
36.7(31) . . .
42.0(35) . . .
44(4) . . .
31.3(31) . . .
41.5(35) . . .
44.2(35) . . .
37.5(33) . . .
39.1(35) . . .
35.6(31) . . .
36.0(31) . . .
34.5(31) . . .
39.5(34) . . .
37.9(35) . . .
36.0(32) . . .
37.6(32) . . .
39.1(33) . . .
40(4) . . .
35.4(34) . . .
37.5(33) . . .
31.6(29) . . .
41.4(33) . . .
47(4) . . .
37.2(34) . . .
42(4) . . .
37.9(32) . . .
40.5(34) . . .
42.5(35) . . .
40(4) . . .
35.7(33) . . .
45.1(35) . . .
34.7(31) . . .
56(4) . . .
40.8(34) . . .
45(4) . . .
40.8(33) . . .
30.8(29) . . .
45(4) . . .
42.3(33) . . .
38.1(32) . . .
36.2(32) . . .
41.8(34) . . .
41(4) . . .
39(4) . . .
43.9(35) . . .
33.1(30) . . .
34.3(31) . . .
37.1(32) . . .
46(4) . . .
38.4(34) . . .
29.6(29) . . .
39.0(33) . . .
40.2(34) . . .
34.7(30) . . .
40.6(33) . . .
38.2(32) . . .
43(4) . . .
37.5(34) . . .
31.9(29) . . .
33.7(31) . . .
36.4(32) . . .
38.9(33) . . .
52(4) . . .
40.1(34) . . .
41.8(34) . . .
34.0(30) . . .
38.4(33) . . .
38.3(34) . . .
45(4) . . .
31.6(29) . . .
45.7(35) . . .
36.8(32) . . .
36.3(33) . . .
37.6(33) . . .
36.8(32) . . .
40.1(33) . . .
37.0(33) . . .
35.2(32) . . .
44(4) . . .
42.8(35) . . .
30.3(29) . . .
40.3(35) . . .
37.4(32) . . .
35.3(33) . . .
43.3(35) . . .
45(4) . . .
43(4) . . .
35.2(32) . . .
43(4) . . .
47(4) . . .
52(4) . . .
46(4) . . .
46(4) . . .
38.5(33) . . .
35.0(31) . . .
33.8(32) . . .
41.3(34) . . .
37.3(32) . . .
43.3(34) . . .
38.5(32) . . .
42.0(34) . . .
40.5(33) . . .
38.8(34) . . .
38.2(34) . . .
37.0(32) . . .
41(4) . . .
37.1(33) . . .
45(4) . . .
36.9(32) . . .
42.4(34) . . .
34.2(31) . . .
36(4) . . .
36.2(33) . . .
37.5(32) . . .
43.0(34) . . .
42.2(35) . . .
41(4) . . .
35.0(32) . . .
35.7(31) . . .
46(4) . . .
42.0(35) . . .
30.3(30) . . .
36.5(34) . . .
33.7(30) . . .
38.4(33) . . .
38.6(33) . . .
41(4) . . .
39.3(33) . . .
34.4(30) . . .
31.7(29) . . .
41(4) . . .
34.9(33) . . .
34.0(32) . . .
48(4) . . .
41.6(33) . . .
38.4(34) . . .
36.5(34) . . .
36.7(31) . . .
39.5(33) . . .
37.6(33) . . .
39.4(35) . . .
46(4) . . .
35.9(31) . . .
41.0(34) . . .
42.3(34) . . .
37.5(33) . . .
42(4) . . .
32.6(31) . . .
31.7(30) . . .
44(4) . . .
35.6(34) . . .
34.8(31) . . .
36.3(32) . . .
46(4) . . .
47(4) . . .
37.5(33) . . .
34.4(31) . . .
33.4(30) . . .
27.6(28) . . .
31.9(31) . . .
38(4) . . .
28.8(30) . . .
37.1(32) . . .
43.0(34) . . .
44.1(35) . . .
46(4) . . .
36.4(32) . . .
37.9(32) . . .
34.9(30) . . .
43(4) . . .
40.6(35) . . .
38.1(33) . . .
41.6(33) . . .
41.7(34) . . .
39.3(34) . . .
35.4(33) . . .
36.4(32) . . .
38.4(32) . . .
33.3(31) . . .
37.3(33) . . .
41(4) . . .
35.6(32) . . .
35.2(31) . . .
35.4(30) . . .
36.1(33) . . .
30.7(30) . . .
36.6(33) . . .
28.2(28) . . .
34.3(31) . . .
37.2(33) . . .
34.5(32) . . .
35.0(30) . . .
40.2(33) . . .
41.6(34) . . .
37.8(33) . . .
40.1(35) . . .
39.5(34) . . .
33.2(30) . . .
41(4) . . .
32.6(31) . . .
37(4) . . .
38.5(33) . . .
36.6(31) . . .
35.7(31) . . .
33.3(31) . . .
32.8(32) . . .
43(4) . . .
41.6(34) . . .
39.0(33) . . .
38.4(35) . . .
41(4) . . .
40.3(33) . . .
40.3(33) . . .
34.0(33) . . .
36.2(34) . . .
42(4) . . .
39.7(33) . . .
37.2(32) . . .
29.3(29) . . .
43(4) . . .
49(4) . . .
43.8(35) . . .
35.5(31) . . .
40.9(33) . . .
45(4) . . .
36.6(32) . . .
39.8(33) . . .
35.5(32) . . .
35.7(32) . . .
38.4(34) . . .
29.7(27) . . .
37.3(31) . . .
37.2(31) . . .
38.2(33) . . .
36.7(33) . . .
38.1(33) . . .
43.0(34) . . .
38.3(32) . . .
42(4) . . .
43(4) . . .
28.4(28) . . .
35.9(31) . . .
41.8(35) . . .
42(4) . . .
34.7(33) . . .
36.8(32) . . .
37.1(32) . . .
33.5(30) . . .
35.8(32) . . .
30.2(29) . . .
36.3(32) . . .
39.8(33) . . .
41.3(34) . . .
35.4(32) . . .
41.3(35) . . .
41.9(35) . . .
30.3(29) . . .
29.8(29) . . .
38.4(34) . . .
43(4) . . .
29.4(28) . . .
37.2(32) . . .
32.7(29) . . .
37.4(31) . . .
44.2(34) . . .
35.9(31) . . .
34.6(31) . . .
35.5(33) . . .
39.3(35) . . .
37.8(33) . . .
50(4) . . .
37.9(32) . . .
37.3(33) . . .
37.7(33) . . .
38.1(32) . . .
36.2(31) . . .
34.2(30) . . .
38.9(33) . . .
33.6(33) . . .
37.8(34) . . .
45.2(35) . . .
40.5(33) . . .
44(4) . . .
43(4) . . .
38.0(34) . . .
36.3(32) . . .
42.1(35) . . .
41.6(34) . . .
38.4(33) . . .
33.8(31) . . .
45(4) . . .
38.3(33) . . .
37.5(33) . . .
35.0(32) . . .
33.1(31) . . .
35.6(31) . . .
34.7(31) . . .
36.9(33) . . .
41.0(35) . . .
41(4) . . .
36.6(31) . . .
30.6(29) . . .
44(4) . . .
51(4) . . .
40.5(34) . . .
36.6(31) . . .
28.9(29) . . .
30.5(31) . . .
34.3(32) . . .
41.9(34) . . .
43.2(34) . . .
44(4) . . .
50(4) . . .
43.1(33) . . .
43(4) . . .
37.3(32) . . .
38.0(32) . . .
33.3(32) . . .
43(4) . . .
47(4) . . .
38.6(32) . . .
31.6(31) . . .
34.5(31) . . .
31.2(29) . . .
31.4(29) . . .
40.4(34) . . .
39.5(33) . . .
36.7(35) . . .
39.7(34) . . .
41.0(33) . . .
45(4) . . .
36.3(32) . . .
38(4) . . .
37.2(35) . . .
36.1(31) . . .
35.4(32) . . .
38.4(33) . . .
39.9(35) . . .
43(4) . . .
38.3(32) . . .
37.8(32) . . .
35.5(32) . . .
34.5(31) . . .
52(4) . . .
42.5(34) . . .
36.5(33) . . .
36.7(33) . . .
41(4) . . .
38.3(35) . . .
54(4) . . .
40.3(34) . . .
41.2(34) . . .
39.0(35) . . .
39.7(33) . . .
39.5(33) . . .
29.9(29) . . .
41(4) . . .
36.7(33) . . .
32.0(30) . . .
37.1(32) . . .
38.8(34) . . .
33.6(31) . . .
37.7(33) . . .
37.7(32) . . .
35.9(31) . . .
47(4) . . .
55(4) . . .
51(4) . . .
33.6(30) . . .
40.0(32) . . .
34.3(31) . . .
30.7(31) . . .
40(4) . . .
33.7(30) . . .
34.8(30) . . .
38.8(33) . . .
38.3(35) . . .
40.6(35) . . .
34.8(30) . . .
34.9(30) . . .
37.7(32) . . .
46(4) . . .
36.5(31) . . .
46(4) . . .
41.1(33) . . .
34.5(31) . . .
29.4(31) . . .
39.0(35) . . .
28.3(27) . . .
34.5(32) . . .
42(4) . . .
35.0(32) . . .
39.0(35) . . .
32.5(30) . . .
33.1(30) . . .
34.3(32) . . .
42(4) . . .
43(4) . . .
35.9(31) . . .
43.1(35) . . .
36.5(31) . . .
42(4) . . .
34.4(32) . . .
35.3(31) . . .
32.0(31) . . .
28.0(28) . . .
33.6(32) . . .
30.4(28) . . .
36.8(31) . . .
37.0(35) . . .
39.8(33) . . .
45.1(35) . . .
44.0(34) . . .
37.8(32) . . .
44(4) . . .
36.4(33) . . .
32.3(31) . . .
31.5(29) . . .
31.0(29) . . .
47(4) . . .
43(4) . . .
36.9(33) . . .
40.5(33) . . .
23.0(25) . . .
31.9(30) . . .
44(4) . . .
44(4) . . .
39.6(33) . . .
30.2(29) . . .
39.5(34) . . .
33.7(33) . . .
33.6(32) . . .
32.3(30) . . .
41.5(34) . . .
40.6(35) . . .
44(4) . . .
34.7(33) . . .
36.7(33) . . .
41.6(34) . . .
36.0(32) . . .
33.2(33) . . .
39.0(33) . . .
37.3(32) . . .
39.0(34) . . .
33.1(30) . . .
37.8(32) . . .
38.3(33) . . .
35.4(31) . . .
33.7(31) . . .
34.5(32) . . .
30.2(30) . . .
33.6(31) . . .
30.9(29) . . .
46(4) . . .
42.0(33) . . .
46(4) . . .
41.9(35) . . .
42.3(34) . . .
41.5(34) . . .
34.1(31) . . .
35.8(34) . . .
37.6(32) . . .
36.9(32) . . .
35.6(34) . . .
34.8(33) . . .
29.0(28) . . .
43.3(34) . . .
40.9(33) . . .
30.7(29) . . .
37.8(34) . . .
45(4) . . .
44.1(34) . . .
40(4) . . .
35.1(31) . . .
46(4) . . .
38.4(33) . . .
38.4(33) . . .
36.0(32) . . .
34.5(32) . . .
34.5(32) . . .
38.3(34) . . .
39.7(33) . . .
39.2(33) . . .
35.3(32) . . .
40.0(35) . . .
41(4) . . .
36.7(32) . . .
34.8(31) . . .
41.3(34) . . .
46(4) . . .
38.9(34) . . .
31.3(30) . . .
37.2(32) . . .
42(4) . . .
39.8(35) . . .
35.9(32) . . .
37.9(32) . . .
35.2(32) . . .
29.9(30) . . .
32.8(32) . . .
41(4) . . .
35.6(31) . . .
43.0(34) . . .
34.4(32) . . .
31.5(30) . . .
36.2(32) . . .
41.7(33) . . .
38.2(34) . . .
37.6(33) . . .
43(4) . . .
47(4) . . .
35.6(31) . . .
36.0(31) . . .
39(4) . . .
41(4) . . .
42(4) . . .
36.3(31) . . .
30.7(29) . . .
39(4) . . .
31.2(32) . . .
25.9(27) . . .
38.3(32) . . .
33.7(30) . . .
43(4) . . .
42.0(34) . . .
32.2(30) . . .
35.2(31) . . .
36.3(32) . . .
35.8(31) . . .
44(4) . . .
41.2(33) . . .
40.8(35) . . .
34.1(31) . . .
36.9(34) . . .
43(4) . . .
36.7(31) . . .
33.2(31) . . .
35.3(33) . . .
27.7(30) . . .
42(4) . . .
39.6(33) . . .
35.6(33) . . .
43.3(35) . . .
42.5(35) . . .
31.6(29) . . .
36.2(32) . . .
46(4) . . .
35.8(32) . . .
37.9(32) . . .
42(4) . . .
41.4(33) . . .
41.4(34) . . .
41(4) . . .
42.8(35) . . .
35.2(31) . . .
36.4(31) . . .
36.3(32) . . .
34.4(31) . . .
41.7(35) . . .
44(4) . . .
34.3(30) . . .
33.4(31) . . .
35.4(32) . . .
38.3(33) . . .
35.6(31) . . .
31.7(29) . . .
33.2(31) . . .
33.9(32) . . .
35.9(32) . . .
40.2(34) . . .
45(4) . . .
38.7(33) . . .
35.4(33) . . .
35.0(32) . . .
34.8(31) . . .
34.6(32) . . .
34.5(32) . . .
45(4) . . .
40.5(34) . . .
37.5(32) . . .
34.4(30) . . .
33.9(32) . . .
37.1(35) . . .
33.7(31) . . .
39.5(33) . . .
34.9(30) . . .
34.7(30) . . .
42.1(35) . . .
44(4) . . .
38.2(32) . . .
42.3(34) . . .
43.3(33) . . .
35.6(31) . . .
40.7(35) . . .
31.4(29) . . .
32.3(31) . . .
38(4) . . .
33.2(31) . . .
34.4(31) . . .
43.9(34) . . .
34.2(32) . . .
36.7(34) . . .
34.7(31) . . .
37.8(32) . . .
33.8(31) . . .
40(4) . . .
39.5(33) . . .
40.0(32) . . .
36.8(31) . . .
39.4(33) . . .
38.2(33) . . .
46(4) . . .
44.6(34) . . .
45(4) . . .
35.9(31) . . .
39.3(33) . . .
42(4) . . .
41.7(34) . . .
39.4(32) . . .
35.1(31) . . .
42(4) . . .
29.5(29) . . .
29.8(28) . . .
35.7(32) . . .
29.8(29) . . .
35.9(33) . . .
40(4) . . .
30.4(31) . . .
33.8(30) . . .
36.5(31) . . .
35.4(32) . . .
45(4) . . .
38.1(33) . . .
39.2(32) . . .
35.5(31) . . .
40.8(34) . . .
42(4) . . .
33.1(30) . . .
27.7(27) . . .
37.2(34) . . .
40.9(34) . . .
39.6(34) . . .
40.3(34) . . .
38.1(32) . . .
35.3(31) . . .
41.0(34) . . .
36.1(33) . . .
37.2(32) . . .
39.9(33) . . .
42.2(34) . . .
42.7(35) . . .
34.1(31) . . .
38.2(33) . . .
42.9(34) . . .
39.1(35) . . .
40.2(35) . . .
31.8(29) . . .
46(4) . . .
38.1(32) . . .
32.5(31) . . .
43(4) . . .
36.5(34) . . .
41.2(34) . . .
42.4(34) . . .
41.5(35) . . .
45(4) . . .
42(4) . . .
36.0(31) . . .
35.1(31) . . .
33.5(31) . . .
31.5(31) . . .
38.9(35) . . .
39.6(34) . . .
36.3(31) . . .
38.5(32) . . .
40.8(35) . . .
32.3(29) . . .
40.9(34) . . .
30.1(29) . . .
36.5(33) . . .
28.9(29) . . .
33.2(30) . . .
34.1(30) . . .
34.6(31) . . .
35.4(31) . . .
37.5(33) . . .
39(4) . . .
37.4(31) . . .
38.1(34) . . .
33.1(31) . . .
33.9(31) . . .
38.3(33) . . .
36.7(32) . . .
30.8(30) . . .
39.5(35) . . .
36.0(31) . . .
38.7(33) . . .
30.8(28) . . .
43.6(35) . . .
41(4) . . .
37.4(34) . . .
42.6(35) . . .
42.1(34) . . .
35.7(33) . . .
30.9(31) . . .
31.5(33) . . .
28.2(28) . . .
34.5(31) . . .
33.1(30) . . .
44(4) . . .
32.8(31) . . .
32.2(33) . . .
41.5(33) . . .
48(4) . . .
38.7(34) . . .
35.8(31) . . .
35.5(31) . . .
34.7(30) . . .
35.9(31) . . .
38(4) . . .
40.7(35) . . .
33.1(30) . . .
33.5(30) . . .
41.7(35) . . .
42(4) . . .
33.8(29) . . .
43.7(34) . . .
30.8(29) . . .
37.1(32) . . .
42(4) . . .
43(4) . . .
40.2(33) . . .
33.6(31) . . .
40.1(34) . . .
34.8(33) . . .
37.5(34) . . .
37.2(32) . . .
27.8(27) . . .
34.2(32) . . .
34.5(32) . . .
36.5(34) . . .
33.3(31) . . .
32.0(29) . . .
38.6(34) . . .
39.2(34) . . .
37.9(32) . . .
40.6(33) . . .
36.8(32) . . .
32.2(30) . . .
44(4) . . .
42.5(34) . . .
41.6(33) . . .
33.3(31) . . .
37(4) . . .
31.4(32) . . .
41(4) . . .
27.8(27) . . .
37.1(33) . . .
36.9(33) . . .
40.0(33) . . .
33.7(30) . . .
40.7(33) . . .
34.5(34) . . .
37.3(34) . . .
36.9(33) . . .
37.5(32) . . .
49(4) . . .
39.2(32) . . .
33.0(30) . . .
43(4) . . .
40.5(33) . . .
41.9(34) . . .
30.5(31) . . .
29.3(29) . . .
36.3(34) . . .
41(4) . . .
41.8(33) . . .
40(4) . . .
35.9(34) . . .
32.3(29) . . .
38.3(32) . . .
39.7(33) . . .
37.8(35) . . .
35.1(32) . . .
32.9(31) . . .
40.4(34) . . .
35.0(30) . . .
27.6(27) . . .
25.9(27) . . .
43(4) . . .
42.4(34) . . .
26.9(27) . . .
38.5(34) . . .
38.4(34) . . .
32.0(30) . . .
38.2(32) . . .
36.1(31) . . .
39.3(33) . . .
38.8(35) . . .
41.9(34) . . .
37.1(32) . . .
39.7(34) . . .
32.1(30) . . .
30.7(30) . . .
47(4) . . .
36.3(31) . . .
39(4) . . .
31.8(32) . . .
37.6(34) . . .
39.0(33) . . .
36.3(31) . . .
29.7(29) . . .
41.9(35) . . .
39.4(33) . . .
40.8(33) . . .
42.3(34) . . .
41.4(34) . . .
37.9(34) . . .
35.9(32) . . .
41.2(33) . . .
43(4) . . .
38.8(34) . . .
34.1(32) . . .
40.6(34) . . .
41.0(33) . . .
32.7(31) . . .
33.6(31) . . .
32.7(32) . . .
37.1(33) . . .
41.9(33) . . .
50(4) . . .
40.5(34) . . .
35.8(32) . . .
39.1(35) . . .
39.3(33) . . .
34.1(30) . . .
35.3(32) . . .
31.6(31) . . .
37.8(32) . . .
47(4) . . .
42.7(34) . . .
46(4) . . .
35.3(34) . . .
28.7(30) . . .
35.4(31) . . .
37.0(32) . . .
38.3(33) . . .
39.0(34) . . .
45(4) . . .
33.4(30) . . .
33.8(30) . . .
46(4) . . .
43(4) . . .
35.7(32) . . .
37.1(31) . . .
38.3(33) . . .
33.7(30) . . .
33.3(29) . . .
37.6(34) . . .
40.4(33) . . .
39.5(34) . . .
38(4) . . .
33.9(33) . . .
34.2(31) . . .
33.4(30) . . .
39.9(34) . . .
30.8(31) . . .
38(4) . . .
34.5(31) . . .
35.4(31) . . .
43.3(35) . . .
41(4) . . .
34.1(32) . . .
39.9(34) . . .
32.9(30) . . .
40(4) . . .
39(4) . . .
42(4) . . .
40.8(33) . . .
32.5(29) . . .
33.8(32) . . .
38.4(35) . . .
35.9(32) . . .
31.0(29) . . .
36.9(32) . . .
35.8(34) . . .
28.8(29) . . .
33.4(32) . . .
38.0(33) . . .
37.3(31) . . .
27.8(27) . . .
38.8(32) . . .
41.6(34) . . .
29.7(28) . . .
31.3(30) . . .
34.1(32) . . .
28.3(28) . . .
38.2(33) . . .
31.2(29) . . .
39.7(34) . . .
33.2(31) . . .
33.0(33) . . .
36.0(33) . . .
30.3(29) . . .
40.6(35) . . .
39.0(34) . . .
28.6(28) . . .
39.7(33) . . .
34.8(30) . . .
27.4(27) . . .
26.6(28) . . .
34.0(31) . . .
36.5(32) . . .
35.8(31) . . .
44(4) . . .
38.6(35) . . .
38.7(32) . . .
40.4(34) . . .
36.6(31) . . .
36.8(34) . . .
30.5(30) . . .
39.7(34) . . .
36.7(32) . . .
35.2(31) . . .
33.9(31) . . .
45(4) . . .
32.3(29) . . .
44.4(35) . . .
33.5(30) . . .
41(4) . . .
38.0(35) . . .
33.5(31) . . .
31.4(29) . . .
30.1(30) . . .
38.6(32) . . .
37.7(33) . . .
31.5(30) . . .
36.1(31) . . .
32.4(30) . . .
36.3(32) . . .
35.5(32) . . .
45(4) . . .
39.7(33) . . .
36.8(32) . . .
39.2(35) . . .
31.5(30) . . .
42.6(35) . . .
30.9(29) . . .
45.3(35) . . .
41(4) . . .
30.5(29) . . .
34.7(31) . . .
38.1(32) . . .
29.0(28) . . .
34.4(32) . . .
42(4) . . .
39.7(34) . . .
37.0(32) . . .
33.1(30) . . .
33.5(31) . . .
37.7(32) . . .
33.5(30) . . .
37.4(32) . . .
40.5(33) . . .
45(4) . . .
40.0(33) . . .
39.1(33) . . .
42.4(34) . . .
37.1(33) . . .
41(4) . . .
41(4) . . .
35.3(30) . . .
32.9(30) . . .
34.6(32) . . .
29.7(31) . . .
26.5(27) . . .
32.7(30) . . .
25.0(26) . . .
27.9(29) . . .
28.7(29) . . .
31.9(30) . . .
33.4(30) . . .
39.8(32) . . .
40.1(34) . . .
42(4) . . .
35.4(31) . . .
40.3(32) . . .
42.7(34) . . .
45(4) . . .
34.9(30) . . .
37.2(32) . . .
34.4(31) . . .
39.0(33) . . .
44(4) . . .
46(4) . . .
36.2(32) . . .
39.5(33) . . .
41.6(34) . . .
38.8(34) . . .
31.1(30) . . .
34.8(31) . . .
31.2(29) . . .
37.5(33) . . .
44(4) . . .
32.2(32) . . .
30.5(29) . . .
25.8(27) . . .
32.7(32) . . .
36.2(35) . . .
43(4) . . .
38.2(32) . . .
43.4(34) . . .
35.2(34) . . .
29.5(30) . . .
30.5(28) . . .
35.9(32) . . .
41.9(33) . . .
34.8(31) . . .
35.0(33) . . .
38.4(35) . . .
43(4) . . .
29.8(30) . . .
29.7(29) . . .
37.8(35) . . .
36.3(32) . . .
35.5(31) . . .
41.0(33) . . .
31.5(29) . . .
39.4(35) . . .
35.6(33) . . .
40.8(33) . . .
42.8(34) . . .
39.2(33) . . .
39.8(34) . . .
42.4(34) . . .
31.9(29) . . .
34.0(30) . . .
45(4) . . .
35.3(34) . . .
36.0(32) . . .
33.8(30) . . .
29.8(29) . . .
36.1(34) . . .
42(4) . . .
35.2(31) . . .
33.5(30) . . .
32.4(31) . . .
37.9(33) . . .
46(4) . . .
40(4) . . .
34.9(31) . . .
36.0(33) . . .
37.1(33) . . .
36.2(32) . . .
35.1(31) . . .
37.4(32) . . .
35.5(31) . . .
33.7(32) . . .
45(4) . . .
36.6(32) . . .
36.2(31) . . .
26.1(26) . . .
37.7(35) . . .
34.3(31) . . .
39.0(33) . . .
31.8(30) . . .
34.6(31) . . .
40(4) . . .
36.4(34) . . .
34.2(31) . . .
42.7(34) . . .
39.7(35) . . .
41(4) . . .
33.7(30) . . .
34.0(30) . . .
41.1(34) . . .
38.0(34) . . .
29.4(31) . . .
31.1(30) . . .
35.5(31) . . .
33.7(30) . . .
44(4) . . .
38(4) . . .
38.2(33) . . .
36.4(31) . . .
29.6(28) . . .
37.5(33) . . .
41(4) . . .
41(4) . . .
47(4) . . .
40.5(35) . . .
36.5(34) . . .
47(4) . . .
42(4) . . .
41.3(34) . . .
44(4) . . .
38.9(34) . . .
34.3(30) . . .
40.1(33) . . .
32.1(30) . . .
35.0(34) . . .
38.5(34) . . .
43(4) . . .
40(4) . . .
40.2(33) . . .
46(4) . . .
38.8(35) . . .
32.8(32) . . .
39.3(33) . . .
33.9(31) . . .
40.8(34) . . .
41.2(35) . . .
36.5(32) . . .
40.1(33) . . .
52(4) . . .
32.8(30) . . .
32.0(32) . . .
31.8(30) . . .
40.2(34) . . .
41.5(34) . . .
42(4) . . .
35.1(31) . . .
38.5(33) . . .
27.4(28) . . .
39.9(33) . . .
45(4) . . .
40(4) . . .
39.3(33) . . .
50(4) . . .
35.7(33) . . .
43(4) . . .
33.8(32) . . .
32.5(31) . . .
29.0(28) . . .
29.8(29) . . .
36.5(34) . . .
31.4(32) . . .
29.3(29) . . .
30.5(29) . . .
37.5(32) . . .
39.0(34) . . .
33.9(31) . . .
40.4(33) . . .
41.3(34) . . .
38.1(33) . . .
33.0(32) . . .
36.4(34) . . .
34.5(33) . . .
37.5(32) . . .
34.0(31) . . .
45(4) . . .
33.9(33) . . .
41.9(34) . . .
38.8(33) . . .
32.8(32) . . .
28.0(29) . . .
37.5(34) . . .
39.9(34) . . .
40.0(33) . . .
37.8(32) . . .
40.1(35) . . .
40.3(34) . . .
39.1(32) . . .
40.3(33) . . .
37.6(33) . . .
29.0(27) . . .
36.9(32) . . .
38.9(32) . . .
38.9(33) . . .
33.6(32) . . .
32.9(33) . . .
32.2(31) . . .
36.2(33) . . .
26.8(27) . . .
43(4) . . .
40(4) . . .
46(4) . . .
39.0(33) . . .
30.7(30) . . .
36.6(34) . . .
35.3(35) . . .
34.8(32) . . .
41.2(33) . . .
31.4(30) . . .
33.0(31) . . .
38.4(33) . . .
43(4) . . .
44(4) . . .
28.2(27) . . .
29.1(28) . . .
39.7(33) . . .
42.9(35) . . .
36.7(31) . . .
30.0(30) . . .
40.0(35) . . .
33.0(32) . . .
33.8(33) . . .
33.6(30) . . .
34.6(32) . . .
40.2(33) . . .
43(4) . . .
36.9(33) . . .
46(4) . . .
38.3(33) . . .
32.7(32) . . .
36.0(33) . . .
32.0(32) . . .
32.0(30) . . .
34.6(33) . . .
30.1(29) . . .
35.2(33) . . .
36.3(32) . . .
35.8(31) . . .
34.1(30) . . .
43(4) . . .
43.1(35) . . .
32.7(31) . . .
43.9(35) . . .
33.1(30) . . .
43(4) . . .
38.4(35) . . .
40.2(34) . . .
32.4(30) . . .
38.8(34) . . .
36.3(33) . . .
35.9(32) . . .
32.3(30) . . .
38.2(32) . . .
33.9(32) . . .
38(4) . . .
42(4) . . .
29.4(28) . . .
36.4(32) . . .
37.6(35) . . .
33.2(33) . . .
33.8(31) . . .
40.2(34) . . .
34.6(30) . . .
35.5(32) . . .
27.3(29) . . .
38.5(34) . . .
32.2(30) . . .
39.1(33) . . .
47(4) . . .
52(4) . . .
36.7(32) . . .
27.9(27) . . .
39.6(33) . . .
46(4) . . .
33.6(31) . . .
27.9(28) . . .
33.5(31) . . .
37.9(32) . . .
36.2(34) . . .
33.8(32) . . .
48(4) . . .
41.8(33) . . .
30.5(29) . . .
35.2(34) . . .
32.4(30) . . .
45(4) . . .
32.0(29) . . .
36.6(32) . . .
46(4) . . .
42.5(34) . . .
42.6(35) . . .
36.3(32) . . .
48(4) . . .
38.8(34) . . .
33.2(31) . . .
39.6(33) . . .
36.1(32) . . .
40(4) . . .
32.5(32) . . .
35.0(34) . . .
36.5(31) . . .
38.3(32) . . .
32.2(31) . . .
36.8(34) . . .
32.8(30) . . .
43.3(34) . . .
47.0(35) . . .
38.8(33) . . .
43(4) . . .
34.0(34) . . .
36.7(31) . . .
38.1(34) . . .
32.6(31) . . .
41(4) . . .
31.9(32) . . .
36.9(31) . . .
34.2(31) . . .
34.9(32) . . .
36.5(33) . . .
32.2(32) . . .
39.6(33) . . .
43.6(35) . . .
34.8(31) . . .
33.2(30) . . .
30.5(29) . . .
39.6(33) . . .
30.9(29) . . .
26.1(26) . . .
37.1(35) . . .
34.5(32) . . .
40.8(34) . . .
34.6(32) . . .
41(4) . . .
33.2(31) . . .
32.9(31) . . .
36.4(31) . . .
38.1(34) . . .
33.3(32) . . .
38.0(33) . . .
32.4(30) . . .
41.1(33) . . .
34.5(31) . . .
36.9(34) . . .
32.2(31) . . .
36.9(31) . . .
40.4(33) . . .
33.1(31) . . .
36(4) . . .
34.2(32) . . .
32.8(30) . . .
28.9(28) . . .
39.8(33) . . .
33.7(30) . . .
40.3(33) . . .
34.5(33) . . .
30.0(29) . . .
30.6(28) . . .
27.4(27) . . .
34.1(31) . . .
40.2(33) . . .
40.6(33) . . .
47(4) . . .
36.2(34) . . .
34.4(32) . . .
30.9(29) . . .
26.8(27) . . .
38.5(34) . . .
26.4(28) . . .
33.1(31) . . .
29.8(29) . . .
34.5(30) . . .
33.2(30) . . .
40(4) . . .
35.3(33) . . .
26.0(27) . . .
36.6(32) . . .
34.0(29) . . .
43(4) . . .
43(4) . . .
37.7(33) . . .
38.6(32) . . .
30.3(29) . . .
38.8(34) . . .
31.0(29) . . .
34.7(30) . . .
35.1(32) . . .
31.4(29) . . .
31.9(30) . . .
33.8(30) . . .
39.2(33) . . .
39.2(33) . . .
37.2(33) . . .
42(4) . . .
27.3(27) . . .
35.0(31) . . .
39.1(34) . . .
35.9(32) . . .
30.9(29) . . .
39.0(32) . . .
40.1(33) . . .
31.4(32) . . .
28.9(28) . . .
34.2(30) . . .
40.8(33) . . .
39.2(33) . . .
31.3(32) . . .
41(4) . . .
36.0(31) . . .
40.8(34) . . .
32.0(29) . . .
31.7(30) . . .
38.7(34) . . .
38.0(33) . . .
28.1(27) . . .
33.1(30) . . .
37.3(33) . . .
44(4) . . .
36.3(32) . . .
31.4(29) . . .
26.6(28) . . .
37.9(33) . . .
30.4(31) . . .
32.8(32) . . .
38.8(32) . . .
38.6(32) . . .
38.6(33) . . .
34.0(31) . . .
29.1(28) . . .
36.8(31) . . .
33.7(30) . . .
31.8(30) . . .
46(4) . . .
36.0(33) . . .
34.8(31) . . .
42(4) . . .
37.1(32) . . .
26.8(27) . . .
40.5(35) . . .
32.1(30) . . .
28.1(29) . . .
30.8(31) . . .
34.1(32) . . .
25.7(26) . . .
32.5(29) . . .
26.2(27) . . .
36.8(33) . . .
35.5(31) . . .
33.6(31) . . .
31.8(30) . . .
44(4) . . .
38.5(33) . . .
35.5(31) . . .
33.9(30) . . .
35.3(32) . . .
38.0(33) . . .
39(4) . . .
28.9(28) . . .
31.9(29) . . .
32.8(30) . . .
31.2(29) . . .
33.9(31) . . .
29.5(28) . . .
31.6(29) . . .
40.1(33) . . .
43(4) . . .
38.8(34) . . .
33.5(32) . . .
33.4(31) . . .
32.0(30) . . .
37.5(34) . . .
35.5(34) . . .
43(4) . . .
27.4(28) . . .
34.1(30) . . .
37.4(34) . . .
41.3(35) . . .
46(4) . . .
38.7(33) . . .
32.0(31) . . .
44(4) . . .
41(4) . . .
33.7(30) . . .
24.9(27) . . .
43(4) . . .
39.0(33) . . .
39.9(33) . . .
34.9(32) . . .
38.6(32) . . .
39.0(34) . . .
39.1(34) . . .
34.7(30) . . .
44.5(35) . . .
38.5(32) . . .
42.4(35) . . .
33.2(31) . . .
41(4) . . .
42.8(34) . . .
31.9(29) . . .
31.6(29) . . .
34.7(31) . . .
42(4) . . .
40.6(35) . . .
32.1(29) . . .
31.3(29) . . .
35(4) . . .
35.1(31) . . .
33.5(30) . . .
33.4(30) . . .
28.8(27) . . .
29.3(30) . . .
48(4) . . .
38.0(32) . . .
34.4(31) . . .
31.9(29) . . .
36.3(32) . . .
26.0(26) . . .
33.6(30) . . .
42.3(34) . . .
37.5(31) . . .
37.3(33) . . .
39.1(33) . . .
42.9(34) . . .
39.5(33) . . .
38.2(32) . . .
33.9(33) . . .
32.4(32) . . .
38.2(32) . . .
37.4(33) . . .
33.1(33) . . .
37.3(34) . . .
29.6(28) . . .
30.0(29) . . .
37.0(33) . . .
39.1(34) . . .
33.3(31) . . .
38.4(32) . . .
38.6(32) . . .
46(4) . . .
34.1(32) . . .
30.5(30) . . .
36.0(32) . . .
35.1(30) . . .
34.6(32) . . .
33.5(30) . . .
41(4) . . .
29.4(29) . . .
35.6(31) . . .
34.6(31) . . .
43(4) . . .
33.8(31) . . .
39.0(33) . . .
35.2(31) . . .
42(4) . . .
36.6(31) . . .
40.0(33) . . .
32.4(29) . . .
41.1(35) . . .
42(4) . . .
46(4) . . .
33.5(31) . . .
33.5(30) . . .
39.5(34) . . .
32.7(30) . . .
33.1(33) . . .
32.8(33) . . .
31.6(30) . . .
33.0(30) . . .
31.2(31) . . .
34.0(33) . . .
42(4) . . .
39.4(32) . . .
36.7(32) . . .
42(4) . . .
46(4) . . .
42.0(35) . . .
37.3(32) . . .
41(4) . . .
38.3(35) . . .
33.1(33) . . .
28.5(29) . . .
27.0(27) . . .
33.7(31) . . .
44(4) . . .
35.8(32) . . .
27.0(29) . . .
31.8(30) . . .
41(4) . . .
46(4) . . .
40.4(35) . . .
39.2(34) . . .
38.2(32) . . .
33.4(30) . . .
37.4(35) . . .
40(4) . . .
41.0(33) . . .
40.3(34) . . .
42(4) . . .
34.0(31) . . .
33.7(32) . . .
25.2(26) . . .
36.3(32) . . .
34.5(31) . . .
35.1(33) . . .
36.4(33) . . .
28.4(27) . . .
38.5(33) . . .
43(4) . . .
42(4) . . .
38.9(33) . . .
31.8(29) . . .
35.3(33) . . .
39.0(33) . . .
33.4(31) . . .
38.5(32) . . .
41.9(34) . . .
35.0(31) . . .
36.6(33) . . .
33.5(31) . . .
42(4) . . .
35.0(31) . . .
41.8(34) . . .
34.9(31) . . .
41(4) . . .
31.2(31) . . .
30.0(29) . . .
37.5(32) . . .
38.2(34) . . .
41(4) . . .
32.3(31) . . .
26.0(27) . . .
32.8(31) . . .
32.4(33) . . .
33.3(31) . . .
37.2(33) . . .
43.8(35) . . .
35.4(32) . . .
32.9(30) . . .
37.9(32) . . .
34.7(30) . . .
33.8(30) . . .
38(4) . . .
37(4) . . .
33.3(30) . . .
30.0(28) . . .
34.3(31) . . .
37.3(34) . . .
35.1(32) . . .
34.8(32) . . .
35.9(32) . . .
38.9(33) . . .
38.0(33) . . .
37.8(32) . . .
45(4) . . .
43.3(34) . . .
45(4) . . .
32.2(30) . . .
38.0(34) . . .
35.2(32) . . .
28.2(27) . . .
37.4(32) . . .
35.6(31) . . .
46(4) . . .
36.5(31) . . .
49(4) . . .
35.3(31) . . .
36.9(32) . . .
46(4) . . .
41.2(34) . . .
38.3(32) . . .
36.8(34) . . .
32.5(31) . . .
37.8(33) . . .
29.9(30) . . .
36.1(31) . . .
35.6(31) . . .
35.4(32) . . .
34.8(32) . . .
39(4) . . .
39.8(33) . . .
47(4) . . .
39.5(34) . . .
36.9(34) . . .
39.0(33) . . .
33.1(30) . . .
31.4(30) . . .
26.7(29) . . .
25.2(27) . . .
37.9(32) . . .
36.0(31) . . .
41.4(35) . . .
41.4(34) . . .
35.1(31) . . .
27.4(27) . . .
39.6(33) . . .
40.2(34) . . .
34.5(31) . . .
36.3(31) . . .
33.5(30) . . .
31.3(29) . . .
29.9(31) . . .
31.8(31) . . .
40.8(35) . . .
39.0(33) . . .
40.4(34) . . .
43(4) . . .
44(4) . . .
37.4(32) . . .
52(4) . . .
35.0(31) . . .
40.8(34) . . .
30.8(30) . . .
26.4(27) . . .
32.7(29) . . .
37.9(33) . . .
46(4) . . .
46(4) . . .
30.3(32) . . .
30.0(30) . . .
30.1(28) . . .
31.2(30) . . .
35.0(34) . . .
36(4) . . .
29.1(28) . . .
32.6(29) . . .
38.1(34) . . .
47(4) . . .
45(4) . . .
34.3(30) . . .
37.0(32) . . .
38.4(33) . . .
35.7(33) . . .
28.0(29) . . .
34.4(30) . . .
44(4) . . .
39.5(35) . . .
30.7(29) . . .
29.4(29) . . .
26.9(27) . . .
31.7(31) . . .
36.8(32) . . .
33.0(30) . . .
32.0(30) . . .
34.3(31) . . .
31.4(30) . . .
39.3(34) . . .
42(4) . . .
34.2(30) . . .
29.9(29) . . .
37.8(35) . . .
37.5(32) . . .
36.9(32) . . .
36.8(31) . . .
37.8(32) . . .
37.2(33) . . .
39.7(35) . . .
23.9(25) . . .
34.0(30) . . .
41.0(34) . . .
36.1(33) . . .
26.5(28) . . .
29.5(30) . . .
32.5(30) . . .
46(4) . . .
43.7(35) . . .
40.5(33) . . .
35.4(31) . . .
43.6(34) . . .
37.7(33) . . .
32.2(31) . . .
37(4) . . .
32.5(29) . . .
35.2(31) . . .
36.0(32) . . .
48(4) . . .
39.2(34) . . .
32.4(31) . . .
36.0(31) . . .
38.5(32) . . .
38.4(34) . . .
31.9(30) . . .
25.9(26) . . .
43.1(35) . . .
35.9(31) . . .
37.7(34) . . .
40.6(34) . . .
34.5(32) . . .
30.6(28) . . .
44(4) . . .
34.9(31) . . .
37.6(33) . . .
45(4) . . .
30.0(28) . . .
34.3(33) . . .
29.4(30) . . .
28.1(28) . . .
32.0(29) . . .
36.3(31) . . .
39.8(33) . . .
40.6(35) . . .
32.6(30) . . .
30.9(29) . . .
36.9(31) . . .
45(4) . . .
34.7(32) . . .
45(4) . . .
33.3(31) . . .
36.2(32) . . .
36.5(33) . . .
32.5(33) . . .
35.6(31) . . .
39.9(34) . . .
36.3(31) . . .
35.8(32) . . .
36.6(34) . . .
37.6(35) . . .
39.5(33) . . .
38.1(32) . . .
42(4) . . .
46(4) . . .
42.7(35) . . .
32.1(30) . . .
32.7(30) . . .
28.5(28) . . .
30.8(31) . . .
35.5(33) . . .
37.8(32) . . .
33.5(31) . . .
35.0(32) . . .
36.4(34) . . .
34.8(32) . . .
40.3(33) . . .
35.0(31) . . .
40(4) . . .
32.7(31) . . .
33.2(33) . . .
36.2(31) . . .
37.0(32) . . .
38.0(33) . . .
32.0(30) . . .
38.6(33) . . .
33.0(30) . . .
37.3(33) . . .
34.9(33) . . .
37.2(34) . . .
38.0(33) . . .
40.5(34) . . .
35.5(31) . . .
38.7(35) . . .
39.7(33) . . .
34.3(31) . . .
34.2(30) . . .
32.9(33) . . .
40(4) . . .
34.8(33) . . .
36.2(31) . . .
34.3(31) . . .
37.8(33) . . .
32.7(32) . . .
35.0(34) . . .
41.7(35) . . .
38.8(33) . . .
45(4) . . .
32.9(30) . . .
38.3(33) . . .
37.5(32) . . .
41.3(34) . . .
34(4) . . .
39(4) . . .
45(4) . . .
36.1(31) . . .
44.0(35) . . .
43(4) . . .
37.8(32) . . .
43.8(35) . . .
35.2(31) . . .
36.4(31) . . .
36.8(32) . . .
42(4) . . .
39.3(34) . . .
31.4(29) . . .
37.4(32) . . .
36.2(31) . . .
28.2(29) . . .
25.5(27) . . .
33.5(30) . . .
35.6(33) . . .
28.3(30) . . .
31.0(31) . . .
45(4) . . .
36.5(33) . . .
39.2(33) . . .
29.0(28) . . .
26.8(28) . . .
37.5(33) . . .
42.0(34) . . .
29.9(32) . . .
31.7(33) . . .
35.7(33) . . .
36.8(34) . . .
35.9(31) . . .
32.0(30) . . .
37.0(35) . . .
37.1(32) . . .
45(4) . . .
42.2(34) . . .
35.0(32) . . .
30.9(31) . . .
38.3(35) . . .
31.1(29) . . .
41.7(34) . . .
29.4(28) . . .
34.2(32) . . .
39.0(35) . . .
31.8(31) . . .
39.8(33) . . .
29.9(29) . . .
27.8(28) . . .
38(4) . . .
33.5(30) . . .
32.3(29) . . .
28.3(28) . . .
34.1(31) . . .
37.5(32) . . .
35.5(31) . . .
40.3(33) . . .
40.2(34) . . .
31.8(29) . . .
42.0(35) . . .
36.5(32) . . .
35.0(32) . . .
33.8(31) . . .
36.7(32) . . .
43(4) . . .
35.2(31) . . .
39.2(33) . . .
28.3(27) . . .
39.4(33) . . .
38.0(31) . . .
40.8(33) . . .
45(4) . . .
34.6(31) . . .
34.4(30) . . .
36.6(32) . . .
37.2(32) . . .
39.1(34) . . .
40.0(33) . . .
39.5(34) . . .
32.3(30) . . .
29.5(28) . . .
34.8(31) . . .
30.8(30) . . .
42(4) . . .
39.2(33) . . .
42.3(33) . . .
39.7(34) . . .
35.8(32) . . .
36.0(31) . . .
26.7(27) . . .
35.0(32) . . .
41(4) . . .
38(4) . . .
40.1(34) . . .
40.2(34) . . .
32.2(29) . . .
29.6(29) . . .
27.4(29) . . .
29.8(30) . . .
25.8(27) . . .
30.2(30) . . .
31.0(32) . . .
35.8(33) . . .
34.2(30) . . .
33.2(30) . . .
35.6(32) . . .
38(4) . . .
27.9(28) . . .
42.7(35) . . .
35.5(31) . . .
40.9(34) . . .
36.0(32) . . .
37.5(34) . . .
37.1(32) . . .
32.2(30) . . .
36.8(35) . . .
39.6(34) . . .
34.6(31) . . .
38.7(32) . . .
42.4(34) . . .
37.3(33) . . .
38(4) . . .
35.7(32) . . .
36.1(32) . . .
33.3(30) . . .
37.9(34) . . .
42(4) . . .
33.2(31) . . .
28.7(28) . . .
45(4) . . .
33.8(32) . . .
33.8(31) . . .
37.6(32) . . .
38.3(33) . . .
30.1(28) . . .
35.8(31) . . .
33.4(31) . . .
40.6(34) . . .
36.2(31) . . .
35.0(31) . . .
39.1(33) . . .
40.5(34) . . .
40.2(33) . . .
34.1(31) . . .
31.3(29) . . .
38.7(35) . . .
28.6(29) . . .
32.7(32) . . .
39.7(33) . . .
38.5(32) . . .
32.5(30) . . .
37.9(35) . . .
36.4(33) . . .
33.7(31) . . .
29.9(28) . . .
24.7(27) . . .
32.1(32) . . .
31.7(30) . . .
33.2(30) . . .
38.4(32) . . .
42.0(34) . . .
39.6(35) . . .
29.4(30) . . .
40.8(33) . . .
39.9(34) . . .
44(4) . . .
31.3(29) . . .
37.8(34) . . .
32.8(30) . . .
37.9(33) . . .
36.7(34) . . .
27.6(27) . . .
33.0(31) . . .
40.9(33) . . .
40.6(34) . . .
39.4(34) . . .
44(4) . . .
30.5(29) . . .
35.1(31) . . .
37.2(33) . . .
37.5(33) . . .
32.6(30) . . .
30.5(29) . . .
30.0(28) . . .
41(4) . . .
33.8(32) . . .
33.7(30) . . .
30.8(29) . . .
37.7(33) . . .
37.7(34) . . .
38(4) . . .
35.6(32) . . .
43.5(34) . . .
36.5(31) . . .
37.9(34) . . .
32.9(32) . . .
36.1(31) . . .
37.0(31) . . .
34.6(31) . . .
40(4) . . .
34.6(34) . . .
23.5(25) . . .
29.8(29) . . .
31.8(30) . . .
31.1(29) . . .
37.1(33) . . .
40.5(35) . . .
32.7(30) . . .
38.5(33) . . .
32.1(31) . . .
33.4(31) . . .
38.2(34) . . .
38.9(32) . . .
35.8(31) . . .
38.8(34) . . .
38.1(34) . . .
34.0(30) . . .
34.7(30) . . .
32.5(30) . . .
29.9(29) . . .
33.0(32) . . .
37.9(33) . . .
33.5(30) . . .
33.4(30) . . .
32.8(29) . . .
34.2(34) . . .
31.6(31) . . .
31.8(30) . . .
42.8(35) . . .
34.0(32) . . .
32.9(30) . . .
36.0(32) . . .
39.9(32) . . .
25.6(26) . . .
31.1(31) . . .
36.7(33) . . .
36.7(32) . . .
44.7(35) . . .
34.6(31) . . .
36.3(34) . . .
32.5(30) . . .
37.1(33) . . .
31.4(29) . . .
35.5(32) . . .
36.4(32) . . .
36.1(32) . . .
30.4(29) . . .
37.8(33) . . .
33.1(30) . . .
39.6(35) . . .
42(4) . . .
33.3(30) . . .
34.7(31) . . .
38.8(34) . . .
34.2(32) . . .
37.2(33) . . .
34.4(31) . . .
39.8(33) . . .
31.0(28) . . .
35.0(30) . . .
33.9(31) . . .
37.0(32) . . .
34.2(30) . . .
41(4) . . .
31.1(30) . . .
34.6(32) . . .
31.1(29) . . .
31.9(30) . . .
33.2(31) . . .
38.2(34) . . .
38.2(32) . . .
43.8(34) . . .
28.6(27) . . .
36.4(33) . . .
31.7(32) . . .
41.3(33) . . .
47(4) . . .
34.6(31) . . .
33.5(32) . . .
39.0(33) . . .
35.4(31) . . .
35.8(31) . . .
32.0(30) . . .
40.0(33) . . .
40.1(33) . . .
38.1(32) . . .
38.5(33) . . .
32.0(30) . . .
33.8(33) . . .
36.4(34) . . .
30.4(29) . . .
38.8(32) . . .
44(4) . . .
34.0(32) . . .
38.2(32) . . .
31.6(29) . . .
40.3(33) . . .
38.1(34) . . .
30.7(30) . . .
35.5(33) . . .
40.4(33) . . .
37.0(33) . . .
30.8(30) . . .
35.9(33) . . .
29.4(29) . . .
42.3(34) . . .
37.3(32) . . .
37.8(35) . . .
32.6(32) . . .
34.3(32) . . .
36.4(32) . . .
34.8(31) . . .
36.7(34) . . .
33.3(32) . . .
38.3(32) . . .
34.5(31) . . .
31.7(29) . . .
37.2(33) . . .
43(4) . . .
36.7(32) . . .
33.4(30) . . .
35.9(32) . . .
44(4) . . .
46(4) . . .
38.4(32) . . .
30.5(30) . . .
32.6(31) . . .
34.6(33) . . .
45(4) . . .
40.3(33) . . .
40.2(33) . . .
39.4(33) . . .
44(4) . . .
36.1(31) . . .
35.6(32) . . .
36.7(31) . . .
35.2(31) . . .
32.1(31) . . .
24.1(27) . . .
33.3(31) . . .
37.7(31) . . .
36.7(32) . . .
35.1(33) . . .
36.4(33) . . .
38.8(32) . . .
35.6(32) . . .
35.7(31) . . .
30.5(29) . . .
38.0(34) . . .
36.5(31) . . .
30.0(30) . . .
32.3(30) . . .
32.7(31) . . .
35.0(33) . . .
32.1(29) . . .
36.7(32) . . .
39.8(33) . . .
33.8(29) . . .
40.0(35) . . .
42.0(34) . . .
28.5(28) . . .
30.9(30) . . .
40(4) . . .
36.3(33) . . .
36.5(32) . . .
37.9(33) . . .
32.2(31) . . .
27.4(29) . . .
30.0(29) . . .
30.8(29) . . .
34.5(31) . . .
36.2(30) . . .
52(4) . . .
40.2(34) . . .
41.5(33) . . .
37.5(32) . . .
37.9(33) . . .
43.8(35) . . .
35.5(31) . . .
34.8(31) . . .
31.8(30) . . .
34.8(33) . . .
36.5(32) . . .
31.7(29) . . .
40.4(33) . . .
44.0(35) . . .
34.1(32) . . .
33.4(30) . . .
32.0(30) . . .
33.5(30) . . .
39(4) . . .
35.9(33) . . .
31.1(29) . . .
35.4(32) . . .
41.6(35) . . .
41.3(34) . . .
41(4) . . .
40.7(35) . . .
22.2(25) . . .
36.6(31) . . .
34.8(33) . . .
25.0(27) . . .
29.5(28) . . .
38.0(32) . . .
48(4) . . .
31.4(29) . . .
38.5(34) . . .
34.5(32) . . .
31.8(30) . . .
46(4) . . .
37.7(33) . . .
41(4) . . .
31.3(31) . . .
38.1(32) . . .
41.3(33) . . .
37.8(32) . . .
37.3(33) . . .
39.5(34) . . .
34.6(30) . . .
27.8(28) . . .
33.2(32) . . .
30.2(29) . . .
32.7(30) . . .
44.7(35) . . .
38.4(34) . . .
30.9(30) . . .
33.0(31) . . .
36.7(32) . . .
33.6(30) . . .
40(4) . . .
35.9(33) . . .
38.8(33) . . .
30.7(29) . . .
37.5(31) . . .
35.1(31) . . .
37.1(35) . . .
39.5(34) . . .
39.7(33) . . .
43.1(34) . . .
41.8(35) . . .
45(4) . . .
32.6(31) . . .
28.8(28) . . .
41.9(33) . . .
38.6(33) . . .
32.8(32) . . .
34.1(31) . . .
36.8(32) . . .
34.3(30) . . .
39.7(34) . . .
32.0(30) . . .
33.6(32) . . .
35.2(31) . . .
28.5(30) . . .
37.8(34) . . .
36.7(31) . . .
40.0(34) . . .
43.6(35) . . .
38.0(32) . . .
40.2(34) . . .
35.2(32) . . .
32.0(30) . . .
27.4(28) . . .
36.9(33) . . .
37.0(34) . . .
37(4) . . .
31.5(30) . . .
32.4(30) . . .
31.8(31) . . .
45(4) . . .
37.8(32) . . .
31.0(29) . . .
34.8(30) . . .
36.4(31) . . .
34.4(30) . . .
48(4) . . .
41.8(34) . . .
41.9(34) . . .
37.7(34) . . .
40(4) . . .
31.9(29) . . .
38.8(33) . . .
35.7(31) . . .
30.9(30) . . .
43(4) . . .
44(4) . . .
45.2(35) . . .
32.6(30) . . .
44(4) . . .
48(4) . . .
37.3(33) . . .
34.3(31) . . .
40.4(33) . . .
43(4) . . .
27.1(30) . . .
31.1(31) . . .
36.6(32) . . .
44.4(35) . . .
38.0(33) . . .
44(4) . . .
29.6(28) . . .
34.3(31) . . .
31.2(31) . . .
35.2(32) . . .
30.0(30) . . .
34.6(31) . . .
34.3(30) . . .
29.9(29) . . .
37.2(32) . . .
34.0(32) . . .
33.8(33) . . .
33.1(30) . . .
35.1(30) . . .
35.1(31) . . .
39.8(34) . . .
35.9(32) . . .
28.5(29) . . .
31.2(31) . . .
26.9(28) . . .
41(4) . . .
41.7(35) . . .
34.0(31) . . .
35.1(33) . . .
31.5(30) . . .
40(4) . . .
31.3(29) . . .
35.6(32) . . .
38.9(33) . . .
37.5(32) . . .
34.7(32) . . .
39.5(32) . . .
47(4) . . .
34.7(32) . . .
31.4(31) . . .
37.4(33) . . .
39.4(33) . . .
40.1(33) . . .
31.3(32) . . .
35.8(34) . . .
38.6(33) . . .
36.0(33) . . .
34.9(30) . . .
39(4) . . .
39(4) . . .
29.0(29) . . .
36.6(32) . . .
31.5(29) . . .
30.0(30) . . .
37(4) . . .
36(4) . . .
31.2(29) . . .
31.7(30) . . .
33.3(31) . . .
37.0(34) . . .
35.1(32) . . .
35.0(31) . . .
34.4(31) . . .
31.6(31) . . .
31.8(34) . . .
35.0(34) . . .
26.2(27) . . .
40.5(35) . . .
29.6(30) . . .
39(4) . . .
39.2(33) . . .
33.9(30) . . .
41.6(34) . . .
41(4) . . .
33.9(32) . . .
37.5(32) . . .
35.8(31) . . .
41.1(34) . . .
42(4) . . .
22.2(25) . . .
38.0(34) . . .
30.0(29) . . .
28.0(28) . . .
33.5(33) . . .
38(4) . . .
36.6(31) . . .
36.2(31) . . .
34.9(32) . . .
36.8(32) . . .
34.9(30) . . .
37.4(32) . . .
33.3(30) . . .
36.1(33) . . .
34.0(34) . . .
38(4) . . .
25.9(27) . . .
37.5(34) . . .
37.7(32) . . .
37.5(34) . . .
38.8(33) . . .
38.0(32) . . .
29.1(28) . . .
34.6(33) . . .
34.5(34) . . .
36.9(34) . . .
33.1(30) . . .
30.2(29) . . .
28.0(29) . . .
33.2(32) . . .
39.5(34) . . .
24.3(26) . . .
29.4(28) . . .
32.0(29) . . .
37.0(34) . . .
38.6(34) . . .
31.1(29) . . .
29.2(29) . . .
35.4(33) . . .
36.1(34) . . .
39.1(33) . . .
41.9(33) . . .
35.9(32) . . .
36(4) . . .
32.7(32) . . .
35.6(32) . . .
40.0(34) . . .
46(4) . . .
45(4) . . .
37.1(34) . . .
33.5(31) . . .
38.5(33) . . .
35.4(32) . . .
28.2(29) . . .
30.6(29) . . .
34.1(30) . . .
33.3(31) . . .
26.7(27) . . .
36.9(34) . . .
40.5(34) . . .
41.6(35) . . .
34.8(31) . . .
36.8(32) . . .
34.8(32) . . .
31.5(30) . . .
30.0(29) . . .
30.0(28) . . .
38.5(32) . . .
39.0(34) . . .
38.6(34) . . .
33.4(32) . . .
37.8(32) . . .
34.9(31) . . .
38.5(35) . . .
37.7(33) . . .
29.4(28) . . .
33.4(30) . . .
39.2(34) . . .
31.6(30) . . .
34.8(34) . . .
38.0(32) . . .
36.3(32) . . .
31.8(30) . . .
46(4) . . .
35.5(33) . . .
38.6(32) . . .
30.4(29) . . .
31.1(29) . . .
33.8(31) . . .
31.0(30) . . .
39.5(32) . . .
44(4) . . .
35.8(31) . . .
37.9(33) . . .
36.7(32) . . .
26.9(27) . . .
31.1(30) . . .
26.3(28) . . .
40(4) . . .
32.0(31) . . .
32.5(30) . . .
31.0(29) . . .
39.9(35) . . .
40(4) . . .
33.4(31) . . .
37.8(32) . . .
37.3(32) . . .
41(4) . . .
36.5(33) . . .
35.0(32) . . .
32.2(30) . . .
29.7(29) . . .
34.7(32) . . .
38.6(32) . . .
35.6(31) . . .
36.3(32) . . .
37.8(34) . . .
36.1(34) . . .
29.3(27) . . .
37.1(31) . . .
36.7(31) . . .
34.5(31) . . .
39(4) . . .
32.3(30) . . .
38.3(32) . . .
36.1(31) . . .
34.8(31) . . .
39.8(35) . . .
38.6(34) . . .
35.1(32) . . .
37.1(32) . . .
34.2(32) . . .
39.3(34) . . .
39.4(33) . . .
33.4(30) . . .
27.3(27) . . .
28.5(30) . . .
28.6(30) . . .
37.7(32) . . .
32.9(30) . . .
44(4) . . .
37.6(33) . . .
35.2(33) . . .
29.9(30) . . .
42.7(35) . . .
43.6(34) . . .
42(4) . . .
33.4(32) . . .
29.5(29) . . .
42.6(35) . . .
37.0(33) . . .
50(4) . . .
31.2(28) . . .
33.6(32) . . .
37.2(32) . . .
40.3(34) . . .
34.1(30) . . .
40.6(34) . . .
43(4) . . .
37.9(33) . . .
30.4(29) . . .
25.9(28) . . .
32.8(32) . . .
27.9(27) . . .
35.1(31) . . .
42(4) . . .
33.6(32) . . .
29.8(31) . . .
32.4(29) . . .
37.4(32) . . .
34.6(32) . . .
35.4(34) . . .
39.5(33) . . .
41.1(34) . . .
29.9(30) . . .
32.3(33) . . .
40(4) . . .
30.6(29) . . .
34.9(31) . . .
38.0(32) . . .
30.6(29) . . .
30.7(30) . . .
36.9(32) . . .
42.3(35) . . .
37.0(32) . . .
32.2(30) . . .
26.8(29) . . .
34.0(32) . . .
29.6(28) . . .
30.5(30) . . .
34.0(30) . . .
40(4) . . .
43.5(35) . . .
42.0(33) . . .
31.6(30) . . .
30.6(30) . . .
40(4) . . .
38.5(33) . . .
28.6(28) . . .
37.7(33) . . .
30.3(29) . . .
36.7(35) . . .
33.7(32) . . .
41.6(34) . . .
34.1(31) . . .
40(4) . . .
40(4) . . .
33.8(31) . . .
37.7(32) . . .
37.7(32) . . .
36.9(34) . . .
28.5(29) . . .
30.5(29) . . .
37.2(32) . . .
39.7(33) . . .
44(4) . . .
37.0(32) . . .
44(4) . . .
33.1(30) . . .
28.2(28) . . .
32.8(32) . . .
25.6(27) . . .
29.6(29) . . .
35.1(31) . . .
32.8(30) . . .
40(4) . . .
37.0(33) . . .
34.8(31) . . .
40.8(33) . . .
40.8(34) . . .
35.7(31) . . .
28.6(28) . . .
38.3(32) . . .
38.2(32) . . .
39(4) . . .
38(4) . . .
35.3(32) . . .
28.3(28) . . .
30.7(29) . . .
39.8(34) . . .
39.3(34) . . .
48(4) . . .
31.0(29) . . .
31.6(29) . . .
29.9(28) . . .
30.0(29) . . .
37.1(33) . . .
40.7(34) . . .
28.8(28) . . .
38.2(35) . . .
37.1(33) . . .
39.9(34) . . .
34.5(31) . . .
33.2(33) . . .
31.6(31) . . .
33.5(32) . . .
24.6(26) . . .
24.8(27) . . .
38.1(32) . . .
38.0(33) . . .
38.2(33) . . .
37.9(32) . . .
35.0(31) . . .
37.2(35) . . .
38.5(34) . . .
31.9(31) . . .
34.9(31) . . .
27.0(28) . . .
34.8(32) . . .
37.8(35) . . .
37.5(33) . . .
37.0(32) . . .
33.1(30) . . .
35.7(34) . . .
32.9(32) . . .
27.3(28) . . .
35.4(31) . . .
39.7(33) . . .
33.2(29) . . .
38.5(35) . . .
36.0(32) . . .
40.0(33) . . .
39.1(33) . . .
32.8(30) . . .
42(4) . . .
34.4(32) . . .
39.5(33) . . .
43.1(34) . . .
32.5(31) . . .
29.6(29) . . .
33.7(30) . . .
39.9(33) . . .
31.6(29) . . .
43(4) . . .
33.8(31) . . .
39.4(33) . . .
31.6(30) . . .
35.5(34) . . .
32.9(34) . . .
37.0(33) . . .
30.0(28) . . .
25.8(27) . . .
27.3(28) . . .
34.1(31) . . .
35.6(32) . . .
39.1(34) . . .
32.7(31) . . .
37.4(33) . . .
30.9(29) . . .
36.2(32) . . .
38.5(32) . . .
35.0(31) . . .
35.5(31) . . .
37.1(34) . . .
40(4) . . .
35.0(30) . . .
29.2(28) . . .
47(4) . . .
41(4) . . .
30.4(30) . . .
35.3(31) . . .
35.6(31) . . .
36.7(34) . . .
31.7(31) . . .
34.9(34) . . .
32.6(29) . . .
38.3(33) . . .
38.8(33) . . .
39.0(34) . . .
36.3(33) . . .
37.4(32) . . .
35.0(31) . . .
35.0(31) . . .
30.6(31) . . .
40(4) . . .
43.6(34) . . .
32.3(29) . . .
39.1(33) . . .
41.0(34) . . .
35.5(31) . . .
31.4(29) . . .
33.2(30) . . .
31.1(30) . . .
31.9(31) . . .
34.1(32) . . .
46(4) . . .
31.9(29) . . .
37.8(35) . . .
37.8(33) . . .
34.0(30) . . .
39.8(33) . . .
39.8(34) . . .
39.7(33) . . .
40(4) . . .
44(4) . . .
31.7(29) . . .
33.4(32) . . .
34.9(34) . . .
38.7(34) . . .
36.8(33) . . .
31.8(29) . . .
36.9(33) . . .
30.0(31) . . .
40.1(34) . . .
37.4(32) . . .
36.2(31) . . .
31.0(28) . . .
41.3(35) . . .
39(4) . . .
30.8(29) . . .
34.2(30) . . .
33.3(30) . . .
29.5(30) . . .
32.8(30) . . .
35.7(31) . . .
33.0(32) . . .
27.1(28) . . .
33.1(32) . . .
28.8(29) . . .
34.7(31) . . .
37.4(31) . . .
27.2(29) . . .
33.4(33) . . .
30.9(29) . . .
28.8(28) . . .
34.5(30) . . .
34.8(32) . . .
30.6(29) . . .
38.1(32) . . .
34.2(31) . . .
42.4(35) . . .
35.7(32) . . .
36.8(33) . . .
27.7(28) . . .
36.8(32) . . .
40.4(33) . . .
43(4) . . .
36.0(31) . . .
43.7(35) . . .
31.0(29) . . .
31.3(29) . . .
34.1(30) . . .
30.2(29) . . .
38.4(33) . . .
39.8(33) . . .
31.2(30) . . .
28.5(28) . . .
39.0(33) . . .
30.0(30) . . .
35.1(30) . . .
36.5(31) . . .
50(4) . . .
43(4) . . .
34.6(30) . . .
33.0(30) . . .
33.7(30) . . .
42(4) . . .
37.9(34) . . .
36.0(32) . . .
38.5(32) . . .
35.1(32) . . .
27.7(28) . . .
42(4) . . .
41.6(35) . . .
40.5(33) . . .
33.6(32) . . .
52(4) . . .
41.3(34) . . .
37.6(32) . . .
31.2(30) . . .
40.0(34) . . .
32.8(31) . . .
36.1(31) . . .
40.4(33) . . .
39.5(35) . . .
36.0(32) . . .
34.9(34) . . .
34.8(31) . . .
35.2(31) . . .
35.5(32) . . .
37.2(33) . . .
28.1(28) . . .
29.5(31) . . .
30.2(29) . . .
37.2(33) . . .
34.7(32) . . .
28.4(28) . . .
41.8(35) . . .
43.1(34) . . .
40.3(33) . . .
25.9(25) . . .
31.3(29) . . .
32.2(30) . . .
34.5(31) . . .
33.3(32) . . .
32.7(32) . . .
26.5(28) . . .
27.1(27) . . .
38.7(33) . . .
28.2(29) . . .
37.9(34) . . .
34.2(31) . . .
32.5(30) . . .
40.7(33) . . .
35.1(34) . . .
34.8(33) . . .
36.1(31) . . .
30.6(29) . . .
28.9(28) . . .
34.3(32) . . .
35.2(34) . . .
32.7(32) . . .
32.1(30) . . .
30.7(29) . . .
43(4) . . .
31.1(30) . . .
33.9(34) . . .
26.3(27) . . .
35.2(32) . . .
27.3(29) . . .
40(4) . . .
39.6(33) . . .
41.9(34) . . .
39.3(33) . . .
35.0(31) . . .
37.6(33) . . .
39.5(34) . . .
35.1(32) . . .
31.4(29) . . .
39(4) . . .
30.4(30) . . .
32.9(31) . . .
25.2(27) . . .
36.7(32) . . .
36.2(31) . . .
46(4) . . .
44(4) . . .
40.1(33) . . .
38.8(33) . . .
39(4) . . .
30.3(29) . . .
34.6(31) . . .
30.0(29) . . .
41.9(35) . . .
29.8(30) . . .
23.9(26) . . .
40.6(33) . . .
36.6(32) . . .
41(4) . . .
29.9(32) . . .
29.0(30) . . .
26.4(28) . . .
30.7(31) . . .
37.2(33) . . .
41(4) . . .
35.5(33) . . .
35.7(31) . . .
36.0(32) . . .
29.5(30) . . .
31.1(30) . . .
34.1(31) . . .
29.1(28) . . .
39.1(32) . . .
42(4) . . .
35.6(33) . . .
36.2(32) . . .
32.2(29) . . .
39.5(34) . . .
33.6(31) . . .
35.5(34) . . .
36.9(33) . . .
41.4(33) . . .
38.0(32) . . .
36.5(32) . . .
38.1(35) . . .
31.4(31) . . .
32.7(29) . . .
36.8(31) . . .
41.1(35) . . .
35.8(34) . . .
35.9(32) . . .
32.5(30) . . .
32.9(32) . . .
34.1(33) . . .
35.6(32) . . .
35.3(32) . . .
38.0(32) . . .
34.4(31) . . .
27.8(30) . . .
30.4(30) . . .
37.0(34) . . .
26.5(27) . . .
31.5(31) . . .
34.1(32) . . .
39(4) . . .
27.6(29) . . .
39.6(33) . . .
40.0(34) . . .
34.1(31) . . .
32.5(31) . . .
28.2(28) . . .
35.7(31) . . .
44(4) . . .
32.1(31) . . .
38.4(35) . . .
43(4) . . .
27.7(27) . . .
34.4(31) . . .
43(4) . . .
35.9(32) . . .
31.6(29) . . .
37.9(32) . . .
39(4) . . .
38.5(35) . . .
37.5(33) . . .
31.4(29) . . .
42.0(33) . . .
46(4) . . .
43(4) . . .
37(4) . . .
33.7(30) . . .
37.7(34) . . .
30.3(29) . . .
39(4) . . .
35.5(32) . . .
36.7(32) . . .
38.0(32) . . .
29.3(29) . . .
31.6(31) . . .
33.0(30) . . .
34.3(30) . . .
27.6(28) . . .
32.3(31) . . .
29.7(29) . . .
42(4) . . .
29.7(28) . . .
26.2(26) . . .
31.9(30) . . .
42(4) . . .
47(4) . . .
32.0(30) . . .
29.4(28) . . .
32.7(31) . . .
35.9(33) . . .
38.7(33) . . .
40.6(33) . . .
30.0(29) . . .
29.5(28) . . .
32.4(29) . . .
35.7(32) . . .
37.6(31) . . .
39.0(33) . . .
32.6(32) . . .
31.1(33) . . .
30.0(30) . . .
46(4) . . .
36.3(32) . . .
34.2(33) . . .
31.8(31) . . .
34.9(31) . . .
39.4(32) . . .
37.0(32) . . .
35.9(34) . . .
26.5(28) . . .
27.9(28) . . .
36.1(33) . . .
35.8(32) . . .
31.4(31) . . .
31.0(29) . . .
34.2(32) . . .
33.2(29) . . .
44(4) . . .
31.0(31) . . .
34.0(31) . . .
34.0(30) . . .
39.5(34) . . .
31.3(29) . . .
39.9(35) . . .
36.9(33) . . .
38.0(32) . . .
36.5(31) . . .
39.2(33) . . .
43.2(35) . . .
41.0(34) . . .
30.1(29) . . .
34.1(31) . . .
36.3(34) . . .
35.9(32) . . .
33.1(30) . . .
34.2(31) . . .
34.8(31) . . .
44(4) . . .
39.4(33) . . .
42(4) . . .
38.1(32) . . .
32.2(29) . . .
34.8(32) . . .
46(4) . . .
44(4) . . .
40.6(33) . . .
24.8(28) . . .
35.0(32) . . .
39.3(32) . . .
48(4) . . .
34.3(30) . . .
37.0(33) . . .
31.0(30) . . .
39.6(35) . . .
35.1(31) . . .
38.1(32) . . .
26.6(28) . . .
35.7(34) . . .
32.5(30) . . .
34.4(31) . . .
40.8(34) . . .
38.8(34) . . .
39(4) . . .
43(4) . . .
34.2(30) . . .
33.6(30) . . .
38.6(33) . . .
30.2(30) . . .
33.7(30) . . .
48(4) . . .
35.6(32) . . .
38.6(33) . . .
39.0(35) . . .
40(4) . . .
35.1(31) . . .
36.6(32) . . .
33.5(32) . . .
41(4) . . .
33.5(32) . . .
32.4(30) . . .
34.6(31) . . .
33.4(32) . . .
41(4) . . .
35.7(32) . . .
39.0(32) . . .
34.8(32) . . .
32.4(31) . . .
27.7(28) . . .
36.1(33) . . .
31.6(30) . . .
30.9(31) . . .
47(4) . . .
41(4) . . .
36.4(33) . . .
30.4(29) . . .
34.5(33) . . .
34.9(34) . . .
28.5(30) . . .
33.7(32) . . .
38.2(32) . . .
30.5(30) . . .
37.1(33) . . .
31.2(30) . . .
34.0(31) . . .
34.0(30) . . .
38.1(32) . . .
36.8(32) . . .
41.6(34) . . .
39.0(32) . . .
30.2(29) . . .
33.9(31) . . .
39(4) . . .
31.5(29) . . .
38.7(33) . . .
41.0(34) . . .
27.0(28) . . .
31.7(32) . . .
35.9(32) . . .
32.7(29) . . .
38.1(33) . . .
39.5(33) . . .
46(4) . . .
29.9(28) . . .
40.1(33) . . .
36.7(31) . . .
39.9(34) . . .
37.8(34) . . .
34.9(33) . . .
37.0(33) . . .
35.2(31) . . .
36.7(32) . . .
29.7(29) . . .
45(4) . . .
31.6(29) . . .
31.2(29) . . .
29.2(29) . . .
31.5(31) . . .
30.6(30) . . .
29.5(29) . . .
32.5(31) . . .
37.3(34) . . .
31.7(31) . . .
28.8(28) . . .
31.2(29) . . .
27.1(27) . . .
33.3(31) . . .
32.9(31) . . .
33.6(31) . . .
42.4(34) . . .
30.2(30) . . .
31.1(32) . . .
36.8(33) . . .
32.8(31) . . .
33.5(30) . . .
32.6(31) . . .
37(4) . . .
33.6(31) . . .
26.3(27) . . .
38.2(33) . . .
35.7(31) . . .
41(4) . . .
32.0(29) . . .
36.1(31) . . .
29.0(30) . . .
30.8(29) . . .
36.7(33) . . .
35.8(33) . . .
38.8(33) . . .
33.1(32) . . .
32.3(32) . . .
31.7(32) . . .
37.3(33) . . .
28.4(27) . . .
37.2(32) . . .
38.4(34) . . .
37.5(32) . . .
41.9(34) . . .
31.4(29) . . .
38.8(34) . . .
36.1(32) . . .
36.7(31) . . .
35.0(32) . . .
33.5(30) . . .
44(4) . . .
33.2(31) . . .
32.8(32) . . .
38.7(34) . . .
33.0(30) . . .
39.8(33) . . .
36.8(33) . . .
40(4) . . .
41.5(34) . . .
33.3(30) . . .
39.3(35) . . .
38.7(33) . . .
35.7(33) . . .
33.9(31) . . .
33.8(31) . . .
35.2(32) . . .
36.6(34) . . .
38.7(33) . . .
34.2(30) . . .
29.3(28) . . .
28.9(31) . . .
37(4) . . .
36.4(31) . . .
37.5(32) . . .
28.4(28) . . .
45(4) . . .
41.9(35) . . .
34.5(31) . . .
32.8(30) . . .
33.6(31) . . .
30.2(30) . . .
39(4) . . .
32.7(30) . . .
41.1(33) . . .
37.7(32) . . .
28.0(29) . . .
34.5(34) . . .
30.7(31) . . .
31.8(29) . . .
29.4(29) . . .
36.6(33) . . .
30.1(30) . . .
30.1(31) . . .
30.8(30) . . .
45(4) . . .
32.0(32) . . .
36.0(33) . . .
36.0(31) . . .
41.8(35) . . .
34.9(30) . . .
37.8(32) . . .
41.5(35) . . .
35.3(31) . . .
29.9(30) . . .
37.2(33) . . .
33.9(34) . . .
36(4) . . .
30.9(29) . . .
33.4(31) . . .
38.0(33) . . .
36.9(32) . . .
29.7(28) . . .
33.8(31) . . .
41.5(33) . . .
33.4(30) . . .
37.3(34) . . .
36.5(34) . . .
32.8(30) . . .
28.0(28) . . .
29.5(30) . . .
32.3(32) . . .
45(4) . . .
31.7(29) . . .
37.9(32) . . .
38.5(33) . . .
36.9(33) . . .
35.2(32) . . .
42.6(34) . . .
35.1(32) . . .
32.5(31) . . .
40(4) . . .
38.2(33) . . .
40.6(33) . . .
38.6(34) . . .
34.6(31) . . .
26.7(27) . . .
30.8(31) . . .
37.8(32) . . .
38.8(33) . . .
40(4) . . .
40(4) . . .
39.7(33) . . .
29.3(30) . . .
31.1(29) . . .
31.3(29) . . .
42(4) . . .
34.0(32) . . .
37.1(31) . . .
38.3(32) . . .
35.1(32) . . .
35.0(31) . . .
40(4) . . .
36.8(33) . . .
35.4(31) . . .
32.6(32) . . .
35.3(31) . . .
41.1(34) . . .
41.0(33) . . .
31.6(30) . . .
41(4) . . .
32.0(29) . . .
43.8(35) . . .
34.4(31) . . .
32.5(31) . . .
34.7(32) . . .
35.0(31) . . .
42.9(35) . . .
42.0(34) . . .
33.1(32) . . .
34.1(33) . . .
31.6(29) . . .
29.7(28) . . .
34.5(30) . . .
33.9(30) . . .
42(4) . . .
33.4(30) . . .
32.0(29) . . .
37.1(33) . . .
32.0(31) . . .
41(4) . . .
41.5(34) . . .
37.2(32) . . .
32.7(30) . . .
36.4(32) . . .
33.7(34) . . .
30.6(30) . . .
35.3(31) . . .
36.1(32) . . .
35.3(31) . . .
36.7(34) . . .
34.0(32) . . .
32.6(31) . . .
32.2(29) . . .
44(4) . . .
41.0(35) . . .
34.3(33) . . .
36.0(31) . . .
39.5(33) . . .
42(4) . . .
34.5(32) . . .
33.9(31) . . .
36.0(31) . . .
39.6(34) . . .
28.4(28) . . .
37.3(35) . . .
33.4(31) . . .
33.9(30) . . .
32.5(29) . . .
43(4) . . .
29.6(28) . . .
37.1(32) . . .
38.0(32) . . .
30.1(29) . . .
32.0(31) . . .
33.1(32) . . .
31.5(30) . . .
43.7(34) . . .
33.3(30) . . .
46(4) . . .
34.6(30) . . .
33.3(30) . . .
40.1(32) . . .
30.2(29) . . .
33.0(32) . . .
36.7(31) . . .
39.0(33) . . .
39.1(33) . . .
28.5(28) . . .
42(4) . . .
35.5(31) . . .
42.7(34) . . .
40.7(33) . . .
39(4) . . .
33.2(31) . . .
39.9(35) . . .
29.0(28) . . .
32.6(30) . . .
40.3(35) . . .
39.9(35) . . .
33.0(30) . . .
40.1(33) . . .
28.0(28) . . .
33.5(31) . . .
37.1(32) . . .
44(4) . . .
32.1(30) . . .
36.0(31) . . .
40(4) . . .
35.2(32) . . .
47(4) . . .
32.9(30) . . .
31.1(29) . . .
34.8(31) . . .
33.8(34) . . .
31.0(33) . . .
29.6(29) . . .
32.0(29) . . .
37.2(33) . . .
35.6(32) . . .
37.0(32) . . .
35.8(31) . . .
35.6(35) . . .
29.4(28) . . .
43(4) . . .
37.1(33) . . .
38.2(33) . . .
35.9(32) . . .
41.2(34) . . .
37.3(34) . . .
30.4(30) . . .
32.7(30) . . .
35.6(34) . . .
45(4) . . .
35.8(33) . . .
37.0(32) . . .
32.9(30) . . .
33.9(32) . . .
42(4) . . .
40.2(34) . . .
37.0(32) . . .
30.5(30) . . .
32.3(31) . . .
39(4) . . .
36.5(33) . . .
37.0(32) . . .
32.8(29) . . .
32.9(31) . . .
38(4) . . .
35.1(32) . . .
33.7(30) . . .
46(4) . . .
35.5(32) . . .
35.1(34) . . .
35.3(34) . . .
37.8(33) . . .
32.3(29) . . .
37.0(33) . . .
41(4) . . .
36.4(32) . . .
33.9(30) . . .
41.3(33) . . .
41.3(34) . . .
38.0(34) . . .
35.8(34) . . .
30.3(29) . . .
36.3(34) . . .
27.6(30) . . .
43(4) . . .
35.2(32) . . .
32.8(30) . . .
33.0(31) . . .
30.9(32) . . .
27.4(29) . . .
30.0(28) . . .
40.7(33) . . .
39.2(34) . . .
35.3(32) . . .
37.4(33) . . .
35.2(31) . . .
42.0(34) . . .
36.8(32) . . .
42(4) . . .
31.9(31) . . .
32.7(31) . . .
38.2(32) . . .
30.0(28) . . .
27.8(29) . . .
34.6(32) . . .
29.4(28) . . .
33.6(31) . . .
34.9(30) . . .
33.2(31) . . .
27.0(27) . . .
34.3(31) . . .
35.9(32) . . .
30.5(30) . . .
35(4) . . .
30.7(30) . . .
34.0(30) . . .
36.5(32) . . .
35.0(32) . . .
31.5(31) . . .
35.7(31) . . .
37.3(32) . . .
33.1(30) . . .
31.9(29) . . .
37.6(32) . . .
34.1(31) . . .
28.6(28) . . .
32.4(30) . . .
36.8(33) . . .
31.2(29) . . .
38.9(33) . . .
39.8(33) . . .
38.2(34) . . .
30.5(30) . . .
43(4) . . .
44.6(35) . . .
32.0(30) . . .
30.5(30) . . .
28.3(28) . . .
35.4(34) . . .
37.0(32) . . .
32.4(29) . . .
31.3(29) . . .
33.2(29) . . .
28.9(27) . . .
35.8(33) . . .
29.2(28) . . .
37.0(33) . . .
34.3(33) . . .
27.5(27) . . .
37.9(32) . . .
38.1(32) . . .
43(4) . . .
36.8(35) . . .
31.0(29) . . .
34.0(30) . . .
43.3(34) . . .
41(4) . . .
45(4) . . .
39(4) . . .
39.8(33) . . .
38.5(32) . . .
35.3(31) . . .
35.1(32) . . .
29.9(29) . . .
36.8(31) . . .
32.3(30) . . .
33.4(30) . . .
29.5(28) . . .
30.3(29) . . .
33.4(30) . . .
37.0(33) . . .
34.3(30) . . .
31.1(31) . . .
29.2(29) . . .
40.4(33) . . .
28.8(29) . . .
39.3(34) . . .
33.2(31) . . .
34.9(31) . . .
40.6(33) . . .
34.2(31) . . .
34.2(31) . . .
33.1(31) . . .
34.9(31) . . .
30.6(29) . . .
39.8(34) . . .
36.1(33) . . .
43(4) . . .
31.4(30) . . .
35.9(32) . . .
32.7(31) . . .
29.6(29) . . .
41(4) . . .
34.0(31) . . .
32.8(30) . . .
35.3(32) . . .
34.0(32) . . .
35.5(32) . . .
37.4(31) . . .
38.8(32) . . .
31.0(30) . . .
37.0(33) . . .
39.0(34) . . .
29.2(28) . . .
35.6(31) . . .
33.7(30) . . .
36.0(33) . . .
40.9(35) . . .
40.8(33) . . .
34.3(30) . . .
30.5(29) . . .
26.9(29) . . .
37.8(34) . . .
33.8(31) . . .
36.1(31) . . .
31.9(30) . . .
37.2(34) . . .
34.2(31) . . .
32.4(30) . . .
45(4) . . .
33.4(29) . . .
42(4) . . .
33.6(31) . . .
33.5(30) . . .
46(4) . . .
35.3(31) . . .
38(4) . . .
38.6(33) . . .
35.3(31) . . .
40.2(33) . . .
39.6(35) . . .
31.8(31) . . .
31.1(31) . . .
33.7(30) . . .
37.3(32) . . .
35.1(33) . . .
33.6(31) . . .
34.4(32) . . .
39.3(33) . . .
32.5(30) . . .
30.9(31) . . .
37.4(34) . . .
35.6(31) . . .
35.5(31) . . .
38.5(34) . . .
36.2(34) . . .
35.0(31) . . .
39.6(33) . . .
36.7(31) . . .
32.8(31) . . .
37(4) . . .
37.9(33) . . .
37.5(32) . . .
36.0(31) . . .
35.7(31) . . .
33.1(31) . . .
39.7(34) . . .
28.2(28) . . .
38.2(33) . . .
37.1(34) . . .
34(4) . . .
33.2(33) . . .
37.1(32) . . .
40.2(33) . . .
30.6(29) . . .
25.9(27) . . .
34.6(32) . . .
36.0(31) . . .
30.0(29) . . .
33.6(32) . . .
33.4(32) . . .
29.6(28) . . .
42.1(34) . . .
34.4(30) . . .
29.9(31) . . .
32.0(32) . . .
38.3(34) . . .
48(4) . . .
35.0(31) . . .
38.1(34) . . .
27.1(28) . . .
38.5(35) . . .
29.6(28) . . .
32.0(30) . . .
31.8(30) . . .
35.4(32) . . .
29.9(29) . . .
29.5(29) . . .
41(4) . . .
35.3(33) . . .
28.4(28) . . .
37.9(33) . . .
30.8(29) . . .
33.5(33) . . .
36.3(33) . . .
35.1(32) . . .
35.7(32) . . .
34.4(30) . . .
35.8(32) . . .
43(4) . . .
35.5(31) . . .
33.8(31) . . .
32.8(30) . . .
30.9(30) . . .
40(4) . . .
31.8(30) . . .
38.1(34) . . .
37.4(32) . . .
36.6(35) . . .
29.5(30) . . .
30.9(29) . . .
35.1(31) . . .
29.7(29) . . .
38.6(34) . . .
37(4) . . .
36.3(34) . . .
27.9(27) . . .
35.0(31) . . .
30.8(28) . . .
40.8(35) . . .
34.8(32) . . .
29.9(29) . . .
35.1(31) . . .
29.0(30) . . .
22.6(24) . . .
38(4) . . .
33.6(30) . . .
31.1(29) . . .
29.3(28) . . .
30.4(30) . . .
30.6(29) . . .
40.2(33) . . .
30.3(28) . . .
35.4(33) . . .
35.4(34) . . .
30.3(30) . . .
32.1(30) . . .
33.7(31) . . .
33.4(32) . . .
35.3(33) . . .
34.9(32) . . .
38.0(32) . . .
34.4(31) . . .
29.3(28) . . .
31.3(30) . . .
36.5(32) . . .
33.3(30) . . .
41.6(35) . . .
34.2(31) . . .
32.4(30) . . .
39.2(33) . . .
40.1(33) . . .
35.8(32) . . .
28.6(30) . . .
39.3(34) . . .
36.3(31) . . .
45.8(35) . . .
42.2(34) . . .
39(4) . . .
47(4) . . .
32.3(30) . . .
33.5(30) . . .
40.5(34) . . .
32.4(31) . . .
38.5(34) . . .
35.3(31) . . .
35.3(30) . . .
35.0(31) . . .
36.1(33) . . .
29.4(31) . . .
28.1(28) . . .
36.7(32) . . .
30.3(30) . . .
37.2(35) . . .
34.5(32) . . .
30.8(30) . . .
40.7(33) . . .
37.1(33) . . .
31.8(32) . . .
32.2(32) . . .
45(4) . . .
38.0(34) . . .
34.5(34) . . .
23.8(26) . . .
35.6(32) . . .
37.0(32) . . .
35.9(33) . . .
32.5(30) . . .
37.8(33) . . .
35.4(32) . . .
34.1(31) . . .
43(4) . . .
33.5(31) . . .
32.3(29) . . .
34.0(31) . . .
34.2(31) . . .
33.8(32) . . .
30.4(31) . . .
32.0(30) . . .
35.2(31) . . .
34.8(30) . . .
39(4) . . .
37.0(34) . . .
41.7(34) . . .
38.2(33) . . .
35.8(31) . . .
36.2(31) . . .
43(4) . . .
44(4) . . .
38.7(33) . . .
32.7(30) . . .
33.7(30) . . .
31.3(29) . . .
34.7(30) . . .
34.0(30) . . .
30.9(29) . . .
34.8(33) . . .
40(4) . . .
39.6(35) . . .
29.9(29) . . .
40.1(33) . . .
40.4(34) . . .
39(4) . . .
36.2(32) . . .
37.2(32) . . .
33.5(33) . . .
29.7(29) . . .
36.8(33) . . .
39.6(34) . . .
28.8(28) . . .
34.9(32) . . .
46(4) . . .
39.6(33) . . .
37.7(33) . . .
35.0(31) . . .
30.6(29) . . .
38.8(35) . . .
43(4) . . .
35.9(34) . . .
30.3(28) . . .
43.4(35) . . .
36.2(31) . . .
34.5(31) . . .
35.7(31) . . .
35.1(31) . . .
33.7(30) . . .
33.7(29) . . .
41.1(33) . . .
36.3(31) . . .
28.8(28) . . .
31.3(30) . . .
30.1(31) . . .
40(4) . . .
36.2(31) . . .
32.5(30) . . .
40.2(33) . . .
38.1(32) . . .
44(4) . . .
33.0(29) . . .
34.1(31) . . .
32.2(32) . . .
34.0(32) . . .
30.7(30) . . .
29.4(28) . . .
31.7(29) . . .
36.0(31) . . .
46(4) . . .
38.2(32) . . .
45(4) . . .
27.4(28) . . .
39.3(32) . . .
32.9(30) . . .
28.1(28) . . .
32.2(30) . . .
30.8(30) . . .
36.5(33) . . .
37.2(33) . . .
40.8(33) . . .
30.4(29) . . .
32.7(31) . . .
37.5(35) . . .
39(4) . . .
22.9(25) . . .
37.0(32) . . .
31.4(31) . . .
33.1(31) . . .
41.2(35) . . .
40(4) . . .
33.7(30) . . .
33.8(31) . . .
32.4(31) . . .
37.6(34) . . .
38.6(34) . . .
33.9(30) . . .
46(4) . . .
28.9(29) . . .
33.3(30) . . .
42.1(34) . . .
35.0(32) . . .
32.4(31) . . .
32.6(31) . . .
33.3(31) . . .
34.0(33) . . .
32.0(29) . . .
21.3(24) . . .
32.1(32) . . .
37.4(34) . . .
31.3(29) . . .
30.9(28) . . .
36(4) . . .
32.3(34) . . .
35.2(32) . . .
34.5(30) . . .
40.2(34) . . .
31.7(31) . . .
28.6(30) . . .
31.4(30) . . .
36.3(31) . . .
32.4(30) . . .
39.7(34) . . .
34.5(32) . . .
34.0(33) . . .
30.0(29) . . .
35.1(32) . . .
39.8(35) . . .
37(4) . . .
35.3(32) . . .
39.9(33) . . .
37.7(33) . . .
31.9(29) . . .
36.7(32) . . .
31.5(30) . . .
31.9(29) . . .
23.0(25) . . .
24.0(28) . . .
34.2(34) . . .
41.7(34) . . .
33.7(31) . . .
39.8(35) . . .
37.9(35) . . .
46(4) . . .
41.1(35) . . .
39.9(33) . . .
25.8(29) . . .
35.6(35) . . .
33.9(34) . . .
37.7(32) . . .
39.8(33) . . .
33.4(30) . . .
33.7(31) . . .
32.1(31) . . .
34.2(32) . . .
31.9(29) . . .
29.8(29) . . .
28.9(32) . . .
34.1(32) . . .
42.2(34) . . .
39.5(33) . . .
35.8(33) . . .
34.3(34) . . .
28.6(28) . . .
27.4(28) . . .
34.0(30) . . .
35.1(30) . . .
38.0(35) . . .
30.0(30) . . .
31.8(30) . . .
31.3(29) . . .
35.1(31) . . .
38.0(34) . . .
32.7(31) . . .
36.6(32) . . .
33.8(31) . . .
34.7(32) . . .
30.3(30) . . .
36.1(32) . . .
32.7(30) . . .
38.5(34) . . .
31.0(30) . . .
30.4(30) . . .
39(4) . . .
37.7(32) . . .
33.2(30) . . .
29.1(27) . . .
36.5(32) . . .
36.1(32) . . .
33.2(30) . . .
42(4) . . .
39.8(34) . . .
29.3(28) . . .
27.3(27) . . .
28.9(28) . . .
26.3(28) . . .
29.0(30) . . .
29.5(28) . . .
39(4) . . .
34.5(30) . . .
31.3(29) . . .
40.3(35) . . .
27.0(28) . . .
40.5(33) . . .
32.1(30) . . .
30.0(30) . . .
29.7(29) . . .
36.4(33) . . .
38.8(33) . . .
35.7(31) . . .
35.5(31) . . .
40(4) . . .
26.2(27) . . .
31.9(30) . . .
39.3(32) . . .
33.2(30) . . .
34.9(32) . . .
35.4(31) . . .
40.7(33) . . .
39.9(33) . . .
33.8(30) . . .
29.5(30) . . .
35.6(33) . . .
43.9(35) . . .
34.0(30) . . .
42(4) . . .
30.3(30) . . .
39.0(33) . . .
33.2(30) . . .
39.2(32) . . .
32.9(29) . . .
30.4(29) . . .
32.0(33) . . .
38.2(33) . . .
40.1(34) . . .
40.5(34) . . .
28.8(28) . . .
32.9(30) . . .
35.3(32) . . .
33.7(30) . . .
30.2(29) . . .
35.3(33) . . .
30.7(29) . . .
37.6(32) . . .
29.5(30) . . .
40(4) . . .
29.5(29) . . .
27.6(27) . . .
31.6(29) . . .
29.9(28) . . .
31.5(32) . . .
28.0(31) . . .
32.6(30) . . .
37.7(32) . . .
37.6(33) . . .
41(4) . . .
30.8(30) . . .
26.6(28) . . .
42.7(35) . . .
33.8(31) . . .
38(4) . . .
37.2(32) . . .
36.7(32) . . .
36.4(32) . . .
30.0(29) . . .
28.9(30) . . .
32.0(30) . . .
30.1(29) . . .
33.3(31) . . .
31.3(29) . . .
30.8(31) . . .
26.2(28) . . .
34.8(31) . . .
36.3(32) . . .
33.6(31) . . .
31.0(29) . . .
36(4) . . .
37.6(31) . . .
36.2(31) . . .
41(4) . . .
47(4) . . .
34.1(30) . . .
45(4) . . .
42.9(34) . . .
37.1(33) . . .
40(4) . . .
31.7(30) . . .
39.7(32) . . .
43(4) . . .
39.5(34) . . .
33.9(32) . . .
32.3(30) . . .
27.3(28) . . .
29.9(28) . . .
36.8(34) . . .
35.7(35) . . .
34.6(30) . . .
43.7(35) . . .
39.6(33) . . .
33.8(32) . . .
29.1(30) . . .
30.1(29) . . .
31.0(29) . . .
41(4) . . .
31.0(30) . . .
37.0(34) . . .
30.8(29) . . .
29.6(29) . . .
48(4) . . .
25.6(28) . . .
43(4) . . .
29.8(28) . . .
28.0(28) . . .
25.8(28) . . .
29.2(29) . . .
43.3(34) . . .
29.4(29) . . .
27.7(27) . . .
40.5(34) . . .
35.4(34) . . .
37.3(32) . . .
35.0(31) . . .
33.1(30) . . .
32.2(29) . . .
35.8(32) . . .
42(4) . . .
27.0(27) . . .
35.8(31) . . .
27.7(27) . . .
33.0(31) . . .
35.8(32) . . .
35.8(31) . . .
32.3(29) . . .
35.5(33) . . .
35.5(33) . . .
42(4) . . .
36.1(32) . . .
34.4(31) . . .
29.5(31) . . .
36.1(34) . . .
32.7(30) . . .
35.4(31) . . .
29.3(30) . . .
35.7(33) . . .
36.7(32) . . .
32.3(30) . . .
30.9(29) . . .
38.0(34) . . .
39(4) . . .
34.1(32) . . .
25.4(26) . . .
32.2(30) . . .
34.4(33) . . .
35.7(33) . . .
40.1(33) . . .
41.6(34) . . .
28.4(27) . . .
35.2(33) . . .
29.1(31) . . .
32.0(33) . . .
36.2(31) . . .
27.0(27) . . .
32.0(30) . . .
31.3(30) . . .
30.6(29) . . .
38.2(33) . . .
38.2(32) . . .
31.9(29) . . .
33.7(32) . . .
41.4(35) . . .
30.5(29) . . .
32.0(30) . . .
31.5(31) . . .
28.8(29) . . .
30.2(30) . . .
35.5(31) . . .
37.7(33) . . .
37.0(32) . . .
27.5(28) . . .
27.2(28) . . .
33.3(30) . . .
30.2(29) . . .
38(4) . . .
32.5(31) . . .
35.4(31) . . .
31.6(29) . . .
31.2(29) . . .
34.5(33) . . .
30.8(31) . . .
35.9(31) . . .
37.7(32) . . .
34.4(33) . . .
49(4) . . .
35.2(32) . . .
24.3(25) . . .
29.7(29) . . .
37.6(33) . . .
39.0(35) . . .
29.9(29) . . .
27.5(28) . . .
34.1(31) . . .
31.7(30) . . .
30.0(29) . . .
42.4(34) . . .
41.7(33) . . .
36.9(31) . . .
37.4(32) . . .
37.1(33) . . .
37.4(32) . . .
38.2(33) . . .
33.2(30) . . .
41(4) . . .
37.8(35) . . .
33.7(31) . . .
39.8(33) . . .
31.9(29) . . .
36.0(32) . . .
42(4) . . .
32.1(30) . . .
43.8(35) . . .
29.4(28) . . .
39.3(34) . . .
30.9(29) . . .
35.3(31) . . .
38.1(32) . . .
37.4(32) . . .
36.7(32) . . .
35.7(33) . . .
29.7(28) . . .
46(4) . . .
41.0(34) . . .
40(4) . . .
30.5(30) . . .
34.5(32) . . .
30.7(29) . . .
28.8(29) . . .
38.5(34) . . .
43.0(35) . . .
33.6(30) . . .
25.3(26) . . .
32.7(31) . . .
38.0(34) . . .
33.9(31) . . .
35.3(32) . . .
27.6(27) . . .
29.9(29) . . .
27.8(29) . . .
37.4(34) . . .
33.7(30) . . .
37.7(32) . . .
40.5(34) . . .
33.7(33) . . .
32.0(32) . . .
36.3(34) . . .
34.3(31) . . .
27.9(29) . . .
41(4) . . .
36.0(32) . . .
44.1(35) . . .
25.6(27) . . .
39.2(33) . . .
34.3(31) . . .
39(4) . . .
31.8(30) . . .
34.8(31) . . .
34.5(31) . . .
35.5(33) . . .
39(4) . . .
33.6(29) . . .
36.3(32) . . .
31.4(31) . . .
40(4) . . .
40.5(34) . . .
32.9(30) . . .
38.4(33) . . .
34.8(31) . . .
41(4) . . .
35.2(31) . . .
33.2(30) . . .
32.6(30) . . .
30.0(30) . . .
32.6(32) . . .
32.4(33) . . .
36.5(32) . . .
33.8(30) . . .
32.9(31) . . .
34.1(32) . . .
37.1(33) . . .
32.7(30) . . .
30.2(29) . . .
29.5(30) . . .
30.4(31) . . .
31.2(31) . . .
39.2(32) . . .
32.9(32) . . .
42.1(35) . . .
41(4) . . .
33.5(31) . . .
35.0(32) . . .
33.3(30) . . .
39(4) . . .
42(4) . . .
33.3(30) . . .
23.8(25) . . .
41(4) . . .
40(4) . . .
38.2(33) . . .
37.4(31) . . .
37.2(31) . . .
37.7(33) . . .
40(4) . . .
32.8(29) . . .
33.4(30) . . .
31.6(30) . . .
39.2(33) . . .
40(4) . . .
29.4(29) . . .
31.3(30) . . .
38.1(32) . . .
36.5(33) . . .
33.7(32) . . .
27.9(26) . . .
35.2(31) . . .
26.6(27) . . .
28.5(30) . . .
33.8(32) . . .
30.3(28) . . .
41.0(34) . . .
36.8(31) . . .
40.7(34) . . .
31.4(30) . . .
31.6(30) . . .
26.9(27) . . .
31.9(30) . . .
34.0(30) . . .
38.2(35) . . .
29.1(31) . . .
30.4(29) . . .
27.1(27) . . .
30.3(28) . . .
28.7(29) . . .
37.0(32) . . .
34.1(30) . . .
33.3(30) . . .
39.2(34) . . .
39.2(35) . . .
40.4(34) . . .
42.7(33) . . .
42(4) . . .
36.8(34) . . .
31.9(31) . . .
38.2(33) . . .
33.8(32) . . .
37.8(33) . . .
39.2(35) . . .
32.6(31) . . .
34.6(31) . . .
32.4(30) . . .
30.9(30) . . .
43(4) . . .
31.4(30) . . .
39.2(32) . . .
44.1(35) . . .
26.8(29) . . .
27.1(31) . . .
34(4) . . .
36.6(32) . . .
21.7(24) . . .
28.0(30) . . .
28.9(29) . . .
34.4(31) . . .
36.7(31) . . .
34.1(30) . . .
26.0(25) . . .
36.1(34) . . .
32.7(32) . . .
43.6(34) . . .
42.0(35) . . .
38.1(34) . . .
32.5(33) . . .
31.8(33) . . .
39.0(33) . . .
31.6(29) . . .
33.9(31) . . .
31.6(29) . . .
34.8(31) . . .
40.8(34) . . .
38.3(35) . . .
46(4) . . .
32.0(30) . . .
36.7(33) . . .
38.9(33) . . .
33.4(30) . . .
38.2(34) . . .
27.7(27) . . .
36.6(32) . . .
27.2(27) . . .
33.0(33) . . .
31.0(30) . . .
47(4) . . .
31.8(30) . . .
30.4(29) . . .
35.8(33) . . .
34.5(32) . . .
32.4(30) . . .
34.7(33) . . .
32.4(30) . . .
38.3(33) . . .
43(4) . . .
32.2(29) . . .
29.5(28) . . .
34.7(31) . . .
36.3(32) . . .
22.3(25) . . .
31.6(30) . . .
36.3(31) . . .
36.2(32) . . .
37.3(33) . . .
44(4) . . .
27.5(28) . . .
32.8(30) . . .
31.1(29) . . .
38.3(35) . . .
28.1(28) . . .
32.1(29) . . .
36.9(32) . . .
32.7(29) . . .
32.8(31) . . .
31.6(32) . . .
34.0(32) . . .
33.4(30) . . .
36.9(32) . . .
31.5(30) . . .
33.8(33) . . .
32.8(30) . . .
44.4(35) . . .
38.1(33) . . .
27.8(28) . . .
25.4(27) . . .
35.2(33) . . .
32.9(30) . . .
41.1(35) . . .
31.8(32) . . .
36.2(34) . . .
36.2(32) . . .
37.5(32) . . .
36.4(32) . . .
32.7(30) . . .
35.1(34) . . .
33.4(31) . . .
32.0(30) . . .
32.0(31) . . .
34.3(33) . . .
39.6(34) . . .
40.3(33) . . .
37.2(31) . . .
37.7(34) . . .
36.3(31) . . .
37.8(34) . . .
26.6(28) . . .
35.3(31) . . .
34.2(31) . . .
30.5(30) . . .
38(4) . . .
27.8(27) . . .
35.1(31) . . .
33.2(31) . . .
26.4(28) . . .
38(4) . . .
37.5(33) . . .
35.8(31) . . .
39.7(34) . . .
43(4) . . .
31.0(29) . . .
33.2(31) . . .
33.3(30) . . .
39.3(35) . . .
38(4) . . .
37.3(33) . . .
32.6(30) . . .
36.4(33) . . .
40(4) . . .
37.2(33) . . .
33.6(31) . . .
38.8(33) . . .
34.8(31) . . .
34.4(30) . . .
38.3(34) . . .
33.1(31) . . .
33.6(30) . . .
34.1(31) . . .
29.5(30) . . .
35.3(33) . . .
34.0(31) . . .
31.8(29) . . .
32.9(30) . . .
35.6(32) . . .
33.2(30) . . .
28.4(28) . . .
35.7(31) . . .
29.7(28) . . .
34.1(32) . . .
31.5(30) . . .
29.2(28) . . .
29.3(28) . . .
30.2(29) . . .
39.6(35) . . .
30.6(29) . . .
40.7(33) . . .
34.6(31) . . .
32.2(30) . . .
37(4) . . .
40.5(34) . . .
38.8(32) . . .
33.2(30) . . .
28.4(29) . . .
32.2(33) . . .
30.6(29) . . .
42.4(34) . . .
30.9(29) . . .
29.4(29) . . .
39.6(35) . . .
32.6(30) . . .
29.7(28) . . .
28.5(27) . . .
25.9(26) . . .
29.0(31) . . .
30.3(30) . . .
41.7(34) . . .
33.1(30) . . .
28.0(28) . . .
30.1(30) . . .
34.9(33) . . .
36.8(32) . . .
24.4(27) . . .
35.1(34) . . .
32.3(29) . . .
34.8(32) . . .
29.3(29) . . .
35.3(35) . . .
33.7(32) . . .
29.9(30) . . .
40.3(34) . . .
36.7(31) . . .
30.1(29) . . .
40.2(34) . . .
33.5(29) . . .
42.2(34) . . .
34.5(31) . . .
40.6(34) . . .
28.6(29) . . .
25.5(28) . . .
28.3(27) . . .
38.5(33) . . .
39.3(34) . . .
40.6(35) . . .
27.3(28) . . .
31.3(32) . . .
31.3(29) . . .
30.0(30) . . .
36.4(33) . . .
40.7(33) . . .
44.6(34) . . .
34.8(31) . . .
31.4(31) . . .
34.4(32) . . .
26.7(28) . . .
34.5(31) . . .
32.0(30) . . .
40.8(34) . . .
41.8(35) . . .
37.6(34) . . .
36.1(32) . . .
27.7(27) . . .
32.4(32) . . .
33.8(31) . . .
33.1(32) . . .
31.1(29) . . .
34.4(31) . . .
33.5(29) . . .
35.0(31) . . .
35.0(32) . . .
29.9(29) . . .
31.8(30) . . .
28.7(30) . . .
32.4(32) . . .
36.1(31) . . .
41.0(34) . . .
34.7(32) . . .
36.5(34) . . .
37.2(34) . . .
31.8(32) . . .
32.2(30) . . .
41.3(35) . . .
36.0(34) . . .
29.2(30) . . .
29.2(32) . . .
37.1(32) . . .
31.8(31) . . .
39(4) . . .
30.8(29) . . .
35.6(32) . . .
31.9(30) . . .
37.5(35) . . .
32.2(29) . . .
37.4(32) . . .
49(4) . . .
39.3(32) . . .
34.3(31) . . .
34.3(33) . . .
34.5(33) . . .
31.8(29) . . .
35.2(30) . . .
38.7(34) . . .
33.3(31) . . .
32.0(31) . . .
40.5(33) . . .
34.8(31) . . .
29.3(28) . . .
35(4) . . .
34.0(32) . . .
33.8(31) . . .
28.9(27) . . .
26.4(26) . . .
30.8(31) . . .
36.9(34) . . .
31.2(29) . . .
26.0(27) . . .
29.7(29) . . .
32.8(31) . . .
44(4) . . .
35.0(31) . . .
26.4(27) . . .
34.5(33) . . .
44(4) . . .
35.7(33) . . .
27.9(28) . . .
28.0(28) . . .
34.1(31) . . .
36.7(33) . . .
26.2(26) . . .
33.8(30) . . .
34.3(30) . . .
39.2(35) . . .
33.1(31) . . .
26.0(26) . . .
35.8(31) . . .
27.6(27) . . .
29.7(30) . . .
32.9(31) . . .
36.3(32) . . .
31.1(30) . . .
40(4) . . .
31.5(32) . . .
29.7(30) . . .
33.8(31) . . .
31.1(29) . . .
28.5(28) . . .
40.6(35) . . .
37.7(32) . . .
30.0(29) . . .
34.5(32) . . .
32.6(32) . . .
39(4) . . .
31.3(29) . . .
32.4(29) . . .
34.7(30) . . .
36.2(32) . . .
43(4) . . .
32.9(30) . . .
40.0(33) . . .
38.1(32) . . .
38.6(34) . . .
29.6(31) . . .
26.0(27) . . .
34.0(31) . . .
34.6(31) . . .
39.5(34) . . .
41(4) . . .
37.0(31) . . .
36.0(31) . . .
38.8(32) . . .
31.2(32) . . .
38.5(33) . . .
41.8(35) . . .
33.0(30) . . .
36.9(33) . . .
37.7(33) . . .
28.0(29) . . .
38.7(34) . . .
36.2(31) . . .
37.4(34) . . .
35.0(32) . . .
40(4) . . .
34.8(32) . . .
39.2(32) . . .
27.1(27) . . .
30.3(31) . . .
29.4(29) . . .
29.1(28) . . .
36.8(32) . . .
32.7(30) . . .
32.7(30) . . .
35.2(32) . . .
33.8(31) . . .
31.8(29) . . .
33.5(31) . . .
36.1(34) . . .
31.8(29) . . .
31.7(29) . . .
32.8(29) . . .
36.2(32) . . .
30.7(32) . . .
28.0(30) . . .
23.9(25) . . .
37.0(33) . . .
38.0(33) . . .
35.7(32) . . .
35.6(31) . . .
34.9(30) . . .
31.4(29) . . .
33.9(33) . . .
30.4(30) . . .
40.6(34) . . .
40.4(33) . . .
33.6(31) . . .
32.4(31) . . .
30.5(30) . . .
37.5(33) . . .
34.4(31) . . .
25.6(28) . . .
41(4) . . .
26.4(26) . . .
38.0(35) . . .
34.5(32) . . .
33.2(30) . . .
29.6(30) . . .
37.2(34) . . .
40.9(34) . . .
36.7(32) . . .
32.6(30) . . .
42(4) . . .
35.0(32) . . .
31.4(29) . . .
38.7(32) . . .
36.5(31) . . .
34.0(32) . . .
33.6(30) . . .
44(4) . . .
28.3(28) . . .
34.5(34) . . .
34.4(33) . . .
37.0(32) . . .
39.6(33) . . .
25.7(29) . . .
32.1(32) . . .
34.4(32) . . .
34.9(33) . . .
36.5(33) . . .
32.1(31) . . .
35.7(33) . . .
37(4) . . .
31.2(29) . . .
36.1(31) . . .
39.3(33) . . .
37.1(33) . . .
30.5(30) . . .
34.0(31) . . .
27.6(27) . . .
32.0(29) . . .
39.2(34) . . .
32.6(33) . . .
27.2(28) . . .
32.4(29) . . .
34.5(30) . . .
36.4(32) . . .
34.2(32) . . .
31.4(31) . . .
32.8(30) . . .
30.6(28) . . .
35.4(33) . . .
35.6(31) . . .
39.2(33) . . .
33.9(30) . . .
32.5(30) . . .
37.3(32) . . .
33.3(30) . . .
35(4) . . .
34.8(31) . . .
33.6(31) . . .
39.7(34) . . .
38.9(34) . . .
45(4) . . .
42.7(33) . . .
34.3(30) . . .
32.0(30) . . .
38.7(33) . . .
39.3(33) . . .
31.6(29) . . .
35.5(33) . . .
36.2(34) . . .
30.9(31) . . .
25.8(26) . . .
40.5(34) . . .
36.5(33) . . .
36.5(33) . . .
33.7(31) . . .
36.7(33) . . .
38.3(32) . . .
29.3(28) . . .
35.0(32) . . .
40.5(34) . . .
37.8(33) . . .
33.5(30) . . .
30.1(29) . . .
33.6(33) . . .
30.6(31) . . .
34.8(32) . . .
31.8(29) . . .
36.2(31) . . .
40(4) . . .
28.3(28) . . .
36.6(31) . . .
33.8(31) . . .
30.0(29) . . .
33.4(33) . . .
30.7(31) . . .
38.8(33) . . .
41.7(33) . . .
32.3(32) . . .
32.5(32) . . .
28.8(29) . . .
30.7(29) . . .
38.6(33) . . .
43(4) . . .
34.8(32) . . .
34.3(31) . . .
38.3(32) . . .
37.6(32) . . .
40(4) . . .
37.8(33) . . .
35.8(32) . . .
32.5(30) . . .
32.8(30) . . .
37.3(34) . . .
33.3(31) . . .
30.3(29) . . .
28.3(28) . . .
31.4(31) . . .
34.0(33) . . .
31.1(30) . . .
29.9(28) . . .
32.7(30) . . .
33.5(31) . . .
38.0(34) . . .
38.1(33) . . .
39.2(32) . . .
32.7(30) . . .
37.0(32) . . .
42(4) . . .
45(4) . . .
33.5(30) . . .
30.0(28) . . .
34.4(31) . . .
35.2(33) . . .
38.0(33) . . .
43(4) . . .
36.8(32) . . .
28.5(27) . . .
33.3(32) . . .
37.3(35) . . .
31.4(29) . . .
28.3(29) . . .
35.7(34) . . .
29.7(31) . . .
35.5(33) . . .
33.5(30) . . .
38.0(34) . . .
37.7(33) . . .
35.6(33) . . .
28.9(28) . . .
40.2(33) . . .
41.2(33) . . .
42.0(35) . . .
32.5(32) . . .
41.9(35) . . .
37.7(32) . . .
38.7(34) . . .
36(4) . . .
38.4(34) . . .
34.3(31) . . .
25.6(27) . . .
30.6(29) . . .
29.0(28) . . .
38.0(34) . . .
34.0(31) . . .
34.4(30) . . .
43(4) . . .
35.1(33) . . .
33.3(32) . . .
28.2(29) . . .
35.8(31) . . .
34.2(32) . . .
31.2(31) . . .
31.2(29) . . .
38.1(33) . . .
30.6(29) . . .
36.3(34) . . .
33.6(33) . . .
36.2(33) . . .
34.6(31) . . .
33.7(30) . . .
34.7(30) . . .
32.0(30) . . .
33.3(32) . . .
35.5(30) . . .
32.5(30) . . .
40.0(35) . . .
36.5(35) . . .
34.3(32) . . .
37.4(32) . . .
38.8(32) . . .
46(4) . . .
31.4(30) . . .
30.6(30) . . .
26.9(27) . . .
32.6(31) . . .
36.8(33) . . .
34.6(33) . . .
33.1(32) . . .
28.2(28) . . .
37.1(32) . . .
29.5(30) . . .
31.2(31) . . .
35.1(34) . . .
34.5(30) . . .
29.7(28) . . .
42(4) . . .
30.2(28) . . .
34.3(31) . . .
25.9(27) . . .
28.4(28) . . .
45(4) . . .
40.8(34) . . .
30.4(31) . . .
32.2(30) . . .
31.7(29) . . .
39.7(35) . . .
30.0(29) . . .
29.0(28) . . .
26.6(27) . . .
35.3(31) . . .
35.9(32) . . .
32.9(31) . . .
32.7(32) . . .
40.1(33) . . .
33.3(32) . . .
36.1(33) . . .
33.3(30) . . .
31.5(29) . . .
37.5(32) . . .
38.1(33) . . .
27.8(29) . . .
26.2(26) . . .
35.6(31) . . .
35.2(30) . . .
35.7(33) . . .
35.3(33) . . .
32.6(32) . . .
36.5(32) . . .
28.7(28) . . .
32.3(29) . . .
35.2(33) . . .
32.6(30) . . .
33.8(31) . . .
33.8(30) . . .
34.8(31) . . .
37.0(33) . . .
37.3(32) . . .
40.7(33) . . .
37.3(32) . . .
36.0(32) . . .
32.0(29) . . .
30.5(29) . . .
30.2(29) . . .
39.7(33) . . .
36.7(33) . . .
34.1(32) . . .
42.0(35) . . .
31.7(29) . . .
35.8(31) . . .
45(4) . . .
38.9(32) . . .
40.7(33) . . .
35.2(31) . . .
37.5(33) . . .
32.7(31) . . .
32.3(31) . . .
28.8(29) . . .
36.6(32) . . .
34.4(31) . . .
39.8(35) . . .
34.5(31) . . .
41.2(34) . . .
35.0(31) . . .
38.2(32) . . .
34.5(33) . . .
21.6(25) . . .
29.2(30) . . .
30.1(28) . . .
35.7(34) . . .
26.4(29) . . .
34.9(31) . . .
37.5(32) . . .
34.9(31) . . .
30.5(32) . . .
28.6(29) . . .
32.3(33) . . .
32.9(30) . . .
33.2(30) . . .
34.2(31) . . .
34.7(32) . . .
32.8(29) . . .
33.2(30) . . .
36.5(32) . . .
34.3(32) . . .
32.0(31) . . .
40.0(34) . . .
40.8(33) . . .
32.3(29) . . .
33.7(31) . . .
34.2(32) . . .
29.6(28) . . .
29.0(28) . . .
36.0(32) . . .
33.8(33) . . .
33.8(32) . . .
26.4(27) . . .
36.7(31) . . .
42.7(34) . . .
28.5(27) . . .
35.5(32) . . .
32.7(30) . . .
30.9(29) . . .
39.2(34) . . .
29.5(29) . . .
29.2(29) . . .
35.4(31) . . .
37.0(32) . . .
30.8(31) . . .
35.4(33) . . .
27.7(27) . . .
34.1(30) . . .
30.6(29) . . .
36.2(33) . . .
32.8(31) . . .
32.2(31) . . .
34.8(32) . . .
34.8(31) . . .
36.6(33) . . .
29.9(31) . . .
41(4) . . .
30.9(29) . . .
29.5(28) . . .
37.7(34) . . .
29.3(28) . . .
36.8(32) . . .
29.3(28) . . .
34.4(31) . . .
37(4) . . .
33.0(32) . . .
31.9(30) . . .
26.4(27) . . .
28.3(28) . . .
28.2(28) . . .
30.2(29) . . .
39.4(34) . . .
37.4(32) . . .
34.8(31) . . .
33.1(31) . . .
29.8(31) . . .
25.4(26) . . .
32.4(30) . . .
33.7(30) . . .
38.4(35) . . .
35.0(33) . . .
35.4(32) . . .
25.4(26) . . .
28.5(30) . . .
28.2(30) . . .
32.7(31) . . .
33.7(31) . . .
33.7(30) . . .
36.7(34) . . .
31.0(28) . . .
31.8(31) . . .
29.0(29) . . .
26.7(27) . . .
34.8(33) . . .
39.0(34) . . .
45(4) . . .
35.3(31) . . .
42.8(34) . . .
35.7(33) . . .
34.2(32) . . .
35.4(31) . . .
35.4(32) . . .
30.8(29) . . .
30.6(32) . . .
35.4(34) . . .
31.6(29) . . .
37.0(32) . . .
29.5(29) . . .
32.6(30) . . .
29.5(29) . . .
45(4) . . .
28.9(28) . . .
28.4(28) . . .
36.8(33) . . .
32.2(32) . . .
35.1(33) . . .
37.9(31) . . .
49(4) . . .
34.8(31) . . .
31.2(31) . . .
29.5(29) . . .
32.8(30) . . .
40.9(34) . . .
34.4(33) . . .
31.3(31) . . .
45(4) . . .
38.0(32) . . .
40.2(33) . . .
35.8(32) . . .
31.9(33) . . .
27.8(29) . . .
31.3(29) . . .
33.5(32) . . .
33.2(30) . . .
34.6(32) . . .
35.3(33) . . .
31.0(29) . . .
26.5(26) . . .
31.2(32) . . .
33.6(32) . . .
40.9(35) . . .
47(4) . . .
33.7(31) . . .
32.8(30) . . .
39.4(34) . . .
29.3(28) . . .
29.0(28) . . .
38.9(34) . . .
39(4) . . .
30.4(30) . . .
26.5(26) . . .
33.2(30) . . .
25.9(27) . . .
44(4) . . .
38(4) . . .
27.7(27) . . .
30.1(30) . . .
32.9(31) . . .
30.7(31) . . .
27.6(28) . . .
32.1(30) . . .
27.4(27) . . .
33.1(33) . . .
39(4) . . .
34.3(31) . . .
31.4(29) . . .
37.0(32) . . .
31.5(29) . . .
32.1(32) . . .
37.7(33) . . .
38.3(32) . . .
33.1(30) . . .
31.3(30) . . .
32.1(31) . . .
34.3(31) . . .
43.2(34) . . .
36.8(31) . . .
40.7(34) . . .
33.5(31) . . .
34.5(32) . . .
32.1(29) . . .
34.8(31) . . .
27.9(28) . . .
39.0(35) . . .
25.8(26) . . .
33.3(30) . . .
37.6(34) . . .
36.0(34) . . .
37.5(34) . . .
37.8(34) . . .
29.9(28) . . .
30.2(29) . . .
37.7(33) . . .
29.8(30) . . .
22.5(27) . . .
27.8(28) . . .
25.0(28) . . .
33.1(31) . . .
34.4(30) . . .
38.7(33) . . .
36.5(31) . . .
35.9(33) . . .
40.2(35) . . .
31.9(31) . . .
35.4(32) . . .
35.3(31) . . .
34.5(32) . . .
27.3(29) . . .
27.1(27) . . .
38.3(33) . . .
39.3(32) . . .
36.3(32) . . .
39.4(35) . . .
28.8(27) . . .
37.8(32) . . .
36.6(32) . . .
36.8(34) . . .
33.9(33) . . .
43(4) . . .
36.9(32) . . .
35.5(31) . . .
35.8(32) . . .
33.5(31) . . .
34.8(32) . . .
38.1(33) . . .
29.1(29) . . .
32.8(31) . . .
38(4) . . .
40.1(34) . . .
34.9(31) . . .
31.3(29) . . .
31.5(30) . . .
37.0(35) . . .
32.0(31) . . .
37.8(32) . . .
38.0(32) . . .
27.6(28) . . .
36.0(35) . . .
32.1(30) . . .
41.1(34) . . .
34.8(31) . . .
34.8(32) . . .
34.8(34) . . .
30.8(29) . . .
31.9(30) . . .
27.9(28) . . .
32.5(29) . . .
47(4) . . .
36.8(31) . . .
34.9(31) . . .
34.2(31) . . .
39(4) . . .
33.1(32) . . .
31.5(29) . . .
30.1(29) . . .
34.7(32) . . .
26.5(30) . . .
26.3(27) . . .
28.2(28) . . .
37.8(32) . . .
36.9(32) . . .
31.4(30) . . .
27.8(28) . . .
36.6(31) . . .
40.3(33) . . .
32.8(30) . . .
39.3(34) . . .
43(4) . . .
46(4) . . .
36.9(32) . . .
32.7(30) . . .
39(4) . . .
39.4(34) . . .
35.8(31) . . .
43.0(34) . . .
37(4) . . .
30.3(30) . . .
32.6(30) . . .
35.4(31) . . .
29.4(28) . . .
27.2(30) . . .
28.0(29) . . .
37.0(33) . . .
37.3(32) . . .
41(4) . . .
26.4(28) . . .
35.7(34) . . .
32.3(31) . . .
31.8(29) . . .
31.8(30) . . .
25.2(29) . . .
29.7(31) . . .
35.8(31) . . .
44.1(35) . . .
30.1(29) . . .
29.4(30) . . .
23.3(25) . . .
44(4) . . .
34.9(31) . . .
35.9(33) . . .
37.9(33) . . .
30.7(30) . . .
35.2(32) . . .
35.6(31) . . .
27.2(27) . . .
34.4(32) . . .
33.7(30) . . .
30.3(29) . . .
36.6(32) . . .
29.5(28) . . .
33.0(34) . . .
31.5(30) . . .
38.9(32) . . .
28.6(28) . . .
40(4) . . .
29.7(30) . . .
30.0(28) . . .
32.9(29) . . .
29.4(29) . . .
29.9(29) . . .
34.1(32) . . .
34.7(32) . . .
34.8(31) . . .
37.2(33) . . .
33.6(30) . . .
33.0(29) . . .
35.8(32) . . .
29.2(28) . . .
37.5(32) . . .
33.7(32) . . .
33.8(34) . . .
33.1(32) . . .
27.7(28) . . .
35.7(31) . . .
33.9(31) . . .
44(4) . . .
34.8(32) . . .
40.2(33) . . .
33.1(30) . . .
29.5(29) . . .
37.0(34) . . .
34.6(31) . . .
38.2(32) . . .
35.8(33) . . .
34.5(30) . . .
35.7(31) . . .
34.8(32) . . .
37.6(32) . . .
31.9(33) . . .
29.4(30) . . .
32.2(32) . . .
38.9(34) . . .
39.2(33) . . .
37.3(32) . . .
40.8(35) . . .
36.4(32) . . .
37.0(31) . . .
36.2(31) . . .
39.6(34) . . .
32.1(34) . . .
32.4(31) . . .
32.3(29) . . .
37.5(32) . . .
37.0(32) . . .
30.5(29) . . .
35.7(32) . . .
33.2(30) . . .
33.5(30) . . .
43(4) . . .
31.1(31) . . .
25.7(26) . . .
30.8(29) . . .
30.6(29) . . .
29.8(29) . . .
29.6(31) . . .
28.5(28) . . .
31.3(29) . . .
32.8(30) . . .
34.5(31) . . .
37.0(34) . . .
30.9(29) . . .
29.2(28) . . .
26.4(27) . . .
35.1(32) . . .
41(4) . . .
31.3(30) . . .
32.9(30) . . .
28.1(28) . . .
35.0(31) . . .
27.5(28) . . .
30.0(31) . . .
36.5(31) . . .
31.4(30) . . .
35.1(31) . . .
47(4) . . .
43(4) . . .
38.1(32) . . .
37.9(34) . . .
42(4) . . .
32.7(30) . . .
41.9(34) . . .
37.6(32) . . .
28.5(29) . . .
34.6(33) . . .
43(4) . . .
36.2(32) . . .
36.6(32) . . .
26.4(29) . . .
32.1(32) . . .
35.2(30) . . .
32.4(29) . . .
31.0(29) . . .
33.7(32) . . .
28.4(28) . . .
35.5(32) . . .
33.1(30) . . .
34.8(32) . . .
30.8(29) . . .
35.4(33) . . .
25.6(26) . . .
35.8(31) . . .
38.3(32) . . .
39.3(34) . . .
36.2(34) . . .
31.1(31) . . .
30.3(29) . . .
33.7(30) . . .
36.6(31) . . .
34.2(32) . . .
38.0(33) . . .
39.1(34) . . .
34.1(30) . . .
30.8(29) . . .
37.3(34) . . .
33.0(31) . . .
40.8(33) . . .
47(4) . . .
36.0(35) . . .
35.8(32) . . .
36.6(33) . . .
35.5(31) . . .
36.3(32) . . .
34.5(30) . . .
36.6(32) . . .
34.7(31) . . .
26.7(28) . . .
38.1(33) . . .
35.5(33) . . .
29.0(29) . . .
28.3(28) . . .
32.6(30) . . .
33(4) . . .
24.9(26) . . .
38.2(34) . . .
34.8(30) . . .
32.0(29) . . .
33.0(30) . . .
34.9(32) . . .
33.4(31) . . .
30.1(28) . . .
26.8(27) . . .
28.6(28) . . .
32.3(32) . . .
29.8(29) . . .
43.0(34) . . .
41.0(34) . . .
33.9(31) . . .
38.0(34) . . .
32.0(35) . . .
28.5(29) . . .
42.6(35) . . .
46(4) . . .
36.3(34) . . .
41(4) . . .
37.4(31) . . .
41.5(33) . . .
32.7(29) . . .
42(4) . . .
40(4) . . .
32.5(29) . . .
26.6(29) . . .
28.5(28) . . .
32.9(30) . . .
34.1(30) . . .
33.6(30) . . .
35.2(31) . . .
35.1(31) . . .
30.2(29) . . .
37.5(33) . . .
29.0(28) . . .
31.8(29) . . .
36.7(33) . . .
37.7(33) . . .
36.6(32) . . .
25.8(27) . . .
27.6(30) . . .
30.5(32) . . .
33.0(32) . . .
25.5(27) . . .
25.4(26) . . .
38.2(35) . . .
35.0(32) . . .
33.2(32) . . .
25.3(26) . . .
27.0(28) . . .
37.2(33) . . .
33.6(33) . . .
34.8(32) . . .
28.8(28) . . .
34.2(31) . . .
31.1(31) . . .
31.5(33) . . .
36.2(33) . . .
36.1(31) . . .
34.3(30) . . .
29.8(30) . . .
38(4) . . .
27.3(27) . . .
32.2(29) . . .
39.7(32) . . .
30.7(29) . . .
33.2(32) . . .
41(4) . . .
39.3(32) . . .
38.0(32) . . .
25.8(28) . . .
33.5(33) . . .
39.0(33) . . .
31.6(29) . . .
34.6(30) . . .
40.5(34) . . .
34.9(33) . . .
31.3(30) . . .
40.7(33) . . .
38.1(32) . . .
36.4(33) . . .
40(4) . . .
32.3(30) . . .
34.6(30) . . .
36.1(33) . . .
30.9(32) . . .
27.7(28) . . .
31.1(29) . . .
34.8(31) . . .
31.2(30) . . .
30.3(30) . . .
35.8(32) . . .
40.8(33) . . .
41.5(34) . . .
33.0(29) . . .
48(4) . . .
31.8(30) . . .
47(4) . . .
30.1(28) . . .
32.4(30) . . .
32.6(32) . . .
32.3(31) . . .
31.8(30) . . .
35.9(31) . . .
30.0(31) . . .
23.9(27) . . .
37.7(34) . . .
33.6(31) . . .
29.5(28) . . .
44(4) . . .
38.8(33) . . .
34.0(32) . . .
32.5(32) . . .
35.6(33) . . .
38.5(33) . . .
33.7(32) . . .
35.6(32) . . .
38.2(32) . . .
31.5(29) . . .
31.7(29) . . .
34.9(32) . . .
32.2(31) . . .
30.7(30) . . .
35.0(33) . . .
33.1(31) . . .
35.6(35) . . .
35.4(31) . . .
41.3(33) . . .
30.9(29) . . .
31.6(32) . . .
33.6(33) . . .
27.9(28) . . .
34.9(31) . . .
34.2(31) . . .
29.7(30) . . .
31.0(31) . . .
42(4) . . .
34.4(30) . . .
35.1(32) . . .
32.0(31) . . .
26.1(27) . . .
38.2(33) . . .
36.1(31) . . .
29.5(29) . . .
29.9(28) . . .
37.8(34) . . .
29.8(28) . . .
32.5(30) . . .
36.1(33) . . .
29.8(29) . . .
34.1(32) . . .
38.4(34) . . .
37.0(32) . . .
38.1(32) . . .
33.2(30) . . .
38.1(33) . . .
28.0(27) . . .
27.5(27) . . .
33.2(32) . . .
36(4) . . .
29.7(29) . . .
33.2(31) . . .
31.1(29) . . .
37.0(33) . . .
35.0(32) . . .
30.6(29) . . .
30.0(29) . . .
45.5(35) . . .
35.6(32) . . .
28.1(28) . . .
34.2(30) . . .
32.5(31) . . .
31.5(30) . . .
36.4(32) . . .
33.4(31) . . .
33.8(33) . . .
31.9(30) . . .
39.8(35) . . .
32.9(31) . . .
33.4(32) . . .
33.2(31) . . .
36.8(32) . . .
39.3(33) . . .
37.0(31) . . .
38.4(34) . . .
43.5(35) . . .
36.9(31) . . .
31.4(30) . . .
35.0(33) . . .
35.7(32) . . .
39.9(35) . . .
38.3(32) . . .
37.8(33) . . .
32.6(32) . . .
36.5(33) . . .
39.2(34) . . .
39.5(33) . . .
31.0(29) . . .
24.2(27) . . .
25.7(27) . . .
30.7(31) . . .
37.5(32) . . .
36.4(33) . . .
28.5(30) . . .
29.6(29) . . .
31.0(29) . . .
26.0(27) . . .
28.4(27) . . .
39.7(34) . . .
35.7(33) . . .
29.3(28) . . .
33.8(32) . . .
39.1(35) . . .
33.0(32) . . .
39.6(34) . . .
38.3(32) . . .
36.6(31) . . .
30.6(29) . . .
39.3(35) . . .
31.9(31) . . .
27.4(28) . . .
38.7(32) . . .
35.0(31) . . .
35.6(32) . . .
32.5(29) . . .
38.4(32) . . .
34.5(31) . . .
29.6(28) . . .
38.8(34) . . .
38.7(33) . . .
35.1(31) . . .
28.8(28) . . .
28.4(29) . . .
39(4) . . .
34.7(31) . . .
39.6(33) . . .
36.5(32) . . .
30.0(29) . . .
40(4) . . .
35.8(34) . . .
41.0(33) . . .
39.1(35) . . .
41(4) . . .
33.6(30) . . .
37.6(32) . . .
43.7(35) . . .
36.1(32) . . .
32.7(31) . . .
30.5(30) . . .
31.7(32) . . .
28.2(27) . . .
24.8(27) . . .
27.5(30) . . .
36.4(35) . . .
32.0(30) . . .
27.4(28) . . .
34(4) . . .
37.0(34) . . .
30.6(28) . . .
31.1(29) . . .
31.6(30) . . .
32.5(33) . . .
36.0(33) . . .
37.3(34) . . .
41(4) . . .
27.9(27) . . .
36.5(33) . . .
32.5(33) . . .
32(4) . . .
46(4) . . .
32.4(31) . . .
28.1(28) . . .
56(4) . . .
34.5(31) . . .
43.3(34) . . .
39.6(34) . . .
22.5(24) . . .
34.7(34) . . .
32.4(30) . . .
36.9(32) . . .
44(4) . . .
33.2(29) . . .
37.5(32) . . .
33.6(33) . . .
29.1(28) . . .
32.9(30) . . .
32.4(30) . . .
31.5(31) . . .
38.2(34) . . .
38.7(33) . . .
36.7(33) . . .
37.1(33) . . .
34.1(32) . . .
39.2(35) . . .
35.9(31) . . .
35.7(32) . . .
35.4(32) . . .
31.6(30) . . .
36.4(33) . . .
27.5(27) . . .
36.5(34) . . .
27.9(29) . . .
22.9(25) . . .
31.6(29) . . .
32.4(30) . . .
36.7(33) . . .
30.7(30) . . .
37.7(35) . . .
26.5(27) . . .
32.5(30) . . .
30.0(28) . . .
38.8(35) . . .
45(4) . . .
34.1(31) . . .
32.2(29) . . .
36.6(32) . . .
31.3(30) . . .
35.9(34) . . .
35.4(32) . . .
35.0(30) . . .
29.8(30) . . .
32.6(31) . . .
33.4(32) . . .
30.5(28) . . .
37.0(32) . . .
39.2(33) . . .
37.1(33) . . .
34.7(31) . . .
41.3(33) . . .
36.6(32) . . .
32.3(30) . . .
35.6(35) . . .
40.2(34) . . .
30.9(29) . . .
27.1(28) . . .
38.3(34) . . .
31.5(28) . . .
34.8(31) . . .
32.9(30) . . .
33.3(30) . . .
34.0(31) . . .
35.5(34) . . .
35.5(32) . . .
42.6(34) . . .
37.6(33) . . .
31.3(31) . . .
31.7(31) . . .
39.8(33) . . .
36.9(32) . . .
32.8(30) . . .
35.7(32) . . .
33.4(30) . . .
32.8(29) . . .
36.4(32) . . .
36.3(32) . . .
30.1(31) . . .
28.7(30) . . .
23.2(25) . . .
29.7(28) . . .
26.3(27) . . .
34.1(32) . . .
35.0(31) . . .
36.3(33) . . .
36.3(31) . . .
34.0(31) . . .
38(4) . . .
34.6(31) . . .
30.2(28) . . .
38.5(33) . . .
45(4) . . .
41(4) . . .
31.0(31) . . .
28.9(28) . . .
28.2(27) . . .
33.2(30) . . .
30.2(29) . . .
28.3(29) . . .
34.5(31) . . .
31.0(29) . . .
41(4) . . .
40(4) . . .
33.9(32) . . .
32.3(29) . . .
30.4(31) . . .
33.4(31) . . .
42(4) . . .
29.9(30) . . .
22.3(25) . . .
31.7(29) . . .
39.5(34) . . .
38.3(33) . . .
38.4(32) . . .
32.3(29) . . .
31.4(30) . . .
40(4) . . .
33.8(32) . . .
32.8(33) . . .
30.3(29) . . .
24.9(27) . . .
30.4(32) . . .
35.7(33) . . .
35.7(31) . . .
36.0(31) . . .
34.2(31) . . .
44(4) . . .
32.1(30) . . .
33.5(30) . . .
35.8(31) . . .
34.0(31) . . .
38(4) . . .
33.0(30) . . .
40.2(33) . . .
32.4(30) . . .
27.6(27) . . .
32.5(32) . . .
33.0(30) . . .
38.6(32) . . .
39.5(33) . . .
38.5(33) . . .
41(4) . . .
35.1(33) . . .
27.2(27) . . .
27.4(28) . . .
35.0(32) . . .
26.0(27) . . .
28.5(29) . . .
37.2(32) . . .
28.7(29) . . .
28.3(29) . . .
23.2(26) . . .
35.7(33) . . .
37.0(32) . . .
34.6(31) . . .
27.4(28) . . .
43(4) . . .
34.3(31) . . .
39.5(33) . . .
34.7(30) . . .
40.5(35) . . .
37.6(34) . . .
29.6(31) . . .
31.9(30) . . .
29.4(28) . . .
35.9(33) . . .
35.8(34) . . .
31.9(30) . . .
32.5(30) . . .
33.2(32) . . .
36.8(35) . . .
35.3(34) . . .
37.1(33) . . .
35.1(31) . . .
27.6(28) . . .
27.9(29) . . .
32.3(31) . . .
33.8(32) . . .
25.9(26) . . .
37.7(32) . . .
36.8(34) . . .
29.5(29) . . .
42.2(34) . . .
34.6(31) . . .
29.8(32) . . .
34.3(31) . . .
36.7(33) . . .
32.5(30) . . .
26.4(27) . . .
30.0(29) . . .
25.6(26) . . .
28.8(28) . . .
39.2(33) . . .
30.8(29) . . .
29.6(29) . . .
41(4) . . .
28.4(29) . . .
30.2(29) . . .
35.6(32) . . .
34.7(31) . . .
36.2(33) . . .
35.8(32) . . .
30.8(29) . . .
39.7(33) . . .
37.3(33) . . .
29.9(29) . . .
30.0(30) . . .
30.7(30) . . .
35.7(32) . . .
35.3(32) . . .
29.0(28) . . .
40.5(35) . . .
34.4(30) . . .
42.5(35) . . .
27.6(27) . . .
27.8(28) . . .
35.5(32) . . .
34.2(31) . . .
40.0(34) . . .
35.3(32) . . .
28.8(28) . . .
36.9(32) . . .
36.9(32) . . .
36.1(33) . . .
38(4) . . .
34.4(32) . . .
44.6(35) . . .
30.5(29) . . .
34.5(32) . . .
38.0(34) . . .
32.4(30) . . .
43.7(35) . . .
38.5(32) . . .
33.4(31) . . .
32.2(32) . . .
29.6(30) . . .
32.2(29) . . .
36.0(31) . . .
32.8(31) . . .
34.2(33) . . .
32.9(32) . . .
25.1(26) . . .
29.1(28) . . .
35.2(32) . . .
32.3(31) . . .
35.7(33) . . .
33.8(30) . . .
39.7(33) . . .
30.0(29) . . .
38(4) . . .
25.4(26) . . .
29.0(28) . . .
30.0(28) . . .
36.0(32) . . .
35.0(31) . . .
30.3(30) . . .
29.6(29) . . .
38.0(33) . . .
37.2(31) . . .
39.3(35) . . .
31.1(30) . . .
27.1(27) . . .
36.9(35) . . .
33.5(33) . . .
35.9(35) . . .
34.4(34) . . .
30.0(28) . . .
33.6(32) . . .
39.5(33) . . .
50(4) . . .
42.5(34) . . .
43.2(35) . . .
40.4(34) . . .
40(4) . . .
26.7(29) . . .
30.7(29) . . .
35.0(31) . . .
37.5(33) . . .
31.2(29) . . .
41(4) . . .
34.1(31) . . .
35.1(31) . . .
41(4) . . .
42(4) . . .
37.4(34) . . .
30.0(28) . . .
31.8(30) . . .
35.5(32) . . .
31.0(32) . . .
33.0(31) . . .
39.3(32) . . .
36.9(32) . . .
34.8(31) . . .
34.6(33) . . .
41(4) . . .
32.7(30) . . .
30.6(28) . . .
35.4(32) . . .
39(4) . . .
37.4(33) . . .
44.0(35) . . .
35.7(31) . . .
37.0(33) . . .
27.3(28) . . .
24.8(27) . . .
30.5(29) . . .
35.8(31) . . .
33.0(31) . . .
28.5(29) . . .
28.7(28) . . .
28.1(27) . . .
31.9(29) . . .
32.3(30) . . .
31.6(30) . . .
38(4) . . .
32.9(30) . . .
35.4(32) . . .
35.0(31) . . .
39.3(33) . . .
24.9(26) . . .
28.2(28) . . .
34.6(33) . . .
31.3(29) . . .
31.8(29) . . .
36.7(32) . . .
35.7(32) . . .
28.8(31) . . .
27.1(29) . . .
29.7(29) . . .
34.0(31) . . .
41.5(34) . . .
30.6(30) . . .
30.4(29) . . .
35.0(33) . . .
27.9(29) . . .
31.0(30) . . .
33.0(30) . . .
23.3(25) . . .
27.0(28) . . .
36.0(32) . . .
32.8(30) . . .
37.2(34) . . .
37.5(34) . . .
29.6(28) . . .
42.7(34) . . .
42.6(34) . . .
36.8(32) . . .
34.3(30) . . .
42(4) . . .
37.1(32) . . .
27.6(29) . . .
34.9(32) . . .
40.2(35) . . .
42.1(34) . . .
43.8(34) . . .
34.3(31) . . .
35.3(32) . . .
31.1(31) . . .
26.6(28) . . .
32.2(30) . . .
40.1(35) . . .
33.0(32) . . .
29.4(31) . . .
25.9(26) . . .
30.0(28) . . .
30.2(30) . . .
33.0(31) . . .
31.5(29) . . .
36.5(31) . . .
31.4(29) . . .
45(4) . . .
39.1(34) . . .
38.8(32) . . .
26.1(27) . . .
28.9(28) . . .
41.5(35) . . .
38(4) . . .
29.8(29) . . .
32.6(30) . . .
31.1(29) . . .
32.6(32) . . .
27.9(29) . . .
34.2(31) . . .
38.5(32) . . .
37.6(32) . . .
35.8(32) . . .
28.5(30) . . .
31.8(31) . . .
35.3(31) . . .
39.1(33) . . .
38.3(33) . . .
36.5(33) . . .
39.0(34) . . .
32.7(29) . . .
37.7(32) . . .
37.2(31) . . .
28.7(30) . . .
32.2(31) . . .
35.3(30) . . .
27.6(27) . . .
37.6(33) . . .
33.1(32) . . .
32.9(32) . . .
35.9(31) . . .
38.8(34) . . .
30.8(30) . . .
38.3(33) . . .
46(4) . . .
35.8(32) . . .
34.9(31) . . .
26.8(26) . . .
30.1(30) . . .
33.6(34) . . .
35.2(31) . . .
32.2(31) . . .
32.6(31) . . .
32.6(31) . . .
32.5(30) . . .
30.6(29) . . .
43(4) . . .
39.4(33) . . .
38.8(35) . . .
28.9(28) . . .
29.6(29) . . .
38.4(34) . . .
40.6(35) . . .
39.3(34) . . .
32.0(29) . . .
34.3(30) . . .
28.8(32) . . .
31.9(32) . . .
36.9(33) . . .
36.2(32) . . .
35.7(31) . . .
34.1(31) . . .
21.9(24) . . .
30.5(29) . . .
31.8(30) . . .
33.8(30) . . .
36.8(33) . . .
32.9(32) . . .
27.1(27) . . .
22.1(24) . . .
41(4) . . .
40(4) . . .
37.5(35) . . .
28.4(28) . . .
26.3(27) . . .
22.4(25) . . .
32.3(32) . . .
35.1(33) . . .
31.3(33) . . .
33.2(30) . . .
32.5(29) . . .
33.9(33) . . .
37.8(33) . . .
36.4(32) . . .
38.8(33) . . .
34.0(32) . . .
33.6(31) . . .
44(4) . . .
28.2(28) . . .
31.3(29) . . .
40(4) . . .
35.5(33) . . .
31.9(31) . . .
41.0(34) . . .
53(4) . . .
30.0(28) . . .
36.3(31) . . .
33.9(32) . . .
35.4(33) . . .
30.6(28) . . .
33.3(33) . . .
34.0(33) . . .
24.4(25) . . .
33.0(30) . . .
33.7(30) . . .
30.1(30) . . .
30.4(31) . . .
25.0(26) . . .
32.7(29) . . .
31.4(29) . . .
37.7(33) . . .
34.8(32) . . .
43(4) . . .
32.5(30) . . .
39.2(32) . . .
32.1(31) . . .
34.5(33) . . .
39.3(33) . . .
38.3(32) . . .
25.4(26) . . .
49(4) . . .
38(4) . . .
38.8(33) . . .
32.4(30) . . .
32.5(29) . . .
38.2(34) . . .
27.2(28) . . .
37.5(34) . . .
33.6(30) . . .
27.7(28) . . .
37(4) . . .
34.5(32) . . .
45(4) . . .
28.4(27) . . .
40.8(34) . . .
30.2(28) . . .
29.5(30) . . .
24.6(28) . . .
29.8(29) . . .
32.7(30) . . .
31.0(31) . . .
33.6(33) . . .
34.7(31) . . .
39.8(33) . . .
34.7(31) . . .
37.2(33) . . .
31.3(29) . . .
32.2(31) . . .
32.5(30) . . .
30.7(30) . . .
35.0(33) . . .
32.5(30) . . .
33.6(31) . . .
27.1(28) . . .
41(4) . . .
33.7(33) . . .
36.5(33) . . .
34.5(31) . . .
38.0(32) . . .
31.0(28) . . .
38(4) . . .
28.8(29) . . .
37.2(32) . . .
37.6(32) . . .
31.5(32) . . .
34.5(31) . . .
32.9(29) . . .
31.0(29) . . .
31.0(29) . . .
42(4) . . .
35.3(34) . . .
34.5(33) . . .
41.9(33) . . .
28.0(28) . . .
34.1(31) . . .
36.7(32) . . .
36.4(32) . . .
34.3(30) . . .
38.4(33) . . .
26.9(27) . . .
32.8(30) . . .
34.3(31) . . .
37.0(32) . . .
37.4(34) . . .
30.8(29) . . .
35.5(32) . . .
26.9(27) . . .
27.0(27) . . .
31.2(30) . . .
35.3(32) . . .
28.7(28) . . .
34.3(31) . . .
30.7(29) . . .
38.1(33) . . .
37.5(34) . . .
34.0(33) . . .
40(4) . . .
31.0(29) . . .
35.2(32) . . .
34.5(34) . . .
29.7(30) . . .
33.7(30) . . .
37.0(31) . . .
29.0(28) . . .
30.8(30) . . .
30.3(30) . . .
26.3(27) . . .
28.5(28) . . .
31.7(30) . . .
33.0(34) . . .
29.2(31) . . .
28.2(28) . . .
27.3(27) . . .
32.7(30) . . .
39.9(34) . . .
38.9(32) . . .
26.3(27) . . .
38.1(32) . . .
32.4(31) . . .
36.1(34) . . .
32.3(30) . . .
25.9(26) . . .
32.6(30) . . .
38.0(33) . . .
36.4(35) . . .
34.8(32) . . .
35.7(31) . . .
32.9(30) . . .
31.7(29) . . .
36.1(34) . . .
30.2(29) . . .
30.0(28) . . .
31.9(31) . . .
28.0(29) . . .
39(4) . . .
36.8(32) . . .
24.9(26) . . .
36.8(32) . . .
30.1(30) . . .
37.5(35) . . .
38(4) . . .
34.5(31) . . .
41.5(34) . . .
34.2(33) . . .
35.3(34) . . .
37.6(34) . . .
31.9(30) . . .
33.1(30) . . .
43(4) . . .
34.7(33) . . .
29.6(29) . . .
30.9(29) . . .
42(4) . . .
30.1(29) . . .
40.9(35) . . .
32.3(30) . . .
32.1(30) . . .
loop_
_refln_index_h
_refln_index_k
_refln_index_l
_refln_observed_status
_refln_F_squared_meas
_refln_F_squared_calc
_refln_phase_calc
_refln_d_spacing
_gsas_i100_meas
0 2 0 o 1048.112 1385.442 180.00 8.36118 4.61
0 0 2 o 23.379 14.266 180.00 6.42032 0.06
1 0 1 o 13792.836 14247.647 0.00 5.89015 60.24
0 2 2 o 30619.688 31017.049 0.00 5.09224 100.00
0 1 3 o 88.610 25.037 0.00 4.14654 0.19
0 3 1 o 1302.630 1337.028 180.00 5.11314 4.29
1 1 2 o 4537.781 4194.127 0.00 4.44579 22.61
0 4 0 o 1782.725 888.847 0.00 4.18059 1.96
1 2 1 o 1762.143 1776.331 0.00 4.81528 10.29
1 0 3 o 257.011 189.753 180.00 3.59575 0.42
0 0 4 o 437.829 127.039 180.00 3.21016 0.29
0 2 4 o 1804.758 1948.864 0.00 2.99687 2.05
0 3 3 o 12316.933 11537.479 0.00 3.39483 17.92
1 2 3 o 1153.436 1251.309 0.00 3.30324 3.18
1 4 1 o 897.988 904.012 180.00 3.40917 2.64
0 5 1 o 84.586 56.415 180.00 3.23649 0.11
1 1 4 o 67.695 35.075 0.00 2.84701 0.14
1 3 2 o 3748.037 3618.119 0.00 3.55328 11.95
0 4 2 o 0.185 0.382 0.00 3.50335 0.00
0 1 5 o 1752.893 1837.352 180.00 2.53837 1.43
2 0 0 o 2083.671 2048.464 180.00 3.31434 1.45
0 6 0 o 1187.394 1315.051 0.00 2.78706 0.58
1 0 5 o 509.463 300.631 180.00 2.39469 0.37
2 1 1 o 1034.305 988.975 180.00 3.15165 2.60
2 0 2 o 401.710 454.842 0.00 2.94508 0.44
2 2 0 o 188.652 220.267 0.00 3.08110 0.23
1 3 4 o 44.219 103.161 0.00 2.56510 0.07
0 0 6 o 2907.162 3662.010 0.00 2.14011 0.85
1 2 5 o 449.722 475.731 0.00 2.30213 0.61
0 3 5 o 23.981 220.322 0.00 2.33248 0.02
2 1 3 o 1389.277 1410.642 0.00 2.58895 2.36
2 3 1 o 853.749 923.478 0.00 2.78117 1.67
2 2 2 o 2212.595 2261.694 180.00 2.77780 4.32
0 4 4 o 9467.942 11498.475 0.00 2.54612 7.78
1 4 3 o 4980.994 5094.526 0.00 2.72610 9.37
0 2 6 o 130.944 125.932 180.00 2.07327 0.07
1 5 2 o 3138.949 2837.781 180.00 2.70746 5.83
1 6 1 o 748.889 711.149 0.00 2.51927 1.20
0 6 2 o 75.291 133.455 0.00 2.55657 0.06
2 4 0 o 1652.532 1806.174 180.00 2.59717 1.41
1 1 6 o 787.937 746.766 180.00 2.02166 0.82
2 0 4 o 2216.826 2319.546 180.00 2.30588 1.50
0 7 1 o 161.790 278.012 0.00 2.34861 0.11
0 5 3 o 537.727 581.215 180.00 2.63536 0.47
2 2 4 o 49.773 47.715 0.00 2.22289 0.06
0 1 7 o 325.144 539.161 0.00 1.82344 0.14
2 3 3 o 56.609 138.660 180.00 2.37154 0.08
0 8 0 o 29.572 24.538 180.00 2.09030 0.01
2 5 1 o 2.779 4.299 180.00 2.31558 0.00
2 4 2 o 86.731 49.634 180.00 2.40764 0.13
1 0 7 o 1236.692 1099.315 0.00 1.76793 0.49
2 1 5 o 379.339 354.898 180.00 2.01524 0.39
1 4 5 o 6.738 6.764 180.00 2.07793 0.01
1 3 6 o 654.750 606.250 0.00 1.91291 0.61
0 4 6 o 1894.971 1581.945 180.00 1.90500 0.88
2 6 0 o 1184.087 1266.897 180.00 2.13311 0.69
1 5 4 o 5051.250 5390.991 0.00 2.18635 6.14
1 7 2 o 2526.104 2476.411 0.00 2.12121 2.89
0 3 7 o 1487.492 1429.166 0.00 1.74245 0.58
0 5 5 o 19890.217 20646.932 0.00 2.03690 10.51
1 2 7 o 657.094 623.715 180.00 1.72969 0.50
2 0 6 o 2.187 2.251 180.00 1.79787 0.00
0 0 8 o 70.712 106.522 0.00 1.60508 0.01
1 8 1 o 781.409 772.992 180.00 1.96993 0.77
0 8 2 o 3171.134 2544.428 180.00 1.98761 1.60
1 6 3 o 4877.912 4667.030 180.00 2.20283 6.02
2 3 5 o 1212.383 966.644 0.00 1.90747 1.13
0 2 8 o 649.734 546.323 180.00 1.57630 0.21
3 0 1 o 2931.968 2674.999 180.00 2.17756 1.77
0 7 3 o 6580.636 5716.365 0.00 2.08600 3.64
2 4 4 o 1340.148 1304.231 180.00 2.01911 1.39
1 1 8 o 855.961 763.180 0.00 1.55325 0.53
2 2 6 o 1666.247 1427.121 180.00 1.75770 1.32
0 6 4 o 9333.744 7565.676 180.00 2.10455 5.26
2 6 2 o 531.676 487.080 180.00 2.02431 0.56
3 1 2 o 2946.400 2957.036 180.00 2.07318 3.22
0 9 1 o 2859.589 3021.444 0.00 1.83889 1.24
2 7 1 o 286.318 283.442 180.00 1.91626 0.27
3 2 1 o 57.144 54.984 0.00 2.10727 0.06
2 5 3 o 372.042 327.868 0.00 2.06275 0.40
3 0 3 o 2494.235 2734.970 0.00 1.96338 1.23
2 1 7 o 268.472 342.597 0.00 1.59761 0.18
1 4 7 o 206.516 266.292 180.00 1.62831 0.14
1 5 6 o 1293.904 1372.266 0.00 1.73946 1.00
0 1 9 o 2259.218 2222.521 0.00 1.42157 0.59
3 2 3 o 4952.941 4234.755 180.00 1.91139 4.62
1 3 8 o 155.224 162.404 0.00 1.50227 0.09
2 8 0 o 56.491 49.171 0.00 1.76804 0.02
3 4 1 o 864.750 483.617 180.00 1.93128 0.82
0 10 0 o 11094.198 10887.083 180.00 1.67224 1.99
3 1 4 o 3230.257 3141.480 0.00 1.80940 2.70
0 5 7 o 4.044 7.474 0.00 1.60834 0.00
3 3 2 o 1184.008 733.071 0.00 1.95638 1.16
1 0 9 o 296.841 424.440 180.00 1.39479 0.07
1 6 5 o 251.149 370.957 0.00 1.81632 0.21
2 4 6 o 1904.398 1898.830 0.00 1.65162 1.33
0 4 8 o 0.604 0.579 0.00 1.49843 0.00
1 9 2 o 8.338 6.476 0.00 1.72342 0.01
1 8 3 o 125.902 116.167 0.00 1.80713 0.11
2 3 7 o 1959.729 2039.024 180.00 1.54230 1.20
3 0 5 o 2838.494 2633.649 180.00 1.67494 1.02
0 6 6 o 5601.266 6153.733 0.00 1.69741 2.07
2 0 8 o 1222.720 1059.940 180.00 1.44459 0.33
2 5 5 o 2327.738 2562.981 180.00 1.73537 1.79
0 3 9 o 14.766 32.508 0.00 1.38218 0.00
1 2 9 o 25.160 35.129 180.00 1.37578 0.01
2 2 8 o 752.630 714.001 0.00 1.42350 0.39
3 3 4 o 240.158 246.516 180.00 1.73019 0.18
1 10 1 o 281.896 541.964 180.00 1.60866 0.19
2 8 2 o 13.284 10.458 0.00 1.70459 0.01
0 9 3 o 186.088 149.668 180.00 1.70438 0.07
0 0 10 o 5318.705 5050.114 180.00 1.28406 0.57
0 10 2 o 100.688 410.968 0.00 1.61825 0.03
3 2 5 o 32.092 50.932 0.00 1.64232 0.02
1 7 4 o 411.816 450.738 180.00 1.84107 0.36
2 7 3 o 1662.402 1543.581 180.00 1.76544 1.33
3 4 3 o 315.599 281.395 180.00 1.77715 0.25
2 6 4 o 1512.209 1338.130 0.00 1.77664 1.22
3 6 1 o 1973.288 1485.870 180.00 1.71592 1.49
3 5 2 o 483.210 401.465 0.00 1.77196 0.39
0 7 5 o 1786.705 1404.640 180.00 1.74914 0.70
2 9 1 o 27.839 50.453 180.00 1.60798 0.02
3 1 6 o 2.844 9.649 180.00 1.53080 0.00
0 8 4 o 1063.478 833.477 0.00 1.75167 0.42
0 2 10 o 467.228 368.625 0.00 1.26918 0.10
1 5 8 o 73.961 83.511 180.00 1.41377 0.04
0 11 1 o 4183.566 5005.464 180.00 1.50967 1.23
2 1 9 o 896.015 1296.886 180.00 1.30647 0.40
1 1 10 o 95.898 64.457 0.00 1.25706 0.04
1 6 7 o 750.230 721.436 0.00 1.49290 0.43
1 4 9 o 21.541 37.089 0.00 1.32310 0.01
3 0 7 o 1097.787 1245.848 180.00 1.41138 0.28
2 10 0 o 281.509 272.409 0.00 1.49297 0.08
2 5 7 o 2508.091 2137.949 0.00 1.44697 1.36
3 4 5 o 40.388 33.844 180.00 1.55480 0.03
3 3 6 o 4.415 4.036 180.00 1.48193 0.00
1 3 10 o 0.067 0.062 0.00 1.22958 0.00
0 6 8 o 8.503 10.998 180.00 1.39091 0.00
2 4 8 o 2125.155 1964.987 180.00 1.36538 1.03
2 6 6 o 2472.905 3019.563 180.00 1.51080 1.45
1 7 6 o 329.645 327.216 0.00 1.54983 0.20
0 5 9 o 48.168 62.308 0.00 1.31232 0.01
0 12 0 o 1950.490 2573.022 0.00 1.39353 0.25
3 7 2 o 2095.904 2001.600 180.00 1.57268 1.33
3 2 7 o 28.224 35.878 0.00 1.39169 0.01
1 10 3 o 25.951 30.981 180.00 1.51629 0.02
0 7 7 o 4361.903 4675.401 0.00 1.45493 1.19
3 5 4 o 298.931 502.559 180.00 1.59869 0.20
2 3 9 o 786.068 747.381 0.00 1.27569 0.33
4 0 0 o 1817.814 1898.635 0.00 1.65717 0.32
0 4 10 o 12.304 12.146 180.00 1.22747 0.00
1 11 2 o 214.774 182.409 180.00 1.44379 0.12
4 2 0 o 404.146 221.421 180.00 1.62555 0.14
4 1 1 o 1102.496 783.840 0.00 1.63566 0.76
3 6 3 o 506.304 697.854 0.00 1.60509 0.34
1 9 4 o 303.310 254.505 0.00 1.56277 0.19
4 0 2 o 113.622 132.118 180.00 1.60458 0.04
2 10 2 o 252.117 263.191 180.00 1.45417 0.14
3 8 1 o 114.328 132.258 0.00 1.50797 0.07
2 9 3 o 231.952 264.833 0.00 1.51571 0.14
3 1 8 o 1099.108 1378.359 180.00 1.29471 0.48
0 11 3 o 436.719 439.466 0.00 1.43254 0.12
4 2 2 o 1433.275 1541.523 0.00 1.57583 0.92
1 8 5 o 477.557 533.925 180.00 1.57475 0.30
2 7 5 o 2012.760 2032.272 0.00 1.54693 1.24
4 3 1 o 805.041 771.153 180.00 1.57644 0.51
4 1 3 o 485.509 530.047 180.00 1.53883 0.30
0 12 2 o 4646.580 4289.688 180.00 1.36182 1.12
1 12 1 o 28.965 21.165 180.00 1.35609 0.01
0 10 4 o 287.871 247.155 180.00 1.48308 0.08
4 4 0 o 1296.842 1594.203 0.00 1.54055 0.40
2 11 1 o 450.817 483.047 0.00 1.37386 0.22
0 8 6 o 1397.069 1469.851 180.00 1.49536 0.40
2 8 4 o 2146.513 2304.046 180.00 1.54868 1.33
4 0 4 o 956.473 1152.275 0.00 1.47254 0.27
3 4 7 o 112.566 80.671 0.00 1.33723 0.05
4 2 4 o 1046.442 765.601 180.00 1.45022 0.57
1 7 8 o 510.827 817.422 0.00 1.30617 0.23
1 6 9 o 344.410 160.548 180.00 1.24732 0.14
3 5 6 o 167.638 312.603 180.00 1.39677 0.08
3 3 8 o 17.783 12.827 180.00 1.26474 0.01
2 5 9 o 1297.832 1411.093 180.00 1.22015 0.51
4 1 5 o 891.170 1347.038 0.00 1.38764 0.44
4 3 3 o 2413.426 1979.412 0.00 1.48921 1.38
4 5 1 o 2199.732 2495.551 0.00 1.47506 1.24
4 4 2 o 1772.795 1346.620 180.00 1.49803 1.03
3 6 5 o 26.141 25.382 180.00 1.43564 0.01
3 9 2 o 4.386 5.988 180.00 1.38842 0.00
2 6 8 o 2048.237 1810.675 0.00 1.28255 0.88
0 13 1 o 3024.089 2699.383 0.00 1.27993 0.65
0 9 5 o 531.918 896.536 0.00 1.50536 0.16
3 8 3 o 608.597 645.620 180.00 1.43109 0.32
2 12 0 o 654.729 593.334 180.00 1.28460 0.14
4 6 0 o 4283.435 3962.527 180.00 1.42440 1.12
1 8 7 o 78.944 51.399 0.00 1.34986 0.04
2 7 7 o 2649.344 2875.301 180.00 1.33222 1.22
0 7 9 o 383.911 417.441 0.00 1.22491 0.08
4 0 6 o 994.268 1380.184 180.00 1.31027 0.22
3 10 1 o 74.175 165.992 0.00 1.32628 0.03
3 7 4 o 79.655 69.139 0.00 1.44777 0.04
4 3 5 o 235.827 153.421 180.00 1.35093 0.11
1 12 3 o 95.135 124.526 180.00 1.29936 0.04
4 2 6 o 385.779 487.491 0.00 1.29447 0.17
0 8 8 o 929.823 885.252 0.00 1.27306 0.20
1 13 2 o 49.932 20.425 180.00 1.23904 0.02
4 4 4 o 593.556 728.344 0.00 1.38890 0.30
1 11 4 o 38.972 17.077 180.00 1.34534 0.02
2 11 3 o 879.923 838.875 180.00 1.31497 0.40
2 10 4 o 1176.993 878.038 0.00 1.35373 0.56
4 6 2 o 947.619 1188.599 0.00 1.39059 0.47
3 5 8 o 100.069 310.275 0.00 1.21056 0.04
2 8 6 o 2671.702 2406.800 0.00 1.36305 1.29
2 12 2 o 1262.767 1118.643 0.00 1.25964 0.52
4 5 3 o 494.457 445.657 180.00 1.40286 0.25
4 7 1 o 3363.561 2530.972 180.00 1.35404 1.60
1 9 6 o 226.224 199.393 180.00 1.37263 0.11
3 6 7 o 806.409 709.842 180.00 1.25913 0.33
4 1 7 o 498.686 537.334 180.00 1.22638 0.20
1 10 5 o 126.631 109.341 0.00 1.37104 0.06
0 12 4 o 149.173 134.774 180.00 1.27828 0.03
0 9 7 o 18.786 32.525 180.00 1.30539 0.00
0 13 3 o 938.614 829.115 180.00 1.23191 0.19
4 8 0 o 1453.674 1785.898 0.00 1.29859 0.32
2 9 5 o 3208.677 2993.067 180.00 1.37061 1.56
3 7 6 o 53.619 75.418 0.00 1.29273 0.02
4 4 6 o 57.369 31.585 180.00 1.25030 0.02
3 10 3 o 218.475 213.769 180.00 1.27307 0.09
4 5 5 o 338.820 302.916 0.00 1.28548 0.15
0 11 5 o 146.518 237.819 0.00 1.30819 0.03
3 11 2 o 566.583 604.483 0.00 1.22925 0.22
3 9 4 o 53.846 78.770 180.00 1.30021 0.02
4 8 2 o 1740.272 1686.281 180.00 1.27281 0.74
3 8 5 o 20.178 40.896 180.00 1.30709 0.01
4 7 3 o 549.520 591.127 0.00 1.29755 0.24
4 6 4 o 103.217 151.237 180.00 1.30198 0.05
5 0 1 o 1815.329 1830.309 0.00 1.31873 0.41
4 9 1 o 1372.085 1327.902 0.00 1.23104 0.54
0 10 6 o 13.170 9.773 180.00 1.31768 0.00
5 2 1 o 305.380 466.554 0.00 1.30263 0.13
5 1 2 o 320.172 365.029 0.00 1.29445 0.14
5 0 3 o 39.997 23.603 0.00 1.26638 0.01
2 9 7 o 85.457 105.473 0.00 1.21458 0.03
5 2 3 o 523.145 327.480 0.00 1.25210 0.21
5 4 1 o 10.193 11.471 180.00 1.25764 0.00
5 3 2 o 665.331 467.999 0.00 1.26450 0.28
5 1 4 o 15.644 17.751 0.00 1.22208 0.01
1 10 7 o 70.283 87.289 180.00 1.21487 0.03
2 11 5 o 5.788 20.276 180.00 1.21684 0.00
2 10 6 o 180.759 248.958 180.00 1.22446 0.07
5 4 3 o 861.442 964.275 0.00 1.21200 0.33
5 5 2 o 223.444 260.817 180.00 1.21034 0.09
1 11 6 o 61.699 51.606 0.00 1.21824 0.02
