#------------------------------------------------------------------------------
#$Date: 2021-04-01 01:28:49 +0300 (Thu, 01 Apr 2021) $
#$Revision: 263497 $
#$URL: file:///home/coder/svn-repositories/cod/cif/4/00/38/4003896.cif $
#------------------------------------------------------------------------------
#
# This file is available in the Crystallography Open Database (COD),
# http://www.crystallography.net/
#
# All data on this site have been placed in the public domain by the
# contributors.
#
data_4003896
loop_
_publ_author_name
'M\;aczka, Miros\/law'
'Zar\;eba, Jan K.'
'G\;agor, Anna'
'Stefa\'nska, Dagmara'
'Ptak, Maciej'
'Roleder, Krystian'
'Kajewski, Dariusz'
'Soszy\'nski, Andrzej'
'Fedoruk, Katarzyna'
'Sieradzki, Adam'
_publ_section_title
;
 [Methylhydrazinium]2PbBr4, a Ferroelectric Hybrid Organic--Inorganic
 Perovskite with Multiple Nonlinear Optical Outputs
;
_journal_name_full               'Chemistry of Materials'
_journal_paper_doi               10.1021/acs.chemmater.0c04440
_journal_year                    2021
_chemical_formula_sum            'C2 H14 Br4 N4 Pb'
_chemical_formula_weight         621.00
_space_group_crystal_system      orthorhombic
_space_group_IT_number           31
_space_group_name_Hall           'P 2ac -2'
_space_group_name_H-M_alt        'P m n 21'
_atom_sites_solution_hydrogens   mixed
_audit_creation_method           SHELXL-2018/3
_cell_angle_alpha                90
_cell_angle_beta                 90
_cell_angle_gamma                90
_cell_formula_units_Z            2
_cell_length_a                   17.8177(10)
_cell_length_b                   6.0555(3)
_cell_length_c                   6.0155(3)
_cell_measurement_reflns_used    3137
_cell_measurement_temperature    300.1(2)
_cell_measurement_theta_max      29.2190
_cell_measurement_theta_min      3.4120
_cell_volume                     649.04(6)
_computing_cell_refinement       'CrysAlisPro 1.171.38.46 (Rigaku OD, 2015)'
_computing_data_collection       'CrysAlisPro 1.171.38.46 (Rigaku OD, 2015)'
_computing_data_reduction        'CrysAlisPro 1.171.38.46 (Rigaku OD, 2015)'
_computing_structure_refinement  'SHELXL-2018/3 (Sheldrick, 2018)'
_diffrn_ambient_environment      air
_diffrn_ambient_temperature      300.1(2)
_diffrn_detector                 'CCD plate'
_diffrn_detector_area_resol_mean 10.6249
_diffrn_detector_type            Atlas
_diffrn_measured_fraction_theta_full 0.984
_diffrn_measured_fraction_theta_max 0.916
_diffrn_measurement_device       'four-circle diffractometer'
_diffrn_measurement_device_type  'Xcalibur, Atlas'
_diffrn_radiation_monochromator  graphite
_diffrn_radiation_probe          x-ray
_diffrn_radiation_type           'Mo K\a'
_diffrn_radiation_wavelength     0.71073
_diffrn_reflns_av_R_equivalents  0.0265
_diffrn_reflns_av_unetI/netI     0.0292
_diffrn_reflns_Laue_measured_fraction_full 0.984
_diffrn_reflns_Laue_measured_fraction_max 0.916
_diffrn_reflns_limit_h_max       23
_diffrn_reflns_limit_h_min       -21
_diffrn_reflns_limit_k_max       7
_diffrn_reflns_limit_k_min       -8
_diffrn_reflns_limit_l_max       6
_diffrn_reflns_limit_l_min       -7
_diffrn_reflns_number            4404
_diffrn_reflns_point_group_measured_fraction_full 0.901
_diffrn_reflns_point_group_measured_fraction_max 0.821
_diffrn_reflns_theta_full        28.000
_diffrn_reflns_theta_max         29.298
_diffrn_reflns_theta_min         3.364
_diffrn_source                   'fine-focus sealed X-ray tube'
_diffrn_source_type              'Enhance (Mo) X-ray Source'
_exptl_absorpt_coefficient_mu    25.271
_exptl_absorpt_correction_T_max  0.278
_exptl_absorpt_correction_T_min  0.018
_exptl_absorpt_correction_type   gaussian
_exptl_absorpt_process_details
;
CrysAlisPro 1.171.38.46 (Rigaku Oxford Diffraction, 2015)
Numerical absorption correction based on gaussian integration over
			a multifaceted crystal model
Empirical absorption correction using spherical harmonics,
 implemented in SCALE3 ABSPACK scaling algorithm.
;
_exptl_crystal_density_diffrn    3.178
_exptl_crystal_description       plate
_exptl_crystal_F_000             552
_exptl_crystal_size_max          0.315
_exptl_crystal_size_mid          0.273
_exptl_crystal_size_min          0.114
_refine_diff_density_max         1.023
_refine_diff_density_min         -1.432
_refine_diff_density_rms         0.185
_refine_ls_abs_structure_details
;
 Refined as an inversion twin.
;
_refine_ls_abs_structure_Flack   0.491(18)
_refine_ls_extinction_coef       0.0034(4)
_refine_ls_extinction_expression Fc^*^=kFc[1+0.001xFc^2^\l^3^/sin(2\q)]^-1/4^
_refine_ls_extinction_method     'SHELXL-2018/3 (Sheldrick 2018)'
_refine_ls_goodness_of_fit_ref   1.022
_refine_ls_hydrogen_treatment    mixed
_refine_ls_matrix_type           full
_refine_ls_number_parameters     65
_refine_ls_number_reflns         1505
_refine_ls_number_restraints     5
_refine_ls_restrained_S_all      1.021
_refine_ls_R_factor_all          0.0320
_refine_ls_R_factor_gt           0.0280
_refine_ls_shift/su_max          0.003
_refine_ls_shift/su_mean         0.000
_refine_ls_structure_factor_coef Fsqd
_refine_ls_weighting_details
'w=1/[\s^2^(Fo^2^)+(0.0403P)^2^] where P=(Fo^2^+2Fc^2^)/3'
_refine_ls_weighting_scheme      calc
_refine_ls_wR_factor_gt          0.0628
_refine_ls_wR_factor_ref         0.0644
_reflns_Friedel_coverage         0.645
_reflns_Friedel_fraction_full    0.801
_reflns_Friedel_fraction_max     0.707
_reflns_number_gt                1368
_reflns_number_total             1505
_reflns_threshold_expression     'I > 2\s(I)'
_cod_data_source_file            cm0c04440_si_004.cif
_cod_data_source_block           III
_cod_original_cell_volume        649.03(6)
_cod_database_code               4003896
_shelx_shelxl_version_number     2018/3
_shelx_space_group_comment
;
The symmetry employed for this shelxl refinement is uniquely defined
by the following loop, which should always be used as a source of
symmetry information in preference to the above space-group names.
They are only intended as comments.
;
_oxdiff_exptl_absorpt_empirical_full_min 0.857
_oxdiff_exptl_absorpt_empirical_full_max 1.153
_oxdiff_exptl_absorpt_empirical_details
;
Empirical correction (ABSPACK) includes:
- Absorption correction using spherical harmonics
- Frame scaling
;
_shelx_res_file
;
TITL MHy_PbBr3_HT_1_300_00-abs in Pmn2(1)
    300.res
    created by SHELXL-2018/3 at 12:06:38 on 15-Jun-2020
REM Pmn2(1) (#31, found as P2(1)nm in -cba setting)
CELL 0.71073  17.817667   6.055473   6.015461  90.0000  90.0000  90.0000
ZERR    2.00   0.000980   0.000303   0.000286   0.0000   0.0000   0.0000
LATT -1
SYMM -x+1/2,-y, z+1/2
SYMM  x+1/2,-y, z+1/2
SYMM -x, y, z
SFAC C H N Br Pb
UNIT 4 28 8 8 2
acta 56
L.S. 30
PLAN  40
BOND
LIST 6
fmap 2
twin
bond $h
htab
EQIV $6 -x, y, z-1
HTAB N1 Br2_$6
EQIV $7 x+1/2, -y+2, z-1/2
HTAB N1 Br2_$7
EQIV $4 -x, y, z
HTAB N1 Br2_$4
EQIV $8 -x+1/2, -y+1, z+1/2
HTAB N2 N1_$8
HTAB N2 Br1
HTAB N2 Br2_$4
EQIV $1 x, y, z-1
HTAB C3 Br3_$1
EQIV $2 x, y-1, z
HTAB C3 Br1_$2
HTAB C3 Br3
EQIV $9 x+1/2, -y+1, z-1/2
HTAB C3 Br2_$9
dfix 0.89 0.005 n1 h1a n1 h1b
dfix 1.44 0.005 h1a h1b
dfix 2.00 0.001 h1a h2b
WGHT    0.040300
EXTI    0.003427
BASF   0.49106
FVAR       3.06563   0.24316
PB1   5    0.000000    0.911654    0.817805    10.50000    0.03139    0.02345 =
         0.02269    0.00097    0.00000    0.00000
BR1   4    0.000000    0.854968    0.312906    10.50000    0.06822    0.04754 =
         0.02209    0.00015    0.00000    0.00000
BR2   4   -0.167068    0.906722    0.802608    11.00000    0.03258    0.06121 =
         0.06033   -0.01171   -0.00191    0.00449
BR3   4    0.000000    0.421405    0.797347    10.50000    0.10142    0.02305 =
         0.04742   -0.00042    0.00000    0.00000

N1    3    0.213937    0.636334    0.283137    11.00000    0.15891    0.04453 =
         0.05050   -0.00679    0.01163   -0.03407
H1B   2    0.181663    0.685958    0.181892    11.00000   -1.50000
H1A   2    0.226879    0.749072    0.369848    11.00000   -1.50000
N2    3    0.169096    0.508341    0.420550    11.00000    0.09508    0.09951 =
         0.07127   -0.03974    0.00563   -0.01867
AFIX  23
H2A   2    0.197717    0.454040    0.528788    11.00000   -1.20000
H2B   2    0.135125    0.596016    0.483601    11.00000   -1.20000
AFIX   0

C3    1    0.131536    0.333361    0.319890    11.00000    0.04985    0.05916 =
         0.08358   -0.01120    0.00630   -0.00439
AFIX 137
H3A   2    0.095022    0.390024    0.217334    11.00000   -1.50000
H3B   2    0.106757    0.246630    0.431511    11.00000   -1.50000
H3C   2    0.166922    0.242740    0.241398    11.00000   -1.50000
AFIX   0
HKLF 4 1 -1 0 0 0 -1 0 0 0 -1




REM  MHy_PbBr3_HT_1_300_00-abs in Pmn2(1)
REM wR2 = 0.0644, GooF = S = 1.022, Restrained GooF = 1.021 for all data
REM R1 = 0.0280 for 1368 Fo > 4sig(Fo) and 0.0320 for all 1505 data
REM 65 parameters refined using 5 restraints

END

WGHT      0.0385      0.0000

REM Instructions for potential hydrogen bonds
HTAB N1 Br2_$6
HTAB N1 Br2_$7
HTAB N1 Br2_$4
HTAB N2 N1_$8
HTAB N2 Br1
HTAB N2 Br2_$4
HTAB C3 Br3_$1
HTAB C3 Br1_$2
HTAB C3 Br3
HTAB C3 Br2_$9

REM Highest difference peak  1.023,  deepest hole -1.432,  1-sigma level  0.185
Q1    1   0.0000  0.7558  0.8284  10.50000  0.05    1.02
Q2    1   0.0337  0.9290  0.3199  11.00000  0.05    0.90
Q3    1   0.1603  0.6019  0.3160  11.00000  0.05    0.76
Q4    1   0.0000  1.0123  0.5609  10.50000  0.05    0.69
Q5    1   0.0000  0.3140  1.0466  10.50000  0.05    0.63
Q6    1   0.0000  1.0164  1.0720  10.50000  0.05    0.63
Q7    1   0.0000  0.3232  0.5792  10.50000  0.05    0.61
Q8    1   0.0000  1.0607  0.8293  10.50000  0.05    0.61
Q9    1   0.0000  0.4823  0.9646  10.50000  0.05    0.60
Q10   1   0.0000  0.3144  0.7753  10.50000  0.05    0.59
Q11   1   0.0000  0.7813  0.3403  10.50000  0.05    0.57
Q12   1   0.0000  0.4800  0.6699  10.50000  0.05    0.57
Q13   1   0.0000  0.7831  0.5752  10.50000  0.05    0.56
Q14   1  -0.1547  0.7797  0.8161  11.00000  0.05    0.56
Q15   1   0.0000  0.7866  0.0661  10.50000  0.05    0.54
Q16   1   0.0284  0.8871  0.5208  11.00000  0.05    0.51
Q17   1   0.0000  0.5192  0.8053  10.50000  0.05    0.50
Q18   1   0.0467  0.2188  0.5529  11.00000  0.05    0.50
Q19   1   0.0471  0.2242  0.0806  11.00000  0.05    0.49
Q20   1   0.0000  0.9743  0.7171  10.50000  0.05    0.49
Q21   1   0.0000  0.8419  0.2582  10.50000  0.05    0.48
Q22   1   0.0000  1.0311  0.2998  10.50000  0.05    0.48
Q23   1   0.0000  0.9742  0.9156  10.50000  0.05    0.47
Q24   1  -0.1766  0.9150  0.7524  11.00000  0.05    0.47
Q25   1   0.0280  0.9055  0.1199  11.00000  0.05    0.47
Q26   1   0.2200  0.1370  0.0788  11.00000  0.05    0.47
Q27   1   0.2229  0.1276  0.5459  11.00000  0.05    0.46
Q28   1   0.0654  1.0544  1.0660  11.00000  0.05    0.45
Q29   1   0.0289  0.9615  0.1375  11.00000  0.05    0.43
Q30   1  -0.1775  0.9140  0.8937  11.00000  0.05    0.43
Q31   1   0.1511  0.2988  0.6490  11.00000  0.05    0.43
Q32   1   0.1497  0.3072 -0.0037  11.00000  0.05    0.42
Q33   1   0.1936  0.7397  0.0618  11.00000  0.05    0.41
Q34   1   0.0319  0.8422  0.1843  11.00000  0.05    0.41
Q35   1   0.2377  0.5230  0.3221  11.00000  0.05    0.40
Q36   1  -0.1800  0.8999  0.5903  11.00000  0.05    0.39
Q37   1   0.0634  0.0619  0.5670  11.00000  0.05    0.39
Q38   1  -0.1839  0.9172  1.0419  11.00000  0.05    0.39
Q39   1   0.0809  0.1831 -0.0204  11.00000  0.05    0.39
Q40   1   0.1564  0.4606  0.0372  11.00000  0.05    0.38
;
_shelx_res_checksum              93060
_shelx_hkl_file
;
   0   0  -3 394.581 250.924   2
   0   0  -2 779120. 4446.21   2
   0   0  -1 1266.11 152.057   2
   0   0   1 1583.81 164.781   2
   0   0   2 706182. 4177.80   2
   0   0   2 840472. 2108.01   4
   0   0   3 451.814 280.602   2
   0   0   3 102.311 79.6752   4
   0   0   4 390958. 1921.71   4
   0   0   4 360822. 4371.32   2
   0   0   5 156.684 388.724   2
   0   0   5 90.6621 107.189   4
   0   0   6 121741. 3256.39   2
   0   0   7 133.876 492.258   2
   0  -1  -5 6327.72 222.515   3
   0  -1  -4 121359. 1103.90   3
   0   1  -3 17066.4 799.646   2
   0  -1  -3 18538.3 890.672   2
   0   1  -3 18667.2 538.317   4
   0  -1  -3 17937.9 388.008   3
   0   1  -2 216207. 1509.64   4
   0  -1  -2 213428. 1050.69   3
   0  -1  -1 34963.1 393.921   3
   0   1  -1 35557.2 523.913   4
   0   1  -1 36022.4 874.439   2
   0  -1   0 205632. 1071.26   4
   0   1   0 204146. 1055.51   4
   0   1   1 36809.8 440.705   3
   0  -1   1 35821.1 520.619   4
   0  -1   1 35439.1 946.829   2
   0  -1   2 217394. 1454.68   4
   0   1   2 217218. 2376.13   2
   0  -1   2 216413. 1535.71   1
   0  -1   3 18297.4 951.318   2
   0   1   3 18659.2 863.357   2
   0  -1   3 18182.6 480.150   4
   0  -1   3 17907.5 536.681   1
   0   1   4 118540. 806.624   4
   0  -1   4 119314. 1680.82   1
   0  -1   4 120142. 1329.63   4
   0   1   4 119309. 2482.00   2
   0  -1   4 114050. 2612.90   2
   0  -1   5 6407.08 480.080   1
   0  -1   5 6717.73 365.412   4
   0   1   5 6390.69 179.947   4
   0  -1   5 5792.11 737.659   2
   0   1   5 7141.12 798.980   2
   0  -1   6 39717.9 1964.23   2
   0   1   6 44684.3 2003.17   2
   0  -1   6 42602.9 909.035   4
   0  -1   7 2182.60 676.814   2
   0   1   7 2765.15 742.991   2
   0   2  -4 27591.3 856.950   4
   0   2  -3 187856. 2986.60   2
   0   2  -3 187729. 1942.81   4
   0   2  -2 72631.1 721.172   1
   0   2  -2 73968.1 1093.13   4
   0   2  -2 73959.3 1732.88   2
   0   2  -1 367019. 1972.17   1
   0   2  -1 365602. 2197.82   4
   0   2   0 127384. 1177.60   4
   0  -2   0 126506. 1189.52   4
   0  -2   1 366417. 2202.48   4
   0   2   1 366857. 1843.00   4
   0  -2   2 70532.1 1052.17   4
   0   2   2 73844.3 1649.97   2
   0   2   2 70564.9 758.014   4
   0   2   2 71696.9 970.963   3
   0  -2   3 176434. 3391.47   2
   0   2   3 178417. 2780.86   2
   0  -2   3 178033. 1799.14   4
   0   2   3 180202. 1131.53   4
   0  -2   3 179646. 3561.98   1
   0  -2   4 24174.4 1251.13   1
   0  -2   4 26661.9 1490.38   2
   0   2   4 28125.7 1303.85   2
   0   2   4 25544.0 372.730   4
   0  -2   4 26070.6 759.896   4
   0  -2   5 55135.5 1148.07   4
   0   2   5 55740.3 2010.68   2
   0  -2   5 55529.3 2365.34   2
   0  -2   5 55543.3 2011.77   1
   0  -2   6 8340.20 513.345   4
   0  -2   6 9009.46 1108.92   2
   0   2   6 8961.36 1008.22   2
   0  -2   7 12740.7 1352.83   2
   0   2   7 13596.2 1309.23   2
   0   3  -2 20110.2 1071.01   2
   0   3  -2 20602.9 688.834   4
   0   3  -1 114626. 1488.69   4
   0  -3   0 28750.4 731.140   4
   0   3   0 28224.5 698.247   4
   0  -3   1 112419. 1477.35   4
   0   3   1 114290. 1403.13   3
   0   3   1 112104. 1297.50   4
   0   3   2 20876.8 539.228   4
   0   3   2 20178.0 612.741   3
   0   3   2 19808.9 1028.61   2
   0  -3   2 20594.6 689.169   4
   0  -3   3 69349.9 1306.96   4
   0   3   3 71578.9 1962.55   2
   0   3   3 69520.2 921.272   4
   0  -3   4 10333.5 578.458   4
   0   3   4 11307.9 923.936   2
   0   3   4 11073.6 334.588   4
   0   3   5 32465.6 1652.75   2
   0  -3   5 31116.8 994.590   4
   0   3   6 4944.84 827.113   2
   0  -3   6 4944.15 473.601   4
   0   4  -6 25734.6 1105.14   3
   0   4  -3 128056. 887.487   1
   0   4  -2 149461. 2896.73   1
   0   4   0 173552. 2113.80   3
   0   4   1 230057. 2399.42   3
   0  -4   1 227085. 2450.67   4
   0   4   1 229286. 2211.73   4
   0   4   2 143690. 1691.46   4
   0   4   2 145812. 1917.35   3
   0  -4   3 134402. 2056.97   4
   0   4   3 140744. 2089.31   3
   0   4   3 131083. 1537.52   4
   0   4   3 137248. 3064.23   2
   0  -4   4 73692.0 1610.43   4
   0   4   4 74271.9 2362.10   2
   0   4   5 54157.8 2248.37   2
   0  -4   5 52021.9 1451.41   4
   0   4   6 26694.9 1714.93   2
   0   5  -6 13489.7 915.568   3
   0   5  -5 5079.35 596.864   3
   0   5  -4 30967.5 1217.76   3
   0   5  -2 51478.1 1726.09   1
   0   5  -2 53421.8 1451.93   3
   0   5  -1 13474.8 732.172   3
   0   5  -1 13485.2 674.349   1
   0   5   0 70095.2 1555.15   3
   0   5   1 12461.0 688.461   3
   0  -5   2 54282.3 1447.68   4
   0   5   2 54905.5 1393.15   3
   0   5   3 8014.62 927.237   2
   0  -5   3 8870.79 667.992   4
   0   5   3 8611.36 623.766   3
   0   5   4 30189.1 1694.30   2
   0  -5   4 30704.0 1208.56   4
   0   5   5 4914.53 872.141   2
   0   6  -5 582.843 432.080   3
   0   6  -4 33082.0 1403.03   3
   0   6  -3 554.082 372.593   3
   0   6  -2 59992.9 1719.60   3
   0   6  -1 561.624 345.962   3
   0   6  -1 1126.92 354.835   1
   0   6   0 71316.0 1798.87   3
   0   6   1 389.569 318.053   3
   0   6   2 59954.0 1669.47   3
   0   6   3 291.427 339.912   3
   0   6   3 213.741 562.107   2
   0   6   4 34137.7 1950.91   2
   0   6   5-84.0899 570.998   2
   0   7  -2 3084.98 578.167   3
   0   7  -1 12196.0 921.512   3
   0   7   0 3017.54 530.968   3
   0   7   1 11134.1 861.882   3
   0   7   2 2600.41 515.729   3
   0   7   3 8284.91 1160.41   2
   0   8   1 27370.1 1437.73   3
   0   8   2 1905.55 542.109   3
  -1   0  -3 185218. 2675.71   2
   1   0  -3 171852. 2656.65   2
   1   0  -2 189.509 177.347   2
  -1   0  -2 178.063 61.6628   4
  -1   0  -2 357.858 186.265   2
   1   0  -1 214550. 1618.81   2
  -1   0  -1 157798. 1431.51   2
   1   0   1 246100. 1281.68   1
   1   0   1 249120. 1787.64   2
  -1   0   2 38.4688 85.4446   4
   1   0   2 140.692 53.4961   4
  -1   0   2 392.948 204.878   2
   1   0   2 303.797 204.475   2
  -1   0   3 166403. 2508.55   2
  -1   0   3 165949. 1295.39   4
   1   0   3 165290. 1710.38   1
   1   0   3 164269. 2551.84   2
   1   0   3 165670. 989.976   4
   1   0   4 392.185 94.9990   4
  -1   0   4 340.244 347.685   2
   1   0   4 351.739 194.344   1
   1   0   4 699.661 400.443   2
  -1   0   4 56.3969 112.697   4
   1   0   5 56096.2 2011.35   2
  -1   0   5 55464.0 1925.65   2
  -1   0   5 57425.7 872.235   4
   1   0   5 57862.0 739.466   4
   1   0   6 589.689 536.443   2
  -1   0   6 363.759 517.687   2
  -1   0   7 14700.6 1295.65   2
   1   0   7 13936.7 1319.33   2
  -1   1  -6 23162.6 671.947   3
  -1   1  -4 54563.3 1051.18   4
   1   1  -3 39942.1 861.924   4
  -1   1  -3 39666.7 1210.09   2
   1   1  -3 39861.9 1320.24   2
   1  -1  -3 39363.4 1327.48   2
  -1  -1  -3 38337.5 1287.87   2
  -1   1  -3 38806.3 743.642   4
   1   1  -2 103584. 1835.09   2
   1   1  -2 104097. 1135.81   4
  -1   1  -2 104465. 956.787   1
  -1   1  -2 105998. 1642.67   2
  -1   1  -2 103640. 1008.92   4
   1  -1  -2 104086. 1104.60   3
   1  -1  -2 101332. 1736.09   2
  -1   1  -1 87131.3 814.017   4
   1  -1  -1 87579.7 795.207   3
   1  -1  -1 87762.0 1302.00   2
  -1  -1  -1 84122.7 552.312   4
   1   1  -1 84223.8 1483.19   2
  -1   1  -1 89108.0 1208.00   2
   1   1  -1 89088.0 872.455   4
  -1   1  -1 91316.1 1715.55   1
   1   1   0 135235. 873.645   4
  -1  -1   0 135651. 877.838   4
   1  -1   0 135213. 947.382   3
  -1   1   1 91811.4 936.350   3
  -1   1   1 89036.7 1160.12   2
   1  -1   1 88676.5 814.755   4
  -1  -1   1 89648.3 867.508   4
   1  -1   1 91423.8 1663.18   1
   1   1   1 88597.2 544.244   4
   1   1   1 87840.5 1421.62   2
   1  -1   1 86976.8 1372.80   2
   1  -1   2 100148. 1384.01   1
  -1  -1   2 103288. 789.464   1
   1   1   2 102377. 1722.15   2
  -1  -1   2 104121. 1069.43   4
   1  -1   2 103610. 980.046   4
  -1  -1   2 101559. 1868.93   2
  -1   1   2 107069. 1646.41   2
   1  -1   2 101916. 1822.96   2
  -1  -1   3 39249.9 688.584   1
   1  -1   3 38067.0 678.591   4
   1  -1   3 39612.0 1392.46   2
   1  -1   3 38210.3 893.116   1
  -1   1   3 39482.0 1200.43   2
  -1  -1   3 38727.7 735.789   4
  -1  -1   3 38985.6 1367.87   2
   1   1   3 38839.2 1285.50   2
  -1   1   4 52791.7 719.686   4
   1  -1   4 54105.9 1218.36   1
  -1  -1   4 51403.5 1772.99   2
   1  -1   4 51447.8 860.294   4
  -1   1   4 49906.2 1548.68   2
  -1  -1   4 54855.3 1021.99   1
  -1  -1   4 50770.2 914.999   4
   1   1   4 50924.8 1685.45   2
   1  -1   4 50931.5 1772.96   2
  -1  -1   5 16518.1 687.824   1
  -1  -1   5 15632.2 1121.49   2
  -1  -1   5 16586.2 573.618   4
   1  -1   5 17139.4 813.985   1
   1  -1   5 15558.1 1136.71   2
  -1   1   5 16753.8 386.327   4
   1   1   5 17629.8 1170.73   2
  -1   1   5 16725.6 1096.69   2
   1  -1   5 15908.3 527.406   4
   1  -1   6 20552.9 1447.74   2
  -1  -1   6 19736.2 1401.78   2
  -1  -1   6 21322.0 684.094   4
  -1   1   6 21389.7 1378.90   2
   1   1   6 21472.7 1455.41   2
   1  -1   7 7236.62 1049.11   2
  -1  -1   7 7578.46 1027.92   2
  -1   1   7 7212.87 945.817   2
   1   1   7 7274.89 1017.78   2
  -1   2  -6 70213.1 1382.16   3
   1  -2  -5 17946.6 350.750   3
  -1   2  -4 206387. 2248.43   4
   1  -2  -4 203510. 1415.70   3
  -1   2  -3 75263.3 1819.72   2
   1   2  -3 73424.8 1263.21   4
   1   2  -3 74346.8 1999.97   2
  -1   2  -3 72384.1 1191.65   4
   1  -2  -3 71746.3 872.519   3
   1  -2  -3 72565.9 2030.91   2
  -1   2  -2 429354. 3813.92   2
   1   2  -2 427887. 2675.25   4
  -1   2  -2 424353. 2599.37   4
   1  -2  -2 424643. 2120.71   3
  -1   2  -2 418451. 2738.86   1
   1   2  -2 420641. 4453.79   2
  -1  -2  -1 127813. 1122.93   4
  -1   2  -1 128536. 1519.21   1
   1   2  -1 125435. 1314.48   4
  -1   2  -1 125391. 1301.67   4
  -1   2   0 583743. 2686.51   3
  -1   2   0 587041. 2610.13   4
   1   2   1 123115. 1044.54   4
  -1   2   1 126234. 1238.71   3
   1  -2   1 123913. 1285.29   4
  -1  -2   1 126689. 1309.53   4
  -1   2   1 124709. 1163.83   4
   1   2   2 414179. 1695.08   4
  -1  -2   2 425858. 2611.76   4
   1  -2   2 414402. 2519.62   4
  -1   2   2 427235. 3617.28   2
   1  -2   2 419428. 2634.56   1
   1   2   2 407174. 1971.71   3
   1   2   2 411221. 4114.90   2
  -1  -2   3 70709.5 2166.95   2
  -1  -2   3 70404.5 1164.52   4
  -1   2   3 73344.5 1745.62   2
   1   2   3 69327.5 593.285   4
   1  -2   3 67456.5 2822.67   1
   1  -2   3 69742.0 1111.65   4
   1  -2   3 68205.3 2105.38   2
   1   2   3 71325.3 1848.44   2
   1   2   4 193884. 3459.17   2
  -1  -2   4 187301. 2990.42   1
  -1  -2   4 192878. 2060.42   4
   1  -2   4 194104. 1988.04   4
   1  -2   4 193726. 3995.30   2
  -1   2   4 200038. 3244.27   2
  -1  -2   4 189137. 3842.05   2
  -1  -2   5 24417.2 1549.07   2
   1   2   5 26539.9 1450.44   2
  -1   2   5 26261.1 1363.71   2
   1  -2   5 22800.7 1378.00   1
   1  -2   5 25451.4 780.003   4
  -1   2   5 25727.5 441.815   4
  -1  -2   5 24150.9 791.458   4
   1  -2   5 25518.0 1639.72   2
  -1  -2   5 24906.4 1210.86   1
   1  -2   6 64233.6 2734.37   2
  -1  -2   6 59298.6 2529.45   2
   1   2   6 66561.4 2469.76   2
  -1   2   6 69251.8 2481.47   2
  -1  -2   6 66413.8 1366.25   4
   1   2   7 7475.52 1071.99   2
  -1  -2   7 6635.24 1048.15   2
   1  -2   7 6797.89 1079.08   2
  -1   2   7 6231.78 933.440   2
  -1   3  -6 28914.3 1027.13   3
  -1   3  -3 575.317 115.339   1
  -1   3  -2 112638. 1581.84   4
   1   3  -2 107568. 2697.02   2
  -1   3  -2 111014. 2344.79   2
   1   3  -2 113465. 1605.19   4
  -1   3  -1 954.344 185.814   4
   1   3  -1 1127.90 185.806   4
  -1   3  -1 1183.66 202.800   1
  -1   3   0 137866. 1607.14   3
  -1   3   0 138889. 1565.85   4
  -1  -3   0 138043. 1560.79   4
   1   3   0 139389. 1527.59   4
  -1   3   1 1067.28 164.857   4
   1  -3   1 1058.62 212.927   4
   1   3   1 1052.55 186.761   3
   1   3   1 1126.50 162.395   4
  -1   3   1 874.731 178.171   3
  -1  -3   1 1076.12 221.660   4
  -1  -3   2 108965. 1559.49   4
   1   3   2 107395. 1311.02   3
  -1   3   2 108205. 1275.46   4
   1   3   2 105588. 1162.32   4
   1  -3   2 106778. 1516.31   4
  -1   3   2 109193. 1503.07   3
   1   3   2 108629. 2533.72   2
  -1   3   2 107219. 2162.70   2
  -1  -3   3 515.177 227.427   4
   1   3   3 668.508 406.365   2
  -1   3   3 562.249 132.465   4
   1   3   3 616.274 118.511   4
   1   3   3 319.124 170.077   3
  -1   3   3 670.633 334.418   2
   1  -3   3 418.863 206.982   4
   1   3   4 60254.4 2043.23   2
   1   3   4 60705.6 675.267   4
  -1   3   4 62157.3 874.025   4
   1  -3   4 62713.7 1051.90   1
   1  -3   4 60831.4 1293.00   4
  -1  -3   4 60947.7 1337.73   4
   1  -3   5 478.689 268.917   4
  -1   3   5 592.112 456.531   2
  -1  -3   5 435.840 266.260   4
   1   3   5 519.846 467.537   2
  -1   3   6 27512.3 1633.37   2
   1  -3   6 29095.3 2238.52   2
   1   3   6 27430.7 1718.75   2
  -1  -3   6 27404.5 1007.64   4
  -1   3   7 215.439 611.914   2
  -1   4  -6 14923.7 844.381   3
  -1   4  -5 7994.72 615.930   3
  -1   4  -3 19303.5 603.468   1
  -1   4  -2 83978.2 1587.45   3
   1   4  -2 91001.4 1997.54   1
  -1   4  -2 88648.3 2555.82   1
  -1   4  -1 30960.7 947.729   3
  -1   4  -1 31154.1 911.577   1
  -1  -4   0 108527. 1641.03   4
  -1   4   0 109582. 1706.98   3
   1   4   1 31200.7 883.241   3
  -1   4   1 31950.7 850.465   4
  -1  -4   1 31839.0 942.104   4
   1   4   1 31744.0 824.901   4
  -1   4   1 31618.0 913.608   3
   1   4   2 83086.2 1402.58   3
   1  -4   2 84532.0 1583.93   4
  -1   4   2 85005.2 1333.38   4
   1   4   2 82597.5 1260.35   4
  -1   4   2 84137.6 2253.34   2
  -1   4   2 83289.0 1516.09   3
  -1  -4   2 84054.1 1584.35   4
  -1  -4   3 17772.6 788.068   4
  -1   4   3 17117.5 799.731   3
  -1   4   3 17331.8 595.551   4
   1  -4   3 17989.1 791.530   4
   1   4   3 17772.4 1241.75   2
   1   4   3 17494.6 714.476   3
   1   4   3 17203.7 552.577   4
  -1   4   3 17727.1 1097.45   2
   1  -4   4 41055.8 1239.53   4
   1   4   4 43045.4 1906.51   2
  -1   4   4 40539.3 1692.60   2
  -1  -4   4 39915.7 1232.70   4
  -1   4   5 7202.59 879.241   2
  -1  -4   5 6925.23 592.167   4
   1   4   5 7989.52 1054.32   2
  -1  -4   6 13647.0 821.177   4
   1   4   6 14593.6 1369.38   2
  -1   4   6 15421.0 1310.32   2
   1   5  -6 273.342 362.979   3
  -1   5  -6 179.745 352.573   3
  -1   5  -5 14131.0 879.603   3
  -1   5  -4 590.105 347.619   3
  -1   5  -3 23997.8 1046.66   3
   1   5  -2-7.95172 353.306   1
  -1   5  -2 466.665 294.548   3
  -1   5  -1 31317.1 1049.23   1
  -1   5  -1 29606.6 1066.34   3
   1   5   0 702.404 283.053   3
  -1   5   0 1507.70 331.342   3
   1   5   1 30439.1 1011.16   3
  -1   5   1 30250.7 1040.14   3
  -1  -5   1 30672.3 1060.89   4
  -1   5   2 903.207 290.849   3
   1   5   2 722.495 276.567   3
  -1  -5   2 542.636 309.507   4
   1   5   3 24721.2 977.349   3
   1   5   3 24009.4 1550.83   2
  -1   5   3 25295.4 1438.57   2
  -1  -5   3 23691.3 1019.19   4
  -1   5   3 25215.5 1074.37   3
  -1  -5   4 469.999 355.681   4
  -1   5   4 768.356 513.031   2
   1   5   4 537.371 569.625   2
   1   5   5 14380.2 1328.10   2
  -1   5   5 17359.4 1419.03   2
  -1  -5   5 14271.4 901.900   4
  -1   5   6 55.6912 518.460   2
  -1   6  -5 27955.9 1347.69   3
  -1   6  -4 2755.62 533.627   3
   1   6  -4 2694.76 536.812   3
   1   6  -3 61443.9 1819.25   3
  -1   6  -3 61349.3 1806.54   3
   1   6  -2 3872.69 534.090   3
  -1   6  -2 3582.95 526.096   3
  -1   6  -1 94255.7 2098.30   3
  -1   6  -1 92806.2 2101.73   1
   1   6  -1 92907.9 2087.20   3
   1   6  -1 93091.0 1901.57   1
   1   6   0 4107.28 510.098   3
  -1   6   0 3591.64 492.629   3
  -1   6   1 92820.4 2045.29   3
   1   6   1 91094.2 2006.48   3
   1   6   2 4450.17 535.888   3
  -1   6   2 3770.41 518.447   3
  -1  -6   3 60609.5 1795.26   4
  -1   6   3 61263.6 1847.91   3
  -1   6   3 59865.5 2403.10   2
   1   6   3 60444.7 1716.33   3
   1   6   3 59291.6 2633.97   2
   1   6   4 2529.59 764.666   2
  -1   6   4 3040.22 748.210   2
  -1   6   5 27387.7 1802.82   2
  -1   7  -2 8081.20 795.639   3
   1   7  -2 7977.14 788.935   3
   1   7  -1 7915.10 753.724   3
  -1   7  -1 8235.09 780.402   3
  -1   7   0 9275.94 781.287   1
   1   7   0 8937.30 791.888   3
  -1   7   0 9322.85 796.676   3
  -1   7   1 7996.21 756.232   3
   1   7   1 7359.88 707.311   3
  -1   7   2 7906.95 767.874   3
   1   7   2 7800.25 746.610   3
  -1   7   2 6617.91 1001.57   2
  -1   7   3 6627.04 763.892   3
  -1   7   3 7358.89 1036.44   2
   1   7   3 6101.90 1078.65   2
  -1   7   4 5405.30 951.007   2
   1   8   1 5226.07 713.511   3
  -1   8   2 12831.1 1412.12   2
   1   8   2 14059.1 1085.74   3
  -1   8   2 13279.1 1077.19   3
  -2   0  -5 4.93873 71.6124   3
  -2   0  -4 150594. 1042.19   3
  -2   0  -3 225.002 63.5325   3
   2   0  -3 127.287 215.317   2
  -2   0  -3 195.961 198.325   2
  -2   0  -3 52.7380 76.4107   4
  -2   0  -2 240786. 2331.98   2
  -2   0  -2 240038. 971.300   4
  -2   0  -1 251.179 53.6878   3
  -2   0  -1 435.638 116.025   2
  -2   0  -1 391.506 98.1252   1
   2   0  -1 506.306 139.023   2
  -2   0   1 514.844 129.051   2
   2   0   1 323.771 51.7679   3
   2   0   1 403.031 102.640   1
   2   0   1 336.586 131.805   2
   2   0   2 231852. 1813.81   1
   2   0   2 231603. 2477.53   2
   2   0   3 501.936 154.003   1
   2   0   3 45.8595 238.921   2
  -2   0   3 249.019 242.386   2
  -2   0   3 9.76827 116.271   4
   2   0   4 141523. 2873.85   2
  -2   0   4 143950. 2670.62   2
   2   0   4 147573. 1979.91   1
  -2   0   4 142048. 1434.60   4
  -2   0   5 103.847 355.861   2
   2   0   5 53.3591 411.618   2
  -2   0   5 162.562 147.697   4
  -2   0   6 62420.5 1023.03   4
  -2   0   6 61655.2 2251.63   2
   2   0   6 61342.8 2413.44   2
  -2   0   7 203.222 510.422   2
   2   0   7 122.748 526.147   2
  -2   1  -6 22698.3 654.238   3
  -2   1  -5 1219.18 186.555   3
  -2   1  -4 33610.9 770.019   4
  -2  -1  -3 1560.13 330.686   2
  -2   1  -3 1867.67 302.703   2
   2   1  -3 1711.09 373.261   2
   2  -1  -3 1641.12 346.249   2
  -2   1  -3 1510.41 166.302   4
  -2  -1  -2 47391.8 1205.76   2
   2   1  -2 49627.5 888.285   4
  -2   1  -2 48372.0 817.169   1
  -2   1  -2 48306.8 1047.56   2
  -2   1  -2 48765.1 692.898   3
   2  -1  -2 48542.6 1211.87   2
   2   1  -2 48669.0 1345.80   2
  -2   1  -2 47370.5 689.649   4
  -2   1  -1 1786.09 375.929   1
  -2   1  -1 2673.20 164.978   3
   2  -1  -1 2530.47 199.557   3
  -2  -1  -1 2631.45 108.808   4
   2   1  -1 2645.90 186.551   4
   2   1  -1 2732.30 358.947   2
   2  -1  -1 2700.63 246.673   2
  -2   1  -1 2726.31 166.071   4
  -2   1  -1 2977.78 223.138   2
  -2   1   0 67312.2 831.074   1
  -2  -1   0 66213.4 688.718   4
   2   1   0 65815.0 687.758   4
   2  -1   0 65456.7 754.390   3
  -2   1   0 66229.1 766.174   3
  -2   1   1 2780.19 213.611   2
   2  -1   1 2726.80 269.201   2
   2  -1   1 2974.04 535.072   1
   2   1   1 2628.68 117.976   4
  -2  -1   1 2658.53 190.016   4
  -2  -1   2 48289.3 795.999   4
   2  -1   2 50413.7 1266.78   1
   2   1   2 47188.7 1256.20   2
  -2  -1   2 46148.3 1261.25   2
   2  -1   2 48790.2 1279.93   2
   2  -1   2 47972.6 678.502   4
  -2   1   2 49567.8 1085.74   2
  -2  -1   3 1403.02 349.025   2
   2   1   3 1441.07 344.072   2
   2  -1   3 1737.84 385.162   2
   2  -1   3 1422.36 161.152   4
  -2   1   3 1539.59 303.637   2
  -2  -1   3 1715.72 206.330   4
   2  -1   3 1670.51 255.070   1
  -2  -1   4 33066.9 756.064   1
   2  -1   4 33870.4 1070.24   1
   2  -1   4 31776.5 1439.74   2
  -2   1   4 33705.5 741.494   4
   2   1   4 32353.9 1397.30   2
  -2  -1   4 32090.1 771.275   4
   2  -1   4 32848.6 681.574   4
  -2  -1   4 32336.6 1437.40   2
  -2   1   4 33281.1 1287.16   2
   2  -1   5 1463.90 344.986   1
   2   1   5 966.518 469.623   2
  -2   1   5 1213.47 443.939   2
  -2  -1   5 1389.49 229.236   4
  -2  -1   5 854.896 440.390   2
   2  -1   5 1020.41 470.798   2
  -2   1   5 1061.42 155.587   4
  -2  -1   5 1083.54 217.997   1
   2   1   6 22545.0 1534.56   2
   2  -1   6 19519.8 1439.65   2
  -2   1   6 21106.0 1324.17   2
  -2  -1   6 20450.8 1421.52   2
  -2  -1   6 20952.8 706.642   4
  -2   1   7 922.177 522.578   2
   2   1   7 416.448 564.010   2
  -2  -1   7 1192.73 679.367   2
   2  -1   7 928.777 621.449   2
  -2   2  -6 5265.68 420.458   3
   2  -2  -5 12149.3 404.553   3
  -2   2  -5 12197.3 558.067   3
  -2   2  -5 11190.6 602.303   4
   2  -2  -4 14222.6 468.941   3
  -2   2  -4 14156.0 588.909   4
   2   2  -4 13915.4 689.930   4
   2   2  -3 20535.9 1122.54   2
  -2   2  -3 19859.9 546.578   1
   2   2  -3 20496.0 702.805   4
   2  -2  -3 19298.3 538.148   3
   2  -2  -3 19370.1 1088.09   2
  -2   2  -3 21515.3 937.733   2
  -2   2  -3 20189.9 629.325   4
  -2   2  -2 25132.9 885.688   2
   2   2  -2 25974.4 1205.96   2
   2  -2  -2 24191.8 577.713   3
  -2   2  -2 26048.2 962.006   1
  -2   2  -2 24354.7 631.025   3
   2   2  -2 25143.0 692.017   4
  -2   2  -2 24243.1 635.424   4
  -2   2  -1 21830.0 562.100   4
  -2   2  -1 20977.5 777.269   2
  -2  -2  -1 21318.5 456.026   4
   2   2  -1 20719.9 552.449   4
   2  -2  -1 21766.6 539.698   3
  -2   2  -1 22390.7 825.163   1
  -2   2  -1 20955.2 554.841   3
   2   2   0 25104.9 544.503   4
  -2  -2   0 25636.7 557.431   4
  -2   2   0 26059.5 593.800   4
  -2   2   0 25106.6 597.690   3
  -2  -2   1 21153.5 570.178   4
   2   2   1 21219.4 444.631   4
  -2   2   1 21600.9 576.295   3
   2  -2   2 24358.6 633.412   4
  -2   2   2 25109.9 853.838   2
  -2  -2   2 24413.8 666.813   4
   2   2   2 24094.8 1085.95   2
   2   2   2 23853.4 403.392   4
   2   2   2 24648.5 452.061   3
   2  -2   2 24519.8 899.669   1
  -2   2   3 20837.6 924.947   2
   2   2   3 19249.9 1046.15   2
   2  -2   3 19582.1 1164.82   2
   2  -2   3 18596.9 590.060   4
   2   2   3 17206.4 262.877   4
  -2  -2   3 19294.7 637.471   4
   2  -2   3 22690.1 1830.32   1
   2   2   4 14037.8 1037.29   2
   2  -2   4 13402.5 550.243   4
   2  -2   4 12839.3 1139.69   1
  -2   2   4 12831.5 852.209   2
   2  -2   4 13766.4 1168.88   2
  -2  -2   4 13814.8 1108.88   2
  -2  -2   4 13323.3 586.745   4
  -2  -2   4 12534.9 666.716   1
  -2  -2   5 10800.4 712.292   1
   2  -2   5 10617.9 1065.73   1
  -2   2   5 10871.1 882.312   2
  -2  -2   5 11259.8 573.400   4
  -2  -2   5 11885.4 1135.43   2
  -2   2   5 12148.6 440.382   4
   2   2   5 12049.9 1051.68   2
   2  -2   5 11189.1 1152.30   2
   2  -2   6 5697.64 977.277   2
  -2  -2   6 4833.39 430.019   4
  -2   2   6 5443.47 786.980   2
  -2  -2   6 4598.21 836.987   2
   2   2   6 5504.60 904.025   2
   2  -2   7 5277.78 1006.13   2
  -2   2   7 5918.97 882.728   2
   2   2   7 6070.72 1025.03   2
  -2  -2   7 4824.74 944.743   2
  -2   3  -6 3642.34 414.680   3
  -2   3  -5 10653.1 610.770   3
  -2   3  -4 9823.97 564.356   3
   2  -3  -3 9975.61 425.625   3
  -2   3  -3 9815.63 522.988   3
  -2   3  -3 10155.5 457.274   1
   2   3  -2 19499.7 1277.69   2
   2   3  -2 18642.6 673.336   4
  -2   3  -2 19298.7 663.344   4
  -2   3  -2 18186.2 656.262   3
  -2   3  -2 19591.7 954.134   2
  -2   3  -2 19646.0 1547.09   1
  -2   3  -1 4890.92 359.655   3
  -2   3  -1 5008.99 397.422   1
   2   3  -1 5074.50 343.510   4
  -2  -3  -1 5043.72 302.868   4
  -2   3  -1 5134.47 343.257   4
  -2   3   0 20882.2 665.248   3
  -2  -3   0 21243.3 634.231   4
  -2   3   0 21469.6 639.315   4
   2   3   0 21171.7 616.207   4
   2   3   1 4957.18 285.835   4
  -2   3   1 5116.54 317.340   4
  -2  -3   1 4867.70 349.691   4
  -2   3   1 5108.48 354.521   3
   2   3   2 18703.1 540.586   3
  -2   3   2 18218.6 874.143   2
  -2   3   2 18315.4 682.036   3
   2   3   2 18101.8 484.778   4
  -2  -3   2 18845.2 686.330   4
  -2   3   2 18269.1 567.358   4
   2   3   3 9995.46 887.811   2
   2   3   3 10403.0 429.033   3
   2  -3   3 10281.7 536.555   4
  -2  -3   3 9712.81 543.459   4
   2  -3   3 10200.6 464.209   1
  -2   3   3 9918.45 715.296   2
   2   3   3 9751.00 321.099   4
   2   3   4 9386.33 241.527   4
   2   3   4 10831.6 1002.12   2
  -2  -3   4 9717.74 577.789   4
   2  -3   4 10227.0 591.633   1
  -2   3   4 10354.0 827.782   2
  -2   3   5 10078.9 914.796   2
   2  -3   5 10085.9 1318.76   2
   2   3   5 12095.9 1125.57   2
  -2  -3   5 10493.0 635.717   4
   2  -3   6 3521.19 1010.54   2
   2   3   6 3946.14 851.347   2
  -2   3   6 4138.44 736.569   2
  -2  -3   6 3880.77 446.175   4
  -2   3   7 7714.08 1014.78   2
   2  -3   7 6761.54 1252.49   2
  -2   4  -6 12456.0 794.124   3
  -2   4  -5 28351.8 1078.30   3
  -2   4  -4 22588.0 934.831   3
  -2   4  -3 65745.5 1530.09   1
  -2   4  -3 59665.6 1406.33   3
   2   4  -2 38557.4 1055.74   1
  -2   4  -2 37934.8 1089.37   3
  -2   4  -2 40251.5 1910.29   1
  -2   4  -1 91746.2 1608.91   3
  -2  -4  -1 91382.0 1459.66   4
  -2   4  -1 88548.4 1670.64   1
  -2   4   0 49739.9 1180.94   3
  -2  -4   0 49491.3 1115.28   4
   2   4   1 90965.4 1385.24   4
  -2   4   1 89515.7 1563.05   3
  -2  -4   1 90029.6 1562.81   4
   2   4   1 89549.1 1466.40   3
   2   4   2 39884.8 981.908   3
  -2   4   2 38964.9 1094.29   3
  -2  -4   2 38891.6 1109.11   4
  -2   4   2 39129.5 944.745   4
   2   4   2 38677.6 861.793   4
  -2   4   2 39618.9 1456.65   2
  -2   4   3 59776.9 1835.23   2
   2   4   3 60926.9 1234.86   3
   2   4   3 58587.0 2274.49   2
   2   4   3 58185.0 989.514   4
  -2   4   3 58909.8 1125.52   4
  -2  -4   3 59130.1 1431.14   4
  -2   4   4 23222.5 1248.44   2
   2   4   4 24403.0 1553.35   2
  -2  -4   4 22157.5 936.264   4
  -2   4   5 30014.4 1578.96   2
   2   4   5 30204.1 1831.19   2
  -2  -4   5 28194.8 1096.72   4
  -2   4   6 12280.8 1152.21   2
   2   4   6 12694.6 1347.02   2
  -2  -4   6 10636.8 747.461   4
  -2   5  -6 7879.57 728.783   3
  -2   5  -5 4441.74 563.889   3
  -2   5  -4 11418.1 765.635   3
  -2   5  -3 5746.89 653.007   1
  -2   5  -3 5642.29 554.780   3
   2   5  -2 10172.2 619.063   1
  -2   5  -2 11237.4 1016.41   1
  -2   5  -2 11666.8 720.948   3
  -2   5  -1 5314.98 509.524   3
  -2   5  -1 5119.59 508.727   1
  -2   5   0 9876.18 641.522   3
  -2  -5   0 10206.8 627.901   4
  -2   5   1 5193.94 493.319   3
   2   5   1 5158.70 458.258   3
  -2  -5   1 4910.10 480.341   4
  -2   5   2 10390.5 907.133   2
  -2   5   2 10828.6 692.846   3
  -2  -5   2 11915.0 720.109   4
   2   5   2 11661.2 653.418   3
  -2   5   3 6612.03 612.043   3
  -2   5   3 5897.48 736.634   2
  -2  -5   3 5811.15 565.148   4
   2   5   3 5376.75 859.354   2
   2   5   3 6058.50 504.624   3
   2   5   4 11459.7 1233.57   2
  -2   5   4 11571.2 1006.50   2
  -2  -5   4 11124.7 774.486   4
  -2  -5   5 4479.52 576.113   4
  -2   5   5 4687.59 784.734   2
   2   5   5 5875.87 993.031   2
  -2  -5   6 7617.97 728.573   4
  -2   5   6 8895.02 1071.42   2
  -2   6  -5 60.2707 380.064   3
  -2   6  -4 16297.6 1015.10   3
  -2   6  -3 613.810 376.385   3
  -2   6  -2 29302.1 1244.33   3
  -2   6  -2 26189.3 1592.22   1
  -2   6  -1 899.672 353.042   1
  -2   6  -1 936.315 380.384   3
   2   6  -1 1378.56 414.822   3
  -2   6   0 33970.5 1265.75   3
  -2   6   0 36141.0 1276.19   1
   2   6   0 34280.0 1253.75   3
  -2   6   1 1522.00 420.705   3
  -2  -6   1 1462.37 425.423   4
   2   6   1 1006.32 352.104   3
  -2   6   2 27694.5 1196.01   3
   2   6   2 27931.3 1118.27   3
  -2  -6   2 28253.4 1217.03   4
  -2   6   2 26882.7 1573.60   2
   2   6   3 689.850 337.979   3
  -2   6   3 702.142 510.435   2
  -2  -6   3 899.135 442.019   4
   2   6   3 284.827 612.479   2
  -2   6   3 127.320 382.727   3
  -2  -6   4 16417.2 1038.99   4
  -2   6   4 16575.5 1307.07   2
   2   6   4 17027.2 1592.71   2
  -2   6   5 258.099 587.208   2
   2   7  -2 611.137 432.223   3
  -2   7  -2 557.692 387.492   3
  -2   7  -1 4002.95 589.230   3
   2   7  -1 4731.10 637.637   3
  -2   7   0 644.797 366.034   1
  -2   7   0 390.963 381.434   3
   2   7   0 193.211 357.484   3
  -2   7   1 4786.88 627.651   3
   2   7   1 4329.38 587.268   3
  -2   7   2-168.272 579.468   2
  -2   7   2 555.247 385.875   3
   2   7   2 1108.32 411.703   3
  -2   7   3 3433.57 770.020   2
  -2   7   3 3245.03 599.765   3
   2   7   3 3248.92 902.172   2
  -2   7   4 1987.15 695.282   2
   2   8   1 17880.2 1186.25   3
  -2   8   1 17612.3 1234.90   1
  -2   8   2 1781.61 567.677   3
  -2   8   2 1830.04 685.138   2
  -3   0  -5 6749.01 236.858   3
  -3   0  -4 56.8859 64.8909   3
  -3   0  -3 14965.7 314.535   3
   3   0  -3 14889.0 849.095   2
  -3   0  -3 16086.2 755.312   2
  -3   0  -3 14542.6 304.434   4
  -3   0  -2 185.668 67.9043   3
  -3   0  -2 445.731 168.722   2
   3   0  -2 413.455 188.017   2
  -3   0  -2 195.618 58.2549   4
   3   0  -1 49463.5 962.123   2
  -3   0  -1 49118.6 798.516   2
  -3   0  -1 51755.3 933.150   1
   3   0   0 4675.27 677.816   1
  -3   0   0 5788.21 802.590   1
  -3   0   1 50049.5 859.583   2
   3   0   1 49809.0 683.429   3
   3   0   1 51438.0 959.368   1
  -3   0   1 49249.5 680.934   1
   3   0   1 49258.6 885.680   2
   3   0   2 443.465 226.581   2
  -3   0   2 457.590 195.404   2
   3   0   2 236.717 118.740   1
  -3   0   3 14629.8 543.397   4
  -3   0   3 14674.7 769.212   2
   3   0   3 14691.4 835.468   2
   3   0   3 14539.3 598.881   1
  -3   0   4 140.413 165.107   4
   3   0   4 186.204 367.696   2
  -3   0   4 282.441 320.829   2
   3   0   4 88.6327 163.740   1
  -3   0   5 9640.68 841.458   2
   3   0   5 9271.86 938.650   2
  -3   0   5 9149.20 439.256   4
  -3   0   6-147.981 411.460   2
  -3   0   6 116.153 174.786   4
   3   0   6 149.418 492.826   2
   3   0   7 6799.24 1035.44   2
  -3   0   7 6520.04 901.427   2
  -3   1  -6 11192.8 461.372   3
  -3   1  -5 8248.83 387.897   3
  -3   1  -5 8204.29 463.014   4
  -3   1  -4 14183.4 456.851   3
  -3   1  -4 13908.2 489.813   4
  -3   1  -3 11092.3 388.372   4
  -3   1  -3 11646.4 386.876   3
  -3  -1  -3 11680.5 711.335   2
   3   1  -3 13226.0 874.111   2
  -3   1  -3 12930.4 682.290   2
   3  -1  -3 11889.4 787.880   2
   3   1  -2 11966.9 732.836   2
   3  -1  -2 11277.6 617.268   2
  -3   1  -2 12053.2 369.973   3
  -3   1  -2 11650.0 510.407   1
  -3   1  -2 11847.6 361.099   4
  -3   1  -2 11684.8 511.369   2
  -3  -1  -1 78033.2 696.392   4
  -3   1  -1 74781.5 881.024   3
  -3   1  -1 76355.4 932.502   2
  -3  -1   0 7582.02 294.666   4
  -3   1   0 7864.39 382.938   1
   3   1   0 7616.30 284.066   1
  -3   1   0 7449.74 326.029   3
   3  -1   0 7804.13 326.715   3
  -3  -1   0 7979.28 279.947   1
   3  -1   0 7990.40 366.221   1
  -3   1   1 76944.5 945.470   2
   3   1   1 76469.0 979.828   1
  -3  -1   1 78313.2 1041.22   4
  -3  -1   1 77646.7 1099.02   1
   3  -1   1 76508.5 1192.22   2
   3  -1   1 76054.5 895.708   3
   3   1   2 11882.9 461.244   1
   3  -1   2 11965.0 667.949   2
   3  -1   2 10633.2 712.547   1
  -3  -1   2 11581.4 282.979   1
  -3   1   2 11252.9 511.796   2
  -3  -1   2 12012.6 457.425   4
  -3  -1   2 10943.5 660.541   2
   3   1   2 11193.5 670.777   2
   3  -1   3 12323.1 677.375   1
   3   1   3 12972.6 876.025   2
   3   1   3 12534.5 549.904   1
  -3  -1   3 11342.2 774.944   2
   3  -1   3 12243.1 816.783   2
  -3   1   3 10089.9 592.816   2
  -3  -1   3 11576.2 474.184   4
  -3  -1   4 13284.9 542.816   4
  -3   1   4 13698.6 830.979   2
  -3  -1   4 14553.3 1012.17   2
   3  -1   4 13487.2 992.122   2
   3  -1   4 14191.9 792.869   1
   3   1   4 13158.7 966.159   2
  -3   1   5 8056.17 399.422   4
  -3  -1   5 7807.89 454.573   4
  -3  -1   5 7569.99 439.005   1
  -3  -1   5 7868.88 838.632   2
  -3   1   5 8142.31 770.021   2
   3   1   5 7609.58 878.418   2
   3  -1   5 9047.27 716.883   1
   3  -1   5 7864.48 891.175   2
  -3  -1   6 10670.9 547.758   4
  -3  -1   6 10449.6 1050.55   2
  -3   1   6 10547.5 964.019   2
   3  -1   6 10242.6 1109.80   2
   3   1   6 10825.1 1185.72   2
   3   1   7 5455.94 960.450   2
  -3   1   7 5265.28 830.926   2
  -3  -1   7 5366.80 898.637   2
   3  -1   7 4760.55 941.142   2
  -3   2  -6 36060.5 987.233   3
  -3   2  -5 9461.65 495.380   3
  -3   2  -5 9789.26 558.263   4
   3  -2  -5 10194.4 469.081   3
  -3   2  -4 67685.4 1251.91   4
  -3   2  -4 65685.9 1178.89   3
   3  -2  -4 66247.7 1205.16   3
   3   2  -3 18356.9 717.053   4
  -3   2  -3 18128.8 617.414   1
   3  -2  -3 17614.1 1056.66   2
  -3   2  -3 17454.6 575.230   3
  -3   2  -3 17799.1 831.281   2
  -3   2  -3 17973.6 599.021   4
   3  -2  -3 18181.3 619.714   3
  -3  -2  -2 108160. 892.837   4
   3   2  -2 105339. 2590.95   2
  -3   2  -2 107941. 1348.45   4
   3  -2  -2 107269. 1393.58   3
  -3   2  -2 106474. 1335.45   3
  -3   2  -2 108761. 1724.62   2
   3   2  -2 109429. 1499.03   4
   3  -2  -1 34011.5 741.806   3
  -3  -2  -1 33576.8 582.158   4
  -3   2  -1 35868.6 1285.59   1
   3   2  -1 33287.3 736.897   4
  -3   2  -1 32111.2 830.980   2
   3   2  -1 33397.6 486.257   1
  -3   2  -1 33034.0 711.059   4
  -3   2  -1 32863.0 724.944   3
  -3   2   0 129794. 1547.39   1
   3  -2   0 130575. 1432.02   3
   3   2   0 132519. 1305.26   4
  -3  -2   0 130121. 1308.48   4
  -3   2   0 129374. 1431.92   3
   3  -2   1 32525.6 828.934   1
  -3  -2   1 33431.2 748.810   4
  -3   2   1 32700.1 789.489   3
  -3   2   1 31602.9 785.975   2
   3   2   1 32888.4 586.541   4
   3  -2   2 108843. 2481.80   2
   3   2   2 103792. 2404.88   2
  -3   2   2 105655. 1633.29   2
   3  -2   2 111360. 2434.47   1
   3   2   2 105630. 897.006   4
  -3  -2   2 107262. 1442.69   4
  -3   2   3 17977.7 836.887   2
   3   2   3 18493.1 1093.78   2
   3  -2   3 17803.7 1137.90   2
   3  -2   3 21539.8 1790.30   1
  -3  -2   3 18136.5 653.022   4
  -3   2   4 65042.6 1766.44   2
   3  -2   4 64890.3 2453.03   2
   3  -2   4 59945.9 2586.59   1
  -3  -2   4 64861.3 2274.58   2
  -3  -2   4 62785.7 1263.25   4
   3   2   4 68583.4 2283.44   2
  -3  -2   4 59377.9 653.135   1
   3   2   5 9634.58 996.614   2
  -3  -2   5 9729.73 1043.33   2
   3  -2   5 8972.35 1084.88   2
   3  -2   5 9151.78 1081.23   1
  -3   2   5 9297.30 819.601   2
  -3  -2   5 9226.83 566.415   1
  -3  -2   5 9874.39 563.334   4
  -3  -2   6 33499.7 1958.21   2
  -3   2   6 33530.6 1660.20   2
   3   2   6 34541.9 1976.75   2
   3  -2   6 31269.8 2021.87   2
  -3  -2   6 31889.1 1015.08   4
   3   2   7 6553.92 1101.64   2
  -3   2   7 5381.01 850.305   2
  -3  -2   7 4919.37 960.746   2
   3  -2   7 4715.13 1012.00   2
  -3   3  -6 13905.0 735.458   3
  -3   3  -5 4553.47 430.559   3
   3  -3  -4 13571.1 537.584   3
  -3   3  -4 13422.9 646.099   3
  -3   3  -3 11450.0 566.356   3
  -3   3  -3 11840.3 752.740   2
   3  -3  -3 11588.2 500.868   3
  -3   3  -3 13212.9 655.886   1
  -3   3  -2 5946.28 504.251   2
  -3   3  -2 6218.74 414.402   3
  -3   3  -2 5552.11 1024.61   1
   3  -3  -2 6419.55 380.294   3
   3   3  -2 5857.31 800.895   2
  -3   3  -2 6487.30 408.149   4
   3   3  -1 15697.5 583.744   4
  -3   3  -1 14937.1 736.871   1
   3  -3  -1 15705.1 575.817   3
  -3   3  -1 15858.0 588.696   4
  -3  -3  -1 15412.8 511.225   4
  -3   3  -1 15138.0 597.227   3
   3   3   0 748.196 154.311   4
  -3   3   0 1062.61 218.172   3
  -3  -3   0 733.795 180.511   4
  -3   3   0 900.404 175.751   4
  -3   3   1 15244.4 609.186   3
  -3  -3   1 15064.6 592.503   4
   3   3   1 14810.8 484.040   4
   3   3   2 6314.12 324.044   3
  -3   3   2 5787.15 438.706   3
  -3   3   2 6316.36 503.960   2
  -3  -3   2 6288.01 434.066   4
   3   3   2 6086.65 293.409   4
   3  -3   3 11472.0 619.379   1
  -3   3   3 11276.2 724.382   2
   3   3   3 12059.9 423.705   3
   3   3   3 11880.2 1020.10   2
   3   3   3 11103.2 345.414   4
  -3  -3   3 12227.6 610.966   4
   3  -3   4 12565.1 845.849   1
   3   3   4 13578.1 1125.29   2
  -3  -3   4 13252.3 679.253   4
  -3   3   4 13603.1 896.570   2
  -3   3   5 4326.20 622.274   2
  -3  -3   5 4591.72 457.900   4
   3   3   5 4420.82 829.766   2
   3  -3   5 4360.09 998.950   2
   3  -3   6 12291.2 1598.30   2
  -3   3   6 13243.1 1096.12   2
   3   3   6 14479.9 1388.46   2
  -3  -3   6 12217.8 736.640   4
  -3   3   7 1320.74 604.172   2
   3  -3   7 320.069 734.410   2
  -3   4  -6 8084.86 666.406   3
  -3   4  -5 1439.50 357.581   3
  -3   4  -4 16470.3 814.928   3
  -3   4  -4 17665.1 582.732   1
  -3   4  -3 1883.36 340.432   3
  -3   4  -3 2288.20 459.663   1
  -3   4  -2 25065.9 898.363   3
  -3   4  -2 25447.8 1692.59   1
   3   4  -2 23293.3 641.874   1
   3   4  -2 23023.1 420.875   1
  -3   4  -2 25350.1 1170.65   2
  -3   4  -1 956.666 263.476   3
  -3  -4  -1 1092.03 240.220   4
  -3   4  -1 1008.46 272.329   1
  -3   4   0 28756.7 916.138   3
  -3  -4   0 28570.2 867.122   4
   3   4   1 886.566 190.011   4
  -3   4   1 1123.52 273.653   3
  -3  -4   1 937.781 262.967   4
  -3   4   2 25344.4 796.439   4
  -3   4   2 24521.6 929.449   3
   3   4   2 25058.5 760.249   3
  -3   4   2 23958.6 1067.80   2
  -3  -4   2 25492.2 909.511   4
   3   4   2 23959.8 687.076   4
   3   4   3 1891.35 212.018   4
  -3   4   3 1977.85 258.575   4
   3   4   3 1829.51 614.614   2
  -3  -4   3 1870.96 350.951   4
  -3   4   3 2281.53 457.319   2
   3   4   3 2018.23 272.333   3
   3   4   4 18124.6 1424.75   2
  -3   4   4 17391.0 1095.51   2
  -3  -4   4 16530.4 840.248   4
   3   4   5 1203.54 608.605   2
  -3   4   5 1834.11 559.061   2
  -3  -4   5 1477.00 383.716   4
  -3  -4   6 7928.79 673.792   4
   3   4   6 9630.27 1270.42   2
  -3   4   6 8483.93 965.973   2
  -3   5  -6 586.806 377.621   3
  -3   5  -5 5004.25 588.889   3
  -3   5  -4 1518.70 393.781   3
  -3   5  -3 3906.79 491.660   3
  -3   5  -3 2974.27 618.042   1
   3   5  -2 2422.99 291.686   1
  -3   5  -2 2945.72 434.590   3
  -3   5  -2 2685.95 634.575   1
  -3   5  -1 1793.47 360.244   1
  -3   5  -1 1997.06 366.118   3
  -3   5   0 3058.39 453.016   1
  -3  -5   0 3432.20 409.409   4
  -3   5   0 3306.81 429.656   3
  -3   5   1 2246.19 379.068   3
   3   5   1 1951.87 334.969   3
  -3  -5   1 2184.79 380.612   4
   3   5   2 2815.81 369.250   3
  -3  -5   2 3145.18 444.555   4
  -3   5   2 2290.65 473.989   2
  -3   5   2 2301.70 397.119   3
  -3  -5   3 3815.27 499.414   4
   3   5   3 2815.08 785.509   2
   3   5   3 4374.04 438.559   3
  -3   5   3 3679.71 584.550   2
  -3   5   4 1743.42 537.093   2
  -3  -5   4 1481.91 405.488   4
   3   5   4 1841.88 761.028   2
   3   5   5 6317.61 1091.72   2
  -3   5   5 4365.47 743.064   2
  -3  -5   5 4787.14 595.922   4
  -3   5   6 886.188 570.884   2
  -3  -5   6 615.474 377.520   4
  -3   6  -5 17431.2 1084.07   3
  -3   6  -4 1002.92 420.320   3
  -3   6  -3 29523.0 1283.08   3
  -3   6  -2 1275.02 402.748   3
  -3   6  -2 973.814 552.889   1
  -3   6  -1 36709.0 1333.58   3
  -3   6  -1 36376.5 1487.72   1
  -3   6   0 1992.04 417.969   1
   3   6   0 901.827 362.155   3
  -3   6   0 1914.64 446.405   3
  -3  -6   1 38004.1 1350.63   4
  -3   6   1 37590.9 1368.65   3
   3   6   1 36935.2 1283.67   3
   3   6   2 1068.28 343.570   3
  -3  -6   2 1433.05 440.948   4
  -3   6   2 476.983 409.648   2
  -3   6   2 688.573 357.422   3
   3   6   3 29402.5 2154.21   2
  -3  -6   3 29612.5 1292.37   4
  -3   6   3 28413.9 1519.73   2
   3   6   3 30723.2 1184.83   3
  -3  -6   4 1073.06 448.347   4
   3   6   4 675.738 717.101   2
  -3   6   4 1312.92 546.803   2
  -3   6   5 17551.1 1378.17   2
  -3   7  -2 1975.03 510.530   3
   3   7  -2 1703.67 498.241   3
  -3   7  -1 4693.66 646.944   3
   3   7  -1 4185.86 616.660   3
   3   7   0 1502.82 459.591   3
  -3   7   0 1921.58 510.870   1
  -3   7   0 1852.51 488.694   3
   3   7   1 3804.57 566.693   3
  -3   7   1 4460.92 637.142   3
  -3   7   2 1339.36 526.933   2
  -3   7   2 1215.63 447.865   3
   3   7   2 2079.35 473.037   3
   3   7   3 3145.99 985.009   2
  -3   7   3 4199.32 772.253   2
  -3   7   4 2314.15 674.770   2
   3   8   1 3070.23 608.391   3
  -3   8   1 4493.21 707.407   1
  -4   0  -4 143105. 1156.48   4
  -4   0  -3 193.201 67.6660   4
   4   0  -3 100.206 244.341   2
  -4   0  -3 98.8987 191.718   2
  -4   0  -2 251058. 2371.98   2
  -4   0  -2 254380. 2264.15   1
   4   0  -2 246677. 2914.44   2
   4   0  -1 228.683 147.297   2
  -4   0  -1 734.164 241.793   1
  -4   0   0 331457. 4376.95   1
   4   0   0 313090. 4095.84   1
   4   0   1 163.459 153.310   1
   4   0   1 285.954 150.035   2
  -4   0   1 213.571 132.444   1
  -4   0   1 262.147 135.367   2
   4   0   2 246826. 1326.67   3
   4   0   2 250607. 2810.16   2
  -4   0   2 251965. 2527.08   2
   4   0   2 251150. 2427.20   1
  -4   0   3 58.5269 230.365   2
   4   0   3-42.5230 166.209   1
   4   0   3 196.654 285.110   2
  -4   0   4 135922. 1806.83   4
  -4   0   4 137418. 2573.71   2
   4   0   4 143312. 2244.00   1
  -4   0   5 24.9873 352.946   2
   4   0   5 10.2925 409.894   2
  -4   0   5 92.3912 180.885   4
  -4   0   6 57576.1 1164.26   4
   4   0   6 56808.1 2448.63   2
  -4   0   6 55060.5 2085.61   2
  -4   0   7 122.923 484.943   2
   4   0   7-7.74809 578.273   2
  -4   1  -5 1892.40 222.137   3
  -4   1  -5 1654.08 229.028   4
  -4   1  -4 30902.4 689.202   3
  -4   1  -4 31003.7 702.553   4
  -4   1  -3 5380.04 286.641   3
  -4   1  -3 5873.94 410.486   1
  -4   1  -3 5592.76 284.385   4
   4  -1  -3 5311.25 568.617   2
   4   1  -3 6061.97 643.876   2
  -4  -1  -3 5637.19 517.556   2
  -4   1  -3 5393.42 448.266   2
  -4   1  -2 36886.8 682.449   3
   4   1  -2 36731.4 1346.43   2
   4  -1  -2 35619.6 1088.71   2
  -4   1  -2 36290.8 667.531   4
  -4   1  -2 39175.9 1100.11   1
  -4   1  -2 37883.7 902.986   2
  -4   1  -1 22471.3 477.234   2
  -4   1  -1 23263.7 563.157   3
   4  -1  -1 21604.3 617.932   2
  -4  -1  -1 23582.0 519.735   4
   4  -1   0 40624.9 871.865   3
  -4   1   0 42084.7 1079.09   1
  -4  -1   0 38243.7 753.664   1
   4   1   0 41542.2 839.871   1
   4  -1   0 39851.5 1015.32   1
  -4  -1   0 41175.2 819.105   4
   4  -1   1 22461.8 546.763   3
  -4  -1   1 23239.0 674.992   4
   4   1   1 23040.6 611.628   1
  -4   1   1 22361.5 491.165   2
   4  -1   1 22108.8 633.719   2
  -4  -1   2 36639.1 715.124   1
   4  -1   2 36954.6 1151.83   2
  -4   1   2 32473.2 803.515   2
   4   1   2 37216.2 856.272   1
  -4  -1   2 35901.1 862.274   4
  -4  -1   2 35952.3 1190.92   2
   4   1   2 37698.0 1270.16   2
   4  -1   2 37825.5 1522.02   1
  -4  -1   3 5179.75 535.679   2
  -4  -1   3 5482.31 378.893   4
   4  -1   3 5520.10 583.879   2
  -4   1   3 5208.57 460.456   2
   4  -1   3 5489.44 545.555   1
   4   1   3 5777.86 407.235   1
   4   1   3 5513.43 599.664   2
   4   1   4 31823.4 1531.63   2
  -4  -1   4 30823.3 1412.72   2
  -4   1   4 30794.8 1212.62   2
   4  -1   4 29374.1 1442.16   2
  -4  -1   4 28997.6 838.093   4
   4  -1   4 30196.4 1230.44   1
   4  -1   5 1437.18 535.425   2
  -4   1   5 1587.23 427.868   2
  -4   1   5 1465.81 247.482   4
   4   1   5 1913.07 604.068   2
  -4  -1   5 1761.79 521.091   2
  -4  -1   5 1512.34 272.630   4
   4  -1   6 18719.6 1498.68   2
  -4  -1   6 19645.9 763.514   4
  -4  -1   6 20850.8 1408.82   2
   4   1   6 22180.2 1650.65   2
  -4   1   6 20751.3 1298.49   2
   4   1   7 624.633 658.871   2
  -4   1   7 954.638 558.173   2
   4  -1   7 989.389 633.937   2
  -4  -1   7 1217.57 609.915   2
  -4   2  -6 5275.33 423.319   3
  -4   2  -5 14648.7 607.953   3
   4  -2  -5 15115.8 673.027   3
  -4   2  -5 14279.6 652.141   4
  -4   2  -4 12234.0 536.656   3
   4  -2  -4 12271.8 624.802   3
  -4   2  -4 12111.0 544.888   4
  -4   2  -3 33052.9 992.351   1
  -4   2  -3 33505.5 823.602   4
  -4   2  -3 32795.2 808.918   3
   4  -2  -3 32096.1 950.227   3
  -4   2  -3 31083.2 1026.96   2
   4  -2  -3 32225.0 1427.98   2
  -4   2  -2 22109.3 635.213   4
  -4   2  -2 25185.9 1528.76   1
   4   2  -2 22456.3 1315.12   2
  -4  -2  -2 22003.1 417.987   4
  -4   2  -2 22617.7 754.908   2
  -4   2  -2 21223.9 623.761   3
   4   2  -2 22267.9 743.428   4
   4  -2  -2 22443.6 746.119   3
  -4   2  -1 57476.9 1850.76   1
   4   2  -1 57033.2 888.366   1
  -4   2  -1 54585.3 974.796   3
   4   2  -1 57579.0 1051.44   4
  -4   2  -1 56427.9 994.197   2
  -4  -2  -1 56147.4 805.473   4
   4  -2  -1 58301.0 1095.85   3
   4   2   0 26520.5 641.150   4
  -4  -2   0 25369.7 631.648   4
  -4   2   0 25316.2 693.784   3
   4  -2   0 26451.5 708.481   3
   4   2   0 25740.2 569.255   1
  -4   2   0 26215.1 791.014   1
   4   2   1 57914.7 853.469   4
   4  -2   1 58088.3 1022.99   3
   4  -2   1 58201.6 1320.83   1
  -4   2   1 55605.0 950.047   2
   4   2   1 57257.2 973.970   1
  -4  -2   1 55743.7 1028.56   4
   4   2   2 22440.6 1243.83   2
   4  -2   2 22146.6 1153.69   2
  -4   2   2 23940.0 810.679   2
   4  -2   2 23809.3 1384.14   1
  -4  -2   2 21567.7 704.943   4
   4  -2   3 32138.9 1553.37   2
   4   2   3 32455.2 1493.54   2
  -4  -2   3 31830.2 900.190   4
  -4   2   3 31893.3 1049.20   2
  -4  -2   4 11994.5 365.711   1
  -4  -2   4 11372.1 587.823   4
  -4   2   4 11478.6 767.856   2
   4  -2   4 12600.4 1196.58   2
   4   2   4 12809.2 1084.99   2
   4  -2   4 10691.8 1233.61   1
   4   2   5 15131.3 1282.11   2
  -4  -2   5 14584.0 1247.18   2
   4  -2   5 13599.6 1314.85   2
  -4  -2   5 15246.6 443.646   1
  -4  -2   5 14326.3 687.129   4
  -4   2   5 14116.1 983.360   2
  -4  -2   5 13696.6 589.280   1
   4  -2   5 13449.1 1359.73   1
   4  -2   6 4830.73 960.799   2
  -4  -2   6 4569.64 875.123   2
  -4  -2   6 4745.14 465.495   4
  -4   2   6 5016.03 740.874   2
   4   2   6 5175.03 928.375   2
  -4  -2   7 5649.82 971.742   2
   4  -2   7 5496.19 1090.38   2
  -4   2   7 6123.51 874.215   2
   4   2   7 6308.43 1147.76   2
  -4   3  -6 3398.92 417.114   3
  -4   3  -5 10428.5 619.923   3
  -4   3  -4 9988.24 527.635   1
   4  -3  -4 9132.44 498.721   3
  -4   3  -4 8565.96 536.843   3
   4  -3  -3 9502.51 507.339   3
  -4   3  -3 9317.01 527.230   3
  -4   3  -3 10200.4 678.800   2
  -4   3  -3 10964.8 742.887   1
  -4   3  -2 15384.5 627.199   4
   4  -3  -2 15089.8 620.684   3
  -4   3  -2 14984.2 710.443   2
  -4  -3  -2 14335.6 467.842   4
  -4   3  -2 14339.1 615.215   3
   4   3  -1 4032.23 228.276   1
   4  -3  -1 4548.77 350.047   3
  -4   3  -1 4695.59 366.047   3
  -4  -3  -1 4118.16 292.931   4
  -4   3  -1 3838.55 382.419   2
  -4   3  -1 3429.79 429.113   1
   4   3  -1 4345.28 340.087   4
  -4   3  -1 4402.58 341.519   4
  -4   3   0 17260.9 632.444   4
  -4   3   0 15991.8 627.113   3
   4  -3   0 17242.9 641.484   3
  -4  -3   0 16611.5 591.952   4
   4   3   0 16917.2 585.764   4
  -4   3   0 16493.7 672.738   1
  -4   3   1 4047.19 363.267   3
   4   3   1 4329.52 287.587   4
  -4  -3   1 4179.93 356.365   4
   4   3   2 13628.3 447.522   4
   4  -3   2 13750.1 664.016   1
  -4  -3   2 14356.4 649.471   4
  -4   3   2 14195.1 677.004   2
  -4  -3   3 9494.46 574.708   4
   4   3   3 9137.40 999.738   2
   4  -3   3 9606.58 679.588   1
   4   3   3 10157.0 366.121   3
  -4   3   3 9062.94 651.521   2
   4  -3   4 7545.64 807.625   1
  -4   3   4 8610.50 717.067   2
   4   3   4 9758.31 1069.48   2
  -4  -3   4 8873.26 589.684   4
   4  -3   5 9847.40 1397.10   2
  -4   3   5 10108.0 852.680   2
   4   3   5 11084.6 1251.52   2
  -4  -3   5 9832.85 644.461   4
   4  -3   6 2939.93 949.332   2
  -4   3   6 3633.98 678.290   2
   4   3   6 3829.71 901.079   2
  -4  -3   6 3407.20 458.692   4
   4  -3   7 5652.46 1232.55   2
  -4   3   7 7271.37 971.439   2
  -4   4  -6 11096.6 738.730   3
  -4   4  -5 25679.0 1058.94   3
  -4   4  -4 24485.1 983.772   3
  -4   4  -4 25756.4 856.587   1
  -4   4  -3 49019.4 1326.62   3
  -4   4  -3 58278.6 2282.84   1
  -4  -4  -2 43023.5 982.207   4
  -4   4  -2 44187.1 2396.73   1
  -4   4  -2 43596.3 1432.01   2
   4   4  -2 40489.1 661.780   1
   4   4  -2 41710.7 674.936   1
  -4   4  -2 41383.7 1180.75   3
  -4   4  -1 68499.1 1453.29   3
  -4   4  -1 70537.1 1793.27   1
   4   4  -1 69981.9 1010.43   1
  -4  -4  -1 70479.0 1296.92   4
  -4  -4   0 54184.3 1199.08   4
  -4   4   0 54124.1 1294.60   3
  -4   4   0 53668.5 1354.66   1
  -4  -4   1 71438.8 1449.40   4
  -4   4   1 71565.3 1520.18   3
   4   4   1 72084.3 1284.96   4
   4   4   2 42888.5 993.767   3
  -4   4   2 42637.9 1288.54   3
  -4   4   2 42282.3 1346.79   2
   4   4   2 43415.5 940.771   4
  -4  -4   2 42990.0 1209.36   4
   4   4   3 49156.6 2379.72   2
   4   4   3 48857.1 923.785   4
   4   4   3 50728.0 1045.20   3
  -4   4   3 49131.7 1527.33   2
  -4  -4   3 50327.7 1376.90   4
   4   4   4 25091.6 1753.34   2
  -4   4   4 25235.2 1234.36   2
  -4  -4   4 24295.4 1014.26   4
  -4   4   5 25949.3 1378.21   2
   4   4   5 25776.3 1858.28   2
  -4  -4   5 24166.5 1063.88   4
   4   4   6 12789.3 1480.13   2
  -4  -4   6 10866.5 793.625   4
  -4   4   6 11361.9 1036.49   2
  -4   5  -6 7441.03 702.216   3
  -4   5  -5 4320.57 549.197   3
  -4   5  -4 10248.8 760.893   3
  -4   5  -3 4215.22 693.452   1
  -4   5  -3 6199.82 589.967   3
  -4   5  -2 9207.03 650.972   3
  -4   5  -2 9060.19 1073.76   1
   4   5  -2 9993.90 476.116   1
  -4   5  -1 7465.69 595.690   3
  -4   5  -1 6571.79 638.233   1
  -4  -5  -1 7512.92 531.485   4
  -4   5   0 8949.31 646.495   1
  -4   5   0 8662.86 629.040   3
  -4  -5   0 8386.30 586.044   4
  -4   5   1 7683.44 616.155   3
  -4  -5   1 7298.98 584.619   4
   4   5   2 10090.0 596.054   3
  -4   5   2 9578.72 701.739   3
  -4  -5   2 9531.46 687.844   4
  -4   5   2 9062.76 738.536   2
   4   5   3 6225.81 1098.52   2
   4   5   3 7220.03 516.483   3
  -4   5   3 7135.90 714.026   2
  -4  -5   3 6681.01 634.572   4
  -4   5   4 9954.52 890.657   2
   4   5   4 9783.21 1310.71   2
  -4  -5   4 10063.1 767.486   4
   4   5   5 5971.18 1147.49   2
  -4   5   5 4651.05 733.861   2
  -4  -5   5 4862.26 601.745   4
  -4  -5   6 7058.50 731.559   4
  -4   5   6 7644.15 940.929   2
  -4   6  -5 168.340 383.224   3
  -4   6  -4 14829.5 982.358   3
  -4   6  -3 95.4691 336.170   3
  -4   6  -2 26853.1 1184.28   3
  -4   6  -2 22565.1 1668.74   1
  -4   6  -1 900.161 405.672   3
  -4   6  -1-225.870 420.465   1
  -4   6   0 32143.1 1290.16   3
  -4   6   0 31932.9 1308.72   1
  -4  -6   0 32988.2 1232.59   4
  -4  -6   1 465.829 365.000   4
  -4   6   1 498.341 360.027   3
   4   6   1 341.365 308.973   3
  -4   6   2 25147.4 1318.35   2
  -4  -6   2 26762.6 1204.07   4
   4   6   2 27130.0 1103.70   3
  -4   6   2 25719.5 1244.45   3
  -4   6   3 546.881 441.578   2
   4   6   3 485.796 338.189   3
   4   6   3-442.652 930.513   2
  -4  -6   3 248.532 380.842   4
   4   6   4 16028.1 1777.99   2
  -4   6   4 14875.9 1128.88   2
  -4  -6   4 15950.0 1035.39   4
  -4   6   5 94.9041 471.593   2
  -4   7  -2 1268.21 478.069   3
   4   7  -1 4441.59 626.622   3
  -4   7  -1 4915.41 668.857   3
  -4   7  -1 3212.51 642.782   1
   4   7   0 295.116 379.963   3
  -4   7   0 517.294 413.485   3
  -4   7   0 614.012 418.751   1
  -4   7   1 5497.27 680.244   1
   4   7   1 3821.25 559.557   3
  -4   7   1 4394.75 634.415   3
  -4  -7   1 4705.32 655.957   4
  -4  -7   2 908.116 487.029   4
  -4   7   2 360.311 426.661   3
  -4   7   2 333.729 412.989   2
   4   7   2 528.731 367.926   3
   4   7   3 2780.66 1047.07   2
  -4   7   3 3996.28 735.875   2
  -4   7   4 1534.05 585.961   2
  -4   8   1 16139.8 1196.59   1
   4   8   1 15599.4 1117.75   3
  -5   0  -4 14.6982 69.0638   4
   5   0  -3 153383. 2883.04   2
  -5   0  -3 157104. 2305.39   2
  -5   0  -3 154186. 1088.32   4
   5   0  -2 495.806 255.913   2
  -5   0  -2 78.8149 186.337   1
  -5   0  -2 57.4662 142.503   2
   5   0  -1 257362. 2652.32   2
   5   0  -1 256338. 2376.57   1
  -5   0   0 276.241 362.045   1
   5   0   0 216.512 271.224   1
   5   0   1 262401. 2488.36   2
  -5   0   1 272591. 2676.11   1
   5   0   2 463.087 216.708   1
   5   0   2 216.470 242.883   2
  -5   0   2 203.355 142.353   1
   5   0   2 425.918 113.069   3
  -5   0   2 79.0575 173.860   2
  -5   0   3 153182. 2390.18   2
   5   0   3 154692. 2260.69   1
   5   0   3 152196. 2785.56   2
  -5   0   4 24.4300 301.945   2
   5   0   4 280.079 409.995   2
  -5   0   4-259.905 255.975   4
  -5   0   5 54302.8 1826.36   2
   5   0   5 53952.7 2246.50   2
  -5   0   5 53636.2 1232.75   4
  -5   0   6 109.044 405.741   2
   5   0   6 882.466 650.844   2
  -5   0   6 201.779 223.160   4
  -5   0   7 14192.6 1234.43   2
   5   0   7 14081.6 1479.39   2
  -5   1  -5 16664.8 566.909   3
  -5   1  -5 16254.6 578.353   4
  -5   1  -4 52839.9 954.436   3
  -5   1  -4 52640.9 929.852   4
   5  -1  -3 36859.8 1451.50   2
  -5   1  -3 36389.5 733.280   4
  -5   1  -3 37250.2 1057.86   1
  -5   1  -3 39229.5 1142.62   2
  -5   1  -3 36820.7 754.958   3
   5   1  -3 37265.2 1577.29   2
  -5   1  -2 123908. 2304.04   1
  -5   1  -2 118853. 1352.17   3
   5   1  -2 123194. 2662.18   2
   5  -1  -2 124897. 2172.54   2
  -5   1  -1 74937.5 1151.03   3
  -5  -1  -1 75212.4 1255.16   1
  -5   1  -1 73308.7 815.928   2
   5  -1   0 178824. 2185.75   3
  -5  -1   0 178710. 2008.46   1
   5  -1   0 181719. 2639.64   1
   5   1   0 185852. 2251.15   1
   5  -1   1 61806.7 1907.82   1
   5  -1   1 74972.0 1141.48   3
   5   1   1 74557.0 1231.11   1
   5  -1   1 73411.0 1152.96   2
  -5   1   1 76276.4 918.913   2
  -5  -1   1 65455.9 1788.27   1
  -5   1   1 73458.0 1219.53   1
   5  -1   2 117365. 1307.95   3
  -5   1   2 120760. 1606.37   2
   5   1   2 121836. 1691.09   1
   5  -1   2 119976. 2094.26   2
  -5  -1   2 121611. 1789.09   4
  -5  -1   2 126993. 1846.32   1
   5  -1   2 112174. 2832.18   1
   5   1   2 122992. 2489.35   2
  -5  -1   3 34972.3 972.649   4
   5   1   3 37065.3 1032.11   1
   5  -1   3 34704.8 1365.58   2
  -5   1   3 36283.6 1099.84   2
   5  -1   3 39069.1 1582.73   1
  -5  -1   3 36960.4 747.173   1
   5   1   3 36517.9 1476.27   2
  -5  -1   3 35935.1 1329.98   2
   5   1   4 54956.1 2084.77   2
  -5  -1   4 53508.8 1807.72   2
   5  -1   4 49222.7 1893.60   2
  -5   1   4 51641.7 1508.37   2
   5  -1   4 55984.2 1851.67   1
  -5  -1   4 52065.5 1215.20   4
  -5  -1   5 15800.5 1140.78   2
   5  -1   5 14676.7 1234.56   2
  -5   1   5 15929.7 1002.92   2
   5   1   5 16054.7 1288.95   2
  -5   1   5 15491.7 728.655   4
  -5  -1   5 14937.3 684.066   4
  -5  -1   6 20478.5 1375.57   2
   5   1   6 22059.8 1691.37   2
   5  -1   6 18862.3 1549.22   2
  -5   1   6 20514.7 1272.29   2
  -5  -1   6 20241.4 817.292   4
  -5   1   6 21172.6 761.151   4
  -5  -1   7 6606.95 933.109   2
   5  -1   7 6538.81 1096.30   2
  -5   1   7 6251.42 854.042   2
   5   1   7 6760.59 1159.25   2
  -5   2  -6 58252.6 1276.82   3
   5  -2  -5 21461.3 947.116   3
  -5   2  -5 21420.3 752.214   3
  -5   2  -5 21052.3 772.020   4
  -5   2  -4 158745. 2191.32   1
  -5   2  -4 152675. 1852.70   3
   5  -2  -4 155938. 2531.06   3
  -5   2  -4 152656. 1905.62   4
  -5   2  -3 54720.4 1078.56   4
  -5   2  -3 53366.5 1049.28   3
  -5   2  -3 54293.3 1479.40   1
  -5   2  -3 53581.1 1298.99   2
   5  -2  -3 54799.8 1433.72   3
   5  -2  -3 53060.4 1897.63   2
  -5   2  -2 309255. 2462.07   4
   5  -2  -2 312022. 3121.87   3
  -5   2  -2 299444. 2416.29   3
   5   2  -2 308068. 5283.07   2
  -5   2  -2 301299. 2563.27   2
   5  -2  -2 300686. 3873.92   2
  -5  -2  -2 307907. 1683.30   4
  -5   2  -1 86906.4 2507.84   1
   5  -2  -1 87880.5 1512.04   3
  -5  -2  -1 85012.2 1084.50   4
   5   2  -1 89715.6 1540.93   1
  -5   2  -1 85739.2 1087.44   2
  -5   2  -1 83342.5 1294.46   3
   5  -2   0 405922. 2968.01   3
  -5   2   0 404483. 2988.99   3
   5   2   0 399044. 2576.13   1
  -5   2   0 407470. 3445.49   1
  -5  -2   0 403907. 2695.00   4
  -5   2   1 83389.0 1056.74   2
   5  -2   1 87620.5 1345.03   3
   5  -2   1 84627.9 1915.16   1
   5   2   1 85263.3 1271.30   1
  -5  -2   1 85131.5 1377.49   4
   5   2   2 310782. 4904.69   2
  -5   2   2 308938. 2632.85   2
   5  -2   2 303748. 4196.61   2
   5   2   2 307707. 2711.41   1
  -5  -2   2 304550. 2751.92   4
   5   2   3 50423.7 472.085   3
   5  -2   3 57349.4 2390.15   1
   5  -2   3 55690.4 2088.49   2
  -5   2   3 52429.1 1312.83   2
  -5  -2   3 53195.0 1215.11   4
   5   2   3 54176.7 2030.88   2
  -5  -2   4 145352. 1767.93   1
  -5  -2   4 146924. 2108.35   4
  -5   2   4 146692. 2524.26   2
   5   2   4 148705. 3593.03   2
  -5  -2   5 21144.0 1476.03   2
  -5  -2   5 19723.2 843.157   4
   5  -2   5 18856.6 1539.11   2
  -5  -2   5 21468.6 615.999   1
   5   2   5 21977.4 1595.65   2
  -5   2   5 21023.5 1133.92   2
  -5  -2   6 53586.7 1411.25   4
  -5  -2   6 56603.4 2534.51   2
   5  -2   6 54167.5 2781.13   2
  -5   2   6 52955.8 1978.73   2
   5   2   6 59401.7 2764.69   2
  -5  -2   7 5336.08 955.778   2
   5  -2   7 5621.96 1123.56   2
  -5   2   7 5880.25 852.932   2
   5   2   7 7245.53 1248.10   2
  -5   3  -6 26178.8 1001.30   3
  -5   3  -5 643.601 274.490   3
  -5   3  -4 55508.0 1289.52   3
  -5   3  -4 58848.0 1387.63   1
   5  -3  -4 58191.1 1323.74   3
   5  -3  -3 760.164 231.136   3
  -5   3  -3 760.700 268.474   2
  -5   3  -3 522.344 218.887   3
  -5   3  -3 1208.00 455.242   1
   5  -3  -2 105963. 1725.23   3
  -5   3  -2 99755.9 1604.31   3
  -5   3  -2 103353. 1727.72   2
  -5  -3  -2 103363. 1259.68   4
  -5   3  -1 1405.29 266.571   3
   5   3  -1 1281.76 230.629   4
  -5   3  -1 1255.19 232.372   4
   5  -3  -1 1543.88 256.517   3
  -5   3  -1 1076.11 205.577   2
  -5   3  -1 1867.51 455.330   1
   5   3  -1 1527.95 184.310   1
  -5  -3  -1 1602.12 221.924   4
   5  -3   0 130933. 1828.50   3
  -5   3   0 124439. 1811.22   3
   5   3   0 123980. 1460.06   1
  -5   3   0 126038. 2006.51   1
  -5  -3   0 125618. 1651.41   4
   5   3   0 127161. 1654.32   4
  -5   3   1 1267.32 217.942   2
   5   3   1 1583.53 227.370   1
   5   3   1 1213.56 192.629   4
  -5   3   1 1254.60 263.758   3
  -5  -3   1 1404.91 267.844   4
  -5   3   2 102123. 1663.49   2
   5   3   2 102399. 1306.62   4
  -5  -3   2 103478. 1740.36   4
   5  -3   2 98310.3 1943.18   1
  -5   3   3 708.672 289.221   2
   5   3   3 562.237 530.306   2
   5   3   3 585.303 129.585   3
   5  -3   3 784.466 359.389   1
  -5  -3   3 533.648 278.379   4
   5  -3   4 60390.9 3036.59   2
   5  -3   4 59331.9 2655.65   1
   5   3   4 59498.3 2520.16   2
  -5   3   4 55634.9 1634.31   2
  -5  -3   4 56162.0 1420.64   4
  -5   3   5 499.926 375.066   2
   5   3   5 146.193 656.907   2
  -5  -3   5 705.413 337.762   4
   5  -3   5-44.5635 794.471   2
   5   3   6 28738.5 2118.56   2
   5  -3   6 23957.3 2313.80   2
  -5  -3   6 23785.5 1044.74   4
  -5   3   6 24526.2 1422.81   2
   5  -3   7-179.371 863.205   2
  -5   3   7 617.733 525.046   2
  -5   4  -6 12819.5 797.453   3
  -5   4  -5 6741.17 597.254   3
  -5   4  -4 36311.5 1183.84   3
  -5   4  -4 39387.7 1244.43   1
  -5   4  -3 21245.7 1711.12   1
  -5   4  -3 15853.1 776.161   3
  -5   4  -2 73168.3 3205.98   1
  -5   4  -2 76473.5 1591.37   3
  -5   4  -2 77364.4 1742.78   2
   5   4  -2 75879.5 1256.83   1
  -5  -4  -2 77077.0 1298.28   4
  -5   4  -1 29937.1 996.722   3
  -5   4  -1 29624.9 1324.10   1
   5   4  -1 29112.2 697.697   1
  -5   4  -1 26989.9 1064.33   2
  -5  -4  -1 30012.7 881.394   4
  -5   4   0 103013. 1830.18   3
   5   4   0 103160. 1477.28   1
  -5   4   0 103255. 1980.52   1
  -5  -4   0 101310. 1682.62   4
  -5   4   1 28963.9 1032.68   3
   5   4   1 29242.5 841.731   4
  -5  -4   1 29155.4 972.385   4
  -5   4   2 75017.1 1667.32   2
   5   4   2 74372.1 1270.11   4
  -5  -4   2 77351.6 1656.90   4
   5   4   3 16732.2 1587.16   2
  -5   4   3 16398.0 867.363   2
   5   4   3 17635.3 625.500   3
   5   4   3 16434.5 583.470   4
  -5  -4   3 16332.3 835.376   4
  -5  -4   4 36226.3 1268.98   4
   5   4   4 38850.3 2287.94   2
  -5   4   4 37787.6 1447.87   2
  -5   4   5 6173.21 714.158   2
  -5  -4   5 6392.63 623.591   4
   5   4   6 14049.3 1637.35   2
  -5   4   6 12338.6 1021.70   2
  -5  -4   6 12320.0 853.296   4
  -5  -4   7 2470.08 501.441   4
  -5   5  -6 368.805 370.783   3
  -5   5  -5 14515.6 921.395   3
  -5   5  -4 603.554 354.497   3
  -5   5  -3 24753.3 1060.65   3
  -5   5  -3 13200.3 1132.19   1
  -5   5  -2 1781.41 399.156   3
   5   5  -2 1301.94 190.787   1
  -5  -5  -1 33201.5 1060.76   4
  -5   5  -1 32606.6 1174.59   3
   5   5  -1 31438.8 804.807   1
  -5   5  -1 32117.1 1453.67   1
  -5   5   0 1218.41 360.367   3
  -5  -5   0 1485.60 345.097   4
  -5   5   0 1662.70 387.102   1
  -5  -5   1 32553.2 1162.20   4
  -5   5   1 32067.1 1202.39   3
  -5   5   2 899.016 327.713   2
   5   5   2 1003.29 276.286   3
  -5   5   2 650.424 336.408   3
  -5  -5   2 854.658 360.572   4
   5   5   3 24995.5 2167.93   2
   5   5   3 26617.5 934.275   3
  -5  -5   3 25050.3 1132.05   4
  -5   5   3 25558.6 1198.15   2
   5   5   4 471.991 725.289   2
  -5  -5   4 378.261 370.784   4
  -5   5   4 286.216 387.287   2
   5   5   5 14959.4 1728.54   2
  -5   5   5 13529.6 1071.36   2
  -5  -5   5 14414.0 951.810   4
  -5   5   6 378.374 495.908   2
  -5  -5   6 164.246 358.477   4
  -5   6  -4 2743.13 553.755   3
  -5   6  -3 49099.1 1649.50   3
  -5   6  -2 3632.25 554.925   3
  -5   6  -2 2396.72 699.318   1
  -5  -6  -1 76907.3 1823.76   4
  -5   6  -1 78389.4 2001.30   3
  -5   6  -1 74135.4 2415.11   1
  -5   6   0 3077.01 547.973   1
  -5   6   0 3438.36 540.639   3
  -5  -6   0 3595.36 516.195   4
   5   6   1 75296.0 1833.81   3
  -5   6   1 75927.0 2035.55   3
  -5   6   1 78178.4 2052.35   1
  -5  -6   1 78273.9 1967.64   4
   5   6   2 3360.25 460.568   3
  -5   6   2 2630.64 515.612   3
  -5  -6   2 3406.47 551.736   4
  -5   6   2 3419.63 573.076   2
   5   6   3 53618.9 3330.49   2
  -5  -6   3 49119.9 1700.23   4
  -5   6   3 50796.6 1818.39   2
  -5   6   4 2055.01 551.199   2
   5   6   4 2029.27 983.216   2
  -5  -6   4 2657.32 547.661   4
  -5   6   5 22953.3 1465.30   2
  -5   7  -2 7082.80 781.030   3
  -5   7  -1 7028.65 757.325   3
  -5   7  -1 5012.94 780.387   1
   5   7   0 7933.09 769.847   3
  -5   7   0 7738.81 790.029   3
  -5   7   0 8140.90 858.386   1
  -5   7   1 7081.81 776.383   3
   5   7   1 6531.18 709.848   3
  -5  -7   1 7903.83 799.674   4
  -5   7   1 7403.76 791.993   1
  -5  -7   2 7022.43 781.298   4
  -5   7   2 8011.28 817.017   1
  -5   7   2 5951.31 762.757   3
   5   7   2 6843.34 700.774   3
  -5   7   2 6776.34 795.019   2
   5   8   1 3886.75 667.526   3
  -5   8   1 4543.18 744.414   1
  -6   0  -4 284255. 1551.25   4
  -6   0  -3 118.694 87.2740   4
   6   0  -3-85.7830 285.249   2
  -6   0  -3 71.7722 185.593   2
  -6   0  -2 666906. 4036.49   2
  -6   0  -2 681053. 4797.01   1
   6   0  -2 680101. 5536.02   2
   6   0  -1 785.699 258.410   1
  -6   0  -1 363.720 373.092   1
   6   0  -1 338.194 225.958   2
   6   0   0 997125. 7177.63   1
  -6   0   0 999999. 7447.31   1
  -6   0   1 945.166 320.237   1
   6   0   1 446.616 214.277   2
   6   0   2 676429. 5140.87   1
   6   0   2 651497. 3265.24   3
  -6   0   2 657479. 4257.04   2
  -6   0   2 678326. 3808.99   1
   6   0   2 672443. 5172.23   2
  -6   0   3 52.2219 240.647   2
   6   0   3 73.4905 316.094   2
   6   0   3 258.731 236.015   1
  -6   0   4 276615. 3247.55   4
  -6   0   4 279194. 3755.43   2
   6   0   4 276834. 4573.22   2
  -6   0   5 86.5195 241.055   4
  -6   0   5 199.654 350.038   2
   6   0   5-24.5844 502.139   2
  -6   0   6 91581.2 2683.47   2
   6   0   6 93991.4 3442.89   2
  -6   0   6 90234.8 1699.69   4
  -6   0   7 112.252 471.285   2
   6   0   7 372.321 690.579   2
  -6   1  -5 7140.87 390.408   4
  -6   1  -5 7172.43 413.922   3
  -6   1  -4 109659. 1476.01   3
  -6   1  -4 108639. 1340.36   4
   6  -1  -3 23194.9 1277.36   2
  -6   1  -3 19033.5 613.125   3
  -6   1  -3 20407.5 890.058   1
   6   1  -3 21782.8 1302.18   2
  -6   1  -3 19588.9 778.276   2
  -6   1  -3 20451.7 586.916   4
  -6   1  -2 213293. 2048.95   3
  -6   1  -2 212227. 1988.80   2
   6  -1  -2 218151. 2993.22   2
   6  -1  -1 41135.9 945.551   2
  -6  -1  -1 39248.1 1031.80   1
  -6   1  -1 38317.8 593.617   2
  -6   1   0 266632. 3756.29   1
   6  -1   0 260176. 3084.67   3
  -6  -1   0 256566. 2899.65   1
   6  -1   0 267903. 3748.06   1
   6   1   0 268533. 3283.69   1
  -6   1   1 38552.7 652.743   2
   6  -1   1 37732.7 843.020   2
   6   1   1 40301.0 1033.48   1
  -6   1   1 40382.1 1043.91   1
   6  -1   1 39019.5 960.386   3
   6  -1   1 36107.7 1484.78   1
   6  -1   2 207481. 4325.03   1
  -6   1   2 220987. 2201.52   1
   6  -1   2 219402. 1990.84   3
  -6  -1   2 218064. 3039.47   1
  -6   1   2 220338. 2192.95   2
   6   1   2 215839. 2435.88   1
   6   1   2 227784. 3650.85   2
   6  -1   2 209873. 2815.85   2
  -6  -1   2 216319. 2666.26   4
   6   1   3 18999.0 325.613   3
   6  -1   3 19860.2 1216.21   1
  -6  -1   3 19297.5 659.320   1
  -6  -1   3 19399.4 1017.51   2
   6   1   3 20526.6 834.522   1
  -6   1   3 19383.5 811.963   2
   6  -1   3 19691.1 1087.17   2
   6   1   3 20855.1 1220.95   2
  -6  -1   3 19225.7 809.538   4
  -6  -1   4 106132. 2547.89   2
  -6   1   4 104891. 2167.11   2
   6  -1   4 98048.1 2741.73   2
   6   1   4 110997. 3059.91   2
   6  -1   4 113839. 2931.02   1
  -6  -1   4 109591. 1490.80   1
  -6  -1   4 104172. 1850.45   4
  -6  -1   5 7535.05 441.038   1
  -6  -1   5 6035.45 745.332   2
  -6   1   5 6485.80 685.831   2
   6  -1   5 6450.34 913.697   2
   6   1   5 7593.84 1015.77   2
  -6  -1   5 5811.16 483.789   4
  -6   1   6 37699.4 1113.61   4
  -6   1   6 35560.8 1621.19   2
  -6  -1   6 39809.3 1037.29   1
  -6  -1   6 33682.8 1719.48   2
   6  -1   6 35865.4 2166.92   2
   6   1   6 35416.6 2117.99   2
  -6  -1   6 36833.9 1154.77   4
  -6   1   7 2054.88 606.903   2
   6   1   7 1530.26 817.020   2
   6  -1   7 2163.68 841.090   2
  -6  -1   7 2187.05 665.488   2
  -6   2  -5 45534.5 1119.51   3
  -6   2  -4 21238.6 739.701   3
   6  -2  -4 21456.5 1109.28   3
  -6   2  -4 22582.8 941.258   1
  -6   2  -4 22078.1 748.385   4
  -6   2  -3 128264. 1713.07   3
   6  -2  -3 135601. 2583.91   3
  -6   2  -3 132996. 2004.68   2
  -6   2  -3 134137. 2647.92   1
  -6   2  -3 134523. 1762.72   4
   6  -2  -3 133045. 3115.36   2
  -6   2  -2 60997.4 1172.33   4
   6  -2  -2 59757.4 1774.04   2
   6   2  -2 55846.0 871.681   1
  -6   2  -2 58254.1 1141.87   3
  -6   2  -2 56788.1 1061.73   2
   6  -2  -2 61328.7 1592.93   3
  -6  -2  -2 59799.6 840.717   4
  -6   2  -1 254796. 4807.49   1
   6  -2  -1 253199. 2881.64   3
  -6   2  -1 252119. 1673.96   2
  -6  -2  -1 251454. 2084.42   4
  -6   2  -1 251020. 2410.04   3
   6   2  -1 245263. 3185.88   1
   6  -2   0 99904.4 1645.54   3
  -6  -2   0 99489.3 1488.89   4
  -6   2   0 97672.0 1636.21   3
  -6   2   0 99286.5 1948.75   1
   6   2   0 98904.1 1462.80   1
   6  -2   1 260653. 2494.85   3
  -6  -2   1 252093. 1937.88   1
   6   2   1 253242. 2394.83   1
   6  -2   1 263300. 3916.95   1
  -6   2   1 255378. 1728.39   2
  -6  -2   1 252542. 2583.96   4
  -6   2   1 254886. 2609.58   1
  -6  -2   2 58799.6 1329.04   4
   6  -2   2 60611.8 1176.03   3
   6  -2   2 60616.0 1922.27   2
   6   2   2 59900.0 1261.42   1
  -6  -2   2 57060.1 849.330   1
  -6   2   2 58099.1 1096.27   2
   6  -2   3 133679. 3539.20   1
   6   2   3 134898. 3422.34   2
   6  -2   3 136326. 3394.21   2
  -6   2   3 118280. 1840.26   2
  -6  -2   3 126189. 1568.20   1
  -6  -2   3 126842. 1991.92   4
   6  -2   4 20065.4 1783.17   1
   6   2   4 23320.5 1560.26   2
   6  -2   4 22866.9 1665.62   2
  -6  -2   4 26224.6 1005.83   1
  -6   2   4 21560.4 996.295   2
  -6  -2   4 20705.8 864.231   4
  -6  -2   5 47364.9 1131.75   1
   6   2   5 47058.9 2389.89   2
   6  -2   5 41824.8 2315.99   2
  -6   2   5 42758.9 1593.92   2
  -6  -2   5 41556.5 1256.01   4
   6  -2   6 6644.91 1163.71   2
  -6   2   6 6960.14 807.996   2
   6   2   6 8117.59 1219.43   2
  -6  -2   6 7214.68 597.877   4
   6  -2   7 11047.0 1511.52   2
  -6   2   7 12077.5 1114.83   2
   6   2   7 12553.9 1540.68   2
  -6   3  -6 4618.67 480.224   3
  -6   3  -5 29526.9 1034.12   3
  -6   3  -4 9832.95 600.267   3
  -6   3  -4 10496.0 709.562   1
  -6  -3  -3 74691.1 965.748   4
  -6   3  -3 68635.3 1423.67   3
  -6   3  -3 67079.6 1487.42   2
   6  -3  -3 74073.6 1628.69   3
  -6   3  -2 23313.1 1578.28   1
   6  -3  -2 24517.1 914.923   3
  -6   3  -2 22151.3 756.804   2
  -6   3  -2 22290.3 802.563   3
  -6  -3  -2 22735.2 618.900   4
   6   3  -1 117523. 1829.42   4
   6  -3  -1 120041. 1931.95   3
  -6   3  -1 114671. 1781.25   3
  -6   3  -1 118464. 2886.05   1
  -6   3  -1 114712. 1543.61   2
   6   3  -1 115369. 1593.01   1
  -6  -3  -1 114236. 1522.22   4
   6  -3   0 34000.8 1006.48   3
  -6   3   0 32322.5 996.635   3
   6   3   0 32032.1 815.191   1
  -6   3   0 33064.1 1140.64   1
   6   3   0 34584.7 938.119   4
  -6  -3   0 32531.4 897.313   4
  -6   3   1 109830. 1920.68   1
   6   3   1 113968. 1657.72   1
  -6  -3   1 113347. 1796.98   4
  -6   3   1 114351. 1485.13   2
   6  -3   2 22106.1 1087.08   1
  -6  -3   2 22680.6 880.821   4
  -6   3   2 21597.3 750.891   2
   6  -3   3 70269.6 2459.42   1
  -6  -3   3 69828.9 1582.85   4
  -6   3   3 70841.2 1591.04   2
   6   3   3 72490.0 2949.25   2
   6  -3   4 11202.0 1512.21   2
   6  -3   4 10082.8 1311.00   1
  -6   3   4 9646.37 710.866   2
   6   3   4 10825.2 1277.54   2
  -6  -3   4 9763.73 664.145   4
   6  -3   5 34274.9 2713.43   2
  -6   3   5 30238.3 1360.57   2
  -6  -3   5 28868.1 1128.22   4
   6   3   5 31603.6 2131.14   2
   6   3   6 4476.98 1077.55   2
   6  -3   6 4385.68 1297.18   2
  -6   3   6 4072.18 697.622   2
  -6  -3   6 3841.32 507.760   4
  -6   3   7 11131.2 1072.97   2
   6  -3   7 10407.1 1689.27   2
  -6   4  -6 19108.8 976.738   3
  -6   4  -5 39634.4 1337.38   3
  -6   4  -4 51981.5 1429.44   3
  -6   4  -4 56004.4 1742.78   1
  -6   4  -3 99081.4 1892.07   3
  -6   4  -3 80114.0 2928.67   1
   6   4  -2 86831.6 1759.90   1
  -6   4  -2 84977.3 3586.81   1
  -6   4  -2 95190.9 1821.84   3
  -6   4  -2 95776.0 1814.95   2
  -6  -4  -2 96463.5 1490.14   4
  -6  -4  -1 164811. 2065.58   4
  -6   4  -1 166193. 3310.97   1
  -6   4  -1 157843. 2294.39   2
   6   4  -1 163160. 1809.54   1
  -6   4  -1 165040. 2357.42   3
  -6   4   0 113507. 1997.51   3
   6   4   0 109707. 1573.58   1
  -6   4   0 112955. 2239.77   1
  -6  -4   0 112698. 1828.76   4
  -6   4   1 165890. 2508.09   1
  -6   4   1 164706. 2223.98   2
  -6   4   1 164796. 2549.99   3
  -6  -4   1 165048. 2341.85   4
  -6  -4   2 97540.4 1915.69   4
   6   4   2 96350.7 1534.81   4
  -6   4   2 96471.3 1778.10   2
   6   4   3 105851. 4078.62   2
   6   4   3 104369. 1476.55   3
  -6  -4   3 102383. 2067.78   4
  -6   4   3 111897. 2247.05   2
  -6   4   4 53080.4 1654.21   2
  -6  -4   4 50919.3 1534.94   4
   6   4   4 55651.2 2936.06   2
  -6   4   5 39123.5 1596.69   2
  -6  -4   5 38380.2 1393.90   4
   6   4   6 18928.7 1956.44   2
  -6   4   6 18959.5 1284.54   2
  -6  -4   6 17401.6 1012.38   4
  -6   5  -6 12406.7 905.192   3
  -6   5  -5 4835.50 611.104   3
  -6   5  -4 26403.4 1170.13   3
  -6   5  -3 2639.42 556.198   1
  -6   5  -3 7450.12 662.569   3
  -6   5  -2 49489.3 1487.69   3
  -6  -5  -2 49177.7 1260.43   4
  -6   5  -1 10018.5 714.547   3
  -6   5  -1 8905.84 682.172   2
  -6   5  -1 8801.26 843.759   1
   6   5  -1 9759.60 495.180   1
  -6  -5  -1 9701.52 615.058   4
  -6   5   0 62608.3 1665.54   3
  -6   5   0 61005.6 1814.53   1
  -6  -5   0 62282.6 1541.18   4
  -6   5   1 11144.9 785.284   1
  -6   5   1 9354.07 718.075   3
  -6  -5   1 9759.75 686.953   4
  -6  -5   2 48156.2 1492.23   4
  -6   5   2 48691.0 1450.11   2
   6   5   3 7792.32 529.663   3
   6   5   3 6825.81 1397.04   2
  -6   5   3 7230.50 668.143   2
  -6  -5   3 7425.46 685.622   4
  -6   5   4 25609.3 1272.18   2
   6   5   4 28864.8 2424.46   2
  -6  -5   4 25827.8 1216.95   4
   6   5   5 4566.52 1242.33   2
  -6   5   5 3962.08 667.299   2
  -6  -5   5 4466.64 627.119   4
  -6   5   6 12082.8 1054.58   2
  -6   6  -4 27009.0 1310.29   3
  -6   6  -3 1119.49 440.147   3
  -6   6  -2 41864.6 2458.90   1
  -6   6  -2 48699.7 1648.52   3
  -6  -6  -1 743.919 363.511   4
  -6   6  -1-304.962 597.284   1
  -6   6  -1 642.914 403.465   3
  -6   6   0 57242.2 1770.36   3
  -6   6   0 57364.1 1951.91   1
  -6  -6   0 57493.0 1659.68   4
  -6  -6   1 423.740 374.178   4
  -6   6   1 1100.87 446.342   1
  -6   6   1 288.305 375.782   3
   6   6   2 47614.4 1451.29   3
  -6   6   2 46353.0 1772.99   3
  -6   6   2 50763.7 1683.75   2
  -6  -6   2 49356.6 1669.96   4
  -6  -6   3 521.313 447.376   4
  -6   6   3 560.865 400.817   2
   6   6   3-801.954 1250.48   2
  -6   6   4 27213.9 1422.13   2
   6   6   4 29594.4 2722.81   2
  -6  -6   4 26800.5 1364.65   4
  -6   6   5 367.018 479.130   2
  -6   7  -2 2786.10 583.746   3
  -6   7  -1 10942.1 928.196   3
  -6   7  -1 9971.36 1115.20   1
  -6  -7   0 3388.14 591.903   4
  -6   7   0 3192.67 594.188   3
  -6   7   0 3104.70 640.427   1
  -6  -7   1 11062.6 907.540   4
   6   7   1 11168.2 878.717   3
  -6   7   1 10361.4 933.138   3
  -6   7   1 10746.6 977.051   1
  -6   7   2 4116.19 674.562   1
   6   7   2 2634.62 519.529   3
  -6   7   2 1892.85 552.469   3
  -6  -7   2 2754.81 601.033   4
  -7   0  -4 126.620 98.9316   4
  -7   0  -3 125350. 2081.54   2
  -7   0  -3 129778. 2219.52   1
   7   0  -2 267.797 279.421   2
  -7   0  -2 19.7286 323.997   1
  -7   0  -1 238759. 4164.88   1
   7   0  -1 236108. 3385.67   1
  -7   0   0 328.051 395.791   1
   7   0   0 702.599 374.462   1
   7   0   1 228753. 2838.08   2
  -7   0   1 231979. 3536.30   1
  -7   0   2-24.9637 191.875   2
   7   0   2 0.30663 271.345   2
   7   0   2-85.9608 171.984   3
  -7   0   2 48.0098 227.902   1
   7   0   2-186.455 310.732   1
   7   0   3 125549. 1304.44   3
  -7   0   3 127663. 2249.83   2
   7   0   3 130910. 2507.01   1
  -7   0   3 124919. 1745.42   1
  -7   0   4 191.358 337.985   2
   7   0   4 349.735 486.298   2
  -7   0   4 703.178 253.691   1
  -7   0   5 42863.0 1703.88   2
   7   0   5 44596.5 2262.44   2
  -7   0   5 41717.3 1331.33   4
  -7   0   6-10.3207 297.061   4
   7   0   6 430.666 655.796   2
  -7   0   6 346.158 468.939   2
  -7   0   7 12346.1 1164.11   2
   7   0   7 12229.0 1509.91   2
  -7   1  -5 16296.3 581.223   4
  -7   1  -4 34697.8 812.496   4
  -7   1  -3 32652.7 790.128   4
  -7   1  -3 34640.1 1290.61   1
   7   1  -3 37358.1 1821.73   2
   7  -1  -3 35924.3 1621.02   2
  -7   1  -3 32792.8 988.476   2
  -7  -1  -2 60702.6 1454.11   1
   7  -1  -2 57252.1 1604.93   2
   7   1  -2 67093.0 2383.23   2
  -7   1  -2 63822.4 2284.98   1
  -7   1  -2 56134.5 1029.06   2
   7  -1  -1 54541.5 1099.56   2
  -7  -1  -1 57928.7 1423.29   1
  -7   1  -1 54041.1 1873.38   1
  -7   1   0 71518.9 2230.72   1
   7  -1   0 73226.7 2366.43   1
  -7  -1   0 71216.3 1830.43   1
   7   1   0 71485.7 1961.35   1
   7  -1   1 51555.7 1786.57   1
  -7   1   1 55102.7 813.911   2
   7  -1   1 58761.4 1341.00   3
  -7   1   1 57957.0 1400.74   1
   7  -1   1 56390.8 1065.77   2
  -7  -1   1 52027.9 1644.00   1
   7   1   1 60587.9 1456.88   1
   7  -1   2 53450.7 2381.98   1
  -7  -1   2 57395.7 1910.33   1
   7  -1   2 57124.9 1114.27   3
  -7   1   2 57027.5 1237.17   1
  -7   1   2 57372.9 1123.55   2
   7  -1   2 56327.9 1515.18   2
   7   1   2 60084.2 1419.73   1
   7   1   2 62463.8 2096.37   2
  -7  -1   3 33066.7 1030.62   1
  -7   1   3 32594.2 1055.68   2
   7  -1   3 31965.8 1435.50   2
   7   1   3 35036.0 1653.25   2
   7   1   3 32789.5 617.379   3
  -7  -1   3 31740.6 1136.30   4
   7  -1   3 33571.8 1730.56   1
   7   1   4 35962.7 1878.48   2
  -7  -1   4 34834.0 1524.67   2
  -7   1   4 33304.4 1227.05   2
   7  -1   4 33953.2 1699.43   2
  -7  -1   4 35711.7 966.674   1
  -7  -1   4 33132.1 1149.93   4
  -7  -1   5 15546.1 1131.71   2
  -7   1   5 14636.6 944.348   2
   7  -1   5 14876.8 1323.44   2
  -7  -1   5 16892.3 696.871   1
   7   1   5 15914.5 1441.96   2
  -7  -1   5 14189.1 770.410   4
  -7   1   6 15381.6 828.208   4
  -7  -1   6 14898.2 1215.45   2
  -7   1   6 14905.3 1079.49   2
   7  -1   6 14444.1 1509.88   2
   7   1   6 15328.9 1559.08   2
  -7  -1   6 14865.6 811.203   4
   7   1   7 6775.12 1274.50   2
  -7  -1   7 6831.42 961.879   2
  -7   1   7 6258.07 840.448   2
   7  -1   7 6716.24 1205.07   2
  -7   2  -5 17728.6 744.800   3
  -7   2  -4 140017. 1952.51   3
   7  -2  -4 140863. 3196.53   3
  -7   2  -4 141592. 1925.00   4
  -7   2  -4 142029. 2544.18   1
  -7   2  -3 43231.0 1063.33   3
   7  -2  -3 46398.9 1729.50   3
  -7   2  -3 50028.3 1868.11   1
  -7   2  -3 46107.8 1181.22   2
  -7   2  -3 46329.6 1088.88   4
  -7  -2  -3 45373.0 602.871   4
   7  -2  -3 48146.8 1967.97   2
   7  -2  -2 301898. 4035.19   2
  -7   2  -2 301533. 2766.18   3
  -7  -2  -2 303519. 2128.48   4
  -7   2  -2 305575. 2402.12   2
   7   2  -2 297570. 2755.39   1
   7   2  -1 70128.0 2029.39   1
  -7   2  -1 70927.4 2769.57   1
   7  -2  -1 75986.6 1789.26   3
  -7   2  -1 73978.1 1427.50   3
  -7   2  -1 70566.9 791.747   2
  -7  -2  -1 74568.4 1269.37   4
   7  -2   0 397963. 4091.99   1
   7  -2   0 407945. 3682.41   3
  -7  -2   0 409202. 3140.38   1
  -7   2   0 406358. 4434.56   1
   7   2   0 405427. 3442.81   1
  -7  -2   0 405304. 3312.36   4
   7  -2   1 74565.5 1451.03   3
  -7   2   1 76242.0 1580.24   1
  -7  -2   1 70687.2 1256.53   1
   7   2   1 74459.0 1422.47   1
   7  -2   1 75766.7 2472.92   1
  -7   2   1 70531.6 843.884   2
  -7  -2   1 73362.4 1524.07   4
  -7   2   2 302361. 2976.31   1
   7  -2   2 306726. 2791.34   3
   7  -2   2 317986. 4410.26   2
   7   2   2 303486. 3028.41   1
  -7  -2   2 292950. 2575.25   1
  -7   2   2 287969. 2373.30   2
  -7  -2   2 296784. 3178.95   4
   7  -2   3 45777.8 2041.84   1
   7  -2   3 48446.5 2123.41   2
  -7  -2   3 45487.9 1373.87   1
  -7   2   3 45208.0 1191.45   2
  -7  -2   3 43357.0 1269.19   4
   7   2   3 48106.0 2261.23   2
   7  -2   4 150226. 4300.39   2
  -7   2   4 141522. 2468.05   2
   7   2   4 146232. 3997.14   2
  -7  -2   4 150703. 2186.62   1
   7  -2   5 17348.1 1597.32   2
  -7   2   5 17028.2 997.274   2
  -7  -2   5 17252.0 873.729   4
   7   2   5 19607.4 1711.09   2
   7  -2   6 46108.2 2740.07   2
  -7   2   6 47630.9 1853.24   2
  -7  -2   6 46641.6 1451.07   4
   7  -2   7 5596.79 1213.81   2
  -7   2   7 4903.83 769.488   2
  -7   3  -6 22813.3 972.627   3
  -7   3  -5 429.567 258.109   3
  -7   3  -4 47728.6 1275.72   3
  -7   3  -4 50925.1 1700.38   1
  -7   3  -3 871.527 227.778   2
  -7   3  -3 901.395 276.542   3
  -7  -3  -3 850.214 154.816   4
  -7   3  -3 1105.06 685.946   1
  -7   3  -2 83988.1 2810.74   1
  -7   3  -2 80651.1 1565.49   3
  -7  -3  -2 79782.4 1207.40   4
  -7   3  -2 79369.7 1340.00   2
  -7   3  -1 2062.73 599.579   1
  -7   3  -1 1587.39 297.491   3
  -7   3  -1 1695.29 195.508   2
  -7  -3  -1 1843.41 276.611   4
   7   3  -1 1439.64 254.148   1
  -7   3   0 100787. 1843.90   3
  -7   3   0 102239. 2160.91   1
   7   3   0 101827. 1581.84   1
  -7  -3   0 101093. 1674.32   4
  -7  -3   1 1818.53 323.069   4
  -7   3   1 1743.14 205.297   2
   7   3   1 1665.59 255.412   1
  -7   3   1 2138.02 372.920   1
   7  -3   2 82181.7 2346.07   1
  -7   3   2 80802.2 1380.60   2
  -7  -3   2 82106.2 1738.28   4
  -7  -3   3 775.922 315.807   4
  -7   3   3 802.181 263.997   2
   7  -3   3 323.722 419.682   1
   7   3   3 528.632 634.592   2
   7  -3   4 55324.3 3208.09   2
  -7   3   4 42600.1 1318.80   2
  -7  -3   4 46206.6 1402.48   4
   7   3   4 51504.8 2712.15   2
   7  -3   5 42.4527 896.516   2
  -7   3   5 660.309 381.946   2
   7   3   5-94.2549 793.146   2
  -7  -3   5 721.332 359.438   4
   7  -3   6 21369.8 2394.08   2
  -7   3   6 21786.9 1283.24   2
   7   3   6 26234.5 2227.03   2
  -7  -3   6 21414.3 1065.18   4
   7  -3   7-146.563 931.436   2
  -7   3   7 413.366 483.958   2
  -7  -3   7-47.6279 356.604   4
  -7   4  -6 11168.7 796.799   3
  -7   4  -5 6124.72 601.419   3
  -7   4  -4 27771.4 1088.10   3
  -7   4  -4 30739.1 1498.30   1
  -7  -4  -3 16375.3 609.089   4
  -7   4  -3 15136.3 794.926   3
  -7   4  -2 55680.0 1448.36   3
  -7   4  -2 55664.5 1315.61   2
  -7  -4  -2 57050.4 1195.39   4
  -7   4  -1 26260.6 1003.64   3
  -7   4  -1 25741.3 851.313   2
  -7  -4  -1 26974.5 888.324   4
   7   4  -1 26933.0 849.667   1
  -7   4   0 68572.0 1636.74   3
   7   4   0 67084.6 1334.68   1
  -7   4   0 68631.1 1870.61   1
  -7  -4   0 69914.9 1498.75   4
  -7   4   1 26221.2 1102.73   3
  -7  -4   1 26794.4 1018.62   4
  -7   4   1 25338.1 1083.36   1
  -7   4   1 26483.9 836.679   2
  -7   4   2 55790.9 1286.53   2
  -7  -4   2 55859.5 1525.85   4
   7   4   3 15457.4 1794.26   2
  -7   4   3 14805.5 793.061   2
  -7  -4   3 16050.5 899.793   4
  -7   4   4 28021.1 1175.79   2
  -7  -4   4 27673.5 1202.04   4
  -7  -4   5 6020.45 669.679   4
  -7   4   5 6085.12 662.455   2
  -7   4   6 10895.5 986.762   2
  -7  -4   6 9942.58 818.697   4
  -7   5  -6 135.098 372.397   3
  -7   5  -5 11773.2 858.370   3
  -7   5  -4 345.186 350.467   3
  -7   5  -3 20614.5 1029.97   3
  -7   5  -3 13895.5 1193.38   1
  -7  -5  -2 258.046 256.261   4
  -7   5  -2 204.638 320.523   3
  -7   5  -2-575.534 688.872   1
  -7   5  -1 25542.1 1111.14   3
  -7   5  -1 27228.2 1588.70   1
  -7   5  -1 23243.9 958.029   2
   7   5  -1 25930.4 852.753   1
  -7  -5  -1 25633.8 986.826   4
  -7  -5   0 58.5675 272.669   4
  -7   5   0 60.4069 298.921   3
  -7   5   0-1.43252 329.494   1
  -7   5   1 24667.3 957.752   2
  -7   5   1 25176.6 1171.77   3
  -7   5   1 25160.9 1178.64   1
  -7  -5   1 25227.4 1076.23   4
  -7  -5   2-174.171 346.555   4
  -7   5   2 171.372 258.063   2
  -7   5   2 904.281 379.829   1
   7   5   3 21769.9 2360.50   2
   7   5   3 20596.2 822.049   3
  -7   5   3 21137.0 1031.97   2
  -7  -5   3 20321.4 1084.14   4
  -7  -5   4 205.452 362.217   4
  -7   5   4 187.028 360.012   2
   7   5   4 168.145 919.947   2
  -7   5   5 12083.9 949.357   2
   7   5   5 14325.2 1968.85   2
  -7  -5   5 11628.1 905.397   4
  -7   5   6 410.961 471.129   2
  -7   6  -4 1933.99 511.870   3
  -7   6  -3 40874.4 1565.91   3
  -7   6  -2 2971.62 540.140   3
  -7   6  -2 1332.48 645.500   1
  -7   6  -1 63442.0 1908.79   3
  -7   6  -1 66120.3 2632.03   1
  -7  -6  -1 63219.0 1703.88   4
  -7   6   0 3084.96 537.050   3
  -7   6   0 2564.59 532.271   1
  -7  -6   0 3589.67 529.118   4
  -7   6   1 63153.2 1739.30   2
  -7   6   1 64439.3 2011.51   3
  -7   6   1 62525.4 2022.19   1
  -7  -6   1 64146.1 1869.23   4
   7   6   2 2958.80 469.207   3
  -7  -6   2 2917.18 571.471   4
  -7   6   2 3233.55 588.747   1
  -7   6   2 2986.21 468.408   2
   7   6   3 45750.6 3634.04   2
  -7   6   3 41295.0 1502.91   2
  -7  -6   3 44845.9 1731.80   4
  -7  -6   4 2156.12 564.269   4
  -7   7  -1 8422.89 847.386   3
  -7   7  -1 10620.9 1294.01   1
  -7  -7   0 6996.81 753.052   4
  -7   7   0 7455.50 814.165   3
  -7   7   0 5443.03 782.551   1
   7   7   1 8177.84 781.112   3
  -7   7   1 7928.17 854.527   3
  -7   7   1 8247.54 894.072   1
  -7  -7   1 8837.06 851.226   4
   7   7   2 5749.31 669.943   3
  -7   7   2 6773.33 841.979   1
  -8   0  -4 100586. 1114.98   4
   8   0  -3-194.707 363.220   2
  -8   0  -3 949.661 360.099   1
  -8   0  -2 168960. 3060.06   1
   8   0  -2 174169. 3252.70   2
   8   0  -1 172.073 311.095   1
  -8   0  -1 151.825 510.017   1
   8   0  -1 131.231 261.103   2
   8   0   0 186804. 3201.92   1
  -8   0   0 192452. 3329.06   1
   8   0   1 121.259 271.524   2
  -8   0   1-84.1667 355.213   1
   8   0   1-67.1760 310.764   1
  -8   0   2 170605. 2595.17   1
   8   0   2 171778. 2961.38   2
  -8   0   3-31.2759 235.726   2
   8   0   3-24.2258 357.016   2
   8   0   3-93.7730 136.856   3
  -8   0   3-12.9901 185.641   1
  -8   0   4 96615.1 2256.07   2
   8   0   4 97712.5 3055.92   2
  -8   0   4 96907.6 1708.60   1
  -8   0   5-317.391 364.144   4
   8   0   5 345.121 580.173   2
  -8   0   5 223.918 383.831   2
  -8   0   5 515.129 257.604   1
  -8   0   6 44167.0 1294.04   1
  -8   0   6 40122.8 1798.27   2
   8   0   6 42729.5 2581.47   2
  -8   0   6 41542.0 1386.29   4
  -8   0   7-193.811 447.273   2
   8   0   7 253.872 735.417   2
  -8   1  -4 23012.3 1091.92   1
  -8   1  -4 21331.6 679.930   4
   8  -1  -3 913.576 433.251   2
  -8   1  -3 994.610 241.952   2
  -8   1  -3 692.615 324.595   1
   8   1  -2 25016.0 898.091   1
  -8  -1  -2 25076.1 1049.18   1
   8  -1  -2 26023.2 1169.62   2
  -8   1  -2 24487.9 691.080   2
  -8   1  -1 25.1145 316.790   1
   8  -1  -1 309.501 167.410   2
   8  -1  -1 1085.94 326.637   1
  -8  -1  -1 151.416 274.015   1
   8   1  -1 493.307 249.235   1
   8   1   0 24764.8 1302.93   1
  -8   1   0 25925.0 1552.70   1
   8  -1   0 28593.0 1779.87   1
  -8  -1   0 26959.9 1318.65   1
   8  -1   1 372.926 290.063   1
   8  -1   1 290.816 136.136   2
   8  -1   1 126.255 216.718   3
   8   1   1 311.816 207.085   1
  -8   1   1-52.3069 371.879   1
  -8  -1   1 626.041 330.298   1
   8  -1   2 23287.3 1690.74   1
   8  -1   2 24893.4 836.937   3
  -8  -1   2 27174.6 1460.31   1
  -8   1   2 24913.2 765.237   2
   8  -1   2 24671.1 1074.22   2
   8   1   2 27126.2 1078.36   1
  -8   1   2 26123.7 937.324   1
   8   1   2 27002.8 1500.03   2
  -8  -1   3 397.512 382.177   4
  -8   1   3 617.110 246.188   2
   8  -1   3 1073.26 429.082   2
  -8  -1   3 1178.59 347.900   1
   8  -1   3 1091.14 214.006   3
   8   1   3 886.295 178.296   3
  -8   1   3 1125.43 275.768   1
   8   1   3 1299.22 543.872   2
   8   1   4 21526.8 1591.32   2
  -8  -1   4 19087.3 968.791   4
  -8  -1   4 20976.7 1205.90   2
  -8  -1   4 22247.2 903.604   1
  -8   1   4 19523.8 953.769   2
   8  -1   4 20757.7 1425.98   2
  -8  -1   5 1112.75 354.200   4
  -8  -1   5 493.770 404.025   2
  -8   1   5 761.053 343.128   2
   8  -1   5 859.317 586.556   2
   8   1   5 1560.56 717.485   2
  -8  -1   5 1041.32 256.781   1
  -8  -1   6 14595.4 1228.31   2
  -8   1   6 13415.4 1020.67   2
   8  -1   6 13632.5 1510.32   2
  -8   1   6 14651.2 892.533   4
   8   1   6 15966.0 1687.50   2
  -8  -1   6 13594.4 813.673   4
  -8  -1   7 689.929 545.941   2
  -8   1   7 691.646 507.373   2
   8  -1   7 691.456 760.015   2
   8   1   7 1004.85 848.127   2
  -8   2  -5 8124.98 552.877   3
  -8   2  -4 7308.39 512.207   3
  -8   2  -4 7572.75 710.517   1
  -8   2  -3 13383.9 620.750   4
  -8   2  -3 12110.6 629.140   3
  -8   2  -3 14788.5 1222.48   1
  -8   2  -3 12623.2 609.657   2
  -8  -2  -3 13568.3 401.333   4
   8  -2  -3 14338.3 1143.72   2
   8  -2  -2 11356.7 843.350   2
   8  -2  -2 10925.8 896.478   3
  -8   2  -2 10277.5 586.933   3
  -8   2  -2 10777.4 441.277   2
   8   2  -2 12143.9 761.106   1
  -8  -2  -2 11426.6 498.851   4
  -8   2  -2 10504.2 967.466   1
   8   2  -1 15124.4 1072.05   1
   8  -2  -1 15597.0 933.531   3
  -8   2  -1 15180.3 1367.24   1
  -8   2  -1 14240.2 321.534   2
  -8  -2  -1 15789.0 677.686   4
   8  -2   0 12435.3 855.916   1
   8  -2   0 11359.7 717.150   3
  -8   2   0 12522.3 958.978   1
  -8  -2   0 10289.5 626.689   4
  -8  -2   0 11242.4 626.055   1
   8   2   0 11101.4 684.911   1
   8  -2   1 17617.8 785.381   3
  -8  -2   1 15468.4 707.161   1
  -8   2   1 16594.5 402.123   2
   8  -2   1 16937.1 1425.18   1
  -8   2   1 15089.9 809.072   1
   8   2   1 17288.3 769.435   1
  -8  -2   1 15415.3 791.119   4
   8  -2   2 11496.7 610.498   3
   8  -2   2 9459.25 903.784   1
  -8   2   2 11078.9 490.919   2
  -8  -2   2 11692.2 697.760   1
  -8  -2   2 10363.4 676.351   4
  -8   2   2 11614.9 660.678   1
   8  -2   3 14325.3 1267.08   2
  -8   2   3 12846.6 652.239   2
  -8  -2   3 11441.8 833.826   1
  -8  -2   3 14026.7 806.478   4
   8   2   3 14549.8 1402.09   2
   8  -2   4 8133.55 1166.78   2
  -8   2   4 7798.53 614.888   2
   8   2   4 9318.60 1214.53   2
  -8  -2   4 6849.80 607.301   4
  -8  -2   4 7700.75 521.891   1
   8  -2   5 7100.39 1134.92   2
  -8   2   5 8043.19 721.229   2
   8   2   5 9190.17 1317.14   2
  -8  -2   5 7807.10 651.363   4
   8  -2   6 2444.89 864.988   2
  -8   2   6 3160.27 599.072   2
   8   2   6 3512.40 1047.82   2
  -8  -2   6 3165.19 496.388   4
   8  -2   7 5399.32 1246.55   2
  -8   2   7 3947.61 707.849   2
  -8   3  -5 9057.81 640.865   3
  -8   3  -5 10927.3 794.358   1
  -8   3  -4 3841.34 428.218   3
  -8   3  -4 3662.98 591.198   1
  -8   3  -3 8497.41 585.096   3
  -8   3  -3 8815.91 536.164   2
  -8  -3  -3 9131.34 382.679   4
  -8   3  -2 4965.60 460.516   3
  -8   3  -2 5307.42 347.894   2
  -8  -3  -2 5617.66 375.062   4
  -8   3  -2 5572.12 815.445   1
  -8   3  -1 4957.10 812.191   1
  -8  -3  -1 5883.40 435.334   4
  -8   3  -1 5443.94 275.453   2
  -8   3  -1 4804.95 456.054   3
   8   3  -1 4472.07 473.952   1
  -8   3   0 4184.48 210.526   2
  -8   3   0 4258.29 236.072   2
  -8  -3   0 4257.11 416.086   4
   8   3   0 5241.58 432.550   1
  -8   3   0 4291.71 552.348   1
   8   3   1 5306.91 435.998   1
  -8   3   1 5189.22 526.138   1
  -8   3   1 5195.76 288.291   2
  -8  -3   1 4455.14 459.058   4
  -8   3   2 5533.72 526.005   1
  -8   3   2 5641.61 372.888   2
  -8  -3   2 4520.02 488.203   4
   8   3   3 8684.90 1298.08   2
  -8  -3   3 8170.72 643.834   4
  -8   3   3 8344.60 530.989   2
   8  -3   4 3574.43 949.099   2
   8   3   4 4400.29 1098.04   2
  -8   3   4 4015.83 483.745   2
  -8  -3   4 3820.55 519.636   4
   8  -3   5 8590.75 1668.68   2
  -8   3   5 9280.06 776.513   2
   8   3   5 7742.86 1338.79   2
  -8  -3   5 8881.25 734.967   4
   8  -3   6 740.743 993.105   2
  -8   3   6 1743.03 496.652   2
   8   3   6 1884.96 1044.73   2
  -8  -3   6 2190.73 485.554   4
   8  -3   7 5659.49 1383.53   2
  -8   3   7 5379.55 794.591   2
  -8  -3   7 4968.51 622.285   4
  -8   4  -6 8429.22 724.174   3
  -8   4  -5 19747.2 992.629   3
  -8   4  -4 15484.5 869.515   3
  -8   4  -4 18591.3 1361.07   1
  -8  -4  -3 41182.1 952.567   4
  -8   4  -3 39139.6 1290.16   3
   8   4  -2 26625.1 938.545   1
  -8   4  -2 25163.3 1025.94   3
  -8   4  -2 27036.1 861.500   2
  -8  -4  -2 26214.9 847.365   4
  -8   4  -1 58361.9 1547.21   3
  -8   4  -1 60454.0 2408.46   1
  -8   4  -1 57757.3 1120.81   2
   8   4  -1 58994.5 1436.63   1
  -8  -4  -1 59266.8 1360.58   4
  -8   4   0 31359.6 1198.45   3
  -8   4   0 31604.7 1383.00   1
   8   4   0 33187.8 1011.66   1
  -8  -4   0 33443.1 1106.77   4
  -8  -4   1 59693.9 1559.28   4
  -8   4   1 59784.5 1704.39   1
  -8   4   1 58730.7 1103.25   2
  -8   4   2 28019.4 1165.89   1
  -8   4   2 29028.5 950.953   2
  -8  -4   2 26097.5 1118.42   4
   8   4   3 41283.5 2947.12   2
  -8   4   3 39066.1 1187.80   2
  -8  -4   3 40643.2 1428.23   4
  -8   4   4 15193.3 867.059   2
  -8  -4   4 15310.4 953.399   4
   8   4   4 17040.8 1974.68   2
  -8   4   5 20058.8 1120.88   2
  -8  -4   5 20112.7 1122.36   4
  -8   4   6 8067.30 872.520   2
  -8  -4   6 7835.94 776.874   4
  -8   5  -6 6355.93 711.962   3
  -8   5  -5 3901.52 578.963   3
  -8   5  -4 9057.63 763.006   3
  -8   5  -3 4910.19 593.849   3
  -8   5  -3 3584.61 695.514   1
  -8   5  -2 9242.58 730.525   3
  -8  -5  -2 9065.68 594.578   4
  -8   5  -1 3932.25 523.521   3
  -8   5  -1 4884.44 863.200   1
  -8  -5  -1 3758.67 449.217   4
  -8   5   0 7861.97 692.776   3
  -8   5   0 7571.79 751.947   1
  -8  -5   0 7785.57 633.464   4
  -8   5   1 3394.60 534.911   3
  -8  -5   1 3653.32 509.525   4
  -8   5   1 3958.69 399.364   2
  -8   5   1 4389.41 591.875   1
  -8   5   2 9634.78 788.874   1
  -8   5   2 9289.92 601.769   2
  -8  -5   2 8826.03 753.266   4
   8   5   3 4706.28 443.535   3
  -8   5   3 4508.72 512.156   2
  -8  -5   3 4267.19 606.346   4
   8   5   4 9251.92 1776.40   2
  -8   5   4 9356.50 739.816   2
  -8  -5   4 8905.18 807.064   4
  -8  -5   5 3269.72 594.457   4
  -8   5   5 3263.69 550.282   2
  -8   6  -4 10197.5 895.100   3
  -8   6  -3 163.333 371.856   3
  -8  -6  -2 18755.3 959.825   4
  -8   6  -2 18077.8 1079.82   3
  -8  -6  -1 501.703 370.112   4
  -8   6  -1 251.200 374.323   3
  -8   6   0 21713.6 1200.12   3
  -8   6   0 19320.3 1289.76   1
  -8  -6   0 21795.3 1103.76   4
  -8  -6   1 530.695 409.157   4
  -8   6   1 596.460 424.638   1
  -8   6   1 12.4740 435.749   3
  -8   6   2 17326.0 1149.19   1
  -8  -6   2 16885.1 1087.92   4
  -8  -6   3 38.5950 401.334   4
   8   6   3-1021.21 1438.10   2
  -8   6   3 1190.58 513.724   1
  -8  -7  -1 3447.76 589.681   4
  -8   7  -1 3607.10 880.093   1
  -8   7  -1 3042.31 617.979   3
  -8  -7   0 810.481 456.286   4
  -8   7   0 42.4928 446.213   3
  -8   7   0-468.150 601.619   1
  -8   7   1 2060.05 565.126   3
  -8  -7   1 3466.25 643.856   4
  -8   7   1 2779.73 624.359   1
  -8   7   2 1180.67 524.710   1
  -9   0  -4 119.913 126.734   4
  -9   0  -3 5981.23 658.742   1
   9   0  -3 5489.91 788.417   2
   9   0  -2 493.491 371.446   2
  -9   0  -2-360.804 502.265   1
   9   0  -1 4029.25 499.499   2
   9   0  -1 5276.93 810.720   1
  -9   0   0 248.514 330.557   1
   9   0   0 224.040 264.749   1
   9   0   1 4896.33 540.845   2
   9   0   1 2739.67 608.402   1
  -9   0   1 3607.90 657.606   1
   9   0   2-583.049 499.865   1
   9   0   2 286.333 342.293   2
  -9   0   2 584.675 390.889   1
   9   0   2-427.343 364.370   3
   9   0   3 5791.85 395.481   3
  -9   0   3 4546.36 488.106   2
  -9   0   3 5039.65 479.992   1
   9   0   3 4903.67 732.638   2
  -9   0   4-62.5718 285.498   2
  -9   0   4-26.2118 218.622   1
   9   0   4 261.604 538.126   2
  -9   0   5 4149.49 570.097   4
   9   0   5 5036.42 1004.98   2
  -9   0   5 4671.64 640.889   2
  -9   0   5 5954.31 523.531   1
  -9   0   6 219.631 352.539   4
  -9   0   6-168.947 402.158   2
   9   0   6-202.011 681.527   2
  -9   0   6 220.847 256.717   1
  -9   0   7 4229.15 759.920   2
   9   0   7 5332.75 1219.56   2
  -9   1  -4 8165.24 457.146   4
  -9  -1  -4 7956.45 253.078   4
   9  -1  -3 3645.58 647.519   2
  -9   1  -3 2511.62 532.887   1
  -9   1  -3 2960.91 337.174   2
   9   1  -2 7977.92 636.115   1
  -9  -1  -2 7724.91 681.397   1
   9   1  -2 7143.45 894.068   2
  -9   1  -2 6011.15 863.529   1
   9  -1  -2 7582.61 710.477   2
   9  -1  -1 7051.92 714.889   1
   9   1  -1 6070.82 584.151   1
  -9  -1  -1 5988.38 640.986   1
   9  -1  -1 6312.53 463.263   2
  -9   1  -1 5496.36 695.189   1
  -9   1   0 5217.67 862.472   1
   9  -1   0 4584.44 707.386   1
  -9  -1   0 6137.10 807.388   1
   9   1   0 5256.94 733.237   1
   9  -1   1 6031.22 593.117   3
   9  -1   1 5735.96 643.470   1
  -9   1   1 7688.76 777.708   1
   9  -1   1 5945.20 397.146   2
  -9  -1   1 6831.68 651.255   1
   9   1   1 6590.79 663.471   1
  -9  -1   2 10091.4 973.575   1
   9  -1   2 9760.30 1205.99   1
   9  -1   2 7701.76 542.474   3
  -9   1   2 6228.88 400.520   2
  -9   1   2 6989.95 565.293   1
   9  -1   2 7032.48 631.687   2
   9   1   2 6722.06 872.941   2
   9  -1   3 3220.00 332.178   3
   9  -1   3 2525.49 558.976   2
  -9  -1   3 3085.78 523.128   1
   9   1   3 2529.36 318.265   3
   9   1   3 3006.08 737.397   2
  -9   1   3 2844.38 371.965   2
  -9   1   3 3274.24 407.229   1
  -9  -1   4 9476.51 713.422   1
  -9   1   4 7925.15 651.183   2
   9  -1   4 8258.79 982.605   2
  -9  -1   4 7012.68 677.379   4
   9   1   4 8891.21 1176.36   2
  -9   1   4 8336.24 599.413   1
  -9   1   5 5648.78 549.060   1
   9  -1   5 4928.86 940.199   2
  -9  -1   5 4987.61 503.478   1
  -9   1   5 4642.08 594.796   2
   9   1   5 5681.25 1108.86   2
  -9  -1   5 5013.95 605.835   4
  -9   1   6 6746.37 606.151   1
   9  -1   6 5679.12 1122.31   2
  -9  -1   6 6114.37 870.981   2
  -9   1   6 5991.82 758.783   2
   9   1   6 6881.18 1297.84   2
  -9   1   6 6037.70 686.761   4
  -9  -1   6 5644.65 602.842   4
   9  -1   7 4210.43 1084.50   2
   9   1   7 4851.64 1330.84   2
  -9   1   7 4147.38 749.805   2
  -9   2  -4 34780.8 1572.82   1
  -9   2  -3 13127.0 1317.93   1
  -9  -2  -3 11271.4 436.996   4
  -9   2  -3 10773.6 558.849   2
   9  -2  -3 12067.9 1138.95   2
  -9  -2  -2 44972.5 1089.33   4
  -9   2  -2 43126.7 835.911   2
   9  -2  -2 46463.9 1680.53   2
  -9  -2  -1 19477.3 914.662   1
  -9  -2  -1 17682.6 813.957   4
   9  -2   0 50858.5 1882.15   1
   9  -2   0 49716.1 1595.70   3
  -9   2   0 51289.4 1988.54   1
  -9  -2   0 47340.3 1367.53   1
  -9  -2   0 49197.4 1471.32   4
   9   2   0 52477.9 1704.50   1
   9  -2   1 20450.8 930.719   3
  -9   2   1 17237.1 395.281   2
  -9   2   1 18314.2 967.911   1
  -9  -2   1 18101.3 896.551   1
   9  -2   1 22055.6 1717.13   1
   9   2   1 19773.1 913.610   1
  -9  -2   1 17737.4 929.361   4
   9  -2   2 47432.8 1299.87   3
  -9   2   2 45827.8 964.873   2
  -9  -2   2 44165.2 1576.72   1
  -9   2   2 45931.8 1371.59   1
  -9  -2   2 43056.0 1439.71   4
  -9  -2   3 9677.63 754.728   1
   9  -2   3 11974.8 1202.28   2
  -9   2   3 10878.2 614.228   2
  -9  -2   3 10009.9 740.227   4
   9   2   3 11576.3 1350.10   2
  -9   2   3 11583.3 705.539   1
   9   2   4 36696.3 2369.25   2
  -9   2   4 34273.4 1201.97   1
  -9  -2   4 35390.9 1125.93   1
   9  -2   4 37078.7 2414.10   2
  -9   2   4 33156.8 1194.28   2
  -9  -2   4 31195.8 1274.15   4
   9  -2   5 6024.24 1119.53   2
   9   2   5 6038.65 1223.00   2
  -9   2   5 5548.96 611.092   2
  -9  -2   5 5143.82 571.973   4
   9  -2   6 19062.2 1961.40   2
  -9   2   6 17951.3 1152.90   2
  -9  -2   6 18274.2 1036.13   4
   9   2   6 22570.2 2210.70   2
   9  -2   7 3556.76 1150.93   2
  -9   2   7 2998.72 635.610   2
  -9   2   7 4237.46 583.437   1
  -9   3  -5 1419.24 338.439   3
  -9   3  -5 3043.68 591.342   1
  -9   3  -4 10177.1 676.950   3
  -9   3  -4 10568.9 1041.83   1
  -9   3  -3 2561.59 382.969   3
  -9   3  -3 2921.49 330.049   2
  -9  -3  -3 3175.01 274.746   4
  -9   3  -2 5826.63 522.538   3
   9   3  -2 4616.34 436.685   1
  -9   3  -2 6458.69 366.757   2
  -9  -3  -2 6392.65 430.512   4
  -9   3  -2 5493.72 780.760   1
  -9  -3  -1 1793.66 295.476   4
  -9   3  -1 1934.19 347.881   3
  -9   3  -1 1914.82 146.312   2
  -9   3  -1 1594.74 628.589   1
   9   3  -1 2471.23 454.399   1
  -9  -3   0 2222.67 353.432   4
  -9   3   0 2162.20 464.286   1
   9   3   0 2923.40 375.482   1
  -9  -3   1 1608.24 366.398   4
  -9   3   1 1915.55 402.114   1
  -9   3   1 2063.74 168.443   2
  -9   3   2 5534.89 341.157   2
  -9  -3   2 5381.33 549.879   4
  -9   3   2 6498.97 606.183   1
  -9  -3   3 2242.29 434.538   4
  -9   3   3 3033.90 466.177   1
   9   3   3 2163.83 829.580   2
  -9   3   3 2885.30 359.950   2
   9  -3   4 8827.61 1019.82   2
  -9   3   4 10823.0 721.494   2
  -9  -3   4 10232.1 787.032   4
   9   3   4 12152.1 1622.27   2
   9  -3   5 1025.93 701.336   2
  -9  -3   5 1702.43 441.985   4
  -9   3   5 1606.81 407.390   2
   9   3   5 1185.87 830.086   2
   9  -3   6 9367.41 1611.97   2
  -9   3   6 10001.0 895.694   2
   9   3   6 11072.7 1749.10   2
  -9  -3   6 9773.26 827.107   4
   9  -3   7 152.721 937.714   2
  -9  -3   7 1505.70 485.894   4
  -9   4  -5 924.684 363.445   3
  -9   4  -4 8810.37 704.704   3
  -9   4  -4 10959.7 1273.90   1
  -9  -4  -3 927.343 232.167   4
  -9   4  -3 632.137 314.112   3
  -9   4  -3 614.283 476.156   1
   9   4  -2 11201.3 614.524   1
  -9   4  -2 11203.0 747.825   3
  -9   4  -2 12219.9 547.876   2
  -9  -4  -2 12593.3 630.637   4
  -9  -4  -1 601.422 286.072   4
  -9   4  -1 423.465 149.442   2
  -9   4  -1 125.975 300.541   3
   9   4  -1-49.6306 314.125   1
  -9   4  -1 542.656 561.160   1
  -9   4   0 12923.1 449.677   2
  -9   4   0 12365.2 821.792   3
  -9   4   0 12906.3 493.622   2
  -9   4   0 12485.2 991.748   1
   9   4   0 13589.2 721.967   1
  -9  -4   0 13558.9 772.549   4
  -9  -4   1 502.631 338.074   4
  -9   4   1 392.777 157.202   2
  -9   4   1 291.359 339.605   1
  -9   4   2 12457.3 577.496   2
  -9  -4   2 12038.7 825.131   4
  -9   4   2 12079.6 841.385   1
  -9  -4   3 811.732 412.963   4
  -9   4   3 732.547 259.107   2
  -9   4   3 1688.41 446.007   1
  -9  -4   4 9431.21 805.640   4
  -9   4   4 8537.15 647.112   2
   9   4   4 9034.46 1657.88   2
  -9  -4   5 2094.14 521.449   4
  -9   4   5 1331.78 435.823   2
   9   4   5 2688.28 1237.27   2
  -9   4   6 5364.65 710.402   2
  -9  -4   6 5191.25 690.267   4
  -9   5  -5 3766.79 590.509   3
  -9   5  -4 881.911 403.859   3
  -9  -5  -3 3634.22 401.394   4
  -9   5  -3 3550.25 533.148   3
  -9   5  -3 2482.01 647.488   1
  -9  -5  -2 1133.78 318.586   4
  -9   5  -2 1099.86 400.417   3
  -9   5  -2 501.178 640.473   1
  -9  -5  -1 2608.68 413.141   4
  -9   5  -1 3075.27 765.872   1
  -9   5  -1 2105.39 455.694   3
  -9  -5   0 630.760 331.675   4
  -9   5   0 500.359 349.896   3
  -9   5   0 235.783 470.009   1
  -9   5   1 2371.47 504.092   1
  -9   5   1 2818.05 317.452   2
  -9  -5   1 3080.66 518.911   4
  -9  -5   2 1545.53 480.218   4
  -9   5   2 1600.43 458.127   1
  -9   5   2 1101.93 283.388   2
  -9   5   3 4219.64 633.898   1
  -9   5   3 3665.89 443.202   2
  -9  -5   3 4193.45 630.666   4
  -9   5   4 1978.33 546.459   1
  -9  -5   4 665.232 463.785   4
  -9   5   4 778.819 333.967   2
   9   5   4 637.318 1043.52   2
  -9  -5   5 3555.61 623.974   4
  -9   6  -4 372.961 427.832   3
  -9   6  -3 18406.9 1146.05   3
  -9  -6  -2 778.432 356.136   4
  -9   6  -2 191.949 391.866   3
  -9   6  -1 23392.3 1745.32   1
  -9   6  -1 24197.8 1281.27   3
  -9  -6  -1 23475.5 1128.70   4
  -9  -6   0 645.243 404.063   4
  -9   6   0 52.8066 398.457   3
  -9   6   0-448.316 614.841   1
  -9   6   1 24274.7 1403.88   1
  -9  -6   1 23134.5 1214.44   4
  -9  -6   2 385.647 435.242   4
  -9   6   2 735.337 428.571   1
   9   6   3 16697.1 2477.57   2
  -9  -6   3 19074.6 1210.51   4
  -9   6   3 19181.8 1259.83   1
  -9  -7  -1 3345.04 599.954   4
  -9   7  -1 3539.00 904.517   1
  -9  -7   0 2059.58 548.607   4
  -9   7   0 1136.09 485.276   3
  -9   7   0 248.328 594.900   1
  -9  -7   1 3198.57 625.305   4
  -9   7   1 2681.94 630.534   1
 -10   0  -4 71234.2 1179.81   4
  10   0  -3-43.8125 427.569   2
 -10   0  -3 871.891 467.229   1
  10   0  -2 132773. 3440.94   2
 -10   0  -2 113977. 3190.35   1
  10   0  -1 8.99559 184.591   2
 -10   0  -1-27.2512 423.442   1
  10   0  -1-417.679 435.049   1
  10   0   0 120201. 2650.92   1
 -10   0   0 124601. 2771.51   1
  10   0   1 43.4625 293.570   2
 -10   0   1-564.776 600.436   1
  10   0   1-445.551 494.900   1
 -10   0   2 110430. 2701.62   1
  10   0   2 113279. 2702.52   3
  10   0   2 119910. 2865.51   2
  10   0   3 207.327 452.442   2
  10   0   3 287.837 218.711   3
 -10   0   3-643.561 398.879   1
 -10   0   4 66938.2 1949.64   2
 -10   0   4 68177.4 1724.87   1
  10   0   4 72587.0 2953.63   2
 -10   0   5-925.742 572.982   4
 -10   0   5-44.7359 385.659   2
  10   0   5 101.644 622.501   2
 -10   0   5-88.1494 252.651   1
 -10   0   6 29679.2 1565.27   2
  10   0   6 32528.7 2483.87   2
 -10   0   6 29032.7 1371.29   4
 -10   0   7-112.352 479.642   2
  10   0   7 196.354 795.919   2
 -10   1  -4 23109.4 1304.31   1
 -10   1  -4 20980.5 750.720   4
  10  -1  -3 1037.21 533.690   2
 -10   1  -3 1079.53 236.499   2
 -10   1  -3 446.704 525.369   1
 -10  -1  -2 24308.7 1228.25   1
  10   1  -2 18239.9 1178.96   2
 -10   1  -2 15692.7 1228.81   1
  10  -1  -2 26968.1 1341.90   2
  10   1  -2 26497.2 1295.98   1
 -10   1  -1 865.429 408.350   1
  10  -1  -1 978.089 262.768   2
  10  -1  -1 1073.09 399.527   1
 -10  -1  -1 616.547 376.329   1
  10   1  -1 1176.13 316.811   1
 -10   1   0 22671.7 1653.19   1
  10   1   0 23366.1 1550.06   1
 -10  -1   0 21682.3 1444.43   1
  10   1   1 380.456 394.355   1
 -10   1   1 1371.01 486.919   1
  10  -1   1 701.704 206.787   2
  10  -1   1 857.160 372.544   1
  10  -1   1 744.549 305.900   3
 -10  -1   1 1205.39 395.513   1
 -10  -1   2 27927.0 1384.13   1
  10  -1   2 25156.7 1044.07   3
 -10   1   2 25361.0 1152.31   1
  10  -1   2 23733.6 1128.13   2
  10   1   2 23345.4 1510.14   2
 -10   1   3 856.650 257.573   2
  10  -1   3 1039.28 515.217   2
  10   1   3 659.360 566.165   2
  10  -1   3 1070.91 259.320   3
  10   1   3 359.435 307.955   3
 -10  -1   3 1032.02 407.731   1
 -10   1   3 991.708 311.627   1
  10   1   4 21701.4 548.547   3
 -10  -1   4 22772.8 1194.52   1
 -10   1   4 20479.7 1016.31   2
  10  -1   4 22099.7 1658.19   2
 -10  -1   4 18576.4 1132.13   4
 -10   1   4 20982.4 970.151   1
  10   1   4 24556.4 1907.43   2
 -10  -1   5 917.792 417.072   4
 -10   1   5 870.009 396.422   2
  10  -1   5 1025.62 661.901   2
  10   1   5 882.160 723.070   2
 -10  -1   5 1818.23 448.723   1
 -10   1   5 1428.12 370.177   1
 -10   1   6 13969.6 1068.70   2
  10  -1   6 14387.5 1688.89   2
  10   1   6 16696.1 1969.10   2
 -10   1   6 12179.1 1000.10   4
 -10  -1   6 12598.4 910.446   4
 -10   1   6 14419.1 879.763   1
 -10   1   7 716.051 492.437   2
  10  -1   7 513.066 792.725   2
 -10   2  -5 10061.4 930.022   1
 -10   2  -4 5835.92 810.501   1
 -10   2  -3 15898.5 1443.42   1
 -10  -2  -3 15741.6 603.344   4
 -10   2  -3 15235.5 645.808   2
  10  -2  -3 17334.9 1409.33   2
  10   2  -2 7596.08 753.911   1
 -10  -2  -2 7598.83 547.574   4
 -10   2  -2 7619.23 864.877   1
 -10   2  -2 7357.61 356.184   2
  10  -2  -2 7939.97 742.757   2
  10   2  -1 24104.3 1298.12   1
 -10  -2  -1 19826.1 980.483   4
 -10  -2  -1 22534.9 1087.36   1
 -10   2   0 9298.68 990.725   1
 -10  -2   0 8090.67 675.580   1
 -10  -2   0 7543.99 675.857   4
  10   2   0 7538.89 745.287   1
 -10   2   1 20914.2 1147.38   1
 -10  -2   1 19721.8 1082.35   1
 -10  -2   1 18728.0 1061.15   4
  10  -2   2 6852.57 521.321   2
 -10   2   2 7702.93 409.397   2
 -10   2   2 7695.70 648.911   1
 -10  -2   2 8128.30 869.632   1
 -10  -2   2 7070.47 694.762   4
 -10  -2   3 15098.0 969.513   4
  10  -2   3 17602.3 1456.16   2
 -10   2   3 15309.5 708.067   2
 -10  -2   3 14895.9 893.079   1
 -10   2   3 16232.6 879.411   1
  10   2   3 16992.0 1659.02   2
 -10  -2   4 5405.79 664.531   4
  10  -2   4 5910.45 1210.91   2
  10   2   4 5748.27 1147.58   2
 -10   2   4 5261.98 515.811   2
 -10  -2   4 6068.43 536.538   1
 -10   2   4 5427.10 576.801   1
 -10   2   5 9007.55 734.929   1
  10  -2   5 8793.55 1332.89   2
 -10   2   5 7911.55 713.691   2
  10   2   5 10025.4 1594.25   2
 -10  -2   5 8049.90 744.489   4
 -10   2   6 3923.31 565.685   1
 -10  -2   6 2391.50 503.655   4
  10  -2   6 1198.25 777.115   2
 -10   2   6 2477.17 545.207   2
  10   2   6 3341.74 1207.49   2
 -10   2   7 4776.55 628.093   1
  10  -2   7 3755.19 1149.84   2
 -10   2   7 3718.83 708.114   2
 -10  -2   7 4246.02 630.649   4
 -10   3  -5 8524.09 691.217   3
 -10   3  -5 11245.1 999.022   1
 -10   3  -4 2934.41 436.347   3
 -10   3  -4 3467.67 752.463   1
 -10   3  -3 9301.77 663.460   3
 -10   3  -3 9124.96 506.409   2
 -10  -3  -3 9877.29 480.759   4
 -10   3  -2 5381.99 304.179   2
  10   3  -2 4496.25 457.395   1
 -10  -3  -2 5739.63 451.579   4
 -10   3  -2 5752.26 816.137   1
  10   3  -1 7406.16 789.840   1
 -10   3  -1 6810.35 1037.62   1
 -10  -3  -1 7075.59 548.789   4
 -10   3   0 6799.47 898.813   1
 -10  -3   0 5180.27 525.137   4
  10   3   0 6922.42 625.724   1
 -10   3   1 7217.68 698.972   1
 -10   3   1 7054.07 246.188   2
 -10  -3   1 7060.73 632.399   4
 -10   3   2 5765.07 356.933   2
 -10   3   2 5630.64 608.382   1
 -10  -3   2 5054.96 590.680   4
  10   3   3 7775.72 1282.60   2
 -10   3   3 9170.23 546.492   2
 -10  -3   3 8529.59 740.509   4
 -10   3   3 9598.45 737.876   1
  10  -3   4 3128.99 593.043   2
 -10   3   4 4203.54 570.398   1
 -10  -3   4 3436.98 556.395   4
  10   3   4 3460.52 1102.10   2
 -10   3   4 3597.37 434.150   2
 -10   3   5 9594.65 813.818   1
 -10  -3   5 8561.31 807.317   4
  10  -3   5 6993.21 1006.92   2
 -10   3   5 8900.12 755.897   2
  10   3   5 9960.27 1637.39   2
  10  -3   6 1288.39 710.203   2
 -10  -3   6 2227.67 552.471   4
 -10   3   6 3197.85 571.962   1
 -10   3   6 1690.82 502.131   2
  10   3   6 3345.77 1340.03   2
 -10   4  -5 13806.9 920.881   3
 -10   4  -4 13480.6 870.856   3
 -10   4  -4 15895.6 1681.03   1
 -10   4  -3 23959.7 1127.77   3
 -10   4  -3 22887.6 1524.99   1
 -10  -4  -3 26971.4 857.080   4
 -10   4  -2 21110.0 1051.81   3
 -10  -4  -2 22758.2 878.205   4
 -10   4  -1 32940.1 2078.52   1
 -10   4  -1 32449.7 1299.90   3
 -10   4  -1 31801.4 619.278   2
 -10  -4  -1 33624.3 1150.79   4
  10   4  -1 32183.8 1387.41   1
 -10   4   0 26082.3 1485.47   1
 -10   4   0 24493.3 504.509   2
 -10  -4   0 26756.7 1112.62   4
 -10   4   0 24830.0 472.663   2
 -10   4   1 34376.4 687.166   2
 -10   4   1 33317.6 1464.54   1
 -10  -4   1 32895.3 1306.81   4
 -10   4   2 22275.4 702.177   2
 -10   4   2 22106.6 1163.54   1
 -10  -4   2 21520.7 1126.61   4
  10   4   3 22476.6 2311.21   2
 -10   4   3 24235.6 882.332   2
 -10  -4   3 24745.8 1237.50   4
 -10   4   3 26663.3 1264.77   1
 -10   4   4 14667.9 989.847   1
 -10   4   4 13087.4 794.127   2
 -10  -4   4 13351.4 979.068   4
  10   4   4 12801.2 1892.79   2
 -10   4   5 16122.6 1079.07   1
 -10   4   5 13998.1 922.330   2
  10   4   5 14347.8 2010.58   2
 -10  -4   5 14175.6 1035.07   4
 -10   5  -5 2514.52 539.416   3
 -10   5  -4 8265.08 771.737   3
 -10   5  -3 3566.27 562.187   3
 -10   5  -3 4083.03 735.079   1
 -10   5  -2 9107.24 1374.07   1
 -10   5  -2 9924.15 806.655   3
 -10  -5  -2 9254.07 655.610   4
 -10   5  -1 4751.45 915.909   1
 -10   5  -1 4312.98 587.380   3
 -10  -5  -1 4455.97 525.322   4
 -10   5   0 6772.48 830.888   1
 -10  -5   0 9316.16 742.566   4
 -10   5   1 4460.80 656.628   1
 -10  -5   1 5273.62 638.189   4
 -10   5   2 9396.86 862.927   1
 -10  -5   2 10143.7 867.755   4
 -10  -5   3 5194.24 724.429   4
 -10   5   3 4942.75 666.590   1
 -10   5   4 8909.23 864.176   1
  10   5   4 8017.40 1787.22   2
 -10  -5   4 9408.11 911.061   4
 -10   6  -3 268.767 420.085   3
 -10   6  -2 12474.2 1612.87   1
 -10   6  -2 13859.8 1037.12   3
 -10  -6  -2 14233.9 892.071   4
 -10  -6  -1 11.5544 347.099   4
 -10   6  -1-2.84968 429.895   3
 -10   6  -1 744.978 670.944   1
 -10   6   0 16219.3 1131.66   3
 -10   6   0 13919.3 1247.68   1
 -10  -6   0 16115.8 1021.21   4
 -10  -6   1-247.868 430.408   4
 -10   6   1-109.133 448.017   1
 -10   6   2 14848.7 1151.02   1
 -10  -6   2 13125.7 1046.28   4
 -10  -6   3-303.016 502.461   4
  10   6   3 121.776 1211.41   2
 -10   6   3 476.921 490.100   1
 -10   7  -1 2604.41 868.486   1
 -10  -7  -1 4481.50 656.772   4
 -10  -7   0 1301.57 510.820   4
 -10   7   0 66.7714 556.955   1
 -10   7   1 2725.43 668.389   1
 -11   0  -4 2190.40 624.751   1
 -11   0  -3 89115.6 2691.49   1
  11   0  -3 110636. 3749.67   2
  11   0  -2 441.105 364.880   2
 -11   0  -2-38.3529 582.310   1
  11   0  -1 112326. 2031.13   2
 -11   0  -1 123780. 3129.35   1
 -11   0   0 181.647 386.363   1
  11   0   0 533.371 324.861   1
  11   0   1 185312. 3235.70   2
 -11   0   1 187205. 4488.12   1
  11   0   2 115.474 381.836   2
  11   0   2-641.200 588.758   3
 -11   0   2 130.766 394.945   1
 -11   0   3 98980.0 2540.58   1
  11   0   3 99807.9 3220.37   2
  11   0   4 164.249 624.071   2
  11   0   4 608.242 206.849   3
 -11   0   4-331.171 401.887   1
 -11   0   5 34811.9 1603.46   2
 -11   0   5 36445.0 1401.62   1
  11   0   5 35512.6 2408.24   2
 -11   0   5 31227.0 1671.13   4
 -11   0   6-5.88225 435.578   4
 -11   0   6-125.456 446.965   2
  11   0   6 349.724 865.215   2
 -11   0   6 21.2663 265.355   1
  11   0   7 9166.24 1560.17   2
 -11   1  -4 28653.5 944.902   4
 -11   1  -4 29536.7 1634.03   1
 -11  -1  -3 28081.9 1402.79   1
 -11   1  -3 26631.5 1807.36   1
 -11  -1  -2 52448.0 1961.81   1
  11   1  -2 38688.0 1584.12   2
 -11   1  -2 40492.7 1921.65   1
  11  -1  -2 56360.1 2062.85   2
  11   1  -2 55778.8 2194.06   1
  11   1  -1 38150.4 1392.19   1
 -11  -1  -1 42224.4 1987.22   1
  11  -1  -1 44691.4 1374.49   2
 -11   1  -1 43207.0 1794.68   1
 -11   1   0 77477.2 3042.72   1
  11   1   0 82727.4 3016.42   1
 -11   1   1 45030.3 2020.96   1
  11  -1   1 46704.2 2014.02   3
  11  -1   1 46460.7 1206.18   2
 -11  -1   1 42276.5 1579.75   1
  11  -1   2 52711.3 1690.29   3
 -11   1   2 51467.1 1780.15   1
  11  -1   2 52290.8 1781.99   2
 -11  -1   2 55258.6 1886.34   1
  11   1   2 57219.8 2385.05   2
 -11  -1   3 24247.1 1533.20   1
  11  -1   3 25961.6 1008.27   3
  11   1   3 26227.1 1314.98   3
 -11   1   3 25151.3 983.308   2
 -11   1   3 25747.6 1153.74   1
  11  -1   3 29158.6 1698.93   2
  11   1   3 25582.2 1777.95   2
  11   1   4 32085.2 2301.14   2
 -11  -1   4 28958.4 1510.72   1
 -11   1   4 26902.5 1150.16   2
  11  -1   4 31270.8 2001.33   2
 -11   1   4 28051.8 1197.21   1
 -11  -1   4 25736.3 1444.74   4
 -11  -1   5 14892.9 1057.37   1
 -11   1   5 12549.9 909.367   2
  11  -1   5 13106.8 1468.58   2
  11   1   5 13728.3 1713.28   2
 -11   1   5 13288.8 866.983   1
 -11  -1   5 11301.1 966.488   4
 -11   1   6 10648.9 943.595   2
  11  -1   6 11361.3 1554.33   2
 -11  -1   6 10069.3 888.951   4
  11   1   6 12203.2 1770.66   2
 -11   1   6 8802.63 971.097   4
 -11   1   6 12141.0 869.065   1
  11  -1   7 3795.74 1081.67   2
 -11   1   7 4926.21 750.909   2
 -11   2  -5 12104.2 1079.37   1
 -11   2  -4 81377.5 2956.65   1
 -11  -2  -4 79188.2 994.120   4
 -11  -2  -3 22599.3 821.408   4
 -11   2  -3 21181.6 754.201   2
 -11  -2  -2 145961. 2548.87   4
 -11   2  -2 140057. 3333.95   1
  11   2  -1 34943.2 1487.05   1
 -11  -2  -1 32270.1 1401.43   1
 -11  -2  -1 30059.0 1340.99   4
  11   2   0 184406. 3797.28   1
 -11   2   0 189319. 4471.70   1
 -11  -2   0 183604. 3386.59   1
 -11  -2   0 180674. 3435.02   4
 -11  -2   1 31891.2 1580.01   1
 -11  -2   1 29628.7 1443.18   4
 -11   2   2 138550. 1618.32   2
 -11  -2   2 136448. 3404.06   1
 -11  -2   2 139600. 3052.68   4
 -11   2   3 22656.6 864.554   2
  11  -2   3 20794.2 1230.43   2
 -11   2   3 23896.1 1134.50   1
 -11  -2   3 21310.6 1061.49   1
 -11  -2   3 20015.6 1178.14   4
  11   2   3 23689.9 1940.34   2
 -11   2   4 77701.8 1826.74   2
  11  -2   4 80147.7 3115.71   2
 -11  -2   4 71372.7 2173.14   4
 -11   2   4 77319.5 2007.35   1
 -11  -2   4 81747.0 1885.65   1
  11   2   4 79098.2 3582.52   2
 -11   2   5 9501.27 774.094   2
  11  -2   5 10047.2 1245.54   2
 -11  -2   5 8622.26 822.129   4
 -11   2   5 10787.2 818.473   1
  11   2   5 11289.4 1697.28   2
 -11   2   6 27783.4 1411.40   2
  11  -2   6 28289.3 2141.54   2
 -11  -2   6 27231.6 1380.09   4
 -11   2   6 30165.0 1369.98   1
 -11  -2   7 3329.43 610.461   4
 -11   2   7 3511.39 688.664   2
  11  -2   7 3582.26 1043.82   2
 -11   2   7 3857.79 607.587   1
 -11   3  -5 823.003 534.746   1
 -11   3  -4 41595.3 2512.21   1
 -11  -3  -3 395.950 208.039   4
 -11   3  -3 225.002 429.305   1
 -11  -3  -2 58199.0 1395.78   4
 -11   3  -2 56877.2 867.999   2
 -11   3  -2 58718.9 2280.03   1
 -11  -3  -1 644.837 295.467   4
  11   3  -1 313.630 437.321   1
 -11   3  -1-39.3881 751.565   1
 -11   3   0 74434.6 2658.46   1
 -11  -3   0 69275.4 1875.91   4
 -11  -3   1 1470.58 454.137   4
 -11   3   1 485.443 393.114   1
 -11  -3   2 60370.2 1445.20   1
 -11   3   2 61082.8 1036.64   2
 -11   3   2 58921.4 1849.58   1
 -11  -3   2 57876.1 1860.57   4
 -11  -3   3-250.986 447.730   4
 -11   3   3 495.206 223.990   2
  11   3   3 462.065 746.766   2
 -11   3   3 512.672 352.667   1
 -11   3   4 35594.3 1215.86   2
 -11  -3   4 32381.6 1445.61   4
 -11   3   4 36132.0 1457.77   1
  11   3   4 34880.9 2671.92   2
  11  -3   5-197.437 467.360   2
 -11  -3   5 45.8875 402.414   4
 -11   3   5 120.479 313.656   2
  11   3   5-928.339 1076.37   2
 -11   3   5 602.174 403.817   1
  11  -3   6 14354.0 1376.14   2
 -11   3   6 14287.6 1032.34   2
  11   3   6 16884.9 2265.23   2
 -11  -3   6 15068.2 1095.65   4
 -11   3   6 17729.9 1121.83   1
 -11   4  -5 4850.40 607.974   3
 -11   4  -4 17483.3 1030.11   3
 -11   4  -4 17258.2 1602.51   1
 -11   4  -3 11688.7 840.641   3
 -11   4  -3 11103.2 1089.52   1
 -11  -4  -3 12821.0 641.304   4
 -11   4  -2 40786.2 2209.67   1
 -11   4  -2 36971.6 1432.78   3
 -11  -4  -2 37848.6 1189.42   4
 -11  -4  -1 21255.7 982.322   4
  11   4  -1 20550.4 1236.03   1
 -11   4   0 53970.2 2384.38   1
 -11  -4   0 47534.3 1552.78   4
 -11   4   1 21640.1 1297.60   1
 -11   4   1 18979.1 420.528   2
 -11  -4   1 21098.1 1129.83   4
 -11   4   2 37570.7 854.576   2
 -11   4   2 37776.1 1581.22   1
 -11  -4   2 37851.6 1547.48   4
 -11   4   3 12538.3 644.412   2
 -11   4   3 13208.7 968.117   1
 -11  -4   3 12450.8 963.588   4
 -11   4   4 19040.5 910.017   2
 -11  -4   4 19761.2 1204.87   4
 -11   4   4 20073.8 1169.52   1
  11   4   4 18013.3 2226.99   2
  11   4   5 5121.05 1400.96   2
 -11  -4   5 5692.88 760.016   4
 -11   4   5 6284.25 759.174   1
 -11   5  -5 10326.7 918.609   3
 -11   5  -4 136.677 386.527   3
 -11   5  -3 18322.5 1124.11   3
 -11   5  -3 17789.6 1370.08   1
 -11  -5  -2 29.3548 277.168   4
 -11   5  -2 540.328 702.281   1
 -11   5  -2-93.8742 401.109   3
 -11   5  -1 21385.9 1843.23   1
 -11  -5  -1 23887.0 1104.37   4
 -11  -5   0 678.503 419.081   4
 -11   5   0 1627.90 697.270   1
 -11   5   1 23404.8 1403.10   1
 -11  -5   1 24955.0 1279.74   4
 -11  -5   2 832.421 500.380   4
 -11   5   2 25.0725 397.075   1
 -11   5   3 18863.4 1231.29   1
 -11  -5   3 19359.5 1233.50   4
 -11  -5   4 1017.74 545.184   4
 -11   5   4 778.238 489.873   1
 -11   6  -3 25086.3 1408.19   3
 -11  -6  -2 2552.40 489.801   4
 -11   6  -2 3014.84 1009.02   1
 -11   6  -2 1399.62 489.293   3
 -11   6  -1 35077.1 2313.10   1
 -11   6  -1 39608.9 1735.07   3
 -11  -6  -1 37799.4 1510.07   4
 -11  -6   0 2566.17 550.846   4
 -11   6   0 4544.18 916.929   1
 -11   6   1 35670.1 1872.30   1
 -11  -6   1 38384.3 1669.58   4
 -11  -6   2 2032.02 600.849   4
 -11   6   2 2391.54 601.968   1
 -11   7  -1 4420.04 1007.01   1
 -11  -7  -1 5884.44 746.172   4
 -11   7   0 7353.90 1202.85   1
 -11  -7   0 5767.29 770.276   4
 -12   0  -4 125955. 3317.67   1
 -12   0  -3 636.515 569.489   1
  12   0  -2 201696. 3437.78   2
 -12   0  -2 257542. 5568.78   1
  12   0  -1 40.7797 193.623   2
 -12   0  -1 70.9599 386.282   1
 -12   0   0 358646. 4938.64   1
 -12   0   1-55.3491 461.907   1
  12   0   1 634.641 361.196   2
 -12   0   2 266947. 5190.75   1
  12   0   2 263684. 5047.94   3
 -12   0   3 332.738 443.657   1
  12   0   3 106.917 529.061   2
  12   0   3 432.324 315.505   3
 -12   0   4 132690. 3035.48   1
  12   0   4 129877. 4204.66   2
  12   0   5-616.259 806.355   2
 -12   0   5-418.320 481.263   1
  12   0   6 45228.4 3042.78   2
 -12   0   6 38995.4 1869.91   4
 -12   1  -4 61252.4 2535.22   1
  12  -1  -3 13978.1 1319.69   2
 -12  -1  -3 15557.0 1170.52   1
 -12   1  -3 14515.9 1547.93   1
  12   1  -2 92139.3 2342.93   2
 -12  -1  -2 113678. 3157.68   1
 -12   1  -2 96219.4 2905.14   1
  12  -1  -2 126273. 3217.10   2
  12   1  -2 113754. 3287.71   1
  12   1  -1 19504.0 1040.40   1
 -12  -1  -1 24304.4 1727.23   1
  12  -1  -1 22740.9 1059.37   2
 -12   1  -1 23486.6 1374.95   1
 -12  -1   0 118334. 3101.77   1
  12  -1   0 141441. 1433.82   2
 -12   1   1 22826.3 1568.28   1
  12  -1   1 24725.9 945.946   2
 -12  -1   1 21402.2 1149.46   1
 -12   1   2 120633. 3061.11   1
  12  -1   2 122393. 2834.95   2
 -12  -1   2 114624. 2652.97   1
 -12  -1   3 15887.8 1330.85   1
  12   1   3 11774.9 984.367   3
 -12   1   3 12446.8 937.015   1
  12  -1   3 14829.6 1292.07   2
  12   1   3 13727.2 1368.60   2
 -12  -1   4 62162.5 2470.81   1
 -12   1   4 58039.9 1711.90   2
 -12   1   4 59099.9 1848.88   1
  12  -1   4 67502.2 2932.08   2
 -12  -1   4 53916.8 2250.19   4
  12   1   4 65087.8 3248.14   2
 -12  -1   5 3451.94 665.417   4
 -12  -1   5 5542.92 767.122   1
  12   1   5 4014.68 1074.50   2
 -12   1   5 4772.19 619.628   2
  12  -1   5 5554.19 1065.62   2
 -12   1   5 4724.15 601.144   1
 -12   1   6 18879.3 1208.48   2
 -12  -1   6 19445.6 1282.84   4
  12  -1   6 22635.8 2091.91   2
 -12   1   6 21074.1 1185.44   1
  12   1   6 21330.7 2261.45   2
  12  -1   7 2202.80 925.546   2
 -12   2  -5 28095.0 1717.77   1
 -12   2  -4 12346.2 1401.52   1
 -12  -2  -3 69391.3 1615.65   4
  12  -2  -3 66393.5 2244.91   2
 -12  -2  -2 25635.9 1234.76   4
 -12   2  -2 25624.6 1476.23   1
  12  -2  -2 27998.6 1013.77   2
  12   2  -1 120990. 2686.58   1
 -12  -2  -1 117045. 2869.67   1
 -12   2   0 41291.5 2296.64   1
 -12  -2   0 41043.2 1815.25   1
 -12   2   1 126426. 3301.18   1
 -12  -2   1 119725. 3380.23   1
  12  -2   2 23903.8 700.984   2
 -12   2   2 28395.0 1426.04   1
 -12  -2   2 25399.7 1430.81   1
 -12  -2   2 25906.5 1482.94   4
 -12   2   3 68363.8 1470.09   2
  12  -2   3 62128.1 1782.20   2
 -12   2   3 68047.2 2000.39   1
 -12  -2   3 65641.4 1850.52   1
 -12  -2   3 62332.5 2215.50   4
 -12   2   4 11672.8 763.725   2
  12  -2   4 10792.5 1002.00   2
 -12   2   4 11494.3 874.349   1
 -12  -2   4 11019.5 979.082   4
 -12  -2   4 12792.6 801.666   1
  12   2   4 10396.7 1447.31   2
 -12   2   5 26416.7 1242.85   2
  12  -2   5 23959.9 1577.71   2
 -12   2   5 26519.8 1313.04   1
  12   2   5 27679.3 2511.99   2
 -12  -2   5 23607.8 1365.46   4
 -12  -2   6 3394.81 616.525   4
  12  -2   6 3345.93 769.384   2
  12   2   6 3990.90 1280.13   2
 -12   2   6 4089.00 640.152   2
 -12   2   6 4224.30 637.956   1
 -12   3  -5 24648.7 1722.46   1
 -12   3  -4 3919.47 920.988   1
 -12   3  -3 38611.6 1916.13   1
 -12  -3  -3 47955.2 1210.96   4
 -12  -3  -2 12527.4 748.985   4
 -12   3  -2 11101.2 1068.10   1
 -12   3  -1 81261.5 3486.10   1
  12   3  -1 88743.8 3009.34   1
 -12   3   0 15573.0 1392.03   1
 -12  -3   0 14566.3 990.836   4
 -12  -3   1 73981.0 1934.23   1
 -12   3   1 76906.5 2496.03   1
 -12  -3   1 72728.4 2193.97   4
 -12  -3   2 11876.2 766.314   1
 -12   3   2 11068.2 435.499   2
 -12   3   2 10600.7 888.171   1
 -12  -3   2 11489.8 965.853   4
 -12  -3   3 46935.2 1270.02   1
 -12   3   3 47169.4 1165.33   2
 -12   3   3 46741.0 1728.79   1
 -12  -3   3 42870.7 1753.34   4
 -12  -3   4 3695.27 636.172   4
  12   3   4 5128.42 1298.00   2
 -12   3   4 4711.72 482.185   2
 -12   3   4 5517.73 678.021   1
  12  -3   5 16681.7 1185.65   2
 -12   3   5 20130.4 1054.94   2
 -12  -3   5 19202.3 1245.51   4
  12   3   5 19693.8 2224.27   2
 -12   3   5 22140.8 1269.35   1
 -12  -3   6 2030.87 596.093   4
 -12   3   6 3189.01 626.203   1
 -12   4  -4 15211.3 1417.77   1
 -12   4  -3 40010.9 1958.35   1
 -12  -4  -3 46843.0 1247.07   4
 -12  -4  -2 42140.6 1334.72   4
 -12   4  -2 43088.0 2250.22   1
 -12   4  -1 68146.8 3333.70   1
 -12  -4  -1 70766.7 1861.52   4
 -12   4   0 49690.9 2377.59   1
 -12  -4   0 45778.6 1623.36   4
 -12   4   1 73796.3 2512.58   1
 -12  -4   1 71168.7 2134.69   4
 -12   4   2 41283.8 1749.63   1
 -12  -4   2 40318.4 1686.91   4
 -12   4   3 47249.9 1834.95   1
 -12  -4   3 43937.1 1784.34   4
 -12   4   4 25011.2 1377.66   1
 -12  -4   4 24103.8 1391.30   4
 -12  -4   5 19757.2 1313.63   4
 -12   4   5 20931.7 1323.18   1
  12   4   5 19608.4 2385.11   2
 -12   5  -4 15170.5 1094.72   3
 -12   5  -3 3683.32 610.698   3
 -12   5  -3 4409.15 792.724   1
 -12   5  -2 28946.9 2042.18   1
 -12  -5  -2 28541.0 1183.62   4
 -12   5  -1 5642.34 1097.48   1
 -12  -5  -1 7033.16 703.623   4
 -12   5   0 36175.0 2135.35   1
 -12  -5   0 35173.2 1495.13   4
 -12   5   1 5457.37 786.794   1
 -12  -5   1 6391.73 782.482   4
 -12   5   2 28131.7 1549.01   1
 -12  -5   2 29061.6 1524.04   4
 -12   5   3 4906.72 748.076   1
 -12  -5   3 5445.58 791.355   4
  12   5   4 20911.9 2737.81   2
 -12   6  -2 29139.4 2198.46   1
 -12   6  -2 25834.7 1464.29   3
 -12  -6  -2 27580.0 1279.16   4
 -12  -6  -1 330.429 400.371   4
 -12   6  -1-584.779 784.335   1
 -12   6   0 32791.9 2147.82   1
 -12  -6   0 30129.3 1498.12   4
 -12  -6   1-40.4702 488.026   4
 -12   6   1-386.840 669.153   1
 -12   6   2 24552.5 1571.96   1
 -12  -6   2 26443.1 1543.55   4
 -12   7  -1 6049.05 1228.81   1
 -12  -7  -1 7332.01 837.070   4
 -12   7   0 4089.23 998.614   1
 -13   0  -4 1472.00 686.721   1
 -13   0  -3 57451.7 2656.90   1
  13   0  -2-3.22627 233.872   2
 -13   0  -2-1051.14 707.515   1
  13   0  -1 76512.2 1590.72   2
 -13   0  -1 84039.7 2497.05   1
 -13   0   0 212.556 374.505   1
  13   0   1 95710.1 1936.63   2
 -13   0   1 103664. 2942.03   1
  13   0   2-21.1617 399.959   2
 -13   0   2-514.048 683.014   1
 -13   0   3 56224.1 2316.24   1
  13   0   3 56944.8 1981.81   3
 -13   0   4 1168.06 505.445   1
  13   0   4 179.463 642.643   2
 -13   0   5 25627.0 1492.66   1
  13   0   5 25460.5 2087.35   2
 -13   0   6-463.767 613.126   4
  13   0   6 2497.68 1155.20   2
 -13   1  -4 19667.3 1639.55   1
 -13   1  -3 18862.6 1563.62   1
  13  -1  -3 21976.5 1335.72   2
 -13  -1  -2 33924.2 1945.23   1
 -13   1  -2 30265.1 1625.28   1
  13  -1  -2 28782.1 1264.65   2
 -13  -1  -1 35871.2 2066.43   1
  13  -1  -1 31307.2 987.819   2
 -13  -1   0 35475.6 1659.95   1
  13  -1   0 34601.6 622.470   2
 -13   1   1 37024.9 2140.19   1
  13  -1   1 39350.3 1062.38   2
 -13  -1   1 35878.8 1471.60   1
 -13   1   2 33419.6 1783.07   1
  13  -1   2 32931.6 1302.34   2
 -13  -1   2 33843.6 1463.57   1
  13   1   2 37232.6 1702.86   2
 -13  -1   3 28926.4 1580.73   1
 -13   1   3 25788.9 1434.35   1
  13  -1   3 25493.1 1430.45   2
  13   1   3 29965.6 1992.62   2
 -13  -1   4 20266.0 1528.18   1
 -13   1   4 18643.7 1172.39   1
  13  -1   4 19762.4 1418.65   2
 -13   1   5 10562.5 886.472   2
 -13   1   5 10820.8 904.807   1
  13  -1   5 11917.3 1202.38   2
  13   1   5 13062.2 1752.82   2
 -13  -1   5 9492.17 1036.85   4
  13   1   6 9057.49 1607.53   2
 -13   1   6 7478.02 844.140   2
  13  -1   6 7253.21 1056.89   2
 -13   1   6 7170.08 778.022   1
 -13  -1   6 8262.09 968.357   4
 -13   2  -5 8649.84 1172.70   1
 -13   2  -4 57573.8 3161.84   1
 -13   2  -3 13939.3 1228.34   1
 -13  -2  -3 16251.0 927.046   4
  13  -2  -3 15403.0 943.323   2
  13  -2  -2 87609.9 1534.26   2
 -13  -2  -2 90900.2 2572.72   4
 -13   2  -2 91314.2 2698.12   1
 -13  -2  -1 27080.2 1547.39   1
 -13   2  -1 30162.4 1703.41   1
 -13   2   0 112964. 3921.45   1
 -13  -2   0 114279. 3367.52   1
 -13  -2   1 22194.0 1585.37   1
 -13  -2   1 22040.7 1503.04   4
  13  -2   2 86313.2 1165.32   2
 -13  -2   2 87238.0 2496.35   1
 -13  -2   2 87191.5 2901.76   4
 -13   2   3 16917.7 767.053   2
  13  -2   3 15777.7 819.974   2
 -13   2   3 16749.9 1118.87   1
 -13  -2   3 15585.6 944.337   1
 -13  -2   3 13804.0 1169.49   4
 -13   2   4 48692.5 1445.20   2
  13  -2   4 48371.0 1782.80   2
 -13   2   4 50107.2 1829.06   1
 -13  -2   4 46600.2 2038.72   4
 -13  -2   4 52103.3 1584.82   1
 -13   2   5 7073.08 686.941   2
  13  -2   5 5055.01 691.889   2
 -13   2   5 7126.81 770.733   1
 -13  -2   5 7051.78 873.641   4
 -13   2   6 18475.6 1158.89   2
 -13   2   6 19931.8 1251.29   1
 -13  -2   6 17532.8 1267.62   4
 -13   3  -5 774.566 680.064   1
 -13   3  -4 19532.8 1626.98   1
 -13  -3  -3 159.946 245.219   4
 -13   3  -3 289.296 431.262   1
 -13  -3  -2 44595.6 1496.40   4
 -13   3  -2 46766.3 2078.93   1
 -13  -3  -1 529.289 413.888   4
 -13   3  -1 89.6437 652.613   1
 -13   3   0 57519.2 2719.27   1
 -13  -3   0 51770.7 1931.23   4
 -13  -3   1 859.888 497.340   4
 -13  -3   1 1062.89 409.227   1
 -13   3   1 1713.10 669.616   1
 -13  -3   2 46308.7 1626.58   1
 -13   3   2 48831.8 1992.55   1
 -13  -3   2 43411.1 1881.91   4
 -13  -3   3-499.898 573.384   4
 -13   3   3 255.110 204.568   2
 -13  -3   3 803.565 331.277   1
 -13   3   3 165.965 362.031   1
  13   3   3 894.787 693.981   2
 -13   3   4 26901.1 1407.48   1
 -13  -3   4 23272.9 1418.21   4
 -13  -3   5-184.698 518.594   4
 -13   3   5 388.720 428.074   1
  13   3   5-101.884 1035.06   2
 -13   4  -4 8732.88 1104.14   1
 -13   4  -3 6954.86 899.732   1
 -13  -4  -3 8591.42 621.069   4
 -13  -4  -2 26021.2 1132.01   4
 -13   4  -2 28240.7 1789.84   1
 -13   4  -1 10781.9 1406.33   1
 -13  -4  -1 12091.2 877.247   4
 -13   4   0 33580.9 2111.13   1
 -13  -4   0 29688.9 1412.72   4
 -13   4   1 11633.5 1162.24   1
 -13  -4   1 10600.4 945.469   4
 -13   4   2 25971.0 1508.12   1
 -13  -4   2 24043.5 1398.17   4
 -13   4   3 7341.75 844.351   1
 -13  -4   3 6584.74 824.710   4
 -13   4   4 14447.4 1136.18   1
 -13  -4   4 13587.3 1149.26   4
 -13   5  -3 13917.1 1235.23   1
 -13  -5  -2 378.159 324.742   4
 -13   5  -2 793.053 649.131   1
 -13   5  -1 14168.1 1688.90   1
 -13  -5  -1 20047.4 1130.89   4
 -13   5   0 753.829 651.845   1
 -13  -5   0 1014.32 496.194   4
 -13   5   1 17450.5 1399.27   1
 -13  -5   1 18316.9 1253.87   4
 -13   5   2 149.090 510.178   1
 -13  -5   2 726.345 547.160   4
 -13   5   3 14196.1 1169.94   1
 -13  -5   3 14381.0 1189.03   4
 -13   6  -2 1716.51 771.538   1
 -13   6  -1 21920.8 2078.07   1
 -13  -6  -1 25550.3 1355.58   4
 -13  -6   0 800.718 467.933   4
 -13   6   0 1406.72 737.217   1
 -13   6   1 24928.7 1762.34   1
 -13  -6   1 27674.5 1568.58   4
 -13  -7  -1 6178.94 823.303   4
 -14   0  -4 35736.9 2134.44   1
 -14   0  -3-89.7937 704.454   1
  14   0  -2 40560.4 1365.71   2
 -14   0  -2 38858.0 2029.19   1
  14   0  -1 216.571 200.001   2
 -14   0  -1 61.8660 349.490   1
 -14   0   0 56570.3 1985.46   1
 -14   0   1 259.515 409.551   1
  14   0   1 228.940 231.114   2
 -14   0   2 54844.1 2621.39   1
  14   0   2 53685.4 1722.70   2
  14   0   3 389.244 449.055   2
 -14   0   3-262.489 607.966   1
 -14   0   4 34264.6 1849.59   1
  14   0   4 37802.4 2021.37   2
 -14   0   5 321.387 460.880   1
  14   0   5-636.744 608.472   2
  14   0   6 18228.0 1659.95   2
 -14   0   6 12757.8 1333.99   4
 -14   1  -5 2196.07 801.434   1
 -14   1  -4 11787.4 1455.92   1
 -14  -1  -3 1040.79 647.927   1
  14  -1  -3 594.295 316.223   2
 -14   1  -3 22.3519 554.695   1
 -14  -1  -2 12334.5 1351.33   1
 -14   1  -2 10283.6 980.768   1
  14  -1  -2 11350.9 714.412   2
  14   1  -1 370.650 230.228   2
  14  -1  -1 208.127 144.911   2
 -14  -1  -1-222.369 607.633   1
 -14   1  -1 452.633 425.587   1
 -14  -1   0 11215.5 950.679   1
  14  -1   0 9632.24 302.343   2
  14  -1   1 34.3039 120.521   2
 -14   1   1-618.838 706.622   1
 -14  -1   1 277.630 337.755   1
 -14   1   2 13665.1 1258.85   1
  14  -1   2 10554.6 639.562   2
 -14  -1   2 14870.3 1033.08   1
  14   1   2 13407.9 967.184   2
  14  -1   3 636.781 349.999   2
 -14  -1   3 1700.95 485.620   1
 -14   1   3 1024.23 533.537   1
  14   1   3-135.913 481.676   2
 -14  -1   4 7071.90 1066.50   4
 -14  -1   4 16053.6 1413.05   1
 -14   1   4 10388.3 982.110   1
  14  -1   4 10082.0 923.377   2
  14   1   4 15696.4 1534.84   2
 -14  -1   5-436.441 721.817   4
  14  -1   5 736.387 463.584   2
  14   1   5 1022.18 755.185   2
 -14   1   5 307.701 493.972   1
  14   1   6 8279.96 1416.81   2
 -14   1   6 7280.73 856.265   1
  14  -1   6 6602.78 926.628   2
 -14  -1   6 7218.88 988.319   4
 -14   2  -5 5634.07 1089.97   1
 -14   2  -4 1552.63 667.718   1
 -14   2  -3 5461.64 810.542   1
 -14  -2  -3 5932.94 666.841   4
  14  -2  -2 3102.77 279.973   2
 -14  -2  -2 2047.69 516.384   4
 -14  -2  -2 4863.19 854.143   1
 -14   2  -2 4092.01 686.171   1
 -14  -2  -1 9069.23 1072.87   1
 -14   2  -1 8764.68 969.401   1
 -14  -2   0 3326.69 777.354   1
 -14   2   0 3715.97 869.319   1
 -14   2   1 8016.26 1062.42   1
 -14  -2   1 6369.85 860.846   1
 -14   2   2 4964.67 826.506   1
 -14  -2   2 3605.66 566.947   1
 -14  -2   3 4530.61 792.542   4
 -14   2   3 6921.69 776.008   1
  14  -2   3 6446.20 500.319   2
 -14  -2   3 6675.20 662.381   1
  14   2   3 7635.65 965.717   2
 -14  -2   4 2481.88 698.477   4
 -14   2   4 2750.95 419.111   2
  14  -2   4 2602.95 460.732   2
  14   2   4 2943.01 852.070   2
 -14   2   4 2575.55 566.487   1
 -14   2   5 4346.68 667.427   1
 -14   2   5 4124.32 553.684   2
 -14  -2   5 5613.44 897.151   4
 -14  -2   6 703.117 543.897   4
 -14   2   6 1190.32 477.467   1
 -14   3  -5 8582.65 1388.08   1
 -14   3  -4 106.908 646.278   1
 -14   3  -3 5711.42 826.277   1
 -14  -3  -3 7277.10 602.105   4
 -14   3  -2 1304.73 556.336   1
 -14  -3  -2 801.244 366.410   4
 -14   3  -1 6949.26 1090.51   1
 -14  -3  -1 5879.55 745.725   4
 -14  -3   0 378.854 455.164   4
 -14  -3   0 1421.50 506.109   1
 -14   3   0 168.311 684.660   1
 -14   3   1 6712.46 979.012   1
 -14  -3   1 6506.00 800.290   1
 -14  -3   1 5403.18 835.587   4
 -14  -3   2 1393.69 594.799   4
 -14  -3   2 1129.53 468.021   1
 -14   3   3 6540.30 807.649   1
 -14  -3   3 7522.70 957.762   4
  14   3   3 7430.83 1037.38   2
 -14  -3   4-164.624 639.478   4
 -14   3   4 562.285 405.886   1
  14   3   4 751.708 771.039   2
 -14  -3   5 5086.46 798.515   4
 -14   3   5 6408.38 806.121   1
 -14   4  -4 4092.73 803.126   1
 -14   4  -3 12969.8 1142.78   1
 -14  -4  -2 9071.61 769.494   4
 -14   4  -2 8414.06 1057.44   1
 -14   4  -1 20394.4 1960.94   1
 -14  -4  -1 18028.3 1123.84   4
 -14   4   0 10402.8 1335.81   1
 -14  -4   0 9027.46 882.993   4
 -14   4   1 20965.6 1616.45   1
 -14  -4   1 16701.6 1210.50   4
 -14   4   2 7669.20 906.408   1
 -14  -4   2 7242.28 880.375   4
 -14   4   3 13326.4 1130.50   1
 -14  -4   3 12380.1 1123.65   4
 -14   4   4 5834.21 814.792   1
 -14  -4   4 5444.09 835.483   4
  14   4   4 6983.32 1300.72   2
 -14   5  -3 3194.77 701.370   1
 -14  -5  -2 7217.88 730.823   4
 -14   5  -2 6562.67 1014.67   1
 -14   5  -1 2002.91 773.620   1
 -14  -5  -1 4188.83 653.276   4
 -14   5   0 5475.43 1046.38   1
 -14  -5   0 6103.23 814.534   4
 -14  -5   1 3615.37 737.859   4
 -14   5   1 4315.68 951.922   1
 -14   5   2 5286.81 848.164   1
 -14  -5   2 5892.81 896.236   4
 -14  -5   3 3788.81 805.316   4
 -14   5   3 2400.16 615.864   1
  14   5   3 4359.64 1038.92   2
 -14   6  -2 8193.52 1172.94   1
 -14  -6  -1-328.911 473.821   4
 -14   6  -1-1250.25 977.309   1
 -14   6   0 8262.50 1278.65   1
 -14  -6   0 7637.88 897.975   4
 -14  -6   1 1980.99 720.623   4
 -14   6   1 1188.72 782.898   1
 -15   0  -4 239.345 695.407   1
 -15   0  -3 1929.31 730.326   1
  15   0  -2-23.3349 201.337   2
 -15   0  -2-345.656 549.802   1
  15   0  -1 1431.69 267.506   2
 -15   0  -1 811.117 444.177   1
 -15   0   0 355.054 401.700   1
 -15   0   1 1641.83 487.360   1
  15   0   1 886.566 254.957   2
  15   0   2-136.243 285.457   2
 -15   0   2 91.5210 506.403   1
  15   0   3 1817.99 492.343   2
 -15   0   3 1143.20 531.868   1
  15   0   4-131.471 398.112   2
 -15   0   4-296.201 511.144   1
  15   0   5 2263.05 602.208   2
 -15   0   5 3211.42 716.193   1
 -15   0   6-566.062 844.003   4
  15   0   6 626.328 635.347   2
 -15   1  -5 4372.35 1019.75   1
 -15   1  -4 2001.61 809.597   1
 -15  -1  -3 1858.46 786.091   1
 -15   1  -3 582.330 513.345   1
 -15  -1  -2 1615.16 661.587   1
 -15   1  -2 1624.51 517.779   1
  15  -1  -2 1923.11 316.435   2
  15   1  -1 687.856 248.740   2
  15  -1  -1 475.759 147.894   2
 -15  -1  -1 180.215 478.099   1
 -15   1  -1 350.740 423.340   1
 -15   1   0 1350.27 503.614   1
 -15  -1   0 1507.32 474.872   1
  15  -1   1 176.872 103.905   2
 -15   1   1 442.265 580.652   1
 -15  -1   1 762.906 379.654   1
  15  -1   2 1544.13 264.821   2
  15   1   2 1790.14 447.039   2
 -15   1   2 1296.51 596.712   1
 -15  -1   2 2564.74 517.949   1
 -15   1   3 1861.52 605.569   1
 -15  -1   3 2007.19 486.228   1
  15  -1   3 1346.06 348.510   2
  15   1   3 941.314 427.415   2
 -15  -1   4 4010.34 690.400   1
  15  -1   4 2168.61 447.302   2
  15   1   4 3650.01 769.229   2
 -15   1   4 4062.10 798.968   1
 -15  -1   5 2246.54 728.617   4
  15  -1   5 2904.08 568.721   2
  15   1   5 2716.34 802.436   2
 -15   1   5 4712.63 813.844   1
 -15  -1   6 2564.31 772.372   4
  15   1   6 2064.83 790.634   2
 -15   2  -5 3051.26 992.785   1
 -15   2  -4 6722.27 1022.48   1
 -15  -2  -3 2864.20 577.786   4
 -15   2  -3 3024.71 663.447   1
 -15  -2  -2 14408.3 1385.53   1
 -15   2  -2 13281.9 1096.36   1
 -15  -2  -1 4775.36 917.468   1
 -15   2  -1 4452.34 751.405   1
 -15   2   0 18156.8 1746.42   1
 -15  -2   0 11104.7 1236.51   1
 -15  -2   1 3771.13 654.532   1
 -15   2   1 4067.00 905.492   1
  15   2   2 13051.2 979.361   2
 -15   2   2 14211.4 1311.40   1
 -15  -2   2 12794.5 961.413   1
 -15  -2   2 10514.9 1321.73   4
  15   2   3 3698.42 682.768   2
 -15   2   3 4866.98 869.179   1
 -15  -2   3 4064.88 555.220   1
 -15   2   4 10996.5 1028.91   1
 -15  -2   4 10093.3 1204.44   4
  15   2   4 12401.3 1249.17   2
 -15  -2   5 2759.73 805.929   4
  15   2   5 3779.96 973.638   2
 -15   2   5 1760.58 532.514   1
 -15   2   6 6911.64 903.744   1
 -15   3  -5-45.9987 805.088   1
 -15   3  -4 3819.17 802.094   1
 -15  -3  -3 197.304 325.509   4
 -15   3  -3 629.443 471.323   1
 -15  -3  -2 4599.86 702.001   4
 -15   3  -2 3770.61 725.874   1
 -15  -3  -1 579.601 498.502   4
 -15   3  -1 886.582 653.035   1
 -15  -3   0 2313.92 682.577   4
 -15  -3   0 3310.05 711.340   1
 -15   3   0 1386.83 690.690   1
 -15  -3   1 486.464 568.143   4
 -15  -3   1 569.925 490.660   1
 -15   3   1 583.639 561.538   1
 -15  -3   2 3226.86 790.752   4
 -15   3   2 4799.57 902.941   1
 -15  -3   2 3709.51 720.228   1
 -15  -3   3 1052.96 619.711   4
  15   3   3 981.728 557.300   2
 -15   3   3-422.222 615.635   1
 -15  -3   4 4257.29 776.473   4
  15   3   4 5562.64 982.266   2
 -15   3   4 5252.00 785.713   1
 -15   3   5-191.349 497.722   1
  15   3   5 1902.11 880.269   2
 -15   4  -4 2289.68 661.706   1
 -15   4  -3 732.343 507.432   1
 -15   4  -2 3433.29 743.050   1
 -15  -4  -2 4027.68 619.809   4
 -15  -4  -1 28.8493 469.746   4
 -15   4  -1 355.179 752.544   1
 -15  -4   0 2639.76 596.573   4
 -15   4   0 3373.41 917.874   1
 -15  -4   1-1027.90 703.145   4
 -15   4   1 569.381 604.034   1
 -15  -4   2 2199.10 623.642   4
 -15   4   2 3370.67 788.812   1
 -15  -4   3 32.7813 590.624   4
  15   4   3 1340.54 643.256   2
 -15   4   3-284.451 630.188   1
 -15   4   4 2662.96 639.552   1
  15   4   4 3609.40 905.330   2
 -15   5  -3 2395.19 671.647   1
 -15  -5  -2 1096.50 473.719   4
 -15   5  -2-820.900 678.083   1
 -15  -5  -1 2893.64 649.780   4
 -15   5  -1 1743.88 846.123   1
 -15  -5   0 507.280 513.111   4
 -15   5   0-147.407 637.791   1
 -15  -5   1 2267.72 688.141   4
 -15   5   1 2402.92 831.748   1
 -15  -5   2 791.898 633.750   4
 -15   5   2-765.493 755.891   1
 -15   6  -2 908.814 613.480   1
 -15   6  -1 7056.61 1334.82   1
 -15  -6  -1 7791.88 886.292   4
 -15  -6   0 1954.23 679.208   4
 -16   0  -4 23754.2 2137.77   1
 -16   0  -3-549.235 714.810   1
  16   0  -2 25748.0 1032.00   2
 -16   0  -2 26966.1 1623.45   1
  16   0  -1 56.6912 162.547   2
 -16   0  -1 300.348 385.649   1
 -16   0   0 32071.7 1529.11   1
 -16   0   1-136.174 415.468   1
  16   0   1 39.0167 194.816   2
 -16   0   2 33883.8 1856.69   1
  16   0   2 30746.5 1137.34   2
  16   0   3 238.570 318.700   2
 -16   0   3-385.276 669.690   1
 -16   0   4 20113.1 1709.18   1
  16   0   4 21472.9 1233.47   2
  16   0   5-721.885 505.266   2
 -16   0   5-678.456 641.018   1
 -16   0   6 8584.29 1365.80   4
 -16   1  -5 1176.88 862.684   1
 -16   1  -4 5748.52 1040.58   1
 -16  -1  -3 889.664 716.007   1
 -16   1  -3 830.553 548.993   1
 -16  -1  -2 6331.68 979.982   1
 -16   1  -2 9750.50 943.628   1
 -16  -1  -1 869.953 521.905   1
 -16   1  -1 1123.76 470.752   1
 -16  -1   0 9217.44 868.490   1
 -16   1   0 10318.5 1002.23   1
  16  -1   1 530.969 107.868   2
 -16  -1   1 1058.44 415.822   1
 -16   1   2 8809.03 1200.98   1
  16  -1   2 9098.92 495.911   2
 -16  -1   2 11271.9 930.829   1
  16   1   2 10425.3 783.187   2
 -16  -1   3 937.357 416.780   1
  16  -1   3 1069.50 299.677   2
  16   1   3 534.379 354.901   2
 -16   1   3 1164.58 635.077   1
 -16  -1   4 7462.85 1326.60   4
 -16   1   4 10088.9 1170.37   1
  16   1   4 10095.4 1001.11   2
 -16  -1   4 9157.51 917.451   1
 -16  -1   5-300.967 849.602   4
  16   1   5 1225.73 593.653   2
 -16   1   5 1315.89 636.737   1
  16   1   6 4916.81 864.294   2
 -16   2  -5 3573.50 1023.15   1
 -16   2  -4 1198.51 646.592   1
 -16  -2  -3 4915.41 811.456   4
 -16   2  -3 5270.81 787.330   1
 -16  -2  -2 1897.92 792.193   1
 -16   2  -2 2596.60 611.993   1
 -16  -2  -1 5948.27 1133.77   1
 -16   2  -1 6086.51 830.260   1
 -16   2   0 2828.98 783.521   1
 -16  -2   0 2171.17 684.552   1
 -16   2   1 4210.77 934.467   1
 -16  -2   1 6152.94 798.214   1
 -16  -2   2 894.097 919.616   4
  16   2   2 2329.73 477.796   2
 -16  -2   2 2064.07 467.125   1
 -16   2   2 2212.53 719.699   1
 -16  -2   3 5253.11 1040.57   4
 -16   2   3 7062.93 986.572   1
 -16  -2   3 6002.17 653.028   1
  16   2   3 5800.50 742.663   2
 -16  -2   4 1137.33 687.179   4
  16   2   4 1436.33 566.655   2
 -16  -2   5 4035.00 931.649   4
 -16   2   5 3141.25 656.922   1
  16   2   5 5292.68 956.903   2
 -16   3  -5 3242.15 873.581   1
 -16   3  -4 1088.16 609.143   1
 -16   3  -3 5900.64 821.699   1
 -16  -3  -3 5972.65 674.482   4
 -16  -3  -2 1661.39 610.632   4
 -16   3  -2 1500.71 569.807   1
 -16  -3  -1 6546.32 957.362   4
 -16   3  -1 8902.94 1104.96   1
 -16  -3   0 1263.88 687.413   4
 -16  -3   0 1379.59 628.281   1
 -16   3   0 571.584 705.927   1
 -16   3   1 6605.48 1084.61   1
 -16  -3   1 5570.13 913.819   1
 -16  -3   1 6401.42 1046.73   4
 -16  -3   2 1278.06 663.181   4
 -16   3   2 1895.88 730.609   1
 -16  -3   2 712.190 480.526   1
 -16   3   3 9100.79 1142.90   1
 -16  -3   3 5933.89 1005.77   4
  16   3   3 6458.85 878.124   2
 -16  -3   4-485.731 876.924   4
  16   3   4 801.814 599.848   2
 -16   3   4-164.393 618.658   1
  16   3   5 7303.98 1122.82   2
 -16   4  -4 3710.23 763.299   1
 -16   4  -3 9690.25 1023.87   1
 -16  -4  -2 6930.55 804.015   4
 -16   4  -2 7308.11 999.588   1
 -16   4  -1 15514.0 1608.58   1
 -16  -4  -1 9875.45 993.310   4
 -16   4   0 6557.83 1212.10   1
 -16  -4   0 6364.82 898.897   4
 -16   4   1 12438.9 1457.94   1
 -16  -4   1 9655.43 1130.49   4
 -16  -4   2 5163.60 912.056   4
 -16   4   2 8636.86 1181.51   1
  16   4   3 9781.42 1097.44   2
 -16  -4   3 6665.11 989.251   4
 -16   4   3 9773.76 1122.08   1
  16   4   4 5034.97 947.204   2
 -16   5  -3 1209.02 560.047   1
 -16   5  -2 4401.17 852.557   1
 -16  -5  -2 6742.37 822.533   4
 -16  -5  -1 2073.73 631.918   4
 -16   5  -1 1643.47 976.113   1
 -16   5   0 5491.20 1180.66   1
 -16  -5   0 5680.58 885.065   4
 -16   5   1 1583.16 793.625   1
 -16  -5   1 1364.35 677.116   4
 -16  -6  -1-595.792 621.595   4
 -16  -6   0 8688.67 1075.32   4
 -17   0  -4-398.619 856.924   1
 -17   0  -3 26043.9 1880.25   1
 -17   0  -2 541.433 493.359   1
 -17   0  -1 42312.7 1782.25   1
 -17   0   0 208.151 405.413   1
 -17   0   1 52828.7 2085.76   1
  17   0   1 44563.3 1148.98   2
 -17   0   2 356.573 466.131   1
  17   0   2 238.080 232.628   2
 -17   0   3 37597.1 2259.39   1
  17   0   3 22514.4 1076.26   2
  17   0   4 148.139 284.657   2
 -17   0   4-574.933 741.329   1
 -17   1  -5 7217.28 1349.50   1
 -17   1  -4 7050.39 1082.16   1
 -17  -1  -3 13009.2 1538.46   1
 -17   1  -3 14906.5 1300.08   1
 -17  -1  -2 13692.7 1377.03   1
 -17   1  -2 15771.0 1172.04   1
 -17  -1  -1 21403.9 1421.79   1
 -17   1  -1 23160.7 1372.50   1
 -17  -1   0 17348.2 1159.77   1
 -17   1   0 20924.0 1396.98   1
 -17   1   1 26745.4 1739.09   1
 -17  -1   1 22524.0 1246.75   1
 -17   1   2 16324.7 1669.98   1
 -17  -1   2 15599.7 1068.31   1
  17   1   2 15963.3 912.926   2
 -17   1   3 15419.2 1560.07   1
  17   1   3 14216.0 953.775   2
 -17  -1   3 16583.1 1151.12   1
 -17  -1   4 8221.01 1476.49   4
 -17   1   4 10453.3 1253.38   1
  17   1   4 10307.3 952.641   2
 -17  -1   4 6812.49 758.972   1
 -17  -1   5 6329.23 1328.34   4
 -17   1   5 8165.16 1144.40   1
  17   1   5 7250.85 893.101   2
 -17   2  -5 1542.05 680.134   1
 -17   2  -4 23643.0 1773.18   1
 -17  -2  -3 6772.35 1063.08   4
 -17   2  -3 6389.28 871.652   1
 -17  -2  -2 51634.1 2972.88   1
 -17   2  -2 46345.5 1966.25   1
 -17  -2  -1 6836.42 1109.93   1
 -17   2  -1 11035.7 1109.68   1
 -17  -2   0 52422.9 2338.99   1
 -17   2   0 63443.7 2728.45   1
 -17   2   1 10191.2 1380.81   1
 -17  -2   1 10176.0 973.150   1
  17   2   2 42726.7 1592.73   2
 -17   2   2 46713.3 2682.94   1
 -17  -2   2 41116.5 1660.64   1
 -17  -2   2 45998.3 3115.08   4
 -17  -2   3 5416.05 1151.98   4
 -17   2   3 7859.93 1130.19   1
 -17  -2   3 4719.67 574.819   1
  17   2   3 6869.12 778.344   2
 -17   2   4 28303.4 1900.77   1
 -17  -2   4 22277.5 2013.82   4
  17   2   4 23471.9 1460.94   2
  17   2   5 3941.94 795.991   2
 -17   2   5 5480.65 1016.65   1
 -17   3  -4 15782.1 1385.67   1
 -17   3  -3 291.647 439.619   1
 -17  -3  -2 25079.7 1682.18   4
 -17   3  -2 26800.4 1637.36   1
 -17  -3  -1-502.572 656.886   4
 -17   3  -1-995.092 733.613   1
 -17  -3   0 31203.3 2125.38   1
 -17  -3   0 28061.4 2113.20   4
 -17  -3   1-331.755 700.225   4
 -17  -3   1-679.408 800.203   1
 -17   3   1-246.322 728.094   1
 -17  -3   2 17899.0 1704.25   1
 -17  -3   2 21969.5 1869.17   4
 -17  -3   3-242.274 675.130   4
 -17   3   3 1135.17 701.535   1
  17   3   3 324.933 452.295   2
 -17   3   4 19584.3 1623.60   1
  17   3   4 15731.1 1299.54   2
 -17   4  -4 5192.17 859.066   1
 -17   4  -3 5646.77 864.887   1
 -17  -4  -2 11837.0 1092.45   4
 -17   4  -2 12902.9 1282.44   1
 -17  -4  -1 6931.90 937.798   4
 -17   4  -1 10612.6 1328.39   1
 -17   4   0 12769.4 1686.06   1
 -17  -4   0 11127.7 1236.65   4
 -17  -4   1 7568.92 1076.58   4
 -17   4   1 8015.26 1273.79   1
 -17   4   2 13383.7 1464.32   1
 -17  -4   2 7779.08 1110.43   4
  17   4   3 5971.15 862.797   2
 -17   5  -2-155.394 566.198   1
 -17   5  -1 15669.8 1696.87   1
 -17  -5  -1 12319.7 1197.21   4
 -17  -5   0 414.784 590.795   4
 -17   5   0-631.665 961.947   1
 -17  -5   1 11723.7 1339.05   4
 -18   0  -4 27859.5 2117.54   1
 -18   0  -3 286.384 536.008   1
 -18   0  -2 69629.9 2516.17   1
 -18   0  -1 95.9206 375.065   1
 -18   0   0 90082.9 2566.64   1
  18   0   1 80.3996 181.111   2
 -18   0   1-139.583 424.190   1
 -18   0   2 77504.1 2622.70   1
 -18   0   3 579.727 567.200   1
 -18   0   4 45927.3 2649.93   1
 -18   1  -4 17791.4 1610.61   1
 -18  -1  -3 3960.83 856.785   1
 -18   1  -3 7249.61 973.593   1
 -18  -1  -2 36216.0 2066.13   1
 -18   1  -2 37383.6 1771.52   1
 -18  -1  -1 10170.0 1033.13   1
 -18   1  -1 10785.9 982.358   1
 -18  -1   0 44037.5 1807.19   1
 -18   1   0 53822.5 2237.21   1
 -18  -1   1 10160.0 903.262   1
 -18   1   1 12040.5 1185.34   1
 -18  -1   2 38869.5 1634.04   1
  18   1   2 37727.5 1330.66   2
 -18   1   3 4332.62 925.653   1
 -18  -1   3 6397.73 759.060   1
  18   1   3 5792.04 626.830   2
 -18   1   4 20512.9 1881.23   1
  18   1   4 21458.9 1262.58   2
 -18   1   5 2314.32 749.158   1
 -18   2  -4 3952.97 846.751   1
 -18   2  -3 25098.1 1545.86   1
 -18  -2  -3 23185.7 1691.15   4
 -18  -2  -2 6191.07 1110.28   1
 -18   2  -2 7768.41 897.166   1
 -18  -2  -1 35080.1 2192.18   1
 -18   2  -1 42965.0 2027.27   1
 -18  -2   0 10133.5 1082.21   1
 -18   2   0 12303.5 1237.50   1
 -18   2   1 50056.7 2914.94   1
 -18  -2   1 38468.0 1750.72   1
  18   2   2 8038.69 720.550   2
 -18  -2   2 9554.52 1648.05   4
 -18   2   2 7516.75 1212.82   1
 -18  -2   2 7401.35 762.571   1
 -18   2   3 26360.1 2037.46   1
 -18  -2   3 23296.9 2323.13   4
  18   2   3 24222.6 1270.03   2
 -18   2   4 4792.25 962.217   1
 -18  -2   4 2078.52 1040.40   4
  18   2   4 3822.74 672.681   2
  18   2   5 11534.3 1129.69   2
 -18   3  -4 2181.43 673.308   1
 -18   3  -3 20910.2 1409.54   1
 -18  -3  -2 2184.37 754.428   4
 -18   3  -2 2548.70 612.646   1
 -18  -3  -1 30579.1 2246.21   4
 -18   3  -1 35011.6 1976.50   1
 -18  -3   0 1394.87 871.275   4
 -18  -3   0 2157.36 800.422   1
 -18   3   0 3928.20 995.730   1
 -18   3   1 28326.4 2302.22   1
 -18  -3   1 29104.2 2129.80   1
 -18  -3   1 29413.3 2410.67   4
 -18  -3   2 1205.96 800.030   4
 -18  -3   2 1011.69 498.180   1
 -18   3   2 2063.17 784.745   1
 -18   3   3 22286.7 1844.56   1
 -18  -3   3 18460.4 1858.89   4
  18   3   3 19323.4 1299.77   2
  18   3   4 1055.08 514.530   2
 -18   4  -3 14230.7 1227.52   1
 -18  -4  -2 12906.9 1212.10   4
 -18   4  -2 13206.9 1264.71   1
 -18  -4  -1 18709.0 1560.55   4
 -18   4  -1 23308.7 1811.00   1
 -18   4   0 17938.4 1934.29   1
 -18  -4   0 10762.0 1338.84   4
 -18   4   1 20163.0 2018.78   1
 -18  -4   1 18187.0 1746.33   4
 -18  -4   2 9751.75 1307.74   4
  18   4   3 14017.4 1182.66   2
 -18  -5  -1 3618.29 850.784   4
 -18  -5   0 14032.1 1445.86   4
 -19   0  -3 18994.0 1505.12   1
 -19   0  -2 421.189 483.464   1
 -19   0  -1 27091.5 1472.39   1
 -19   0   0 121.698 381.549   1
 -19   0   1 30927.5 1602.47   1
 -19   0   2-264.887 516.190   1
 -19   0   3 20658.5 1486.19   1
 -19   0   4 818.078 580.704   1
 -19   1  -4 5775.92 982.257   1
 -19  -1  -3 8445.24 1163.14   1
 -19   1  -3 11069.1 1129.28   1
 -19  -1  -2 9885.35 1129.59   1
 -19   1  -2 11065.1 1025.21   1
 -19  -1  -1 16615.8 1251.15   1
 -19   1  -1 15725.4 1174.08   1
 -19  -1   0 12491.8 1014.82   1
 -19   1   0 14469.3 1198.01   1
 -19  -1   1 16193.7 1104.04   1
 -19   1   1 17318.2 1363.82   1
 -19   1   2 12366.8 1321.36   1
 -19  -1   2 10941.6 920.617   1
 -19   1   3 11339.9 1471.86   1
 -19  -1   3 11498.7 962.179   1
 -19   1   4 4378.28 1030.01   1
 -19   1   5 4342.91 1026.33   1
 -19   2  -3 4714.11 775.726   1
 -19   2  -2 24575.6 1501.44   1
 -19  -2  -2 22727.0 1581.85   4
 -19  -2  -1 5561.97 896.200   1
 -19   2  -1 7956.86 951.517   1
 -19  -2   0 25918.9 1568.39   1
 -19   2   0 30249.6 1815.63   1
 -19   2   1 8634.56 1217.48   1
 -19  -2   1 7107.45 845.002   1
 -19   2   2 24393.1 2112.68   1
 -19  -2   2 21736.5 1245.38   1
  19   2   2 21733.1 1099.45   2
 -19  -2   3 4949.80 1328.83   4
 -19   2   3 4705.57 1074.46   1
  19   2   3 4733.71 645.191   2
 -19   2   4 14735.8 1620.37   1
  19   2   4 13737.7 1057.86   2
 -19   3  -3 478.720 494.100   1
 -19   3  -2 17703.8 1341.95   1
 -19  -3  -2 16688.6 1711.17   4
 -19   3  -1-241.726 605.400   1
 -19  -3  -1-1277.39 1259.26   4
 -19  -3   0 18512.6 1767.20   1
 -19  -3   0 19624.0 2272.68   4
 -19   3   0 25409.6 1915.29   1
 -19  -3   1-2343.26 1425.80   4
 -19  -3   1-870.743 719.035   1
 -19   3   1-610.994 825.749   1
  19   3   2 15786.1 1066.54   2
 -19   3   2 18535.6 1914.50   1
 -19  -3   2 14864.4 1892.62   4
  19   3   3 36.8628 378.031   2
  19   3   4 9988.91 995.446   2
 -19  -4  -1 2832.76 819.569   4
 -19   4  -1 3506.55 791.790   1
 -19   4   0 13485.4 1725.36   1
 -19  -4   0 7928.67 1250.31   4
 -19  -4   1 1723.96 907.412   4
 -19  -5  -1 9361.70 1225.53   4
 -20   0  -3 22.4063 478.573   1
 -20   0  -2 9347.43 1015.07   1
 -20   0  -1 284.251 443.602   1
 -20   0   0 11497.9 1003.95   1
 -20   0   1-95.2124 389.003   1
 -20   0   2 10886.6 1082.64   1
 -20   0   3-794.064 617.810   1
 -20   0   4 9327.87 1097.88   1
 -20  -1  -3-398.766 719.510   1
 -20   1  -3 1172.78 580.891   1
 -20  -1  -2 4688.29 803.395   1
 -20   1  -2 5157.74 758.004   1
 -20  -1  -1 695.281 494.961   1
 -20   1  -1 595.225 466.833   1
 -20  -1   0 4796.98 694.180   1
 -20   1   0 5250.93 798.201   1
 -20   1   1-354.211 554.339   1
 -20  -1   1 469.935 380.002   1
 -20  -1   2 4976.85 682.948   1
 -20   1   2 6278.17 994.825   1
 -20   1   3 515.736 661.107   1
 -20  -1   3 331.391 373.447   1
 -20   1   4 4246.33 1016.95   1
 -20  -2  -2 2043.31 688.445   4
 -20  -2  -2-49.5572 781.106   1
 -20   2  -2 1591.38 544.862   1
 -20  -2  -1 2339.75 658.961   1
 -20   2  -1 3985.48 732.778   1
 -20   2   0 695.287 486.560   1
 -20  -2   0 1162.89 535.194   1
 -20  -2   1 4060.79 680.371   1
 -20  -2   1 4812.04 988.650   4
 -20   2   1 4889.77 973.997   1
 -20  -2   2 2199.10 879.705   4
  20   2   2 1058.26 368.123   2
 -20   2   2 930.342 759.461   1
 -20  -2   2 1673.65 493.750   1
 -20   2   3 2050.06 796.228   1
 -20  -3  -2-568.182 896.239   4
 -20  -3  -1 2324.10 910.070   4
 -20   3  -1 3455.67 745.953   1
 -20  -3   0-263.670 928.132   4
 -20   3   0 1098.87 591.214   1
 -20  -3   0-964.962 840.964   1
 -20  -3   1 2692.81 1081.11   4
 -20  -3   1 1673.56 603.746   1
 -20   3   1 3796.47 1138.13   1
  20   3   2 342.070 370.748   2
  20   3   3 2981.54 600.023   2
 -20  -4  -1 2613.36 894.856   4
 -20  -4   0-366.174 1243.07   4
 -21   0  -2 64.5892 437.842   1
 -21   0  -1 1006.76 495.356   1
 -21   0   0 152.553 400.390   1
 -21   0   1 1138.87 469.028   1
 -21   0   2-230.052 461.484   1
 -21   0   3 856.960 490.727   1
 -21  -1  -2 405.823 466.369   1
 -21   1  -2 805.161 476.667   1
 -21  -1  -1 647.021 476.465   1
 -21   1  -1 545.372 486.976   1
 -21  -1   0 524.650 405.258   1
 -21   1   0 354.351 454.751   1
 -21  -1   1 680.836 431.688   1
 -21   1   1-3.55399 505.298   1
 -21   1   2-596.591 687.348   1
 -21  -1   2 809.385 453.059   1
 -21   1   3 2193.20 761.819   1
 -21  -1   3 1326.31 467.173   1
 -21  -2  -2 1492.08 661.767   1
 -21  -2  -2 4038.33 765.617   4
 -21  -2  -1 772.803 486.605   1
 -21   2  -1 869.410 501.540   1
 -21  -2   0 2945.12 624.683   1
 -21   2   0 2648.39 688.778   1
 -21   2   1 268.330 530.868   1
 -21  -2   1 1097.21 495.032   1
 -21   2   2 3403.90 972.673   1
 -21  -2   2 2871.83 555.137   1
 -21  -3  -2 930.090 648.957   4
 -21  -3  -1 408.479 691.705   4
 -21  -3   0 1363.29 789.460   4
 -21  -3   0 3.74153 639.057   1
 -21  -3   1-732.123 619.941   1
  21   3   2 1429.20 440.974   2
 -21  -4  -1-1378.59 1204.17   4
 -22   0  -1 115.384 397.844   1
 -22   0   0 7096.45 828.833   1
 -22   0   1 6.69788 383.338   1
 -22   0   2 7005.15 853.445   1
 -22   0   3-571.600 546.333   1
 -22  -1  -1 853.930 492.716   1
 -22  -1   0 4242.29 690.721   1
 -22   1   0 3763.14 703.347   1
 -22  -1   1 1312.84 488.595   1
 -22   1   1 611.227 491.575   1
 -22   1   2 2199.98 629.243   1
 -22  -1   2 4206.66 658.756   1
 -22  -2  -2 2008.86 623.754   4
 -22  -2  -1 1499.57 565.430   1
 -22  -2  -1 4304.45 822.904   4
 -22  -2   0 2630.42 748.579   4
 -22  -2   0 452.343 469.125   1
 -22  -2   1 2692.44 600.658   1
 -22  -3  -1 3564.79 855.599   4
 -22  -3   0-812.599 670.790   1
 -23   0   1 13833.0 1120.14   1
 -23   0   2 235.175 440.997   1
 -23  -1   0 4777.17 716.861   1
 -23  -1   1 8352.02 868.138   1
 -23  -1   2 4178.97 654.498   1
 -23  -2  -1 4650.01 795.842   4
 -23  -2   0 12437.1 1093.89   1
 -23  -2   1 2666.42 594.266   1
   0   0   0    0.00    0.00   0

TITL MHy_PbBr3_HT_1_300_00-abs in Pmn2(1)
REM Pmn2(1) (#31, found as P2(1)nm in -cba setting)
CELL 0.71073  17.817667   6.055473   6.015461  90.0000  90.0000  90.0000
ZERR    1.00   0.000980   0.000303   0.000286   0.0000   0.0000   0.0000
LATT -1
SYMM -x+1/2,-y, z+1/2
SYMM  x+1/2,-y, z+1/2
SYMM -x, y, z
SFAC C H N Br Pb
UNIT 6.00 42.00 12.00 12.00 3.00
TREF
HKLF 4
END
;
_shelx_hkl_checksum              96517
loop_
_space_group_symop_operation_xyz
'x, y, z'
'-x+1/2, -y, z+1/2'
'x+1/2, -y, z+1/2'
'-x, y, z'
loop_
_atom_site_label
_atom_site_type_symbol
_atom_site_fract_x
_atom_site_fract_y
_atom_site_fract_z
_atom_site_U_iso_or_equiv
_atom_site_adp_type
_atom_site_occupancy
_atom_site_site_symmetry_order
_atom_site_calc_flag
_atom_site_refinement_flags_posn
_atom_site_refinement_flags_adp
_atom_site_refinement_flags_occupancy
_atom_site_disorder_assembly
_atom_site_disorder_group
Pb1 Pb 0.000000 0.91165(5) 0.81781(2) 0.02585(16) Uani 1 2 d S T P . .
Br1 Br 0.000000 0.8550(2) 0.3129(6) 0.0459(3) Uani 1 2 d S T P . .
Br2 Br -0.16707(6) 0.90672(16) 0.8026(6) 0.0514(4) Uani 1 1 d . . . . .
Br3 Br 0.000000 0.42141(19) 0.7973(8) 0.0573(7) Uani 1 2 d S T P . .
N1 N 0.2139(10) 0.6363(17) 0.283(2) 0.085(5) Uani 1 1 d D . . . .
H1B H 0.182(7) 0.686(13) 0.182(19) 0.127 Uiso 1 1 d D U . . .
H1A H 0.227(2) 0.749(8) 0.370(7) 0.127 Uiso 1 1 d D U . . .
N2 N 0.1691(9) 0.508(2) 0.421(2) 0.089(4) Uani 1 1 d . . . . .
H2A H 0.197717 0.454040 0.528788 0.106 Uiso 1 1 calc R U . . .
H2B H 0.135125 0.596016 0.483601 0.106 Uiso 1 1 calc DR U . . .
C3 C 0.1315(6) 0.3334(18) 0.320(5) 0.064(3) Uani 1 1 d . . . . .
H3A H 0.095022 0.390024 0.217334 0.096 Uiso 1 1 calc R U . . .
H3B H 0.106757 0.246630 0.431511 0.096 Uiso 1 1 calc R U . . .
H3C H 0.166922 0.242740 0.241398 0.096 Uiso 1 1 calc R U . . .
loop_
_atom_site_aniso_label
_atom_site_aniso_U_11
_atom_site_aniso_U_22
_atom_site_aniso_U_33
_atom_site_aniso_U_23
_atom_site_aniso_U_13
_atom_site_aniso_U_12
Pb1 0.0314(3) 0.0235(2) 0.0227(2) 0.0010(6) 0.000 0.000
Br1 0.0682(9) 0.0475(7) 0.0221(6) 0.0001(15) 0.000 0.000
Br2 0.0326(5) 0.0612(6) 0.0603(11) -0.0117(13) -0.0019(10) 0.0045(4)
Br3 0.1014(13) 0.0231(6) 0.0474(18) -0.0004(12) 0.000 0.000
N1 0.159(14) 0.045(5) 0.050(9) -0.007(5) 0.012(9) -0.034(7)
N2 0.095(12) 0.100(10) 0.071(8) -0.040(9) 0.006(8) -0.019(9)
C3 0.050(7) 0.059(6) 0.084(8) -0.011(15) 0.006(16) -0.004(5)
loop_
_atom_type_symbol
_atom_type_description
_atom_type_scat_dispersion_real
_atom_type_scat_dispersion_imag
_atom_type_scat_source
C C 0.0033 0.0016 'International Tables Vol C Tables 4.2.6.8 and 6.1.1.4'
H H 0.0000 0.0000 'International Tables Vol C Tables 4.2.6.8 and 6.1.1.4'
N N 0.0061 0.0033 'International Tables Vol C Tables 4.2.6.8 and 6.1.1.4'
Br Br -0.2901 2.4595 'International Tables Vol C Tables 4.2.6.8 and 6.1.1.4'
Pb Pb -3.3944 10.1111 'International Tables Vol C Tables 4.2.6.8 and 6.1.1.4'
loop_
_exptl_crystal_face_index_h
_exptl_crystal_face_index_k
_exptl_crystal_face_index_l
_exptl_crystal_face_perp_dist
-10 -9 1 0.1264
-24 0 0 0.0536
24 0 0 0.0604
6 10 2 0.0843
-22 4 1 0.0658
-3 0 -8 0.1267
2 -1 8 0.1436
4 8 0 0.0933
loop_
_geom_angle_atom_site_label_1
_geom_angle_atom_site_label_2
_geom_angle_atom_site_label_3
_geom_angle
_geom_angle_site_symmetry_1
_geom_angle_site_symmetry_3
_geom_angle_publ_flag
Br3 Pb1 Br2 89.353(19) . 4 ?
Br3 Pb1 Br2 89.353(19) . . ?
Br2 Pb1 Br2 176.30(12) 4 . ?
Br3 Pb1 Br1 85.80(10) . 1_556 ?
Br2 Pb1 Br1 91.68(6) 4 1_556 ?
Br2 Pb1 Br1 91.68(6) . 1_556 ?
Br3 Pb1 Br1 81.18(10) . . ?
Br2 Pb1 Br1 88.19(6) 4 . ?
Br2 Pb1 Br1 88.19(6) . . ?
Br1 Pb1 Br1 166.98(5) 1_556 . ?
Br3 Pb1 Br3 175.34(18) . 1_565 ?
Br2 Pb1 Br3 90.504(19) 4 1_565 ?
Br2 Pb1 Br3 90.50(2) . 1_565 ?
Br1 Pb1 Br3 98.86(9) 1_556 1_565 ?
Br1 Pb1 Br3 94.17(9) . 1_565 ?
Pb1 Br1 Pb1 166.98(5) 1_554 . ?
Pb1 Br3 Pb1 175.34(18) . 1_545 ?
N2 N1 H1B 103(10) . . ?
N2 N1 H1A 103(2) . . ?
H1B N1 H1A 108.0(11) . . ?
C3 N2 N1 116.3(15) . . ?
C3 N2 H2A 108.2 . . ?
N1 N2 H2A 108.2 . . ?
C3 N2 H2B 108.2 . . ?
N1 N2 H2B 108.2 . . ?
H2A N2 H2B 107.4 . . ?
N2 C3 H3A 109.5 . . ?
N2 C3 H3B 109.5 . . ?
H3A C3 H3B 109.5 . . ?
N2 C3 H3C 109.5 . . ?
H3A C3 H3C 109.5 . . ?
H3B C3 H3C 109.5 . . ?
loop_
_geom_bond_atom_site_label_1
_geom_bond_atom_site_label_2
_geom_bond_distance
_geom_bond_site_symmetry_2
_geom_bond_publ_flag
Pb1 Br3 2.9712(12) . ?
Pb1 Br2 2.9783(11) 4 ?
Pb1 Br2 2.9783(11) . ?
Pb1 Br1 2.998(4) 1_556 ?
Pb1 Br1 3.057(4) . ?
Pb1 Br3 3.0892(12) 1_565 ?
N1 N2 1.386(18) . ?
N1 H1B 0.890(7) . ?
N1 H1A 0.890(7) . ?
N2 C3 1.39(2) . ?
N2 H2A 0.8900 . ?
N2 H2B 0.8900 . ?
C3 H3A 0.9600 . ?
C3 H3B 0.9600 . ?
C3 H3C 0.9600 . ?
loop_
_geom_hbond_atom_site_label_D
_geom_hbond_atom_site_label_H
_geom_hbond_atom_site_label_A
_geom_hbond_distance_DH
_geom_hbond_distance_HA
_geom_hbond_distance_DA
_geom_hbond_angle_DHA
_geom_hbond_site_symmetry_A
_geom_hbond_publ_flag
N1 H1B Br2 0.890(7) 2.66(10) 3.425(15) 145(14) 4_554 yes
N1 H1A Br2 0.890(7) 2.842(18) 3.488(12) 130.7(18) 3_574 yes
N2 H2A N1 0.89 2.26 3.14(2) 169.4 2_565 yes
N2 H2B Br2 0.89 2.75 3.332(12) 124.4 4 yes
