#------------------------------------------------------------------------------
#$Date: 2021-02-02 01:36:34 +0200 (Tue, 02 Feb 2021) $
#$Revision: 261358 $
#$URL: file:///home/coder/svn-repositories/cod/cif/4/00/38/4003857.cif $
#------------------------------------------------------------------------------
#
# This file is available in the Crystallography Open Database (COD),
# http://www.crystallography.net/
#
# All data on this site have been placed in the public domain by the
# contributors.
#
data_4003857
loop_
_publ_author_name
'Zhang, Keke'
'Sun, Changquan Calvin'
'Liu, Yu'
'Wang, Chenguang'
'Shi, Peng'
'Xu, Jun'
'Wu, Songgu'
'Gong, Junbo'
_publ_section_title
;
 Structural Origins of Elastic and 2D Plastic Flexibility of Molecular
 Crystals Investigated with Two Polymorphs of Conformationally Rigid
 Coumarin
;
_journal_name_full               'Chemistry of Materials'
_journal_paper_doi               10.1021/acs.chemmater.0c04560
_journal_year                    2021
_chemical_absolute_configuration ad
_chemical_formula_moiety         'C9 H6 O2'
_chemical_formula_sum            'C9 H6 O2'
_chemical_formula_weight         146.14
_space_group_crystal_system      orthorhombic
_space_group_IT_number           29
_space_group_name_Hall           'P 2c -2ac'
_space_group_name_H-M_alt        'P c a 21'
_atom_sites_solution_hydrogens   geom
_atom_sites_solution_primary     dual
_audit_creation_date             2020-01-03
_audit_creation_method
;
Olex2 1.2-ac3
(compiled 2017.08.10 svn.r3458 for OlexSys, GUI svn.r5381)
;
_cell_angle_alpha                90
_cell_angle_beta                 90
_cell_angle_gamma                90
_cell_formula_units_Z            4
_cell_length_a                   15.5258(15)
_cell_length_b                   5.6690(4)
_cell_length_c                   7.9119(6)
_cell_measurement_reflns_used    1363
_cell_measurement_temperature    303.20(10)
_cell_measurement_theta_max      76.3590
_cell_measurement_theta_min      5.6680
_cell_volume                     696.37(10)
_computing_cell_refinement       'CrysAlisPro 1.171.39.45g (Rigaku OD, 2018)'
_computing_data_collection       'CrysAlisPro 1.171.39.45g (Rigaku OD, 2018)'
_computing_data_reduction        'CrysAlisPro 1.171.39.45g (Rigaku OD, 2018)'
_computing_molecular_graphics    'Olex2 (Dolomanov et al., 2009)'
_computing_publication_material  'Olex2 (Dolomanov et al., 2009)'
_computing_structure_refinement  'ShelXL (Sheldrick, 2015)'
_computing_structure_solution    'ShelXT (Sheldrick, 2015)'
_diffrn_ambient_environment      air
_diffrn_ambient_temperature      303.20(10)
_diffrn_detector                 'CCD plate'
_diffrn_detector_type            HyPix
_diffrn_measured_fraction_theta_full 0.972
_diffrn_measured_fraction_theta_max 0.918
_diffrn_measurement_details
;
List of Runs (angles in degrees, time in seconds):

  # Type    Start    End  Width  t~exp~   \w     \q     \k     \f   Frames
--------------------------------------------------------------------------
  1  \w    -22.00  59.00   0.50    0.08    --   45.12 -56.00-154.00  162
  2  \w     31.00 118.00   0.50    0.08    --   45.12  56.00 -12.00  174
  3  \w   -116.00 -79.00   0.50    0.30    -- -100.00  65.00 146.00   74
  4  \w   -111.00 -39.00   0.50    0.30    -- -100.00 116.00-138.00  144
  5  \w     95.00 166.00   0.50    0.30    --  107.61  56.00 -12.00  142
  6  \w    -92.00 -65.00   0.50    0.08    --  -45.12 125.00-180.00   54
  7  \w     93.00 118.00   0.50    0.08    --   45.12 125.00-150.00   50
  8  \w   -106.00 -71.00   0.50    0.30    -- -100.00  37.00-180.00   70
  9  \w   -117.00 -79.00   0.50    0.30    -- -100.00-125.00-180.00   76
 10  \w   -171.00-129.00   0.50    0.30    -- -100.00-125.00-180.00   84
 11  \w    -68.00 -35.00   0.50    0.30    -- -100.00  37.00-180.00   66
 12  \w     96.00 162.00   0.50    0.30    --  107.61  37.00  30.00  132
 13  \w     42.00 116.00   0.50    0.30    --  107.61-125.00-120.00  148
 14  \w     54.00 109.00   0.50    0.30    --  107.61 -99.00  30.00  110
;
_diffrn_measurement_device       'four-circle diffractometer'
_diffrn_measurement_device_type  'ROD, Synergy Custom system, HyPix'
_diffrn_measurement_method       '\w scans'
_diffrn_orient_matrix_type
'CrysAlisPro convention (1999,Acta A55,543-557)'
_diffrn_orient_matrix_UB_11      0.2681953000
_diffrn_orient_matrix_UB_12      -0.0085633000
_diffrn_orient_matrix_UB_13      -0.0274135000
_diffrn_orient_matrix_UB_21      -0.0130456000
_diffrn_orient_matrix_UB_22      0.0663718000
_diffrn_orient_matrix_UB_23      -0.1442825000
_diffrn_orient_matrix_UB_31      0.0430322000
_diffrn_orient_matrix_UB_32      0.0731222000
_diffrn_orient_matrix_UB_33      0.1279495000
_diffrn_radiation_monochromator  mirror
_diffrn_radiation_probe          x-ray
_diffrn_radiation_type           CuK\a
_diffrn_radiation_wavelength     1.54184
_diffrn_reflns_av_R_equivalents  0.0373
_diffrn_reflns_av_unetI/netI     0.0262
_diffrn_reflns_Laue_measured_fraction_full 0.972
_diffrn_reflns_Laue_measured_fraction_max 0.918
_diffrn_reflns_limit_h_max       19
_diffrn_reflns_limit_h_min       -16
_diffrn_reflns_limit_k_max       6
_diffrn_reflns_limit_k_min       -7
_diffrn_reflns_limit_l_max       6
_diffrn_reflns_limit_l_min       -9
_diffrn_reflns_number            2850
_diffrn_reflns_point_group_measured_fraction_full 0.755
_diffrn_reflns_point_group_measured_fraction_max 0.701
_diffrn_reflns_theta_full        67.684
_diffrn_reflns_theta_max         77.115
_diffrn_reflns_theta_min         5.699
_diffrn_source                   'Rotating-anode X-ray tube'
_diffrn_source_type              'Rigaku (Cu) X-ray Source'
_exptl_absorpt_coefficient_mu    0.816
_exptl_absorpt_correction_T_max  1.00000
_exptl_absorpt_correction_T_min  0.73178
_exptl_absorpt_correction_type   multi-scan
_exptl_absorpt_process_details
;
CrysAlisPro 1.171.39.45g (Rigaku Oxford Diffraction, 2018)
Empirical absorption correction using spherical harmonics,
 implemented in SCALE3 ABSPACK scaling algorithm.
;
_exptl_crystal_colour            colorless
_exptl_crystal_density_diffrn    1.394
_exptl_crystal_description       plate
_exptl_crystal_F_000             304
_exptl_crystal_size_max          0.8
_exptl_crystal_size_mid          0.1
_exptl_crystal_size_min          0.05
_refine_diff_density_max         0.276
_refine_diff_density_min         -0.352
_refine_diff_density_rms         0.084
_refine_ls_abs_structure_details
;
 Classical Flack method preferred over Parsons because s.u. lower.
;
_refine_ls_abs_structure_Flack   0.5(6)
_refine_ls_extinction_method     none
_refine_ls_goodness_of_fit_ref   1.183
_refine_ls_hydrogen_treatment    constr
_refine_ls_matrix_type           full
_refine_ls_number_parameters     100
_refine_ls_number_reflns         1032
_refine_ls_number_restraints     1
_refine_ls_restrained_S_all      1.182
_refine_ls_R_factor_all          0.0728
_refine_ls_R_factor_gt           0.0689
_refine_ls_shift/su_max          0.000
_refine_ls_shift/su_mean         0.000
_refine_ls_structure_factor_coef Fsqd
_refine_ls_weighting_details
'w=1/[\s^2^(Fo^2^)+(0.1544P)^2^] where P=(Fo^2^+2Fc^2^)/3'
_refine_ls_weighting_scheme      calc
_refine_ls_wR_factor_gt          0.1800
_refine_ls_wR_factor_ref         0.1998
_reflns_Friedel_coverage         0.418
_reflns_Friedel_fraction_full    0.499
_reflns_Friedel_fraction_max     0.448
_reflns_number_gt                935
_reflns_number_total             1032
_reflns_threshold_expression     'I > 2\s(I)'
_cod_data_source_file            cm0c04560_si_006.cif
_cod_data_source_block           032328_zkkform1bentroom_rb
_cod_database_code               4003857
_shelx_shelxl_version_number     2018/1
_shelx_space_group_comment
;
The symmetry employed for this shelxl refinement is uniquely defined
by the following loop, which should always be used as a source of
symmetry information in preference to the above space-group names.
They are only intended as comments.
;
_reflns_odcompleteness_completeness 95.97
_reflns_odcompleteness_iscentric 1
_reflns_odcompleteness_theta     66.49
_olex2_refinement_description
;
1. Fixed Uiso
 At 1.2 times of:
  All C(H) groups
2.a Aromatic/amide H refined with riding coordinates:
 C3(H3), C2(H2), C6(H6), C7(H7), C9(H9), C8(H8)
;
_shelx_res_file
;
TITL 032328_zkkform1bentroom_rb_a.res in Pca2(1)
    032328_zkkform1bentroom_rb.res
    created by SHELXL-2018/1 at 14:18:27 on 03-Jan-2020
REM Old TITL 032328_ZKKform1bentroom_Rb in Pbcm
REM SHELXT solution in Pca2(1)
REM R1 0.137, Rweak 0.155, Alpha 0.003, Orientation a'=b, b'=a, c'=-c
REM Flack x = -0.891 ( 0.677 ) from Parsons' quotients
REM Formula found by SHELXT: C9 O2
CELL 1.54184 15.5258 5.669 7.9119 90 90 90
ZERR 4 0.0015 0.0004 0.0006 0 0 0
LATT -1
SYMM -X,-Y,0.5+Z
SYMM 0.5+X,-Y,+Z
SYMM 0.5-X,+Y,0.5+Z
SFAC C H O
UNIT 36 24 8

L.S. 10
PLAN  20
BOND $H
list 4
fmap 2
ACTA
REM <olex2.extras>
REM <HklSrc "%.\\032328_ZKKform1bentroom_Rb.hkl">
REM </olex2.extras>

WGHT    0.154400
FVAR       1.67021
O2    3    0.345549    0.499449    0.580238    11.00000    0.06568    0.04458 =
         0.07149    0.01188   -0.00008   -0.00289
O1    3    0.216829    0.400760    0.670174    11.00000    0.08316    0.06641 =
         0.09878    0.00759    0.01585   -0.02005
C4    1    0.369932    0.855830    0.420800    11.00000    0.06313    0.03959 =
         0.05152   -0.00109   -0.00518   -0.00121
C5    1    0.401064    0.650130    0.495276    11.00000    0.06002    0.04037 =
         0.05136   -0.00141   -0.00171   -0.00396
C3    1    0.279733    0.905859    0.433794    11.00000    0.06711    0.04790 =
         0.06256   -0.00261   -0.00428    0.00934
AFIX  43
H3    2    0.257482    1.041755    0.384511    11.00000   -1.20000
AFIX   0
C2    1    0.227324    0.758254    0.516398    11.00000    0.05775    0.06120 =
         0.07093   -0.00208    0.00333    0.00473
AFIX  43
H2    2    0.168992    0.793778    0.524531    11.00000   -1.20000
AFIX   0
C1    1    0.259826    0.543538    0.593623    11.00000    0.06263    0.05284 =
         0.06162   -0.00343    0.00418   -0.00984
C6    1    0.486753    0.588340    0.489854    11.00000    0.06299    0.05109 =
         0.06900    0.00133   -0.00401    0.00530
AFIX  43
H6    2    0.506047    0.450907    0.541684    11.00000   -1.20000
AFIX   0
C7    1    0.543395    0.734666    0.405880    11.00000    0.05518    0.07691 =
         0.06993   -0.01042    0.00124   -0.00105
AFIX  43
H7    2    0.601459    0.695159    0.400158    11.00000   -1.20000
AFIX   0
C9    1    0.429101    1.000417    0.336586    11.00000    0.07351    0.05234 =
         0.06021    0.00672   -0.00489   -0.00700
AFIX  43
H9    2    0.410340    1.138403    0.284757    11.00000   -1.20000
AFIX   0
C8    1    0.514385    0.939994    0.330041    11.00000    0.07037    0.06843 =
         0.06732    0.00685    0.00430   -0.01412
AFIX  43
H8    2    0.553189    1.037670    0.274181    11.00000   -1.20000
AFIX   0
HKLF 4




REM  032328_zkkform1bentroom_rb_a.res in Pca2(1)
REM R1 =  0.0689 for     935 Fo > 4sig(Fo)  and  0.0728 for all    1032 data
REM    100 parameters refined using      1 restraints

END

WGHT      0.1544      0.0000

REM Highest difference peak  0.276,  deepest hole -0.352,  1-sigma level  0.084
Q1    1   0.1330  0.4013  0.5845  11.00000  0.05    0.28
Q2    1   0.1409  0.8168  0.4298  11.00000  0.05    0.26
Q3    1   0.4508  0.6026  0.6218  11.00000  0.05    0.25
Q4    1   0.1525  0.7647  0.5982  11.00000  0.05    0.25
Q5    1   0.3136  0.8823  0.3114  11.00000  0.05    0.21
Q6    1   0.3193  0.5133  0.4363  11.00000  0.05    0.20
Q7    1   0.3166  0.5022  0.7223  11.00000  0.05    0.20
Q8    1   0.6119  0.6608  0.4657  11.00000  0.05    0.20
Q9    1   0.4673  0.9885  0.4584  11.00000  0.05    0.20
Q10   1   0.5385  0.6571  0.6470  11.00000  0.05    0.20
Q11   1   0.2312  0.8684  0.2988  11.00000  0.05    0.20
Q12   1   0.2103  1.2934  0.4442  11.00000  0.05    0.19
Q13   1   0.1887  0.8288  0.3784  11.00000  0.05    0.19
Q14   1   0.2204  0.4999  0.4448  11.00000  0.05    0.19
Q15   1   0.6877  0.5859  0.3174  11.00000  0.05    0.18
Q16   1   0.1030  0.7476  0.3804  11.00000  0.05    0.18
Q17   1   0.2507  0.7979  0.6785  11.00000  0.05    0.18
Q18   1   0.6526  0.5820  0.2845  11.00000  0.05    0.18
Q19   1   0.6387  1.0905  0.3382  11.00000  0.05    0.18
Q20   1   0.0998  0.6737  0.4897  11.00000  0.05    0.17
;
_shelx_res_checksum              13794
_shelx_hkl_file
;
   1   0   0    0.11    0.27
   2   0   0  484.74   10.38
   3   0   0    0.16    0.56
   4   0   0 5396.39  113.01
   5   0   0   -0.59    0.86
   6   0   0  520.90   11.57
   7   0   0   -0.49    1.10
   8   0   0 1631.64   35.23
   9   0   0    0.79    1.29
  10   0   0   53.25    1.98
  11   0   0   -0.63    1.08
  11   0   0    0.42    1.17
  12   0   0    0.84    1.26
  12   0   0    1.55    1.16
  13   0   0    0.18    1.37
  13   0   0    0.13    1.22
  14   0   0  108.14    3.49
  14   0   0  118.27    3.63
  15   0   0    1.50    1.44
  16   0   0   70.33    2.72
  16   0   0   72.36    2.78
  17   0   0    0.35    1.40
  18   0   0   18.20    1.38
   1   1   0 4123.72   88.03
  -1  -1   0 4459.43   88.29
   2   1   0 3559.91   74.72
   2  -1   0 3490.33   74.95
  -2  -1   0 3673.45   74.97
   3  -1   0  215.60    4.94
  -3  -1   0  208.42    5.10
   3  -1   0  212.69    5.12
   4  -1   0   41.86    1.55
  -4  -1   0   45.63    1.56
   4  -1   0   40.52    1.47
   4  -1   0   45.02    1.45
   5  -1   0  306.71    7.27
   5  -1   0  340.96    7.39
   5   1   0  336.13    7.46
   5  -1   0  297.34    7.33
  -5  -1   0  368.77    7.44
  -6  -1   0  501.33   10.34
   6  -1   0  483.83   10.35
   6  -1   0  431.93   10.62
   6   1   0  458.13   10.70
   7   1   0 1464.42   30.34
   7  -1   0 1348.95   30.28
   8   1   0  258.76    6.68
   9   1   0   15.15    1.34
  10   1   0   50.99    2.04
  11  -1   0    0.12    1.21
  11  -1   0    0.96    1.27
  11   1   0    0.22    1.11
  12  -1   0   87.74    2.87
  12   1   0   83.65    2.83
  12  -1   0   85.79    2.99
  13   1   0   14.30    1.55
  13  -1   0   13.17    1.70
  13  -1   0   12.71    1.64
  13   1   0   13.13    1.74
  14   1   0   21.40    1.69
  14   1   0   22.80    1.93
  14  -1   0   23.51    1.85
  15  -1   0   10.94    1.62
  15   1   0    9.97    1.43
  15   1   0    9.37    1.71
  16   1   0   38.73    2.06
  16  -1   0   39.22    2.08
  16   1   0   34.89    1.89
  17   1   0    1.60    1.25
  17   1   0    2.02    1.20
  18  -1   0    0.40    1.17
  -1  -2   0 3368.06   71.16
   2  -2   0   29.91    1.75
  -2  -2   0   32.49    1.74
  -3  -2   0 1917.89   40.26
   3  -2   0 1834.64   40.24
  -4  -2   0  165.12    3.99
   4  -2   0  166.69    3.99
  -5  -2   0  101.97    3.10
   5  -2   0   97.96    3.11
   6  -2   0  585.52   13.90
  -6  -2   0  624.01   13.90
   7  -2   0   11.02    1.31
   8   2   0   23.89    1.62
   9   2   0    4.05    1.38
  11   2   0    1.25    1.22
  11   2   0    3.12    1.51
  12   2   0  277.63    7.01
  12   2   0  279.86    6.90
  13   2   0  614.88   13.73
  13  -2   0  630.32   13.83
  14   2   0  122.52    3.82
  14  -2   0  131.07    3.88
  14   2   0  121.01    3.72
  15  -2   0    0.89    1.42
  15   2   0    1.20    1.24
  15   2   0    0.12    1.50
  16   2   0    0.96    1.66
  16  -2   0    2.14    1.31
  16   2   0    2.14    1.11
  17  -2   0   17.25    1.49
  -1  -3   0    1.58    1.39
  -2  -3   0 2317.97   51.22
   2  -3   0 2439.28   51.33
   3  -3   0  753.36   17.27
  -3  -3   0  746.93   17.24
   4  -3   0  288.97    7.85
  -4  -3   0  304.77    7.89
   5  -3   0   41.72    2.57
  -5  -3   0   45.26    2.58
   6  -3   0  846.12   20.20
  -6  -3   0  880.14   20.14
  -7  -3   0    2.64    1.57
   7  -3   0    2.16    1.47
   8   3   0  203.79    5.45
   9   3   0   91.22    3.41
  10   3   0  346.07    8.46
  11   3   0    2.94    2.06
  12   3   0    6.21    1.41
  13   3   0    6.25    1.37
  14   3   0    2.99    1.18
  14  -3   0    1.84    1.35
  15   3   0   26.84    1.49
  15  -3   0   28.50    1.76
  16   3   0    0.80    0.87
  16  -3   0    0.59    1.14
  -1  -4   0    1.17    1.61
  -2  -4   0    6.43    1.85
   2  -4   0    5.77    1.87
  -3  -4   0   16.00    2.23
   3  -4   0   11.19    2.25
  -4  -4   0    0.68    0.73
   4  -4   0    0.79    2.02
   4  -4   0    0.04    0.77
  -4  -4   0    1.00    2.06
  -5  -4   0   55.27    3.20
   5  -4   0   41.03    1.64
   5  -4   0   52.63    3.30
  -5  -4   0   43.28    1.63
  -6  -4   0   16.43    2.31
  -6  -4   0   15.48    1.10
   6  -4   0   17.10    2.32
   6  -4   0   14.03    1.08
   7  -4   0    8.49    2.00
  -9  -4   0  330.00    7.86
  12   4   0   36.02    1.80
  13   4   0   48.03    1.91
  14  -4   0    1.52    1.15
  14   4   0    1.56    0.92
  15  -4   0    3.10    1.05
  -1  -5   0    1.46    2.11
  -1  -5   0    1.45    0.83
   2  -5   0   80.17    4.29
   2  -5   0   78.38    2.55
  -2  -5   0   79.93    4.25
  -2  -5   0   78.52    2.51
  -3  -5   0  498.25   11.39
   3  -5   0  504.98   11.44
   3  -5   0  520.49   13.84
  -3  -5   0  516.18   13.68
   4  -5   0   78.07    2.51
   4  -5   0   79.64    4.32
  -4  -5   0   75.31    4.16
  -4  -5   0   73.38    2.45
  -5  -5   0   91.02    2.74
   5  -5   0   90.55    2.76
   6  -5   0   45.68    1.83
  -6  -5   0   46.55    1.82
   7  -5   0    2.12    0.84
  -7   5   0    1.02    1.07
  -8   5   0    2.80    1.12
  -8  -5   0    3.96    1.03
  -9  -5   0    1.95    0.90
  -9   5   0    1.17    1.07
 -10   5   0   45.94    1.91
 -10  -5   0   50.45    1.74
  11   5   0   28.59    1.47
 -11   5   0   29.02    1.45
 -12   5   0    3.79    0.88
  12   5   0    4.62    0.91
  -1  -6   0   44.00    1.75
  -2  -6   0   14.20    1.19
   2  -6   0   13.37    1.16
  -3  -6   0   50.90    1.90
   3  -6   0   52.61    1.95
  -4  -6   0  449.36   10.06
   4  -6   0  443.32   10.08
   5  -6   0    2.84    0.87
  -5  -6   0    2.84    0.85
  -5  -6   0    3.61    0.99
  -6  -6   0    1.64    0.69
   6  -6   0    0.79    0.63
  -6  -6   0    0.96    0.84
  -7  -6   0   11.72    0.94
  -8  -6   0    0.73    0.68
  -9  -6   0   21.00    0.87
   9   6   0   22.39    1.05
   0  -7   0    0.47    0.46
  -1  -7   0    0.18    0.49
  -1  -7   0    0.36    0.48
   2  -7   0    9.74    0.63
  -2  -7   0    9.19    0.58
  -2  -7   0   10.02    0.64
   3  -7   0    0.59    0.41
  -1   0  -1   -0.04    0.47
   2   0  -1 5160.36  109.27
  -2   0  -1 5285.46  109.29
  -3   0  -1    0.48    0.50
  -4   0  -1  293.10    6.39
   4   0  -1  266.94    6.36
   5   0  -1    0.17    1.14
   5   0  -1    0.05    0.33
  -5   0  -1    0.04    0.35
   6   0  -1 2592.60   54.89
   7   0  -1   -0.05    1.34
   8   0   1 2142.13   45.66
   9   0   1    0.90    1.24
  10   0   1    8.37    1.53
  10   0  -1    8.70    1.17
  10   0   1    6.99    1.26
  11   0  -1    1.10    1.15
  11   0   1    1.47    1.58
  11   0   1    0.95    1.25
  11   0  -1   -0.63    1.18
  12   0   1   78.32    2.72
  12   0  -1   77.10    2.67
  12   0  -1   75.89    2.57
  13   0   1   -0.14    1.40
  13   0  -1   -0.40    1.32
  13   0  -1   -0.06    1.32
  14   0  -1   90.75    3.17
  14   0   1   92.86    3.28
  14   0  -1   92.06    3.10
  15   0  -1   -0.24    1.42
  16   0  -1   33.81    2.09
  16   0  -1   32.69    1.90
  16   0   1   33.82    2.13
  17   0   1   -0.38    1.39
  18   0   1    8.21    1.35
  19   0   1    0.93    1.05
   0   1  -1    0.41    0.61
   1   1  -1 7563.94  156.69
  -1  -1   1 7446.92  156.94
  -1  -1  -1 7380.89  157.05
   2  -1  -1 1652.81   34.65
  -2  -1   1 1656.69   34.54
   2  -1   1 1562.83   34.56
   2   1  -1 1652.41   34.39
  -2  -1  -1 1615.36   34.64
   3  -1  -1  392.67    8.69
   3  -1   1  352.83    8.46
   3   1  -1  411.33    8.51
  -3  -1  -1  409.61    8.67
  -3  -1   1  355.54    8.47
   4  -1   1   64.02    1.86
  -4  -1   1   59.97    1.87
  -5  -1  -1   96.64    2.47
   5  -1  -1   88.50    2.42
  -5  -1   1   81.50    2.35
   5  -1   1   72.61    2.28
   6  -1  -1  675.34   12.59
  -6  -1  -1  608.14   12.29
  -6  -1   1  502.86   12.10
   6  -1  -1  591.96   12.26
   6  -1   1  517.20   12.12
   7  -1   1  232.86    5.55
   7   1   1  233.83    5.66
   8   1   1 1054.62   23.27
   8  -1  -1  999.64   23.23
   9  -1   1  137.36    4.26
   9   1  -1  154.29    3.52
   9  -1  -1  150.78    3.52
   9   1   1  142.46    4.37
   9   1   1  126.78    3.81
  10   1   1  148.35    4.16
  10   1  -1  155.04    4.06
  10  -1  -1  153.82    4.10
  10  -1   1  157.05    4.80
  10   1   1  154.78    4.81
  11  -1  -1   10.08    1.39
  11  -1  -1    9.91    1.40
  11   1  -1   11.30    1.37
  12  -1  -1  204.91    5.20
  12  -1  -1  201.04    5.38
  12   1  -1  199.44    5.30
  12   1  -1  204.18    5.22
  13  -1   1   78.72    2.97
  13   1  -1   77.92    2.91
  13  -1  -1   85.92    3.08
  13  -1  -1   84.54    2.87
  13   1   1   80.45    3.06
  14   1  -1  185.28    5.16
  14   1   1  191.88    5.30
  14   1  -1  182.18    5.01
  14  -1  -1  192.55    5.37
  14  -1  -1  192.71    5.05
  14  -1   1  189.69    5.19
  15   1  -1    1.71    1.40
  15   1   1    2.06    1.59
  15  -1  -1    1.19    1.40
  15  -1   1    0.69    1.45
  16  -1   1    3.43    1.51
  16  -1  -1    2.90    1.38
  16   1  -1    5.09    1.34
  16   1   1    2.95    1.51
  17   1  -1    2.59    1.26
  17   1   1    3.33    1.35
  18   1   1    0.79    1.27
  18   1   1    0.43    1.19
  18  -1   1    1.47    1.19
  18   1  -1    1.70    1.29
  -1  -2   1 1442.45   25.85
  -1  -2  -1  949.89   25.74
  -2  -2   1 2688.33   57.25
  -2  -2  -1 2716.43   57.54
   2  -2   1 2614.75   57.14
   2  -2  -1 2792.84   57.56
  -3  -2   1  534.26   13.28
   3  -2  -1  681.11   13.70
  -3  -2  -1  672.32   13.68
   3  -2   1  535.73   13.38
  -4  -2  -1  685.71   15.65
   4  -2   1  599.82   15.44
   4  -2   1  779.20   14.92
  -4  -2   1  599.76   15.40
   4  -2  -1  696.78   15.69
   5  -2   1  668.84   16.37
   5   2   1  804.77   16.05
   5  -2   1  742.83   15.87
   5  -2  -1  768.94   16.62
  -5  -2   1  640.04   16.29
  -5  -2  -1  781.43   16.61
   6  -2  -1  852.89   20.97
   6  -2   1  996.60   20.91
   6  -2  -1 1040.42   21.60
  -6  -2  -1 1059.91   21.55
  -6  -2   1  894.72   21.22
   6   2   1 1099.95   21.12
   6  -2   1  898.36   21.26
  -7  -2  -1  135.67    4.13
   7  -2  -1  124.99    3.90
   7  -2  -1  126.25    4.05
   7  -2   1  150.82    4.13
   7   2   1  152.44    3.91
  -7  -2   1  154.42    4.14
   7   2   1  166.19    4.18
   8   2   1  230.18    5.85
   8  -2  -1  228.45    5.96
   9   2   1  301.58    7.50
   9   2   1  334.01    8.28
  10   2   1   69.04    2.69
  11   2   1  248.63    6.37
  11   2  -1  243.34    6.20
  12   2   1  305.71    7.58
  12   2  -1  298.69    7.45
  13   2   1   13.37    1.83
  13  -2  -1   14.34    1.70
  13   2  -1   12.04    1.64
  14   2  -1  122.00    3.78
  14   2   1  117.04    3.84
  14   2  -1  123.49    4.14
  14  -2  -1  125.79    3.72
  14   2   1  117.76    4.04
  15   2   1   24.91    1.94
  15  -2  -1   31.17    1.85
  15   2  -1   27.54    1.79
  15   2  -1   27.34    2.14
  15   2   1   25.01    2.09
  15  -2   1   27.79    1.91
  16   2   1   14.72    1.69
  16   2   1   14.24    1.79
  16   2  -1   14.62    1.72
  16   2  -1   13.48    1.41
  16  -2   1   15.66    1.57
  16  -2  -1   16.24    1.46
  17   2  -1    0.09    1.00
  17  -2   1    1.32    1.26
  17   2  -1   -0.96    1.35
  17   2   1    0.97    1.34
  18  -2   1    3.58    1.05
  18   2  -1    3.62    1.19
  18   2   1    2.52    1.17
  -1  -3  -1  657.34   20.04
  -1  -3   1 1232.45   20.72
  -2  -3  -1  455.36   12.46
   2  -3  -1  432.75   12.48
  -2  -3   1  629.04   12.60
   2  -3   1  557.24   12.60
   3   3  -1  357.62    9.07
   3  -3   1  435.76    9.85
  -3  -3   1  434.51    9.84
  -3  -3  -1  369.44    9.84
   3  -3  -1  377.08    9.91
  -4  -3  -1  740.86   17.30
   4  -3  -1  756.52   17.38
   4  -3   1  789.60   17.33
   4   3  -1  703.66   16.44
   4   3   1  714.33   16.42
  -4  -3   1  800.97   17.24
   5  -3  -1  856.05   19.83
  -5  -3  -1  874.11   19.78
   5   3  -1  826.60   18.87
   5   3   1  835.01   18.85
   5  -3   1  882.50   19.77
  -5  -3   1  908.48   19.71
   6   3   1   59.34    2.54
   6   3  -1   56.46    2.57
   6  -3   1   62.38    2.99
  -6  -3  -1   61.33    2.99
  -6  -3   1   66.51    2.98
   6   3   1   59.36    2.69
   6  -3  -1   58.87    3.02
  -7  -3   1  399.67    9.40
   7   3   1  362.06    8.73
   7   3  -1  368.59    8.81
   7  -3  -1  325.91    9.59
   7  -3   1  374.08    9.41
   7   3   1  356.92    8.75
   8   3   1  306.19    7.66
  -8  -3  -1  321.03    7.33
   8   3   1  293.90    7.64
   8   3  -1  304.53    7.71
   9   3  -1  757.86   17.35
   9   3   1  749.44   17.29
   9   3   1  727.74   17.18
  10   3  -1  130.84    4.25
  10   3   1  131.06    4.21
  10   3   1  129.05    4.22
  11   3  -1   62.33    2.90
  11   3   1   58.83    2.33
  11   3   1   63.63    3.00
  11   3   1   60.61    2.82
  12   3  -1  165.35    4.77
  12   3   1  174.01    5.11
  12   3  -1  176.20    5.17
  12   3   1  171.90    4.55
  12   3   1  171.02    5.08
  13   3   1  111.52    3.82
  13   3  -1  114.79    3.52
  13   3   1  107.26    3.24
  13   3   1  113.03    3.83
  13   3  -1  111.45    3.86
  14  -3  -1   22.30    1.66
  14   3   1   17.20    1.88
  14   3  -1   18.57    1.98
  14   3  -1   19.05    1.52
  15   3  -1    9.68    1.72
  15  -3  -1    9.80    1.41
  15   3  -1    8.48    1.27
  15   3   1    6.58    1.63
  16  -3  -1    0.42    1.07
  16   3  -1    0.98    0.95
  16   3  -1    1.45    1.64
  16   3   1    0.88    1.60
  17   3  -1    2.98    1.24
  17  -3   1    4.64    1.04
  17   3  -1    2.58    0.77
  17   3   1    4.58    1.28
  -1  -4  -1   84.41    2.56
  -1  -4  -1   78.61    3.87
   2  -4  -1  153.09    5.69
   2  -4   1  230.19    6.38
  -2   4  -1  143.65    4.15
  -2  -4  -1  150.99    4.02
   2  -4  -1  153.98    4.06
  -2  -4  -1  156.06    5.56
  -2  -4   1  239.42    6.25
  -3  -4   1    3.23    1.85
   3  -4   1    1.78    1.81
  -3  -4  -1    2.19    1.79
   3  -4  -1    3.31    1.86
  -3   4  -1    2.36    1.16
   3  -4  -1    2.37    0.85
  -3  -4  -1    2.14    0.80
  -4  -4  -1  260.43    7.99
  -4  -4  -1  268.36    6.33
   4  -4  -1  260.18    8.15
   4  -4   1  313.12    8.43
   4  -4  -1  247.14    6.31
  -4  -4   1  325.46    8.27
   5   4   1  171.57    5.02
   5  -4   1  193.62    6.26
   5   4  -1  170.46    5.05
  -5  -4   1  195.47    6.08
   5  -4  -1  164.82    4.33
   5  -4  -1  156.01    6.06
  -5  -4  -1  163.01    5.95
  -5  -4  -1  169.50    4.32
   6   4  -1   14.78    2.05
   6  -4  -1   14.25    1.15
   6  -4  -1   11.64    2.30
  -6  -4  -1   13.34    2.26
  -6  -4   1   18.25    2.54
  -6  -4  -1   14.79    1.12
   6  -4   1   13.11    2.51
   6   4   1   14.02    1.96
   7   4   1   60.35    2.83
   7   4  -1   62.70    2.89
   8   4   1   96.15    3.74
  -8  -4  -1   97.27    3.07
   8   4  -1   96.33    3.75
   9   4   1   35.66    2.70
  -9  -4  -1   35.12    1.71
   9   4  -1   35.33    2.77
  10   4  -1  245.68    6.71
  10   4   1  235.86    6.62
 -10  -4  -1  243.46    5.97
  11   4   1    2.31    1.19
  11   4   1    2.43    2.03
  11   4  -1    2.97    2.06
  12   4   1   29.57    1.56
  12   4  -1   33.39    2.33
  12   4   1   31.95    2.32
  12   4  -1   29.87    1.73
  13   4  -1    3.03    1.13
  13   4  -1    3.41    1.61
  13   4   1    2.85    1.56
  14   4  -1    1.92    0.98
  14   4  -1    2.03    1.43
  14  -4  -1    1.24    1.11
  14   4   1    1.23    1.36
  15   4  -1    9.08    0.95
  15   4   1    8.41    1.43
  15  -4  -1    9.79    1.10
  -1  -5  -1   19.84    1.36
  -1  -5  -1   21.00    2.74
   2  -5  -1  136.26    5.89
  -2  -5  -1  146.35    4.07
  -2  -5  -1  149.55    5.90
   2  -5  -1  142.89    4.06
  -2  -5   1  198.91    6.89
   2  -5   1  204.75    7.05
   3  -5  -1  211.23    5.44
  -3  -5   1  278.56    8.37
   3  -5   1  208.38    5.33
  -3  -5   1  229.02    5.37
  -3  -5  -1  199.90    5.38
  -3  -5  -1  183.87    7.10
   3  -5  -1  189.52    7.26
   3  -5   1  274.63    8.47
   4  -5  -1  303.23    7.23
  -4   5  -1  275.96    7.11
   4  -5   1  302.32    7.12
  -4  -5   1  373.07   10.00
   4  -5  -1  265.89    9.10
  -4  -5  -1  301.09    7.21
  -4  -5  -1  268.01    8.97
  -4  -5   1  302.67    7.09
   4  -5   1  382.55   10.20
   5  -5  -1  144.87    3.87
  -5  -5   1  141.15    3.72
  -5  -5  -1  141.26    3.82
   5  -5   1  137.40    3.76
  -5   5  -1  129.35    3.87
  -6  -5  -1   26.31    1.58
   6  -5   1   23.35    1.32
   6  -5  -1   26.76    1.44
  -6  -5   1   27.42    1.33
  -6   5  -1   24.18    1.63
  -6  -5  -1   26.12    1.41
  -7   5  -1    0.26    1.14
   7  -5   1    0.63    0.79
   7  -5  -1   -0.36    0.80
  -7  -5  -1    0.37    1.01
  -8   5  -1   12.04    1.32
  -8  -5  -1   13.40    1.18
  -9  -5  -1   36.13    1.58
  -9  -5   1   36.73    1.56
 -10  -5  -1   11.23    0.97
 -10   5  -1   10.39    1.20
 -11   5  -1    1.62    0.97
 -11   5   1    0.98    0.86
  11   5   1    0.84    0.84
  11   5  -1    2.55    1.03
  12   5  -1   53.39    1.81
  12  -5   1   57.23    2.00
  13   5  -1    0.35    0.72
  13  -5   1    0.42    0.86
  13  -5  -1    1.10    0.84
   0  -6  -1    0.48    0.86
  -1  -6  -1    0.15    0.86
  -1  -6   1    0.17    0.83
  -1  -6  -1    0.22    0.91
   1  -6  -1    0.20    0.84
   2  -6  -1  144.55    3.86
   2  -6  -1  147.50    3.95
   2  -6   1  152.24    3.89
  -2  -6  -1  147.43    3.97
  -2  -6  -1  146.44    3.95
   3  -6   1   16.44    1.09
   3  -6  -1   17.57    1.16
  -3  -6   1   17.26    1.12
  -3  -6  -1   16.16    1.14
   4  -6   1   77.31    2.33
  -4  -6   1   80.24    2.33
  -4  -6  -1   69.95    2.27
   4  -6  -1   71.77    2.31
  -5  -6  -1    5.36    0.96
   5  -6  -1    3.73    0.81
   5  -6   1    3.20    0.86
  -5  -6   1    3.61    0.85
  -5  -6  -1    3.59    0.81
  -6  -6   1   15.77    0.91
  -6  -6   1   17.00    1.07
  -6  -6  -1   13.91    0.85
   6  -6   1    2.94    0.69
   6  -6  -1    2.20    0.65
  -6  -6  -1   14.41    1.03
  -7  -6   1    2.21    0.79
  -7  -6  -1    0.76    0.75
  -8  -6   1    3.45    0.68
  -8  -6  -1    3.12    0.70
  -9  -6  -1   -0.04    0.54
   9   6  -1    0.50    0.75
  10   6  -1    2.40    0.62
   0  -7   1    0.14    0.49
  -1  -7   1    1.18    0.47
  -1  -7   1    2.39    0.54
  -1  -7  -1    1.77    0.45
  -1  -7  -1    1.03    0.48
  -2  -7   1   23.78    0.84
   2  -7   1   22.18    0.82
   2  -7  -1   20.90    0.81
  -2  -7  -1   21.06    0.79
  -2  -7  -1   21.00    0.81
  -3  -7  -1    1.63    0.42
  -1   0  -2    0.17    0.72
  -2   0  -2 9999.00  208.11
   2   0  -2 9875.83  208.09
  -3   0  -2    0.09    0.73
   3   0  -2    0.27    0.77
  -4   0  -2   15.87    1.08
   4   0  -2   17.53    1.08
   5   0  -2    0.67    0.68
  -5   0  -2    0.02    0.71
  -6   0  -2   52.74    1.75
   6   0  -2   50.22    1.69
   7   0  -2    0.18    1.44
   8   0  -2  844.69   17.76
   8   0   2  821.59   18.10
   8   0  -2  832.81   18.80
   9   0  -2    0.38    2.01
   9   0   2   -0.34    1.57
  10   0  -2   89.87    2.36
  10   0   2   90.87    3.31
  11   0  -2   -0.47    1.01
  11   0   2   -0.90    1.61
  11   0  -2    0.80    1.17
  12   0  -2   86.89    2.63
  12   0  -2  111.72    3.25
  12   0  -2   93.59    2.78
  12   0   2  109.20    4.19
  13   0  -2    0.80    1.33
  13   0  -2   -0.06    0.98
  14   0  -2    5.42    1.46
  15   0  -2   -0.68    1.40
  16   0  -2   50.22    2.38
  16   0   2   51.06    2.41
  17   0  -2   -0.05    1.30
  17   0   2   -0.26    1.42
  18   0   2    9.09    1.29
  -1   1  -2 4512.81   93.78
  -1  -1  -2 4386.59   93.95
  -2  -1  -2 4586.99   95.26
   2  -1  -2 4599.82   95.25
  -2   1  -2 4763.57   95.15
   2   1  -2 4527.70   94.89
   3   1  -2  490.46   11.26
   3  -1  -2  496.24   11.57
  -4  -1  -2  366.07    8.38
   4   1  -2  369.67    8.25
   5  -1   2  565.16   13.60
   5   1  -2  666.73   13.82
  -5  -1  -2  592.41   13.73
   5  -1  -2  651.72   13.80
   6  -1  -2  202.25    5.04
  -6  -1   2  204.54    5.04
   6  -1   2  198.18    5.01
  -6  -1  -2  208.23    5.10
   7  -1  -2  650.50   13.49
   7  -1  -2  618.52   13.01
   8  -1  -2  197.99    6.32
   8  -1  -2  269.45    5.49
   8   1  -2  255.92    5.49
   8   1  -2  216.02    5.62
   9  -1   2   59.31    3.00
   9   1   2   54.21    3.11
   9  -1   2   54.24    2.68
   9  -1  -2   55.78    3.26
   9   1  -2  140.96    2.59
   9  -1  -2  147.99    2.61
  10   1  -2  102.79    2.52
  10  -1  -2   98.15    2.52
  10  -1   2   99.74    3.55
  10   1  -2   88.67    2.71
  10  -1  -2   85.13    2.61
  10   1   2  107.81    3.88
  10  -1   2   92.58    2.92
  11  -1  -2   81.78    2.34
  11   1  -2   85.11    2.34
  11  -1  -2   83.68    2.91
  11  -1  -2   81.88    2.48
  11  -1   2   86.01    2.82
  11  -1   2   91.27    3.58
  11   1  -2   84.59    2.82
  12   1  -2  260.12    6.07
  12  -1  -2  260.43    6.15
  13  -1  -2   56.91    2.56
  13   1  -2   56.90    2.41
  14   1   2   94.82    3.38
  14   1  -2   91.05    3.22
  14  -1  -2   95.88    3.44
  15   1   2   59.29    2.68
  15   1  -2   60.14    2.48
  16   1  -2    4.27    1.33
  16   1   2    3.52    1.49
  17   1   2    5.38    1.36
  17   1   2    5.13    1.39
  17   1  -2    6.04    1.46
  17   1  -2    3.87    1.27
  18   1   2    0.91    1.21
  18  -1   2    1.17    1.18
  18   1   2    0.85    1.10
  18   1  -2    1.13    1.15
  18   1  -2    1.39    1.07
  -1  -2  -2   94.86    3.55
  -1  -2   2  130.20    3.71
   2  -2   2  692.97   14.87
  -2  -2   2  714.08   14.87
   2  -2  -2  605.65   15.04
  -2  -2  -2  601.21   14.99
  -3  -2   2   86.22    2.89
   3  -2  -2   85.73    3.22
   3  -2   2   85.01    2.90
   4  -2   2  225.25    5.76
  -4  -2   2  210.82    5.59
   5  -2   2  205.37    5.74
  -5  -2   2  208.23    5.70
   5  -2  -2  216.70    5.96
   6  -2   2  461.91   11.38
  -6  -2   2  455.03   11.30
  -6  -2  -2  516.34   11.62
   6  -2  -2  527.35   11.64
   7  -2  -2  116.97    3.69
   7  -2   2  109.08    3.60
  -7  -2   2  104.28    3.59
  -7  -2  -2  126.42    3.80
   7  -2  -2  128.78    4.08
   8  -2  -2   54.37    1.72
   8   2  -2   59.39    1.71
   8   2   2   55.79    2.43
   8  -2  -2   45.27    2.58
   8   2  -2   52.36    1.92
   8  -2   2   53.24    2.23
   8   2  -2   46.35    1.70
   9   2   2  102.85    3.53
   9   2  -2   99.46    2.36
   9  -2  -2   88.30    2.35
   9   2  -2   74.80    2.45
   9  -2   2   85.52    3.11
   9  -2  -2   85.84    2.61
   9  -2  -2   84.55    3.47
   9   2  -2   77.77    2.66
  10   2  -2  257.82    6.45
  10  -2  -2  257.33    6.27
  11   2   2   35.01    2.76
  11   2  -2   34.64    1.97
  11  -2   2   37.07    2.07
  11  -2  -2   31.93    1.51
  12   2  -2   44.37    2.51
  12   2  -2   44.61    2.21
  12  -2   2   39.02    2.15
  12   2   2   42.70    2.39
  13   2   2   88.43    3.32
  13   2  -2   88.73    3.40
  13   2   2   84.30    3.21
  13  -2  -2   93.42    2.92
  13  -2   2   88.59    3.12
  13   2  -2   85.38    3.08
  14  -2  -2   30.81    1.80
  14   2   2   29.75    2.07
  14   2  -2   27.98    1.91
  14   2   2   27.98    2.13
  14   2  -2   29.60    2.18
  15   2   2   26.30    1.92
  15   2  -2   27.03    1.81
  15   2  -2   25.82    2.01
  15   2   2   24.11    1.94
  16   2   2    7.03    1.49
  16   2  -2    7.38    1.58
  16   2  -2    8.92    1.28
  17   2   2    2.43    1.51
  17   2  -2    2.88    1.07
  17   2   2    2.53    1.25
  17   2  -2    2.23    1.29
  18   2  -2    2.49    0.85
  -1  -3   2 1412.49   20.20
  -1  -3  -2  561.91   18.67
  -2  -3  -2  203.93    6.65
   2  -3   2  313.24    7.12
  -2  -3   2  347.11    7.37
   2  -3  -2  201.16    6.70
  -2   3  -2  208.61    5.72
   3  -3   2   31.66    2.45
  -3  -3  -2   25.14    2.20
   3   3  -2   25.79    1.95
   3  -3  -2   26.34    2.26
   4  -3   2   16.32    2.04
  -4  -3   2   16.67    1.94
   4  -3  -2   14.43    2.02
  -4  -3  -2   17.10    2.00
   4   3  -2   16.96    1.98
   4   3   2   14.83    1.98
  -5  -3   2  170.77    5.46
   5  -3   2  172.13    5.60
   5   3   2  165.05    4.90
   5   3  -2  170.06    4.96
  -5  -3  -2  179.78    4.52
   6  -3   2   72.74    3.33
  -6  -3   2   75.59    3.26
   6   3   2   81.87    3.00
   6   3   2   84.61    2.78
   6  -3  -2   71.13    3.48
   6   3  -2   86.89    3.13
  -6  -3  -2   82.33    2.57
  -6  -3  -2   72.01    3.35
   7   3   2   33.27    2.08
   7  -3  -2   24.56    1.85
   7   3   2   32.20    1.90
   7   3  -2   32.44    2.15
  -7  -3  -2   29.50    1.56
   7  -3   2   33.63    2.37
  -7  -3  -2   23.88    1.89
   8   3   2   45.46    2.50
   8   3   2   46.14    2.39
   8   3  -2   50.28    2.52
  -8  -3  -2   47.57    1.93
   9   3   2   43.46    2.38
   9  -3  -2   36.82    1.74
   9   3  -2   43.29    2.46
  -9  -3  -2   43.21    1.83
  10   3  -2  212.91    5.71
 -10  -3  -2  201.32    5.08
  10   3   2  208.09    5.70
  10   3   2  206.77    5.61
  11   3  -2  114.72    3.87
  11   3   2  110.67    3.78
  11   3   2  115.66    3.96
  11   3  -2  112.81    3.56
  11  -3  -2  103.27    3.08
  12   3   2  113.84    3.98
  12   3   2  109.42    3.82
  12   3  -2  116.04    3.62
  12  -3   2  117.47    3.71
  12   3  -2  116.59    3.94
  13   3   2  131.43    4.24
  13   3   2  129.09    4.12
  13   3  -2  128.46    4.20
  13   3  -2  134.78    3.95
  13  -3   2  127.74    3.91
  13  -3  -2  140.04    3.88
  14   3  -2   34.73    1.87
  14   3  -2   32.08    2.31
  14  -3   2   35.88    1.97
  14   3   2   32.92    2.19
  14  -3  -2   36.51    1.79
  15   3   2   11.35    1.80
  15   3  -2   12.91    1.34
  15  -3   2   11.75    1.45
  15   3  -2   12.87    1.93
  15  -3  -2   12.13    1.27
  16   3  -2    6.94    1.47
  16   3  -2    4.14    1.01
 -16   3  -2    5.51    1.02
  16   3   2    6.13    1.48
  17   3  -2   22.03    1.09
   0   4  -2   62.34    2.19
  -1  -4  -2   20.35    2.41
  -1   4  -2   15.44    1.35
   1   4  -2   15.34    1.21
  -1  -4  -2   18.57    1.27
  -2   4  -2  480.94   11.96
  -2  -4   2  812.54   14.25
  -2  -4  -2  509.19   11.84
   2  -4  -2  499.84   11.82
   2  -4   2  787.63   14.27
  -2  -4  -2  469.62   13.47
   2  -4  -2  449.70   13.56
  -3  -4   2  199.43    5.76
  -3  -4  -2  125.99    3.57
  -3  -4  -2  118.91    5.07
   3  -4  -2  119.86    3.53
  -3   4  -2  119.32    3.76
   3  -4   2  177.40    5.65
   3  -4  -2  117.39    5.16
  -4  -4   2  253.59    7.01
   4  -4   2  244.84    7.12
  -4  -4  -2  186.64    4.93
  -4   4  -2  186.00    5.24
   4  -4  -2  189.42    4.97
   5  -4   2   36.98    3.02
   5  -4  -2   34.35    1.60
  -5  -4  -2   33.10    1.56
  -5   4  -2   30.79    1.92
  -5  -4  -2   34.12    1.75
   6  -4  -2  122.82    3.41
   6   4   2  123.38    4.10
  -6  -4  -2  123.21    3.38
  -6  -4  -2  103.94    4.72
  -6  -4  -2  125.84    3.61
   6  -4  -2  107.10    4.82
   6  -4   2  120.63    5.11
   6   4  -2  126.28    4.26
  -6  -4   2  125.27    5.00
   7  -4  -2   51.57    1.93
   7   4  -2   54.61    2.86
  -7  -4  -2   56.59    2.22
   7   4   2   55.66    2.73
   8   4   2  146.80    4.56
  -8  -4  -2  149.05    4.19
   9   4  -2   35.84    2.43
   9   4   2   34.66    2.35
   9  -4  -2   34.09    1.67
  -9  -4  -2   36.31    1.76
  10   4  -2   99.18    3.49
  10   4   2   97.45    3.41
 -10  -4  -2   96.05    2.84
  11   4  -2   32.75    2.20
  11   4   2   32.26    2.15
  11   4  -2   35.27    1.88
 -11  -4  -2   33.68    1.54
  12   4  -2    6.12    1.25
  12  -4   2    4.08    1.35
  12   4  -2    4.91    1.67
  12   4   2    3.04    1.57
  13   4  -2    2.01    1.12
  13   4   2    2.35    1.52
  13   4  -2    3.02    1.61
  13  -4  -2    2.47    1.19
  13  -4   2    2.83    1.20
  14   4  -2   -0.67    0.97
  14  -4  -2    1.53    0.99
  14  -4   2    0.14    1.11
 -15   4  -2    3.72    0.85
  15   4  -2    4.03    0.84
  15  -4   2    4.54    0.93
  -1  -5  -2  100.16    3.22
  -1  -5   2  143.79    5.29
  -2   5  -2  113.67    3.41
  -2  -5  -2  124.22    3.61
   2  -5  -2  121.06    3.54
  -2  -5  -2  122.49    3.64
   2  -5  -2  129.35    3.65
  -2  -5   2  176.87    5.83
   2  -5   2  176.50    5.92
  -3   5  -2  164.67    4.63
  -3  -5  -2  176.87    4.74
   3  -5  -2  188.82    4.82
   3  -5  -2  177.83    4.63
  -3  -5  -2  173.10    6.60
   3  -5  -2  168.00    6.73
  -4   5  -2   90.36    2.93
  -4  -5  -2   96.90    2.95
   4  -5  -2   96.10    2.96
  -5   5  -2   59.59    2.34
  -5  -5  -2   65.70    2.40
  -5  -5  -2   61.63    2.22
   5  -5  -2   66.32    2.30
  -6   5  -2   22.69    1.60
   6  -5  -2   24.93    1.36
  -6  -5  -2   21.31    1.29
   6  -5   2   20.90    1.26
  -6  -5   2   21.03    1.24
  -6  -5  -2   24.10    1.46
   7  -5  -2   29.61    1.34
  -7   5  -2   32.16    1.75
   7  -5   2   26.00    1.30
  -7  -5  -2   30.02    1.57
   8  -5  -2   15.56    1.18
  -8  -5  -2   14.78    1.21
  -8   5  -2   16.58    1.43
  -9   5  -2   65.42    1.99
  -9  -5  -2   68.65    1.75
 -10   5  -2   30.15    1.57
 -10  -5  -2   29.97    1.33
 -11   5  -2    0.20    0.96
  11   5  -2   -0.14    0.95
 -11  -5  -2    0.38    0.67
  11  -5   2    0.93    1.07
  12  -5   2   44.46    1.62
 -12   5  -2   40.29    1.57
  12   5  -2   44.89    1.60
  13   5  -2    0.93    0.69
   0  -6  -2    1.98    0.80
  -1  -6  -2    2.15    0.83
   1  -6  -2    2.52    0.80
  -1  -6  -2    3.27    0.85
  -1  -6   2    2.01    0.78
  -2  -6  -2    0.55    0.78
   2  -6  -2    0.93    0.76
   2  -6  -2   -0.19    0.63
  -2  -6  -2    1.13    0.82
  -2  -6   2   -0.07    0.77
   2  -6   2    0.59    0.78
  -3  -6   2   25.37    1.20
  -3  -6  -2   23.21    1.26
  -3  -6  -2   19.64    1.19
   3  -6  -2   21.23    1.22
   3  -6   2   26.47    1.26
   4  -6  -2   96.79    2.77
  -4  -6  -2   93.24    2.73
   4  -6   2  102.23    2.75
  -4  -6   2  107.58    2.77
   5  -6   2   24.50    1.19
  -5  -6  -2   21.75    1.11
   5  -6  -2   23.54    1.15
  -6  -6  -2   26.82    0.93
   6  -6   2   -0.35    0.51
  -6  -6  -2   29.99    1.16
   6  -6  -2   -0.16    0.48
  -6  -6   2   32.81    1.01
   7  -6  -2   -0.08    0.42
  -7  -6  -2    0.13    0.66
  -7  -6   2    0.37    0.68
  -8  -6  -2    0.72    0.61
  -8  -6   2    0.51    0.51
  -9  -6  -2    3.03    0.51
  10   6  -2    3.82    0.54
  -1  -7   2   21.01    0.75
  -1  -7   2   19.64    0.76
  -1   0  -3    0.12    0.87
   2   0  -3  484.86   11.12
  -2   0  -3  474.36   11.11
  -3   0  -3    0.57    0.92
   3   0  -3    0.62    0.89
  -4   0  -3   57.28    2.25
   4   0  -3   55.23    2.24
   5   0  -3    0.22    0.86
  -5   0  -3    0.35    0.90
   6   0  -3   96.64    3.15
  -6   0  -3  108.64    3.24
   6   0  -3  102.72    3.64
  -7   0  -3    0.40    0.75
   7   0  -3    0.50    0.66
   7   0  -3    0.25    1.55
   7   0  -3    1.64    0.61
   8   0  -3  573.88   12.58
   8   0   3  571.02   11.57
   9   0  -3   -0.73    1.10
   9   0  -3   -0.13    1.10
   9   0  -3    0.53    0.86
   9   0   3   -0.20    1.18
   9   0  -3    0.92    1.93
  10   0  -3  447.08    9.95
  10   0  -3  453.20   10.44
  10   0  -3  470.74   11.55
  10   0  -3  461.13   10.26
  10   0   3  455.67   10.45
  11   0   3    0.05    1.39
  11   0  -3    0.66    0.99
  12   0  -3  293.99    6.52
  12   0   3  293.34    8.21
  12   0   3  288.72    7.19
  13   0   3   -0.49    2.27
  13   0  -3    0.79    1.08
  13   0  -3    1.54    1.08
  14   0  -3   36.25    1.73
  15   0  -3   -0.46    0.77
  16   0  -3   41.34    2.13
  17   0  -3   -0.26    1.21
  -1  -1  -3 1164.49   26.24
  -1   1  -3 1227.81   26.17
  -2  -1  -3 2750.64   60.40
   2  -1  -3 2789.35   60.40
   2   1  -3 2893.72   60.25
  -2   1  -3 2878.33   60.27
  -3  -1  -3  119.10    3.68
   3  -1  -3  120.23    3.68
   3   1  -3  120.45    3.50
  -4  -1  -3  711.62   14.40
  -4   1  -3  537.72   13.92
   4  -1  -3  676.93   14.29
   4   1  -3  573.27   14.01
   4   1  -3  656.14   14.01
   5  -1  -3  648.66   14.97
  -5  -1  -3  646.10   15.00
   5   1  -3  673.98   14.86
   6  -1  -3   71.89    2.55
  -6  -1  -3   71.63    2.60
   7   1  -3  144.33    3.51
   7  -1  -3  173.19    3.65
   7   1   3  159.27    4.04
   7   1  -3  162.57    3.75
   7  -1  -3  142.01    4.25
  -7  -1  -3  148.91    4.35
   7   1  -3  169.27    4.77
  -7  -1   3  119.71    4.11
   7  -1   3  157.65    3.84
   7  -1   3  117.76    4.10
   8   1  -3  198.66    4.89
   8  -1  -3  206.32    4.92
   8  -1  -3  216.49    6.18
   8  -1   3  233.26    5.30
   8   1  -3  248.83    5.21
   9  -1  -3   22.00    1.28
   9   1  -3   22.29    1.25
   9  -1  -3   23.71    1.26
   9   1   3   25.26    1.74
   9   1  -3   24.28    1.52
   9   1  -3   21.79    1.36
   9  -1  -3   22.59    2.42
   9  -1   3   23.21    1.52
   9  -1  -3   23.79    1.55
   9   1  -3   23.26    1.40
  10   1  -3  123.48    3.01
  10  -1  -3  130.86    3.05
  10   1   3  116.68    3.65
  10   1   3  126.73    4.41
  10  -1  -3  113.50    3.28
  10  -1  -3  109.02    3.51
  10   1  -3  110.08    3.47
  10  -1  -3  109.62    4.51
  10  -1   3  117.63    4.04
  10  -1   3  115.43    3.49
  10   1  -3  122.30    3.37
  11  -1  -3  329.49    8.10
  11   1  -3  354.93    7.80
  11  -1  -3  374.74    7.83
  11   1   3  334.02    8.45
  11  -1   3  359.62    9.26
  11  -1   3  330.69    8.31
  11   1  -3  334.25    8.18
  12   1   3  201.89    5.45
  12   1  -3  201.69    4.71
  12  -1  -3  201.83    4.72
  12  -1   3  196.87    6.25
  12   1  -3  186.54    5.06
  12  -1   3  197.39    5.27
  12  -1  -3  185.17    4.92
  13  -1  -3   20.03    1.38
  13  -1   3   21.65    1.79
  13   1  -3   21.33    1.51
  14  -1  -3   24.71    1.38
  14   1  -3   23.65    1.58
  15  -1   3    2.38    1.45
  15   1  -3    1.89    1.28
  15   1  -3    3.47    1.54
  16   1   3    7.51    1.40
  16   1  -3    4.83    1.38
  16   1  -3    5.66    1.29
  17   1   3    1.06    1.14
  17   1  -3    2.85    1.16
  18   1   3    0.84    1.18
  -1  -2   3  726.97   14.81
  -1  -2  -3  547.61   14.55
   2  -2  -3  245.86    7.28
   2  -2   3  302.60    7.37
  -2  -2   3  326.43    7.41
  -2  -2  -3  244.02    7.25
  -3  -2   3 1409.99   29.19
   3  -2   3 1430.90   29.24
  -3  -2  -3 1226.44   29.39
   3  -2  -3 1218.11   29.40
  -4  -2  -3 1285.36   28.73
  -4  -2   3 1369.29   28.41
   4  -2   3 1339.55   28.41
   5  -2  -3   82.69    3.24
   5   2   3   95.81    2.84
   5   2  -3   91.32    2.50
   5  -2   3   81.51    3.18
  -5  -2   3   84.67    3.17
  -5  -2  -3   78.98    3.18
   6  -2  -3  414.27    8.66
   6   2  -3  460.00    9.07
   6   2   3  440.29    9.36
   6  -2   3  359.30    9.79
  -6  -2   3  335.38    9.58
   6   2  -3  379.88    8.62
   6  -2  -3  400.88   10.09
  -6  -2  -3  415.29   10.19
   7   2  -3  301.39    7.25
   7  -2  -3  357.98    7.31
   7   2   3  359.34    8.01
   7  -2   3  266.55    8.20
  -7  -2   3  261.51    8.25
   7  -2  -3  299.70    8.35
   7  -2  -3  344.25    7.72
   7   2  -3  376.00    7.94
  -7  -2  -3  321.13    8.49
  -7  -2  -3  358.37    7.75
   7   2  -3  366.19    7.62
   8   2  -3   12.86    1.01
   8  -2  -3   12.84    1.07
   8   2   3   15.24    1.66
  -8  -2  -3   15.62    1.18
   8  -2  -3   11.59    2.34
   8   2  -3   13.79    1.14
   8  -2  -3   15.32    1.25
   9   2  -3   66.01    2.32
   9   2  -3   83.51    2.10
   9   2  -3   72.36    2.51
   9  -2  -3   85.54    2.14
   9   2   3   67.66    2.78
   9  -2   3   72.28    2.60
   9  -2   3   72.76    3.17
   9   2  -3   70.22    2.60
   9   2   3   69.62    2.71
   9   2  -3   69.95    2.78
   9  -2  -3   69.68    2.41
   9  -2  -3   62.89    3.47
  -9  -2  -3   72.28    2.42
  10  -2  -3  200.67    6.71
  10   2  -3  247.81    5.32
  10  -2  -3  240.72    5.34
  10   2   3  221.11    6.03
 -10  -2  -3  225.88    5.69
  10   2   3  261.60    7.06
  10   2  -3  227.74    6.00
  10   2   3  213.89    5.90
  10   2  -3  235.65    5.86
  10  -2   3  220.37    5.79
  10  -2  -3  209.75    5.64
  11   2  -3  266.16    6.03
  11  -2  -3  270.28    6.07
  11   2   3  264.60    7.68
  11   2  -3  276.91    6.86
  11   2   3  265.87    6.77
  11   2  -3  242.62    6.56
  11  -2  -3  265.73    6.44
  11  -2   3  269.26    6.64
  12   2   3   55.40    3.42
  12   2   3   58.58    2.57
  12   2  -3   59.84    2.68
  12  -2  -3   61.56    2.19
  12  -2   3   65.22    2.56
  13  -2  -3    3.76    0.96
  13   2   3    4.26    1.56
  13   2  -3    5.54    1.65
  13  -2   3    4.32    1.47
  14   2  -3   77.37    2.92
  14   2   3   75.02    2.82
  14  -2   3   80.33    2.81
  15   2  -3    3.48    1.27
  15   2  -3    4.21    1.51
  15  -2   3    4.18    1.39
  15   2   3    4.25    1.43
 -16   2  -3    1.91    0.93
  16   2  -3    1.35    1.07
  16   2   3    2.02    1.27
  16   2  -3    2.27    1.38
  17  -2   3    0.12    1.06
  17   2  -3    0.90    0.95
   0   3  -3    0.67    1.01
  -1   3  -3   18.70    1.44
   1   3  -3   19.94    1.33
  -1  -3  -3   15.09    1.84
  -2   3  -3   44.22    1.97
   2   3  -3   40.07    1.76
  -2  -3  -3   42.08    2.67
   2  -3  -3   37.05    2.62
  -3   3  -3   88.40    2.96
   3  -3  -3   93.72    2.69
   3  -3   3   90.88    3.88
  -3  -3   3  101.17    3.94
  -3  -3  -3   90.45    2.66
  -3  -3  -3   89.40    3.82
   3  -3  -3   87.08    3.87
   4  -3  -3   83.30    3.80
  -4  -3  -3   86.78    3.80
   4  -3   3  108.05    4.24
  -4  -3   3  103.94    4.20
  -4   3  -3  105.77    3.29
  -4  -3  -3  101.43    2.85
   4  -3  -3  101.54    2.88
   4   3  -3  107.28    3.38
   5   3  -3   19.06    1.81
   5  -3  -3   14.89    1.89
  -5  -3  -3   13.19    1.79
  -5  -3  -3   15.48    1.11
  -5  -3  -3   15.57    1.20
   5  -3   3   15.58    2.53
  -5  -3   3   14.25    2.42
   5   3  -3   16.04    1.18
   5  -3  -3   16.92    1.11
  -6  -3  -3   10.63    1.65
   6   3   3   16.53    2.09
   6   3  -3   16.92    2.09
  -6  -3  -3   13.48    1.22
   6  -3  -3   14.35    1.07
  -6  -3   3   12.07    2.09
   6  -3   3   12.15    2.19
   6   3  -3   15.25    1.17
   6  -3  -3   11.00    1.67
   7   3  -3    3.05    0.94
   7   3   3    2.48    1.29
   7  -3  -3    4.62    1.24
   7   3   3    3.63    2.06
   7   3   3    2.51    2.06
   7   3  -3    2.82    2.34
   7  -3   3    2.97    1.83
  -7  -3  -3    3.21    1.03
   8   3   3   58.34    2.98
   8   3   3   58.37    2.69
   8  -3  -3   53.11    2.09
   8   3   3   58.94    2.79
  -8  -3  -3   55.58    2.10
   8   3  -3   62.91    3.28
   8   3  -3   52.71    1.89
   9  -3  -3   54.53    2.19
   9   3   3   54.94    2.87
   9   3   3   60.42    2.76
   9   3  -3   64.96    3.00
  -9  -3  -3   59.31    2.15
   9   3  -3   51.27    1.98
 -10  -3  -3   81.26    2.62
  10  -3  -3   74.26    2.55
  10   3   3   75.95    3.08
  10   3  -3   79.38    3.24
  11   3  -3    2.52    1.99
  11  -3  -3    0.96    1.02
  11   3   3    1.50    1.77
 -11  -3  -3    1.08    1.00
  11  -3   3    1.32    1.35
  12   3  -3   46.00    2.64
  12  -3   3   45.19    2.11
  12   3   3   43.03    2.45
  12  -3  -3   41.32    1.73
  13   3   3   13.18    1.96
  13   3  -3   14.30    2.08
  13  -3   3   12.04    1.53
 -14   3  -3   58.30    2.33
  14   3  -3   60.62    2.52
  14   3   3   57.00    2.51
  14  -3   3   60.78    2.31
  15   3   3   11.25    1.33
  15   3  -3   12.13    1.23
  15   3  -3   10.62    1.34
  15  -3   3   14.17    1.34
 -15   3  -3   11.92    1.18
  16   3  -3    6.83    0.96
   0   4  -3    0.56    1.07
   0  -4  -3   -0.12    0.95
  -1   4  -3   22.05    1.56
   1   4  -3   21.49    1.46
  -1  -4  -3   23.95    1.40
  -1  -4  -3   19.47    2.33
  -1  -4  -3   20.74    1.41
   1  -4  -3   25.66    1.45
  -2   4  -3  604.98   14.40
   2  -4  -3  616.51   14.30
   2  -4   3 1023.40   17.60
  -2  -4   3 1078.14   17.73
  -2  -4  -3  594.74   16.22
   2  -4  -3  601.42   16.27
   2  -4  -3  609.40   14.17
  -2  -4  -3  614.21   14.31
  -2  -4  -3  624.48   14.28
  -3   4  -3  266.51    6.89
   3  -4   3  372.79    8.97
  -3  -4   3  371.12    8.98
  -3  -4  -3  243.07    8.24
   3  -4  -3  242.34    8.26
  -3  -4  -3  266.52    6.60
   3  -4  -3  262.14    6.62
  -3  -4  -3  261.09    6.67
  -4   4  -3   50.68    2.32
  -4  -4  -3   48.44    1.94
   4  -4   3   58.16    3.53
  -4  -4   3   59.04    3.47
   4  -4  -3   44.77    2.92
   4  -4  -3   49.47    1.96
  -4  -4  -3   44.05    2.84
   4   4  -3   44.37    1.78
  -5   4  -3   44.45    2.22
  -5  -4   3   49.82    3.38
   5  -4   3   52.57    3.44
  -5  -4  -3   37.68    2.80
   5  -4  -3   40.81    2.94
  -5  -4  -3   40.88    1.76
   5  -4  -3   43.18    1.80
  -5  -4  -3   42.17    1.90
   5   4  -3   41.19    1.69
  -6  -4   3  100.07    4.56
   6  -4   3  100.00    4.69
  -6   4  -3  102.61    3.37
  -6  -4  -3   81.23    4.03
   6  -4  -3   79.64    4.17
  -6  -4  -3   93.59    2.84
   6  -4  -3   98.28    2.88
  -6  -4  -3  100.72    3.08
  -7   4  -3  196.81    5.47
   7  -4  -3  190.99    4.87
  -7  -4  -3  201.71    5.17
  -8   4  -3  197.69    5.59
   8  -4  -3  199.40    5.15
  -8  -4  -3  202.27    5.19
   9  -4  -3    2.99    1.10
  -9  -4  -3    2.93    1.03
  10  -4  -3   55.89    2.07
 -10  -4  -3   58.96    2.14
  10  -4   3   59.77    2.34
  11  -4  -3   10.61    1.00
 -11  -4  -3   11.71    1.08
  11  -4   3   12.43    1.41
 -12  -4  -3   37.20    1.20
  12  -4   3   40.20    1.63
 -13   4  -3    0.97    1.01
  13  -4   3   -0.02    1.10
 -14   4  -3   25.67    1.32
  14  -4   3   26.60    1.33
  15   4  -3    8.11    0.77
   0  -5  -3   -0.30    0.92
  -1  -5  -3   66.49    2.32
   1  -5  -3   65.96    2.22
  -1  -5  -3   59.11    2.23
  -2   5  -3   29.92    1.56
   2  -5  -3   30.69    1.61
  -2  -5  -3   30.41    1.56
   2  -5  -3   29.97    1.46
  -2  -5  -3   31.37    1.59
  -3   5  -3   28.40    1.54
  -3  -5  -3   31.88    1.55
   3  -5  -3   30.40    1.56
  -3  -5  -3   29.23    1.58
  -4   5  -3   22.31    1.46
   4  -5  -3   22.34    1.34
  -4  -5  -3   24.06    1.37
  -5   5  -3   21.75    1.44
   5  -5  -3   19.21    1.26
  -5  -5  -3   18.60    1.24
  -6   5  -3    8.59    1.21
  -6  -5  -3    9.95    1.13
  -6  -5  -3    8.32    0.96
   6  -5  -3    9.03    0.99
  -7   5  -3   18.12    1.35
  -7  -5  -3   18.84    1.20
  -8   5  -3   50.92    2.02
  -8  -5  -3   52.63    1.89
  -9   5  -3   27.85    1.51
  -9  -5  -3   31.21    1.42
   9  -5  -3   30.24    1.33
 -10   5  -3   24.61    1.23
 -10  -5  -3   26.71    1.10
  10  -5   3   26.69    1.23
 -11   5  -3    0.82    0.77
 -11  -5  -3    1.32    0.60
   0  -6  -3    0.42    0.67
  -1  -6  -3   10.92    0.89
  -1  -6  -3   10.17    0.87
  -2  -6  -3    3.66    0.76
   2  -6  -3    3.73    0.78
  -2  -6  -3    3.74    0.75
  -2  -6   3    4.70    0.77
   2  -6   3    3.85    0.74
   3  -6  -3    3.86    0.76
  -3  -6  -3    3.54    0.74
  -3  -6  -3    3.85    0.77
  -3  -6   3    4.32    0.76
   3  -6   3    5.03    0.77
   4  -6   3   37.65    1.35
  -4  -6   3   39.62    1.34
  -4  -6  -3   32.28    1.33
   4  -6  -3   34.15    1.34
  -4  -6  -3   33.72    1.35
  -5  -6   3   19.76    0.94
   5  -6  -3   18.29    0.95
  -5  -6  -3   18.18    0.93
   5  -6   3   18.92    0.97
   6  -6  -3   31.38    1.01
  -6  -6  -3   34.16    1.06
   7  -6  -3    2.50    0.60
  -7  -6  -3    3.03    0.67
  -7  -6   3    2.62    0.56
  -8  -6  -3    5.61    0.61
   8   6  -3    6.19    0.71
  -1   0  -4   -0.22    0.98
   2   0  -4  402.73    9.81
  -2   0  -4  381.48    9.76
   3   0  -4    0.57    1.06
  -3   0  -4    0.63    1.04
   4   0  -4   17.73    1.59
  -4   0  -4   14.18    1.49
   5   0  -4    0.45    0.79
   5   0  -4   -0.40    0.78
   5   0  -4   -0.09    0.97
  -5   0  -4   -0.40    1.03
   6   0  -4   88.55    3.43
  -6   0  -4   89.23    3.43
   6   0  -4   96.29    2.47
   7   0  -4    0.28    0.91
   7   0  -4   -0.15    0.79
  -7   0  -4    0.12    0.91
   7   0  -4   -0.15    0.60
   8   0  -4   47.94    1.57
   8   0  -4   54.69    2.01
   8   0  -4   58.73    3.18
  -8   0  -4   56.81    1.93
   8   0   4   56.37    2.14
   8   0  -4   51.52    1.95
   9   0  -4    0.56    1.19
   9   0  -4    1.15    2.17
  -9   0  -4    0.20    0.93
   9   0   4   -0.50    1.38
  10   0  -4  348.65    8.21
  10   0  -4  370.40    9.68
  10   0  -4  363.82    8.14
  11   0  -4    0.05    1.38
  11   0  -4   -0.23    1.12
  12   0  -4  439.81    9.43
  12   0   4  402.21   11.42
  12   0  -4  429.20   10.04
  12   0  -4  400.74    9.79
  13   0   4    0.06    1.53
  13   0  -4   -1.31    1.07
  13   0  -4    0.95    1.36
  13   0  -4    1.31    1.10
  14   0   4    1.90    1.45
  14   0  -4    1.36    1.34
  14   0  -4    1.82    1.09
  15   0   4    0.28    1.36
  15   0  -4    1.20    0.96
  16   0   4   11.22    1.40
  17   0   4    0.55    1.04
  -1  -1  -4  402.48   10.12
  -1   1  -4  407.22   10.04
  -2  -1  -4 2168.81   47.50
   2  -1  -4 2142.16   47.47
   2   1  -4 2259.16   47.36
  -2   1  -4 2191.72   47.36
   3  -1  -4  126.14    4.20
  -3  -1  -4  131.42    4.27
   3   1  -4  126.07    4.17
  -3   1  -4  138.22    4.25
   4   1  -4  318.67    7.99
   4  -1  -4  278.83    7.95
  -4  -1  -4  285.53    7.99
   4   1  -4  252.10    7.91
  -4   1  -4  267.85    7.93
   4   1  -4  340.18    7.08
   4  -1  -4  343.57    7.09
   4   1  -4  326.52    7.21
  -5   1  -4  664.10   14.11
   5   1  -4  585.16   14.56
  -5  -1  -4  626.57   15.03
   5  -1  -4  627.50   15.00
   5   1  -4  617.57   13.65
   5  -1  -4  631.23   13.66
   5  -1  -4  674.23   13.80
   6  -1  -4   44.74    2.38
  -6  -1  -4   48.38    2.41
   6   1  -4   48.84    2.70
   6   1  -4   43.75    1.38
   6  -1  -4   46.03    1.40
  -7   1  -4   18.23    1.41
   7  -1  -4   14.31    1.49
  -7  -1  -4   15.83    1.58
   7   1   4   17.81    1.57
   7   1  -4   19.60    1.20
   7  -1  -4   16.61    1.36
   7   1  -4   18.40    2.15
  -7  -1  -4   19.59    1.26
   7   1  -4   17.39    1.26
   7   1  -4   14.67    0.83
   7  -1  -4   16.35    0.84
   8   1  -4  127.40    3.35
   8   1   4  133.85    3.92
   8  -1  -4  126.82    4.98
   8  -1  -4  130.81    3.80
   8   1  -4  131.66    3.71
   8   1  -4  134.57    4.81
  -8  -1  -4  138.26    3.74
   8  -1   4  131.72    3.71
   9   1  -4    0.02    1.14
   9   1  -4   34.06    1.70
   9  -1  -4   41.79    1.72
   9   1   4    1.67    1.44
   9  -1  -4    1.17    1.28
   9  -1  -4    0.68    2.28
   9   1  -4    0.74    1.15
   9  -1  -4    0.95    1.01
  -9  -1  -4    1.13    0.95
   9  -1   4    0.82    1.23
  10   1  -4  349.81    7.72
  10  -1  -4  379.12    7.75
  10   1   4  328.93    8.38
  10  -1  -4  331.16    8.35
  10   1  -4  327.65    8.23
  10  -1  -4  313.30    9.49
  10   1  -4  362.50    8.25
 -10  -1  -4  344.95    8.14
  10  -1   4  312.00    8.12
  10  -1  -4  359.53    8.17
 -11   1  -4   50.81    2.22
  11   1  -4   56.92    1.91
  11  -1  -4   62.35    1.95
  11   1   4   54.11    2.57
  11  -1   4   47.91    3.35
  11  -1  -4   52.81    2.47
  11   1  -4   50.78    2.31
  11  -1  -4   51.72    3.77
  11  -1  -4   52.94    2.16
 -11  -1  -4   50.99    2.02
  11  -1   4   51.46    2.35
  11   1  -4   51.02    2.22
 -12   1  -4    3.43    1.22
  12   1   4    3.79    1.64
  12   1  -4    4.02    1.10
  12  -1  -4    3.65    1.11
  12  -1  -4    3.13    1.55
  12   1  -4    3.93    1.40
  12   1  -4    3.08    1.28
  12  -1  -4    3.67    1.12
  12  -1   4    3.15    1.50
  13   1   4    7.48    1.62
  13   1  -4    3.45    1.03
  13   1  -4    8.12    1.39
  13   1  -4    6.97    1.26
  13  -1  -4    7.24    1.13
  13  -1  -4    7.50    1.56
  13  -1   4    8.35    1.56
  14   1   4    3.14    1.49
  14   1  -4    2.79    1.26
  14   1  -4    2.15    1.13
  14  -1  -4    2.27    0.97
  15  -1   4   13.81    1.53
  15   1   4   12.57    1.53
  16  -1   4    4.44    1.31
  16   1   4    4.46    1.29
  17  -1   4   31.86    1.49
  17   1   4   29.64    1.65
   1   2  -4 1052.45   23.70
  -1  -2  -4 1049.82   24.88
  -2   2  -4  816.65   17.33
   2   2  -4  819.89   17.46
   2  -2   4  758.33   18.21
  -2  -2   4  798.09   18.30
  -2  -2  -4  728.35   18.40
   2  -2  -4  723.36   18.40
  -3   2  -4  415.55    9.00
  -3  -2   4  410.32    9.86
   3  -2   4  405.55    9.86
   3   2  -4  400.98    9.18
  -3  -2  -4  371.45   10.01
   3  -2  -4  364.01    9.97
   3   2  -4  370.18    8.31
   3  -2  -4  367.32    8.30
  -4   2  -4   80.04    2.63
   4   2   4   81.05    2.89
   4   2  -4   84.19    3.00
  -4  -2   4   68.96    3.25
  -4  -2  -4   75.66    3.30
   4  -2  -4   69.27    3.19
   4   2  -4   74.84    2.30
   4  -2   4   68.01    3.28
   4   2  -4   66.03    1.84
   4  -2  -4   69.86    1.86
  -5   2  -4   93.42    3.01
   5   2   4   96.25    3.12
  -5  -2   4   89.03    3.70
   5  -2   4   82.88    3.58
   5   2  -4  106.72    2.81
  -5  -2  -4   77.22    3.43
   5  -2  -4   80.27    3.48
  -5  -2  -4   95.30    2.74
   5   2  -4   95.59    2.69
   5   2  -4   83.60    2.19
   5  -2  -4   88.17    2.19
  -6   2  -4  141.10    3.88
   6   2   4  137.50    3.80
   6   2  -4  146.90    3.65
   6  -2   4  100.54    4.23
  -6  -2   4  100.83    4.17
   6  -2  -4  124.24    3.33
  -6  -2  -4  126.83    4.50
  -6  -2  -4  133.10    3.54
   6  -2  -4  128.58    4.50
   6   2  -4  141.48    3.48
   6   2  -4  118.04    2.93
   6  -2  -4  121.95    2.95
   7   2  -4   40.28    1.59
   7  -2  -4   40.77    1.69
  -7   2  -4   50.40    2.22
   7   2   4   51.60    2.31
   7  -2   4   34.13    2.74
   7  -2  -4   43.81    2.38
   7   2  -4   48.76    1.95
   7   2  -4   61.12    2.06
  -7  -2  -4   50.17    1.96
   7   2  -4   52.80    1.89
  -8   2  -4   16.97    1.61
   8   2  -4   13.46    1.27
   8  -2  -4   16.01    1.28
   8   2   4   17.88    1.76
   8   2  -4   20.81    1.46
   8  -2  -4   18.34    2.83
   8   2  -4   22.88    1.53
   8  -2  -4   20.35    1.39
  -8  -2  -4   20.77    1.39
   8  -2   4   17.65    1.39
   8   2  -4   17.27    1.27
  -9   2  -4   71.79    2.81
   9   2  -4   79.54    2.17
   9  -2  -4   83.86    2.21
   9   2   4   72.36    2.85
   9  -2  -4   68.43    3.83
  -9  -2  -4   74.20    2.56
   9  -2  -4   72.21    2.52
   9  -2   4   75.98    2.57
   9   2  -4   67.77    2.45
   9   2  -4   72.93    2.62
 -10   2  -4  148.23    4.36
  10   2  -4  142.12    3.59
  10  -2  -4  163.46    3.67
  10   2  -4  147.57    4.18
  10   2   4  143.86    4.35
  10  -2  -4  128.09    5.30
  10  -2  -4  148.06    4.02
 -10  -2  -4  152.12    4.07
  10  -2   4  153.05    4.14
  10   2  -4  133.97    3.95
 -11   2  -4  113.98    3.70
  11   2  -4  107.08    3.01
  11  -2  -4  120.88    3.08
  11   2   4  117.86    3.78
  11   2  -4  114.78    3.60
  11   2  -4  125.35    3.69
  11  -2  -4  120.30    3.44
 -11  -2  -4  121.03    3.40
  11  -2   4  117.04    3.56
 -12   2  -4   70.81    2.65
  12   2   4   65.91    2.77
  12   2  -4   67.69    2.60
  12   2  -4   63.49    2.51
  12  -2  -4   68.65    2.38
  12  -2   4   66.56    2.52
 -13   2  -4   28.30    1.67
  13   2   4   23.92    1.92
  13   2  -4   25.65    1.74
  13  -2  -4   23.07    1.39
  13  -2   4   24.31    1.74
 -14   2  -4    9.21    1.18
  14   2   4    8.54    1.70
  14   2  -4    9.01    1.33
  14  -2   4    9.18    1.43
  14  -2  -4    7.86    0.95
 -15   2  -4    9.27    1.02
  15   2   4   11.83    1.76
  16  -2   4    4.55    1.12
   0   3  -4  110.82    3.30
   0  -3  -4  109.06    3.10
  -1   3  -4   65.69    2.44
   1   3  -4   65.20    2.38
  -1  -3  -4   60.21    3.25
  -1  -3  -4   60.10    2.19
   1  -3  -4   65.01    2.14
  -1  -3  -4   64.22    2.22
  -2  -3  -4  135.99    5.17
   2  -3  -4  137.55    5.24
  -2  -3  -4  145.33    3.87
   2  -3  -4  141.94    3.83
  -2  -3  -4  135.29    3.84
   3  -3  -4  116.16    4.69
  -3  -3   4  128.73    5.33
  -3  -3  -4  129.39    3.55
   3  -3  -4  131.34    3.54
  -3  -3  -4  128.63    3.60
  -3  -3  -4  114.63    4.70
   4  -3   4  125.33    4.98
  -4  -3   4  113.21    4.82
  -4  -3  -4  115.77    3.26
   4  -3  -4  116.95    3.29
   4   3  -4  116.13    3.26
  -4  -3  -4  107.49    4.55
   4  -3  -4  109.06    4.59
   5  -3  -4   11.98    1.86
  -5   3  -4   13.95    1.53
   5  -3  -4   13.91    1.15
   5  -3   4   11.96    2.79
  -5  -3   4   10.94    2.67
  -5  -3  -4   13.33    1.14
   5   3  -4   12.30    1.24
  -5  -3  -4   11.39    1.82
   6  -3  -4   22.10    1.32
  -6   3  -4   21.73    1.75
  -6  -3  -4   23.64    1.42
  -6  -3  -4   21.99    2.09
   6  -3  -4   20.37    2.11
   6  -3   4   19.54    2.90
  -6  -3   4   18.33    2.81
   6   3  -4   25.07    1.44
  -6  -3  -4   22.72    1.28
  -7   3  -4   59.63    2.51
  -7  -3  -4   56.06    2.16
   7  -3  -4   54.38    1.93
   7   3  -4   55.08    2.01
  -8   3  -4   46.80    2.32
   8  -3  -4   49.82    2.05
  -8  -3  -4   49.81    2.06
   8  -3   4   47.59    2.02
   8   3  -4   45.84    1.83
  -9   3  -4   33.94    2.08
   9   3  -4   37.86    1.91
   9  -3  -4   35.72    1.78
  -9  -3  -4   35.14    1.78
   9  -3   4   35.11    1.78
   9   3  -4   31.07    1.61
 -10   3  -4   29.21    1.89
 -10  -3  -4   30.03    1.60
  10   3  -4   29.36    1.77
  10  -3  -4   25.66    1.58
  10  -3   4   30.31    1.73
  11   3  -4   53.52    2.27
  11  -3  -4   56.11    2.07
 -11  -3  -4   59.01    2.11
  11  -3   4   57.87    2.26
 -12   3  -4   14.43    1.45
  12   3  -4   14.42    1.40
  12  -3  -4   14.49    1.20
 -12  -3  -4   15.96    1.13
  12  -3   4   14.30    1.46
 -13   3  -4   17.90    1.39
  13   3  -4   17.69    1.42
  13  -3  -4   15.17    1.02
  13  -3   4   16.68    1.40
 -14   3  -4   14.55    1.22
  14   3  -4   15.17    1.27
  14  -3   4   17.56    1.36
   0   4  -4  876.29   19.48
   0  -4  -4  886.73   19.32
  -1   4  -4   93.74    3.18
  -1  -4  -4   90.70    3.02
  -1  -4  -4   97.09    3.10
   1  -4  -4   95.55    2.98
  -2   4  -4  284.91    7.08
  -2  -4  -4  263.26    8.61
   2  -4  -4  261.38    8.64
  -2  -4  -4  281.60    6.92
   2  -4  -4  287.93    6.92
   2  -4  -4  280.88    6.71
  -2  -4  -4  258.93    6.85
  -3  -4  -4  102.29    4.72
   3  -4  -4  111.11    4.89
  -3   4  -4  130.03    3.82
   3  -4   4  125.08    5.33
  -3  -4   4  135.24    5.61
  -3  -4  -4  124.96    3.57
   3  -4  -4  129.50    3.60
  -3  -4  -4  127.46    3.65
  -4   4  -4   14.00    1.48
  -4  -4  -4   12.01    1.22
   4  -4  -4   12.29    1.15
   4  -4   4   10.78    2.98
  -4  -4   4   14.00    2.97
   4   4  -4   14.52    1.25
  -4  -4  -4   12.98    2.00
   4  -4  -4   12.87    1.88
  -5   4  -4   57.70    2.39
   5  -4   4   50.36    3.58
  -5  -4   4   52.49    3.52
  -5  -4  -4   53.55    2.05
   5  -4  -4   55.84    2.08
  -5  -4  -4   45.87    3.10
   5  -4  -4   49.03    3.14
   5   4  -4   57.42    1.99
   6   4  -4    2.48    0.98
  -6   4  -4    2.28    1.31
  -6  -4  -4    1.18    0.87
   6  -4  -4    1.75    0.91
  -6  -4  -4    2.11    1.01
  -7  -4  -4   31.69    1.44
   7  -4  -4   32.16    1.45
   7  -4  -4   33.58    1.67
  -7  -4  -4   33.82    1.68
   7   4  -4   30.55    1.43
   8  -4  -4   28.08    1.56
  -8  -4  -4   30.38    1.59
   9  -4  -4    1.65    1.00
  -9  -4  -4    2.94    0.97
   9   4  -4    2.51    1.19
 -10   4  -4    8.60    1.31
  10   4  -4    8.93    1.21
 -10  -4  -4    8.78    1.05
  10  -4   4    7.26    1.19
 -11   4  -4    9.51    1.21
  11   4  -4    8.05    1.17
  11  -4  -4    7.54    0.93
 -11  -4  -4    8.89    0.93
  11  -4   4    7.66    1.15
 -12   4  -4   31.47    1.37
  12   4  -4   29.36    1.36
 -13   4  -4    4.25    0.83
  13   4  -4    4.76    0.91
  14   4  -4   32.03    1.19
   0  -5  -4   27.43    1.36
  -1  -5  -4   40.24    1.71
   1  -5  -4   38.50    1.55
  -1  -5  -4   38.74    1.62
   2  -5  -4    8.00    1.03
  -2  -5  -4    6.51    0.95
  -2  -5  -4    7.12    0.97
   2   5  -4    8.33    0.96
  -3   5  -4   -0.55    0.94
  -3  -5  -4    1.05    0.80
   3  -5  -4    0.64    0.88
  -3  -5  -4   -0.45    0.84
   3   5  -4    0.27    0.86
  -4   5  -4    7.56    1.04
   4  -5  -4    6.62    0.95
  -4  -5  -4    5.93    0.94
  -4  -5  -4    6.27    0.95
  -5   5  -4    2.17    0.95
  -5  -5  -4    1.24    0.78
   5  -5  -4    2.62    0.84
  -6   5  -4   62.28    2.15
  -6  -5  -4   58.25    1.95
   6  -5  -4   65.49    2.13
   6  -5  -4   58.91    1.96
  -7   5  -4   44.45    1.51
   7  -5  -4   45.04    1.45
  -7  -5  -4   42.76    1.44
   8   5  -4   24.35    1.34
   8  -5  -4   21.75    1.18
  -8  -5  -4   24.53    1.24
  -9   5  -4   13.80    1.05
   9   5  -4   17.29    1.13
   9  -5  -4   16.16    1.00
  -9  -5  -4   15.92    0.99
 -10   5  -4    2.08    0.72
  10  -5  -4    2.47    0.57
  10   5  -4    2.86    0.80
 -10  -5  -4    1.51    0.62
  11   5  -4    4.43    0.72
   0  -6  -4    0.12    0.33
  -1  -6  -4   33.00    1.32
  -1  -6  -4   33.09    1.26
   2  -6  -4    5.62    0.73
  -2  -6   4    6.38    0.71
   2  -6   4    7.25    0.74
  -2  -6  -4    4.99    0.71
  -2  -6  -4    4.71    0.71
  -3  -6  -4    0.68    0.57
   3  -6  -4    0.44    0.61
  -3  -6  -4    0.71    0.62
  -3  -6   4    0.91    0.57
   3  -6   4    0.09    0.61
  -4  -6  -4    6.36    0.71
  -4  -6  -4    5.91    0.63
   4  -6  -4    5.38    0.64
  -4  -6   4    7.54    0.65
   4  -6   4    5.54    0.65
   5   6  -4    1.96    0.50
  -5  -6  -4    6.93    0.53
   5  -6  -4    7.79    0.68
  -5  -6   4    8.07    0.56
   5  -6   4    5.05    0.45
  -5  -6  -4    8.27    0.70
   5  -6  -4    1.32    0.38
   6  -6  -4    6.45    0.61
  -7  -6  -4   12.47    0.64
  -1   0  -5    0.49    1.20
   1   0  -5    0.45    0.79
   2   0  -5  106.90    4.05
  -2   0  -5  110.42    4.13
   2   0  -5   97.29    2.68
   3   0  -5   -0.21    0.93
   3   0  -5   -0.21    1.14
   3   0  -5   -0.18    1.22
  -3   0  -5    0.84    1.28
   4   0  -5 1476.91   33.55
  -4   0  -5 1558.30   33.69
   4   0  -5 1507.96   31.99
   4   0  -5 1499.09   32.00
   5   0  -5    1.32    0.93
   5   0  -5   -0.08    0.96
   5   0  -5    0.23    1.27
  -5   0  -5   -0.47    1.27
   5   0  -5    0.27    0.92
  -5   0  -5    0.13    0.92
   6   0  -5    4.51    0.99
   6   0  -5    2.49    1.15
  -6   0  -5    2.44    1.20
   6   0  -5    3.98    0.79
   6   0  -5    5.10    1.01
   7   0  -5   -0.18    0.98
   7   0  -5   -0.29    0.69
   7   0  -5    0.36    0.88
  -7   0  -5    0.09    0.90
   7   0  -5   -0.41    1.04
   8   0  -5   14.37    0.98
   8   0   5   17.72    1.55
   8   0  -5   15.78    1.36
  -8   0  -5   18.71    1.33
   8   0  -5   16.73    1.40
   9   0   5    0.89    1.46
   9   0  -5    0.37    1.19
  10   0  -5  286.94    6.82
  10   0   5  312.11    7.36
  10   0  -5  300.44    7.25
  11   0   5   -0.27    1.62
  11   0  -5    0.08    1.41
  12   0   5  247.44    6.22
  12   0  -5  253.10    6.19
  12   0  -5  251.27    6.03
  13   0   5    0.78    1.47
  13   0  -5   -0.01    0.93
  13   0  -5    0.89    1.29
  13   0  -5    1.48    1.11
  14   0   5   22.16    1.68
  14   0  -5   23.33    1.63
  14   0  -5   20.57    1.43
  15   0   5   -0.04    1.17
  15   0  -5    0.80    0.93
  16   0   5    0.42    1.02
  -1   1  -5   69.50    2.18
  -1  -1  -5   63.43    3.17
  -1   1  -5   60.19    2.97
  -2   1  -5  118.77    3.23
  -2  -1  -5  114.92    4.44
   2  -1  -5  115.88    4.39
   2   1  -5  114.09    4.23
  -2   1  -5  120.44    4.32
  -3   1  -5  167.66    4.38
   3  -1  -5  178.63    5.71
  -3  -1  -5  170.97    5.67
  -3  -1  -5  171.34    4.42
   3   1  -5  183.37    4.29
   3  -1  -5  182.60    4.25
   3   1  -5  157.16    5.35
  -3   1  -5  158.69    5.37
   3   1  -5  168.03    4.32
  -4   1  -5  595.45   13.51
   4  -1  -5  628.57   15.09
  -4  -1  -5  636.28   15.14
   4   1  -5  584.63   14.37
   4   1  -5  632.67   13.43
   4  -1  -5  623.57   13.45
   4   1  -5  481.84   14.27
  -4   1  -5  487.80   14.32
   4   1  -5  618.93   13.28
   4  -1  -5  632.79   13.29
   4   1  -5  625.04   13.47
   4  -1  -5  631.21   13.29
  -5   1  -5   44.17    1.83
   5  -1  -5   40.05    2.57
  -5  -1  -5   40.24    2.60
   5   1  -5   39.25    2.71
   5   1  -5   45.09    1.75
   5  -1  -5   43.05    1.74
  -5  -1  -5   42.28    1.84
   5   1  -5   43.31    1.55
   5  -1  -5   44.47    1.55
   5   1  -5   45.04    1.82
   5  -1  -5   44.64    1.68
  -6   1  -5   14.53    1.29
   6  -1  -5   15.26    1.81
  -6  -1  -5   15.68    1.85
   6   1  -5   17.04    2.29
   6   1  -5   16.25    1.23
   6  -1  -5   19.72    1.27
  -6  -1  -5   16.29    1.29
   6   1  -5   15.16    0.90
   6  -1  -5   16.18    0.93
   6   1  -5   17.10    1.25
   7  -1  -5   46.67    2.75
  -7   1  -5   58.98    2.19
   7   1  -5   57.61    3.27
   7   1  -5   66.65    2.14
   7  -1  -5   62.15    2.11
  -7  -1  -5   60.89    2.18
   7   1  -5   49.81    1.59
   7  -1  -5   51.69    1.60
  -8   1  -5    3.61    1.15
   8   1   5    5.20    1.42
   8   1  -5    2.12    1.06
   8  -1  -5    4.00    1.15
   8  -1  -5    3.80    1.28
   8  -1  -5    3.95    2.46
   8   1  -5    3.25    1.12
   8   1  -5    5.20    2.28
   8   1  -5    4.52    1.11
  -8  -1  -5    5.42    1.09
  -9   1  -5   63.79    2.61
   9   1   5   63.23    2.82
   9  -1  -5   68.57    2.78
   9   1  -5   70.57    2.65
   9  -1  -5   66.21    4.12
   9   1  -5   79.45    2.80
  -9  -1  -5   75.29    2.70
   9  -1   5   70.62    2.71
  10   1  -5  163.10    4.24
  10  -1  -5  167.47    4.26
  10   1   5  175.07    4.85
  10  -1  -5  184.16    4.85
  10   1  -5  174.90    4.65
  10  -1  -5  160.97    6.28
 -10  -1  -5  189.49    4.69
  11   1  -5  202.08    5.07
  11  -1  -5  202.28    5.08
  11   1   5  214.31    5.71
  11   1  -5  220.46    5.56
  11  -1  -5  247.63    5.61
 -11  -1  -5  230.87    5.50
  12   1  -5  108.93    3.19
  12  -1   5  125.14    3.71
  12  -1  -5  120.64    3.21
  12   1   5  122.89    3.79
  12   1  -5  128.54    3.67
  12   1  -5  138.98    3.77
  12  -1  -5  128.24    3.55
  13   1  -5    5.83    0.97
  13  -1   5    7.24    1.50
  13   1   5    7.77    1.49
  13  -1  -5    5.96    0.98
  13   1  -5    5.27    1.27
  13   1  -5    6.98    1.23
  13  -1  -5    5.15    1.12
  14  -1   5    8.21    1.39
  14   1   5    5.95    1.41
  14   1  -5    6.57    1.24
  14   1  -5    6.67    1.16
  15  -1   5    1.46    1.17
  15   1   5   -0.37    1.31
  15   1  -5    0.64    1.10
  15  -1  -5    0.19    0.82
  16   1   5    5.47    1.25
   0   2  -5   -0.26    1.03
   0  -2  -5   -0.69    0.88
  -1   2  -5  227.98    5.55
   1  -2  -5  221.09    5.33
  -1  -2  -5  223.78    5.41
   1   2  -5  217.20    5.21
   1  -2  -5  218.06    5.20
  -1  -2  -5  217.58    5.41
  -2   2  -5  320.64    7.44
  -2  -2  -5  310.39    7.31
   2  -2  -5  315.02    7.32
  -2  -2  -5  300.49    8.82
   2  -2  -5  292.65    8.76
   2  -2   5  300.39    8.61
  -2  -2  -5  312.34    7.31
   2   2  -5  307.17    6.99
   2  -2  -5  304.45    6.97
  -3   2  -5  136.28    3.81
   3   2  -5  142.36    4.30
   3   2  -5  139.98    3.65
  -3  -2  -5  137.10    3.67
   3  -2  -5  133.01    3.67
   3  -2  -5  122.83    4.81
   3  -2  -5  131.67    3.58
   3  -2   5  129.37    4.93
  -3  -2   5  123.41    4.90
  -3  -2  -5  125.62    3.66
   3   2  -5  135.52    3.32
   3  -2  -5  137.66    3.34
  -3  -2  -5  121.06    4.82
  -4   2  -5    9.80    1.30
   4   2  -5    9.33    1.90
   4   2  -5   11.06    1.23
  -4  -2  -5   10.60    1.09
   4  -2  -5   10.96    1.08
  -4  -2  -5    8.82    1.49
   4  -2  -5   11.79    1.15
   4  -2  -5    8.76    1.56
   4  -2   5    6.51    2.03
  -4  -2   5    9.52    2.01
   4   2  -5   10.24    0.82
   4  -2  -5    9.23    0.83
  -5   2  -5   55.48    2.23
  -5  -2  -5   46.38    2.74
   5  -2  -5   46.64    2.74
  -5  -2  -5   53.32    1.96
   5  -2  -5   50.61    1.93
   5   2  -5   53.17    2.12
   5  -2   5   50.68    3.17
  -5  -2   5   43.82    3.09
   5  -2  -5   55.28    2.01
   5   2  -5   47.46    1.49
   5  -2  -5   49.73    1.51
  -6   2  -5    4.14    1.27
   6   2   5    6.26    2.01
   6   2  -5    4.73    0.69
   6   2  -5    6.61    1.05
   6   2  -5    5.54    1.21
   6  -2  -5    5.10    1.04
  -6  -2  -5    4.65    0.93
   6  -2  -5    4.99    0.89
  -6  -2  -5    7.11    1.11
   6  -2   5    5.84    2.01
  -6  -2   5    3.99    1.86
   6  -2  -5    6.63    1.54
  -6  -2  -5    5.79    1.53
   6  -2  -5    5.47    0.71
   7   2  -5    0.79    1.03
   7   2  -5    0.90    1.13
   7  -2  -5   -0.30    1.24
  -7   2  -5   -0.09    1.19
   7   2   5    1.85    1.91
   7   2  -5    0.66    1.03
   7   2  -5    0.26    1.14
  -7  -2  -5    1.18    1.00
   8   2  -5   28.99    1.70
   8  -2  -5   34.30    1.71
  -8   2  -5   46.52    2.11
   8   2   5   44.84    2.45
   8  -2  -5   45.30    3.56
   8   2  -5   40.41    1.84
   8   2  -5   52.24    2.10
  -8  -2  -5   41.69    1.89
   8   2  -5   41.17    1.79
  -9   2  -5  116.07    3.79
   9   2  -5  117.86    3.23
   9  -2  -5  138.98    3.26
   9   2  -5  149.48    3.93
   9   2   5  123.04    4.04
   9   2  -5  129.45    3.69
  -9  -2  -5  130.81    3.77
   9   2  -5  125.90    3.61
 -10   2  -5   19.80    1.58
  10   2  -5   16.26    1.29
  10  -2  -5   18.79    1.31
  10   2   5   18.00    2.04
  10   2  -5   20.00    1.56
  10  -2  -5   19.80    1.45
  10  -2   5   18.09    1.56
  10   2  -5   15.68    1.48
 -11   2  -5   21.79    1.54
  11  -2  -5   16.11    1.19
  11   2   5   20.70    2.09
  11   2  -5   21.00    1.52
  11  -2  -5   21.06    1.41
 -11  -2  -5   21.90    1.37
  11  -2   5   19.63    1.59
 -12   2  -5   38.72    1.74
  12   2   5   40.20    2.34
  12   2  -5   42.39    1.91
  12  -2  -5   40.04    1.77
 -12  -2  -5   35.97    1.62
 -13   2  -5   -0.52    0.86
  13   2   5   -0.34    1.72
  13   2  -5    0.26    1.05
  14  -2   5    1.38    1.10
  14   2  -5    1.65    1.02
  14  -2  -5    0.15    0.81
  15   2  -5    0.87    0.89
   0  -3  -5   -0.13    0.97
  -1  -3  -5  177.72    4.94
   1  -3  -5  189.20    4.88
  -1  -3  -5  185.36    4.95
   2  -3   5  394.45   11.40
  -2  -3  -5  437.83    9.79
   2  -3  -5  431.00    9.80
  -2  -3  -5  406.66    9.76
  -2  -3  -5  379.58   11.44
   2  -3  -5  396.15   11.53
  -3   3  -5  178.48    4.75
   3  -3   5  175.03    6.45
  -3  -3   5  164.45    6.62
  -3  -3  -5  175.91    4.54
   3  -3  -5  179.11    4.58
  -3  -3  -5  153.88    5.94
   3  -3  -5  159.32    5.99
  -3  -3  -5  167.63    4.59
  -4   3  -5   36.69    1.91
   4  -3   5   33.72    3.68
  -4  -3   5   36.49    3.73
  -4  -3  -5   34.51    1.69
   4  -3  -5   34.29    1.65
  -4  -3  -5   32.25    2.54
   4  -3  -5   34.04    2.61
   4   3  -5   38.87    1.79
  -5   3  -5   92.22    3.02
   5  -3   5   64.95    4.51
  -5  -3   5   67.54    4.47
  -5  -3  -5   84.36    2.71
   5  -3  -5   87.24    2.74
  -5  -3  -5   76.80    3.94
   5  -3  -5   76.00    3.91
   5  -3  -5   92.35    2.80
   5   3  -5   93.82    2.81
  -6   3  -5   40.52    2.06
   6   3  -5   39.41    1.77
   6  -3  -5   29.18    2.37
  -6  -3  -5   41.11    1.75
   6  -3  -5   40.96    1.76
   6  -3  -5   44.14    1.87
  -6  -3  -5   41.78    1.92
   6  -3   5   29.54    3.45
   6   3  -5   44.81    1.91
  -7   3  -5   17.95    1.60
   7   3  -5   21.64    1.45
   7  -3  -5   20.47    1.23
  -7  -3  -5   18.98    1.43
   7   3  -5   20.65    1.38
  -8   3  -5   23.11    1.66
   8   3  -5   23.02    1.51
  -8  -3  -5   25.21    1.54
   8   3  -5   21.88    1.42
  -9   3  -5   23.74    1.65
   9   3  -5   30.69    1.62
  -9  -3  -5   27.85    1.55
   9   3  -5   23.04    1.45
 -10   3  -5    7.24    1.20
  10   3  -5    4.66    1.15
  10  -3  -5    4.89    1.06
 -10  -3  -5    6.67    1.05
 -11   3  -5    2.78    1.03
  11   3  -5    2.87    1.08
  11  -3  -5    2.11    0.93
 -11  -3  -5    3.19    0.90
 -12   3  -5   13.49    1.14
  12   3  -5   15.92    1.25
  12  -3  -5   12.91    1.09
 -12  -3  -5   14.05    0.97
 -13   3  -5    2.27    0.77
  13   3  -5    2.63    0.93
  13  -3  -5    1.96    0.73
  14   3  -5    8.56    0.90
   0  -4  -5    0.09    0.93
  -1  -4  -5   20.78    1.40
   1  -4  -5   24.85    1.36
  -1  -4  -5   24.23    1.44
  -2   4  -5  103.79    3.17
  -2  -4  -5   97.09    3.02
   2  -4  -5   96.51    3.02
  -2  -4  -5   92.61    2.95
  -3   4  -5   13.05    1.34
  -3  -4  -5   11.41    1.16
   3  -4  -5   12.28    1.16
  -3  -4  -5   13.91    1.21
   3   4  -5   13.24    1.27
  -4  -4  -5   29.41    1.49
   4  -4  -5   28.36    1.51
  -4  -4  -5   28.61    1.57
   4   4  -5   32.05    1.56
  -5  -4  -5   35.17    1.63
   5  -4  -5   35.79    1.63
   5  -4  -5   38.11    1.68
   5   4  -5   38.91    1.69
   6   4  -5   12.04    1.17
  -6  -4  -5   11.10    1.04
   6  -4  -5   11.27    1.06
   6   4  -5   11.85    1.09
   7   4  -5   30.58    1.45
  -7  -4  -5   31.42    1.46
   7   4  -5   26.60    1.25
  -8   4  -5   13.43    1.23
   8   4  -5   12.85    1.18
  -8  -4  -5   11.98    1.12
   8   4  -5    9.47    1.02
  -9   4  -5    2.56    0.97
   9   4  -5    3.13    0.98
   9  -4  -5    1.70    0.87
  -9  -4  -5    1.62    0.86
 -10   4  -5    3.54    0.92
  10   4  -5    4.03    0.98
  10  -4  -5    3.57    0.83
 -10  -4  -5    4.72    0.84
 -11   4  -5    2.28    0.77
  11   4  -5    1.49    0.83
  11  -4  -5    1.35    0.71
 -11  -4  -5    0.84    0.67
 -12   4  -5    7.70    0.74
  12   4  -5    8.30    0.77
  12  -4  -5    6.51    0.61
   0  -5  -5    0.16    0.73
   0   5  -5    0.19    0.88
  -1  -5  -5    3.47    0.77
  -1  -5  -5    3.21    0.84
   1   5  -5    4.05    0.88
  -2  -5  -5   23.61    1.26
   2  -5  -5   26.66    1.34
  -2  -5  -5   23.62    1.27
   3   5  -5    3.90    0.84
  -3  -5  -5    2.75    0.79
   3  -5  -5    4.25    0.81
  -3  -5  -5    3.25    0.85
   4   5  -5    0.97    0.70
   4  -5  -5    1.33    0.84
  -4  -5  -5    1.65    0.74
   4  -5  -5    1.95    0.73
  -4  -5  -5    1.16    0.81
  -5  -5  -5    3.46    0.75
   5  -5  -5    3.63    0.73
  -5  -5  -5    3.89    0.82
   6   5  -5    0.32    0.40
   6  -5  -5   -0.06    0.44
   7   5  -5   -0.27    0.41
  -7  -5  -5   51.76    1.36
   8  -5  -5   36.69    1.09
  -8  -5  -5   35.54    1.11
   9  -5  -5    2.61    0.59
  -9  -5  -5    3.22    0.60
   0  -6  -5    0.01    0.48
  -1  -6  -5   23.77    0.96
   1  -6  -5   24.96    0.91
  -1  -6  -5   25.89    0.86
   2  -6  -5    6.09    0.57
   2  -6  -5    6.85    0.56
  -2  -6   5    6.30    0.57
   2  -6   5    5.66    0.57
  -2  -6  -5    5.46    0.56
   3  -6  -5    1.18    0.49
  -3  -6   5    1.95    0.41
   3  -6   5    1.71    0.41
   0   0  -6   17.53    1.10
  -1   0  -6   -0.44    1.33
   1   0  -6    0.06    0.90
   2   0  -6  289.23    8.90
  -2   0  -6  292.92    8.93
   2   0  -6  312.98    7.29
   2   0  -6  316.54    7.13
   3   0  -6   -0.34    0.93
   3   0  -6   -0.51    1.12
   3   0  -6    0.29    1.42
  -3   0  -6   -2.06    1.67
   3   0  -6    0.07    0.87
   4   0  -6  196.48    4.85
   4   0  -6  205.96    4.77
   4   0  -6  189.82    4.70
   4   0  -6  170.20    6.22
  -4   0  -6  177.74    6.31
   5   0  -6    0.05    0.95
   5   0  -6    0.68    1.34
  -5   0  -6   -0.96    1.37
   5   0  -6    0.37    0.92
   5   0  -6    0.29    0.92
   6   0  -6   27.88    3.15
   6   0  -6   31.32    1.54
   6   0  -6   22.12    2.14
  -6   0  -6   19.38    2.03
   6   0  -6   28.92    1.22
   6   0  -6   32.32    1.54
   7   0  -6    0.18    1.05
   7   0  -6   -0.19    0.71
   7   0  -6    1.97    2.34
   7   0  -6   -0.45    0.95
   8   0  -6   13.95    2.85
   8   0  -6   17.13    1.47
   9   0  -6    1.74    1.78
   9   0  -6   -0.48    1.08
  10   0  -6  334.73    8.09
  10   0  -6  348.32    8.45
  11   0  -6   -0.11    1.14
  11   0  -6    0.43    1.22
  12   0  -6   27.20    1.30
  12   0   6   24.37    1.63
  13   0  -6   -1.61    0.83
  13   0  -6   -1.10    0.99
  14   0  -6    6.50    0.98
   0  -1  -6   24.85    1.40
  -1  -1  -6    6.96    1.80
  -1  -1  -6   10.74    1.12
   1   1  -6   10.51    1.11
  -1   1  -6    7.47    1.59
   2  -1  -6   21.52    2.31
  -2  -1  -6   26.22    2.41
   2  -1  -6   22.49    1.24
  -2  -1  -6   22.07    1.41
   2   1  -6   22.20    1.48
   2  -1  -6   25.05    1.46
   2   1  -6   18.31    2.03
  -2   1  -6   16.53    2.01
   2   1  -6   20.88    1.36
   3  -1  -6   89.31    4.22
  -3  -1  -6   91.19    4.29
   3   1  -6   79.10    3.89
   3   1  -6   88.88    2.64
   3  -1  -6   92.79    2.65
  -3  -1  -6   88.90    2.86
   3   1  -6   66.64    3.68
  -3   1  -6   67.72    3.70
   3   1  -6   95.05    2.64
   3  -1  -6   96.87    2.63
   3   1  -6   91.35    2.73
   4   1  -6    0.57    1.05
   4  -1  -6    0.26    0.94
  -4  -1  -6    0.08    1.54
  -4   1  -6    0.50    0.93
   4   1  -6    0.22    0.98
   4  -1  -6    0.22    0.91
   4   1  -6   -0.05    2.02
   4   1  -6    0.56    0.96
   4  -1  -6    0.80    0.94
   4  -1  -6    0.80    1.44
   5  -1  -6   47.14    3.07
  -5  -1  -6   49.63    3.16
  -5   1  -6   50.26    1.90
   5   1  -6   49.06    3.16
   5   1  -6   48.92    1.98
   5  -1  -6   56.51    1.98
   5   1  -6   50.25    1.66
   5  -1  -6   52.00    1.67
   5   1  -6   50.21    1.96
   6   1  -6    6.12    1.08
  -6   1  -6    5.68    1.00
   6   1  -6    4.47    2.24
   6  -1  -6    5.61    1.55
  -6  -1  -6    5.46    1.56
   6  -1  -6    8.57    1.14
   6   1  -6    5.33    1.11
  -6  -1  -6    6.49    1.12
   6   1  -6    6.76    0.81
   6  -1  -6    7.66    0.83
   7   1  -6    5.29    1.09
  -7   1  -6    4.73    0.95
   7   1  -6    5.07    0.74
   7  -1  -6    5.43    0.75
   7  -1  -6    5.31    2.83
   7   1  -6    3.10    2.28
   7   1  -6    5.27    1.15
   7  -1  -6    7.41    1.13
  -7  -1  -6    5.45    1.11
   8   1  -6  280.19    2.97
   8  -1  -6  341.57    3.25
   9   1  -6    5.80    1.37
   9  -1  -6  192.31    2.52
   9   1   6    6.31    1.74
   9   1  -6    9.13    1.39
   9  -1  -6    8.27    1.29
  -9  -1  -6    7.82    1.30
  10  -1  -6  120.12    3.19
  10   1   6  122.76    3.72
  10   1  -6  124.05    3.44
  11   1   6    0.92    1.65
  11   1  -6    0.13    1.07
  11  -1  -6    0.58    1.08
  11   1  -6   -0.10    1.07
  12   1  -6   64.13    1.88
  12  -1  -6   62.02    1.86
  13   1   6   12.33    1.59
  13  -1  -6   11.69    1.11
  14  -1  -6    2.26    0.83
   0  -2  -6   35.46    1.69
   0   2  -6   33.24    1.73
   0  -2  -6   37.99    1.72
  -1  -2  -6   18.99    2.32
  -1  -2  -6   19.88    1.47
   1  -2  -6   20.46    1.32
  -1  -2  -6   19.36    1.44
   1   2  -6   24.70    1.49
   1  -2  -6   26.19    1.45
  -2  -2  -6  539.96   14.24
   2  -2  -6  538.04   14.20
  -2  -2  -6  555.60   12.28
   2  -2  -6  545.17   12.26
   2  -2  -6  559.82   12.05
   2  -2   6  493.44   13.84
  -2  -2   6  519.19   13.83
  -2  -2  -6  536.00   12.22
   2   2  -6  526.74   11.83
   2  -2  -6  542.65   11.82
   2   2  -6  523.72   12.09
  -3   2  -6  279.63    6.73
  -3  -2  -6  260.01    8.42
   3  -2  -6  274.50    8.51
   3  -2   6  243.86    8.23
  -3  -2   6  253.77    8.34
   3  -2  -6  283.35    6.58
  -3  -2  -6  257.70    6.71
   3   2  -6  286.03    6.27
   3  -2  -6  274.41    6.23
   3   2  -6  266.34    6.59
  -4   2  -6   63.54    2.32
   4  -2  -6   62.58    3.58
  -4  -2  -6   57.76    3.50
   4   2  -6   61.91    2.34
   4  -2   6   42.86    3.50
  -4  -2   6   49.07    3.60
   4  -2  -6   66.24    2.24
  -4  -2  -6   61.79    2.35
   4   2  -6   65.08    2.32
   4   2  -6   64.20    1.83
   4  -2  -6   60.77    1.79
  -5   2  -6   10.36    1.23
   5  -2  -6    8.57    1.77
  -5  -2  -6    6.73    1.73
   5   2  -6    9.47    1.28
   5  -2  -6   10.48    1.21
   5  -2   6    6.15    2.24
  -5  -2   6    5.64    2.22
   5   2  -6    9.66    0.80
   5  -2  -6    9.79    0.80
   6  -2  -6    8.50    1.70
  -6   2  -6    7.69    1.15
   6  -2  -6    5.29    0.79
   6   2  -6    5.28    1.23
   6  -2  -6    8.11    1.12
   6  -2   6    5.80    2.13
   6   2  -6    5.03    0.75
  -7   2  -6    1.38    1.23
   7   2  -6    0.90    1.35
   7  -2  -6    0.87    1.20
   8   2  -6   20.93    1.55
   8  -2  -6   17.42    1.51
  -8   2  -6   32.98    1.60
   8   2  -6   38.52    1.94
   8  -2  -6   40.51    1.71
  -8  -2  -6   37.15    1.78
   9   2  -6   11.34    1.30
   9   2  -6   11.00    1.11
  -9   2  -6   13.29    1.15
   9  -2  -6   13.51    1.12
   9   2  -6   16.18    1.48
  -9  -2  -6   13.61    1.27
 -10   2  -6   14.58    1.12
  10   2  -6    5.62    1.04
  10  -2  -6   15.52    1.15
  10   2  -6    1.07    0.82
  10   2  -6   17.74    1.46
 -11   2  -6   46.67    1.40
  11   2  -6   27.43    1.22
  11  -2  -6   19.72    1.17
  11   2  -6    0.38    0.92
 -11  -2  -6   45.68    1.57
  12   2  -6   -0.47    0.71
  12  -2  -6   10.54    1.02
  13   2  -6   -0.34    0.52
  13  -2  -6    9.81    0.94
  14  -2  -6    0.93    0.62
   0  -3  -6  637.70   14.29
   0  -3  -6  661.05   14.45
  -1  -3  -6  282.45    7.26
   1  -3  -6  294.75    7.06
   1  -3  -6  299.14    7.09
  -1  -3  -6  297.74    7.20
  -2  -3  -6    3.55    1.54
   2  -3  -6    3.17    1.63
   2  -3  -6    1.74    1.07
  -2  -3  -6    2.53    1.03
   2  -3  -6    2.03    1.04
  -2  -3  -6    3.07    1.10
  -3   3  -6  127.82    3.64
  -3  -3  -6  120.73    3.53
   3  -3  -6  120.57    3.57
   3  -3  -6  128.18    3.44
  -4   3  -6   70.84    2.54
  -4  -3  -6   65.52    2.43
   4  -3  -6   65.16    2.43
   4  -3  -6   77.27    2.46
  -4  -3  -6   67.06    2.46
   4   3  -6   74.23    2.48
   5  -3  -6   92.76    2.83
   5   3  -6   95.61    2.89
   6   3  -6    8.71    1.17
  -6   3  -6    8.13    1.17
   6  -3  -6   10.44    1.17
  -7   3  -6   10.87    1.20
   7  -3  -6   14.06    1.24
  -7  -3  -6   13.29    1.22
   7   3  -6   12.26    1.17
  -8   3  -6   30.32    1.56
   8  -3  -6   36.12    1.53
  -8  -3  -6   35.56    1.64
   8   3  -6   28.22    1.49
  -9   3  -6   14.83    1.14
  -9  -3  -6   13.33    1.17
 -10   3  -6    2.89    0.85
 -10  -3  -6    3.05    0.82
 -11   3  -6    2.00    0.73
  11   3  -6   -0.01    0.34
  11  -3  -6    2.56    0.80
 -11  -3  -6    1.62    0.72
  12  -3  -6    8.08    0.81
   0  -4  -6   58.99    1.96
   0  -4  -6   57.34    1.97
  -1  -4  -6   19.35    1.24
  -1  -4  -6   18.66    1.05
  -1  -4  -6   21.22    1.21
   1   4  -6   21.31    1.31
   2  -4  -6    1.86    0.89
  -2  -4  -6    2.49    0.86
   2  -4  -6    1.85    0.84
  -2  -4  -6    2.05    0.88
   2   4  -6    1.12    0.98
   3  -4  -6    1.33    0.90
  -3  -4  -6    1.31    0.85
   3  -4  -6    1.83    0.84
  -3  -4  -6    1.23    0.84
   3   4  -6    1.62    0.99
   4   4  -6    1.90    0.98
   4  -4  -6    2.58    0.88
  -4  -4  -6    1.35    0.82
   4  -4  -6    2.03    0.85
  -4  -4  -6    1.27    0.87
   5   4  -6    2.32    0.88
   5  -4  -6    1.52    0.88
  -5  -4  -6    1.72    0.87
  -6   4  -6   11.73    1.12
   6  -4  -6   14.09    1.07
   6   4  -6   10.42    1.00
  -7   4  -6   26.63    1.33
   7  -4  -6   30.11    1.33
  -8   4  -6   -0.08    0.78
  -9   4  -6    5.12    0.79
  -9  -4  -6    4.68    0.77
  10  -4  -6    0.43    0.62
   0  -5  -6  182.00    4.34
   0   5  -6  192.11    4.41
  -1  -5  -6    2.29    0.69
   1  -5  -6    2.14    0.74
  -1  -5  -6    1.07    0.70
  -1  -5  -6   -0.01    0.38
  -1   5  -6    2.32    0.80
   1   5  -6    1.79    0.79
  -2  -5  -6    7.81    0.80
   2  -5  -6    9.70    0.83
   2  -5  -6    8.62    0.79
  -2  -5  -6    8.12    0.78
  -2   5  -6    8.75    0.86
   2   5  -6   10.38    0.83
   3   5  -6    0.51    0.60
   3  -5  -6   -0.25    0.64
  -3  -5  -6    0.28    0.62
  -3   5  -6    0.61    0.72
   4  -5  -6    6.08    0.70
  -4  -5  -6    4.56    0.68
   5  -5  -6    5.67    0.70
  -5  -5  -6    3.98    0.66
   6  -5  -6    4.02    0.61
   1   0  -7   -0.28    0.82
   1   0  -7   -0.37    1.16
  -1   0  -7   -0.33    1.47
   2   0  -7  114.95    3.18
   2   0  -7  116.97    2.97
  -2   0  -7   86.13    4.65
   2   0  -7   90.93    4.69
   3   0  -7    0.30    0.94
  -3   0  -7    0.54    1.56
   3   0  -7   -0.08    1.53
   3   0  -7   -0.12    1.08
   4   0  -7  327.52    8.12
  -4   0  -7  287.07    9.76
   4   0  -7  280.24    9.79
   4   0  -7  374.63    7.97
   4   0  -7  380.33    8.03
   5   0  -7    0.94    1.08
   5   0  -7   -0.22    0.81
   5   0  -7    0.12    0.99
   6   0  -7  103.46    3.06
   6   0  -7  109.77    3.02
   7   0  -7    0.06    0.72
   7   0  -7   -0.59    0.96
   8   0  -7  149.16    2.86
   8   0  -7   43.54    2.34
   9   0  -7   -1.59    1.31
   9   0  -7   -0.96    1.02
  10   0  -7   48.15    1.64
  11   0  -7    0.01    0.87
  11   0  -7    0.36    1.00
  12   0  -7   53.13    1.58
   0   1  -7   -0.06    1.15
   0  -1  -7   -0.43    1.15
   0   1  -7   -0.20    0.95
   1   1  -7   -0.57    1.08
   1  -1  -7    1.29    1.08
  -1  -1  -7    1.05    1.58
  -1   1  -7    1.28    0.96
   1   1  -7   -0.04    1.00
   2  -1  -7   10.32    2.03
  -2  -1  -7    8.34    1.88
  -2  -1  -7   11.64    1.21
   2   1  -7   11.04    1.19
   2  -1  -7    8.59    1.15
  -2   1  -7   10.23    1.11
   2   1  -7   11.44    1.16
   3  -1  -7   18.16    2.22
  -3  -1  -7   19.45    2.28
   3  -1  -7   20.21    1.26
  -3  -1  -7   16.91    1.37
   3   1  -7   19.25    1.27
   3  -1  -7   18.18    1.26
   3   1  -7   21.79    1.36
   4  -1  -7   28.60    2.67
   4   1  -7   26.67    1.55
   4  -1  -7   34.15    1.59
  -4  -1  -7   29.94    1.69
   4   1  -7   33.28    1.43
   4  -1  -7   31.90    1.32
   4   1  -7   34.00    1.55
   5   1  -7   13.39    1.26
   5  -1  -7   15.45    1.24
   5   1  -7   13.33    0.93
   5  -1  -7   13.50    0.93
   5   1  -7   13.28    1.19
   6   1  -7    2.09    0.99
   6   1  -7    2.77    0.70
   6  -1  -7    3.37    0.69
   6   1  -7    2.37    1.05
   6  -1  -7    2.92    0.99
   7   1  -7    1.92    1.05
   7   1  -7    2.07    0.91
   7  -1  -7    3.35    1.02
   7   1  -7    3.25    1.07
   7  -1  -7    3.40    0.96
   8   1  -7  251.26    2.76
   8  -1  -7  163.69    2.56
   9  -1  -7    8.35    1.23
   9   1  -7    7.91    1.25
   9   1  -7   13.25    1.32
   9  -1  -7   13.91    1.16
  10   1  -7   83.69    2.35
  10  -1  -7   78.08    2.32
  10   1  -7  105.61    2.89
  10  -1  -7  100.84    2.71
  11   1  -7   35.37    1.58
  11  -1  -7   44.62    1.58
  11   1  -7   83.00    2.24
  11  -1  -7   82.20    2.10
  12   1  -7    5.86    0.72
   0  -2  -7   -0.36    0.93
   0   2  -7    1.25    1.10
   1  -2  -7   87.01    2.60
  -1  -2  -7   97.25    2.79
  -1   2  -7   68.57    2.67
  -1  -2  -7   70.20    2.64
   1   2  -7   82.83    2.53
   1  -2  -7   86.31    2.51
   1   2  -7  100.04    2.75
   2  -2  -7   23.18    1.31
  -2  -2  -7   23.08    1.48
   2   2  -7   25.91    1.36
   2  -2  -7   26.52    1.33
   2   2  -7   25.97    1.53
   3  -2  -7   35.40    1.51
  -3  -2  -7   31.34    1.63
   3   2  -7   24.40    1.20
   3  -2  -7   27.28    1.20
   3   2  -7   34.39    1.64
   4  -2  -7   16.55    1.17
  -4  -2  -7   13.61    1.25
   4   2  -7   14.25    1.26
   4   2  -7    9.06    0.86
   4  -2  -7    9.71    0.83
   5   2  -7   20.11    1.29
   5  -2  -7   20.30    0.92
   6   2  -7    3.57    0.99
   6  -2  -7    4.91    1.14
   6  -2  -7    3.86    0.97
   7   2  -7    7.19    1.08
   7   2  -7    6.36    1.23
   8   2  -7   11.79    1.10
   8  -2  -7   13.16    1.05
   8  -2  -7   22.30    1.27
  -8  -2  -7   18.54    1.27
   9   2  -7   37.94    1.37
   9  -2  -7   26.14    1.33
  10   2  -7    4.29    0.73
  10  -2  -7    0.91    0.70
   0  -3  -7    0.07    0.84
   0   3  -7    0.49    1.06
   1  -3  -7   56.26    1.85
  -1  -3  -7   52.15    2.02
   1   3  -7   57.01    2.08
   2  -3  -7  189.29    4.57
  -2  -3  -7  182.50    4.72
   2   3  -7  184.67    4.72
   3  -3  -7   65.24    2.07
  -3  -3  -7   58.88    2.16
   4  -3  -7   25.17    1.27
  -4  -3  -7   16.51    1.25
   5  -3  -7    8.27    0.96
  -5  -3  -7    6.61    1.02
   6  -3  -7   25.07    1.27
   7  -3  -7   14.64    1.03
   7   3  -7   11.33    1.06
   8   3  -7    2.47    0.89
   8  -3  -7    3.64    0.81
   9  -3  -7    2.78    0.72
  -9  -3  -7    1.89    0.71
   1  -4  -7    1.40    0.65
  -1  -4  -7    0.04    0.47
   2  -4  -7   18.64    0.97
   2   4  -7   19.85    1.15
   3   4  -7    3.38    0.82
   3  -4  -7    4.36    0.74
  -3  -4  -7    3.78    0.76
  -3   4  -7    2.84    0.84
   4   4  -7    6.10    0.81
   4  -4  -7    6.74    0.78
  -4  -4  -7    4.77    0.78
  -5  -4  -7   16.47    1.00
   5   4  -7   16.52    0.98
   6   4  -7    2.80    0.72
   6  -4  -7    4.39    0.67
  -6  -4  -7    4.25    0.71
   7  -4  -7    0.67    0.58
   8  -4  -7    3.26    0.52
   0   0  -8   19.97    1.48
  -1   0  -8    0.88    1.08
   1   0  -8   12.07    1.06
  -2   0  -8    5.90    1.41
   2   0  -8   27.95    1.37
   3   0  -8    0.69    0.84
   3   0  -8    0.91    0.80
   4   0  -8    2.35    0.69
   5   0  -8   -0.34    0.61
   5   0  -8   -0.34    0.84
   6   0  -8    8.46    0.74
   6   0  -8    8.15    1.01
   7   0  -8  198.61    2.17
   7   0  -8    0.21    1.03
   8   0  -8    0.06    1.02
   8   0  -8    0.88    0.88
   9   0  -8   -0.59    0.78
   9   0  -8    0.64    0.84
  10   0  -8    8.41    0.77
  10   0  -8   21.41    1.07
  11   0  -8    0.59    0.70
   0   1  -8   50.84    2.12
   0  -1  -8   48.85    2.06
   1   1  -8    6.67    1.03
  -1   1  -8   10.27    1.28
  -1  -1  -8   10.84    1.30
   1   1  -8   28.22    1.28
   1  -1  -8   28.96    1.28
  -1   1  -8   14.14    1.13
  -2   1  -8   26.51    1.95
  -2  -1  -8   18.17    1.95
   2   1  -8   62.04    1.80
   2  -1  -8   56.82    1.78
   2   1  -8   75.28    1.87
   3   1  -8    4.51    0.95
   3   1  -8    2.73    0.77
   3  -1  -8    2.86    0.77
   4  -1  -8    7.75    0.91
   4   1  -8    5.20    0.75
   4  -1  -8    6.18    0.76
   5  -1  -8   18.92    1.11
   5   1  -8   18.14    1.19
   5   1  -8   13.07    0.84
   5  -1  -8   13.00    0.82
   6   1  -8    2.40    0.93
   6   1  -8    1.97    0.93
   6  -1  -8    2.07    1.00
   6   1  -8    2.42    0.91
   6  -1  -8    1.73    0.83
   7   1  -8    7.36    1.13
   7  -1  -8    9.56    1.08
   8   1  -8   36.70    1.36
   8  -1  -8   35.73    1.32
   8   1  -8   35.54    1.58
   8  -1  -8   37.87    1.50
   9   1  -8    2.25    0.75
   9  -1  -8    2.65    0.73
  10   1  -8   10.18    0.71
  10  -1  -8    6.43    0.68
  11  -1  -8    2.25    0.60
   0   2  -8  315.40    7.08
   0  -2  -8  329.00    7.04
  -1   2  -8  196.79    4.60
  -1  -2  -8  220.65    4.61
   1   2  -8  228.02    4.53
   1  -2  -8  243.12    4.51
  -1   2  -8  134.68    4.57
   1   2  -8  129.46    4.58
  -2   2  -8   58.36    1.54
  -2  -2  -8   59.24    1.51
  -2   2  -8    9.58    1.21
   2   2  -8   37.39    1.23
   2  -2  -8   33.19    1.16
   2   2  -8    9.28    1.20
   3   2  -8    5.63    0.94
  -3   2  -8    6.09    0.95
  -3  -2  -8    6.19    0.89
   3   2  -8    4.58    0.64
   3  -2  -8    4.88    0.63
  -3   2  -8    5.29    0.90
  -4   2  -8    4.16    0.98
  -4  -2  -8    5.06    0.91
   4  -2  -8   10.38    0.88
  -4   2  -8   12.16    0.94
   4   2  -8   11.42    1.02
   4   2  -8    9.15    0.74
   4  -2  -8   10.44    0.79
   5   2  -8    2.29    0.86
  -5   2  -8    1.70    0.93
  -5  -2  -8    1.26    0.87
   5   2  -8    1.72    0.97
   5  -2  -8    0.52    0.98
   5  -2  -8    2.16    0.73
  -5   2  -8    2.00    0.75
   6   2  -8    3.43    0.89
  -6  -2  -8    1.17    0.79
   6   2  -8    1.38    0.89
   6  -2  -8    2.67    0.85
   7   2  -8   13.81    0.81
   7  -2  -8   14.70    0.93
   8  -2  -8    2.19    0.69
   9  -2  -8    7.41    0.73
  10  -2  -8   16.69    0.81
   0   3  -8   35.25    1.42
  -1   3  -8   15.99    1.09
   1   3  -8   14.74    1.09
  -2   3  -8   20.96    1.14
   2   3  -8   23.20    1.16
  -3   3  -8   42.05    1.48
   3   3  -8   41.66    1.47
  -4   3  -8   35.76    1.29
   4   3  -8   37.91    1.35
   5  -3  -8    0.83    0.60
  -5   3  -8    1.24    0.66
   7  -3  -8    9.97    0.67
  -1   4  -8    6.10    0.64
   0   0  -9    0.48    0.64
  -1   0  -9    0.21    0.71
   1   0  -9    0.78    0.59
  -2   0  -9    0.30    0.74
   2   0  -9    2.07    0.57
  -3   0  -9    0.69    0.73
   3   0  -9    0.73    0.51
  -4   0  -9    0.71    0.72
   4   0  -9    1.48    0.50
  -5   0  -9    1.06    0.71
   5   0  -9   -1.15    0.83
   6   0  -9    9.86    0.87
  -6   0  -9    0.76    0.70
  -7   0  -9    0.90    0.66
   7   0  -9    0.51    0.56
  -8   0  -9    0.06    0.54
   0   1  -9    2.08    0.72
   0  -1  -9    4.55    0.64
  -1  -1  -9    7.58    0.79
   1   1  -9    7.83    0.69
  -2   1  -9   11.96    1.15
  -2  -1  -9   20.39    1.14
   2   1  -9   39.01    1.10
   2  -1  -9   40.08    1.04
  -3   1  -9   13.22    0.94
  -3  -1  -9   18.06    0.93
   3   1  -9    4.91    0.58
   3  -1  -9    5.69    0.57
   4   1  -9    5.38    0.72
   4  -1  -9    6.04    0.74
   5   1  -9   10.27    0.91
   5  -1  -9   11.16    0.90
  -5   1  -9    2.96    0.70
  -5  -1  -9    1.93    0.65
  -6   1  -9    2.16    0.65
  -6  -1  -9    2.09    0.62
   6   1  -9    6.05    0.72
   6  -1  -9    5.27    0.69
  -7   1  -9    0.40    0.55
  -7  -1  -9    0.59    0.53
   0   2  -9   36.80    0.99
   0  -2  -9   48.18    1.01
  -1  -2  -9   43.67    1.14
   1   2  -9   46.36    1.35
  -2   2  -9   30.34    0.77
   2   2  -9    7.41    0.85
   3   2  -9    3.70    0.68
   0   0   0    0.00    0.00


TITL 032328_ZKKform1bentroom_Rb in Pbcm
REM Pbcm (#57, found as Pcmb in a-cb setting)
CELL 1.54184   5.669043  15.525813   7.911875  90.0000  90.0000  90.0000
ZERR    3.00   0.000411   0.001472   0.000644   0.0000   0.0000   0.0000
LATT  1
SYMM -x,-y, z+1/2
SYMM -x, y+1/2,-z+1/2
SYMM  x,-y+1/2,-z
SFAC C H N O
UNIT 33.00 30.00 3.00 3.00
TREF
HKLF 4
END
_computing_structure_solution     'SHELXT 2014/5 (Sheldrick, 2014)'
;
_shelx_hkl_checksum              6280
_olex2_submission_special_instructions 'No special instructions were received'
_oxdiff_exptl_absorpt_empirical_details
;
Empirical correction (ABSPACK) includes:
- Absorption correction using spherical harmonics
- Frame scaling
;
_oxdiff_exptl_absorpt_empirical_full_max 1.626
_oxdiff_exptl_absorpt_empirical_full_min 0.378
loop_
_space_group_symop_operation_xyz
'x, y, z'
'-x, -y, z+1/2'
'x+1/2, -y, z'
'-x+1/2, y, z+1/2'
loop_
_atom_site_label
_atom_site_type_symbol
_atom_site_fract_x
_atom_site_fract_y
_atom_site_fract_z
_atom_site_U_iso_or_equiv
_atom_site_adp_type
_atom_site_occupancy
_atom_site_site_symmetry_order
_atom_site_calc_flag
_atom_site_refinement_flags_posn
_atom_site_refinement_flags_adp
_atom_site_refinement_flags_occupancy
_atom_site_disorder_assembly
_atom_site_disorder_group
O2 O 0.34555(19) 0.4994(4) 0.5802(4) 0.0606(8) Uani 1 1 d . . . . .
O1 O 0.2168(2) 0.4008(7) 0.6702(6) 0.0828(11) Uani 1 1 d . . . . .
C4 C 0.3699(2) 0.8558(6) 0.4208(5) 0.0514(9) Uani 1 1 d . . . . .
C5 C 0.4011(2) 0.6501(6) 0.4953(4) 0.0506(9) Uani 1 1 d . . . . .
C3 C 0.2797(3) 0.9059(7) 0.4338(5) 0.0592(10) Uani 1 1 d . . . . .
H3 H 0.257482 1.041755 0.384511 0.071 Uiso 1 1 calc R . . . .
C2 C 0.2273(2) 0.7583(8) 0.5164(6) 0.0633(10) Uani 1 1 d . . . . .
H2 H 0.168992 0.793778 0.524531 0.076 Uiso 1 1 calc R . . . .
C1 C 0.2598(3) 0.5435(6) 0.5936(6) 0.0590(9) Uani 1 1 d . . . . .
C6 C 0.4868(3) 0.5883(7) 0.4899(5) 0.0610(10) Uani 1 1 d . . . . .
H6 H 0.506047 0.450907 0.541684 0.073 Uiso 1 1 calc R . . . .
C7 C 0.5434(3) 0.7347(9) 0.4059(6) 0.0673(11) Uani 1 1 d . . . . .
H7 H 0.601459 0.695159 0.400158 0.081 Uiso 1 1 calc R . . . .
C9 C 0.4291(3) 1.0004(7) 0.3366(6) 0.0620(10) Uani 1 1 d . . . . .
H9 H 0.410340 1.138403 0.284757 0.074 Uiso 1 1 calc R . . . .
C8 C 0.5144(3) 0.9400(8) 0.3300(6) 0.0687(11) Uani 1 1 d . . . . .
H8 H 0.553189 1.037670 0.274181 0.082 Uiso 1 1 calc R . . . .
loop_
_atom_site_aniso_label
_atom_site_aniso_U_11
_atom_site_aniso_U_22
_atom_site_aniso_U_33
_atom_site_aniso_U_23
_atom_site_aniso_U_13
_atom_site_aniso_U_12
O2 0.0657(17) 0.0446(12) 0.0715(16) 0.0119(12) -0.0001(13) -0.0029(10)
O1 0.083(2) 0.0664(19) 0.099(2) 0.0076(17) 0.016(2) -0.0201(15)
C4 0.063(2) 0.0396(15) 0.0515(17) -0.0011(13) -0.0052(16) -0.0012(13)
C5 0.0600(19) 0.0404(17) 0.0514(18) -0.0014(13) -0.0017(15) -0.0040(12)
C3 0.067(2) 0.0479(17) 0.063(2) -0.0026(16) -0.0043(18) 0.0093(15)
C2 0.058(2) 0.061(2) 0.071(2) -0.0021(19) 0.0033(19) 0.0047(15)
C1 0.063(2) 0.0528(16) 0.062(2) -0.0034(18) 0.0042(17) -0.0098(17)
C6 0.063(2) 0.0511(17) 0.069(3) 0.0013(16) -0.0040(19) 0.0053(16)
C7 0.055(2) 0.077(2) 0.070(2) -0.010(2) 0.0012(18) -0.0011(18)
C9 0.074(2) 0.0523(19) 0.060(2) 0.0067(17) -0.005(2) -0.0070(15)
C8 0.070(3) 0.068(2) 0.067(2) 0.007(2) 0.004(2) -0.0141(19)
loop_
_atom_type_symbol
_atom_type_description
_atom_type_scat_dispersion_real
_atom_type_scat_dispersion_imag
_atom_type_scat_source
C C 0.0181 0.0091 'International Tables Vol C Tables 4.2.6.8 and 6.1.1.4'
H H 0.0000 0.0000 'International Tables Vol C Tables 4.2.6.8 and 6.1.1.4'
O O 0.0492 0.0322 'International Tables Vol C Tables 4.2.6.8 and 6.1.1.4'
loop_
_geom_angle_atom_site_label_1
_geom_angle_atom_site_label_2
_geom_angle_atom_site_label_3
_geom_angle
_geom_angle_site_symmetry_1
_geom_angle_site_symmetry_3
_geom_angle_publ_flag
C1 O2 C5 122.2(3) . . ?
C5 C4 C3 118.3(3) . . ?
C5 C4 C9 117.6(3) . . ?
C9 C4 C3 124.0(3) . . ?
O2 C5 C4 120.3(3) . . ?
C6 C5 O2 117.3(3) . . ?
C6 C5 C4 122.4(3) . . ?
C4 C3 H3 119.8 . . ?
C2 C3 C4 120.4(3) . . ?
C2 C3 H3 119.8 . . ?
C3 C2 H2 119.4 . . ?
C3 C2 C1 121.2(3) . . ?
C1 C2 H2 119.4 . . ?
O2 C1 C2 117.5(3) . . ?
O1 C1 O2 117.1(4) . . ?
O1 C1 C2 125.4(4) . . ?
C5 C6 H6 120.7 . . ?
C5 C6 C7 118.6(4) . . ?
C7 C6 H6 120.7 . . ?
C6 C7 H7 119.8 . . ?
C6 C7 C8 120.5(4) . . ?
C8 C7 H7 119.8 . . ?
C4 C9 H9 119.8 . . ?
C8 C9 C4 120.4(4) . . ?
C8 C9 H9 119.8 . . ?
C7 C8 H8 119.7 . . ?
C9 C8 C7 120.6(4) . . ?
C9 C8 H8 119.7 . . ?
loop_
_geom_bond_atom_site_label_1
_geom_bond_atom_site_label_2
_geom_bond_distance
_geom_bond_site_symmetry_2
_geom_bond_publ_flag
O2 C5 1.387(4) . ?
O2 C1 1.358(5) . ?
O1 C1 1.211(5) . ?
C4 C5 1.393(4) . ?
C4 C3 1.433(5) . ?
C4 C9 1.400(5) . ?
C5 C6 1.376(6) . ?
C3 H3 0.9300 . ?
C3 C2 1.338(6) . ?
C2 H2 0.9300 . ?
C2 C1 1.452(6) . ?
C6 H6 0.9300 . ?
C6 C7 1.379(6) . ?
C7 H7 0.9300 . ?
C7 C8 1.385(7) . ?
C9 H9 0.9300 . ?
C9 C8 1.369(6) . ?
C8 H8 0.9300 . ?
