#------------------------------------------------------------------------------
#$Date: 2019-10-29 23:40:56 +0200 (Tue, 29 Oct 2019) $
#$Revision: 220470 $
#$URL: file:///home/coder/svn-repositories/cod/cif/4/00/30/4003051.cif $
#------------------------------------------------------------------------------
#
# This file is available in the Crystallography Open Database (COD),
# http://www.crystallography.net/
#
# All data on this site have been placed in the public domain by the
# contributors.
#
data_4003051
loop_
_publ_author_name
'Drozhzhin, Oleg A.'
'Tertov, Ilya V.'
'Alekseeva, Anastasia M.'
'Aksyonov, Dmitry A.'
'Stevenson, Keith J.'
'Abakumov, Artem M.'
'Antipov, Evgeny V.'
_publ_section_title
;
 \b-NaVP2O7 as a Superior Electrode Material for Na-Ion Batteries
;
_journal_issue                   18
_journal_name_full               'Chemistry of Materials'
_journal_page_first              7463
_journal_paper_doi               10.1021/acs.chemmater.9b02124
_journal_volume                  31
_journal_year                    2019
_chemical_formula_sum            'Na O7 P2 V'
_chemical_formula_weight         247.9
_space_group_IT_number           14
_space_group_name_Hall           '-P 2ybc'
_space_group_name_H-M_alt        'P 1 21/c 1'
_symmetry_cell_setting           monoclinic
_symmetry_Int_Tables_number      14
_symmetry_space_group_name_Hall  '-P 2ybc'
_symmetry_space_group_name_H-M   'P 1 21/c 1'
_cell_angle_alpha                90
_cell_angle_beta                 109.091(9)
_cell_angle_gamma                90
_cell_formula_units_Z            4
_cell_length_a                   7.1142(7)
_cell_length_b                   10.0709(7)
_cell_length_c                   8.0816(6)
_cell_measurement_temperature    293
_cell_volume                     547.17(8)
_diffrn_ambient_temperature      293
_diffrn_measurement_device_type  'Huber G670'
_diffrn_radiation_probe          x-ray
_diffrn_radiation_type           CuKa1
_diffrn_radiation_wavelength     1.54056
_exptl_absorpt_coefficient_mu    21.868
_exptl_crystal_density_diffrn    3.009
_exptl_crystal_F_000             480
_pd_instr_location               ' ?'
_pd_meas_2theta_range_max        100.287
_pd_meas_2theta_range_min        5.008
_pd_meas_number_of_points        4765
_pd_proc_2theta_range_max        100.287
_pd_proc_2theta_range_min        5.008
_pd_proc_ls_background_function  '12 Chebyshev polynoms'
_pd_proc_ls_pref_orient_corr     none
_pd_proc_ls_profile_function     Pseudo-Voigt
_pd_proc_ls_prof_R_factor        0.0216
_pd_proc_ls_prof_wR_expected     0.0100
_pd_proc_ls_prof_wR_factor       0.0276
_refine_ls_goodness_of_fit_all   2.76
_refine_ls_number_constraints    1
_refine_ls_number_parameters     60
_refine_ls_number_restraints     0
_refine_ls_R_factor_all          0.0222
_refine_ls_R_factor_gt           0.0222
_refine_ls_shift/su_max          0.0497
_refine_ls_shift/su_mean         0.0179
_refine_ls_weighting_scheme      sigma
_refine_ls_wR_factor_all         0.0315
_refine_ls_wR_factor_gt          0.0315
_cod_data_source_file            cm9b02124_si_002.cif
_cod_data_source_block           I
_cod_depositor_comments
;
The following automatic conversions were performed:

'_diffrn_radiation_probe' value 'X-ray' changed to 'x-ray' according
to
/home/data/users/saulius/crontab/automatic-downloads/current/ACS/lib/dictionaries/cif_core.dic
dictionary named 'cif_core.dic' version 2.4.2 from 2011-04-26.

Automatic conversion script
Id: cif_fix_values 4973 2017-02-22 13:04:09Z antanas 
;
_cod_original_cell_volume        547.16(8)
_cod_original_sg_symbol_Hall     '-P 2ycb'
_cod_original_formula_sum        'Na1 O7 P2 V1'
_cod_database_code               4003051
loop_
_space_group_symop_id
_space_group_symop_operation_xyz
1 x,y,z
2 -x,y+1/2,-z+1/2
3 -x,-y,-z
4 x,-y+1/2,z+1/2
loop_
_atom_site_label
_atom_site_type_symbol
_atom_site_fract_x
_atom_site_fract_y
_atom_site_fract_z
_atom_site_adp_type
_atom_site_U_iso_or_equiv
_atom_site_site_symmetry_multiplicity
_atom_site_occupancy
_atom_site_calc_flag
Na Na 0.851(3) 0.1821(11) 0.4297(19) Uiso 0.072(7) 4 1 d
V V 0.2329(9) 0.1022(7) 0.2617(8) Uiso 0.012(2) 4 1 d
P1 P 0.1441(15) 0.4041(10) 0.3279(14) Uiso 0.018(3) 4 1 d
P2 P 0.4610(15) 0.3564(9) 0.2003(13) Uiso 0.018(3) 4 1 d
O1 O 0.138(3) 0.4005(18) 0.514(3) Uiso 0.009(2) 4 1 d
O2 O 0.313(3) 0.3744(18) 0.016(2) Uiso 0.009(2) 4 1 d
O3 O 0.011(3) 0.5150(17) 0.214(2) Uiso 0.009(2) 4 1 d
O4 O 0.462(3) 0.2121(16) 0.252(2) Uiso 0.009(2) 4 1 d
O5 O 0.673(2) 0.4210(18) 0.233(3) Uiso 0.009(2) 4 1 d
O6 O 0.088(3) 0.2721(19) 0.236(2) Uiso 0.009(2) 4 1 d
O7 O 0.365(3) 0.4301(15) 0.327(2) Uiso 0.009(2) 4 1 d
loop_
_atom_type_symbol
_atom_type_scat_dispersion_real
_atom_type_scat_dispersion_imag
_atom_type_scat_source
Na 0.1376 0.1272 'International Tables Vol C tables 4.2.6.8 and 6.1.1.1'
O 0.0516 0.0335 'International Tables Vol C tables 4.2.6.8 and 6.1.1.1'
P 0.2991 0.4404 'International Tables Vol C tables 4.2.6.8 and 6.1.1.1'
V 0.0765 2.1093 'International Tables Vol C tables 4.2.6.8 and 6.1.1.1'
loop_
_geom_angle_atom_site_label_1
_geom_angle_atom_site_label_2
_geom_angle_atom_site_label_3
_geom_angle_site_symmetry_3
_geom_angle
O1 V O1 2_545 124.8(5)
O1 V O2 . 77.3(5)
loop_
_geom_bond_atom_site_label_1
_geom_bond_atom_site_label_2
_geom_bond_site_symmetry_2
_geom_bond_distance
Na Na 1_454 8.849(19)
Na Na 1_455 7.11(3)
Na Na 1_554 8.08(2)
Na Na 1_556 8.08(2)
Na Na 1_655 7.11(3)
Na Na 1_656 8.849(19)
Na Na 2_645 7.018(19)
Na Na 2_646 9.70(2)
Na Na 2_655 7.018(19)
Na Na 2_656 9.70(2)
Na Na 2_745 6.50(2)
Na Na 2_746 7.034(18)
Na Na 2_755 6.50(2)
Na Na 2_756 7.034(18)
Na Na 3_655 7.996(19)
Na Na 3_656 6.59(2)
Na Na 3_665 9.565(18)
Na Na 3_666 8.42(2)
Na Na 3_755 8.71(2)
Na Na 3_756 4.202(17)
Na Na 3_757 9.49(2)
Na Na 3_766 6.724(16)
Na Na 3_856 9.65(2)
Na Na 4_454 7.07(2)
Na Na 4_455 9.36(3)
Na Na 4_544 9.595(17)
Na Na 4_545 9.595(17)
Na Na 4_554 4.27(2)
Na Na 4_555 4.27(2)
Na Na 4_654 9.36(3)
Na Na 4_655 7.07(2)
Na V 1_554 9.052(15)
Na V . 4.234(18)
Na V 1_556 9.19(2)
Na V 1_655 3.50(2)
Na V 1_656 6.426(16)
Na V 1_665 9.875(14)
Na V 1_756 9.963(16)
Na V 2_545 9.389(17)
Na V 2_555 8.483(18)
Na V 2_645 6.020(13)
Na V 2_646 8.928(16)
Na V 2_655 4.478(13)
Na V 2_656 7.970(17)
Na V 2_745 9.249(18)
Na V 2_746 9.561(14)
Na V 2_755 8.328(19)
Na V 2_756 8.673(14)
Na V 3_555 8.408(15)
Na V 3_556 9.30(2)
Na V 3_655 6.131(17)
Na V 3_656 3.969(16)
Na V 3_665 9.019(15)
Na V 3_666 7.714(14)
Na V 3_756 6.801(17)
Na V 3_766 9.487(15)
Na V 4_544 9.764(14)
Na V 4_545 9.831(16)
Na V 4_554 6.138(14)
Na V 4_555 6.24(2)
Na V 4_645 8.497(13)
Na V 4_654 7.13(2)
Na V 4_655 3.812(14)
Na V 4_755 9.555(18)
Na P1 1_545 9.201(17)
Na P1 1_554 8.960(17)
Na P1 . 5.32(2)
Na P1 1_645 8.218(16)
Na P1 1_655 3.34(2)
Na P1 1_656 7.221(18)
Na P1 1_755 9.76(2)
Na P1 1_756 9.931(17)
Na P1 2_545 7.256(19)
Na P1 2_555 9.884(17)
Na P1 2_645 3.496(17)
Na P1 2_646 6.61(2)
Na P1 2_655 7.567(16)
Na P1 2_656 9.420(18)
Na P1 2_745 8.54(2)
Na P1 2_746 8.178(17)
Na P1 3_555 9.701(16)
Na P1 3_556 9.89(2)
Na P1 3_565 8.754(16)
Na P1 3_566 8.97(2)
Na P1 3_655 8.513(18)
Na P1 3_656 6.216(16)
Na P1 3_665 7.416(19)
Na P1 3_666 4.600(16)
Na P1 3_756 8.979(18)
Na P1 3_766 7.947(19)
Na P1 4_554 5.805(16)
Na P1 4_555 6.86(2)
Na P1 4_654 5.95(2)
Na P1 4_655 3.327(17)
Na P1 4_665 9.748(15)
Na P1 4_755 8.738(19)
Na P2 1_455 9.61(2)
Na P2 1_545 8.770(15)
Na P2 1_554 9.564(18)
Na P2 . 3.295(17)
Na P2 1_556 7.80(2)
Na P2 1_645 9.832(17)
Na P2 1_655 5.53(2)
Na P2 1_656 6.559(16)
Na P2 2_545 9.62(2)
Na P2 2_644 9.264(18)
Na P2 2_645 3.907(16)
Na P2 2_646 8.68(2)
Na P2 2_655 7.115(15)
Na P2 2_745 6.26(2)
Na P2 2_746 7.851(16)
Na P2 2_755 8.634(18)
Na P2 2_756 9.849(15)
Na P2 3_655 7.271(16)
Na P2 3_656 6.901(18)
Na P2 3_665 6.712(16)
Na P2 3_666 6.310(19)
Na P2 3_755 9.78(2)
Na P2 3_756 7.262(16)
Na P2 3_765 9.37(2)
Na P2 3_766 6.702(16)
Na P2 4_454 9.724(18)
Na P2 4_554 5.648(17)
Na P2 4_555 4.07(2)
Na P2 4_654 8.39(2)
Na P2 4_655 4.190(18)
Na P2 4_656 9.761(17)
Na O1 1_545 9.51(2)
Na O1 1_554 7.79(2)
Na O1 . 5.77(3)
Na O1 1_645 8.10(2)
Na O1 1_654 8.58(3)
Na O1 1_655 2.93(2)
Na O1 1_656 8.61(3)
Na O1 1_755 9.22(3)
Na O1 2_545 7.34(2)
Na O1 2_546 9.92(3)
Na O1 2_555 9.91(2)
Na O1 2_645 4.59(3)
Na O1 2_646 5.29(3)
Na O1 2_655 8.09(2)
Na O1 2_656 8.50(2)
Na O1 2_745 9.46(3)
Na O1 2_746 7.67(2)
Na O1 3_556 9.29(3)
Na O1 3_565 9.50(2)
Na O1 3_566 8.33(3)
Na O1 3_655 9.65(3)
Na O1 3_656 5.88(2)
Na O1 3_665 8.73(3)
Na O1 3_666 4.23(2)
Na O1 3_667 9.49(3)
Na O1 3_756 9.18(3)
Na O1 3_766 8.21(3)
Na O1 4_554 5.15(2)
Na O1 4_555 8.03(3)
Na O1 4_654 4.54(3)
Na O1 4_655 4.57(2)
Na O1 4_755 8.86(2)
Na O2 1_545 9.15(2)
Na O2 . 4.61(2)
Na O2 1_556 7.26(3)
Na O2 1_645 9.77(2)
Na O2 1_646 9.45(2)
Na O2 1_655 5.74(3)
Na O2 1_656 5.18(2)
Na O2 2_544 9.76(2)
Na O2 2_545 8.99(3)
Na O2 2_644 7.97(2)
Na O2 2_645 3.39(2)
Na O2 2_646 9.49(3)
Na O2 2_655 7.11(2)
Na O2 2_745 6.59(3)
Na O2 2_746 9.19(2)
Na O2 2_755 9.08(2)
Na O2 3_555 9.67(2)
Na O2 3_565 9.06(2)
Na O2 3_655 6.55(2)
Na O2 3_656 7.50(2)
Na O2 3_665 5.61(2)
Na O2 3_666 6.70(2)
Na O2 3_755 9.68(3)
Na O2 3_756 8.33(2)
Na O2 3_765 9.07(3)
Na O2 3_766 7.61(2)
Na O2 4_554 7.15(2)
Na O2 4_555 4.14(3)
Na O2 4_654 9.03(3)
Na O2 4_655 3.18(3)
Na O2 4_656 8.32(2)
Na O3 1_545 8.78(2)
Na O3 . 6.57(2)
Na O3 1_645 7.13(2)
Na O3 1_646 9.05(2)
Na O3 1_655 4.11(2)
Na O3 1_656 6.93(2)
Na O3 1_755 9.58(3)
Na O3 1_756 9.24(2)
Na O3 2_544 9.42(2)
Na O3 2_545 6.10(3)
Na O3 2_644 9.75(3)
Na O3 2_645 2.42(3)
Na O3 2_646 6.88(2)
Na O3 2_655 8.57(2)
Na O3 2_745 8.71(3)
Na O3 2_746 8.92(2)
Na O3 3_555 9.65(2)
Na O3 3_565 7.29(2)
Na O3 3_566 8.17(3)
Na O3 3_655 8.98(2)
Na O3 3_656 7.53(2)
Na O3 3_665 6.38(3)
Na O3 3_666 4.09(2)
Na O3 3_766 8.24(2)
Na O3 4_554 7.11(2)
Na O3 4_555 7.34(3)
Na O3 4_654 6.56(3)
Na O3 4_655 2.97(2)
Na O3 4_665 8.38(2)
Na O3 4_755 8.06(2)
Na O4 1_455 9.52(3)
Na O4 1_554 9.00(2)
Na O4 . 2.69(2)
Na O4 1_556 8.00(3)
Na O4 1_655 5.01(3)
Na O4 1_656 6.65(2)
Na O4 2_645 5.23(2)
Na O4 2_646 8.98(3)
Na O4 2_655 5.78(2)
Na O4 2_656 9.31(2)
Na O4 2_745 7.29(2)
Na O4 2_746 8.30(2)
Na O4 2_755 7.70(2)
Na O4 2_756 8.66(2)
Na O4 3_555 9.98(2)
Na O4 3_655 6.56(2)
Na O4 3_656 5.57(2)
Na O4 3_665 8.03(2)
Na O4 3_666 7.25(2)
Na O4 3_755 9.36(3)
Na O4 3_756 6.17(2)
Na O4 3_766 7.71(2)
Na O4 4_454 9.66(2)
Na O4 4_554 5.37(2)
Na O4 4_555 4.51(3)
Na O4 4_645 9.97(2)
Na O4 4_654 8.09(3)
Na O4 4_655 4.40(2)
Na O5 1_455 8.36(2)
Na O5 1_545 7.85(2)
Na O5 1_554 9.64(3)
Na O5 . 2.93(2)
Na O5 1_556 7.42(3)
Na O5 1_655 6.97(3)
Na O5 1_656 7.57(2)
Na O5 2_644 9.29(3)
Na O5 2_645 4.40(2)
Na O5 2_646 9.11(3)
Na O5 2_655 8.23(2)
Na O5 2_745 4.80(3)
Na O5 2_746 7.01(2)
Na O5 2_755 8.46(2)
Na O5 2_756 9.88(2)
Na O5 3_655 8.15(2)
Na O5 3_656 8.05(2)
Na O5 3_665 6.75(2)
Na O5 3_666 6.63(3)
Na O5 3_755 9.43(3)
Na O5 3_756 7.05(2)
Na O5 3_765 8.25(3)
Na O5 3_766 5.37(2)
Na O5 4_454 8.49(2)
Na O5 4_455 9.53(3)
Na O5 4_554 5.45(3)
Na O5 4_555 3.28(3)
Na O5 4_565 9.55(2)
Na O5 4_654 9.40(3)
Na O5 4_655 5.65(2)
Na O6 1_554 9.44(2)
Na O6 . 5.21(2)
Na O6 1_556 9.79(3)
Na O6 1_645 9.54(2)
Na O6 1_655 2.80(3)
Na O6 1_656 6.24(2)
Na O6 1_755 9.47(3)
Na O6 1_756 9.12(2)
Na O6 2_545 7.59(2)
Na O6 2_555 8.71(2)
Na O6 2_645 4.41(2)
Na O6 2_646 7.80(2)
Na O6 2_655 6.14(2)
Na O6 2_656 8.89(2)
Na O6 2_745 9.08(3)
Na O6 2_746 9.28(2)
Na O6 3_555 8.43(2)
Na O6 3_556 9.20(3)
Na O6 3_565 8.96(2)
Na O6 3_566 9.69(3)
Na O6 3_655 7.18(2)
Na O6 3_656 5.26(2)
Na O6 3_665 7.80(2)
Na O6 3_666 6.08(2)
Na O6 3_756 8.48(2)
Na O6 3_766 9.01(2)
Na O6 4_554 6.42(2)
Na O6 4_555 6.68(3)
Na O6 4_645 9.93(2)
Na O6 4_654 6.38(3)
Na O6 4_655 2.54(2)
Na O6 4_755 8.34(2)
Na O7 1_545 8.25(2)
Na O7 1_554 8.80(2)
Na O7 . 4.12(2)
Na O7 1_556 9.33(3)
Na O7 1_645 8.57(2)
Na O7 1_655 4.72(3)
Na O7 1_656 7.40(2)
Na O7 2_545 8.60(2)
Na O7 2_645 3.319(19)
Na O7 2_646 7.14(3)
Na O7 2_655 7.831(19)
Na O7 2_745 7.02(3)
Na O7 2_746 7.19(2)
Na O7 2_755 9.98(2)
Na O7 3_565 9.64(2)
Na O7 3_655 8.46(2)
Na O7 3_656 6.80(2)
Na O7 3_665 6.99(2)
Na O7 3_666 4.85(2)
Na O7 3_756 8.11(2)
Na O7 3_766 6.56(2)
Na O7 4_554 5.09(2)
Na O7 4_555 5.55(3)
Na O7 4_654 7.08(3)
Na O7 4_655 4.16(2)
Na O7 4_665 9.795(19)
V V 1_454 8.849(8)
V V 1_455 7.114(10)
V V 1_554 8.082(9)
V V 1_556 8.082(9)
V V 1_655 7.114(10)
V V 1_656 8.849(8)
V V 2_544 9.317(9)
V V 2_545 5.997(10)
V V 2_554 9.317(9)
V V 2_555 5.997(10)
V V 2_645 6.349(10)
V V 2_646 9.081(9)
V V 2_655 6.349(10)
V V 2_656 9.081(9)
V V 3_555 4.893(8)
V V 3_556 6.197(10)
V V 3_565 9.159(9)
V V 3_566 9.917(10)
V V 3_655 6.862(10)
V V 3_656 4.893(8)
V V 3_666 9.159(9)
V V 4_444 9.923(9)
V V 4_454 7.549(8)
V V 4_455 9.726(10)
V V 4_544 8.165(10)
V V 4_545 8.165(10)
V V 4_554 5.018(9)
V V 4_555 5.018(9)
V V 4_645 9.923(9)
V V 4_654 9.726(10)
V V 4_655 7.549(8)
V P1 1_454 9.378(11)
V P1 1_455 8.499(13)
V P1 1_545 7.095(12)
V P1 1_554 7.966(13)
V P1 . 3.185(13)
V P1 1_556 9.352(14)
V P1 1_645 9.459(12)
V P1 1_655 7.020(13)
V P1 1_656 9.433(11)
V P1 2_445 9.789(13)
V P1 2_544 8.560(12)
V P1 2_545 3.229(12)
V P1 2_546 8.844(14)
V P1 2_555 8.465(12)
V P1 2_645 5.124(13)
V P1 2_646 7.512(11)
V P1 2_655 9.353(13)
V P1 3_555 6.895(12)
V P1 3_556 7.072(13)
V P1 3_565 6.801(12)
V P1 3_566 6.981(13)
V P1 3_655 9.065(14)
V P1 3_656 6.858(12)
V P1 3_665 8.994(14)
V P1 3_666 6.764(11)
V P1 4_454 7.384(11)
V P1 4_554 3.353(13)
V P1 4_555 4.820(14)
V P1 4_654 8.317(14)
V P1 4_655 6.600(11)
V P2 1_445 9.221(12)
V P2 1_454 8.915(11)
V P2 1_455 5.930(13)
V P2 1_545 7.735(12)
V P2 1_554 9.585(13)
V P2 . 3.156(12)
V P2 1_556 7.660(12)
V P2 1_655 9.272(13)
V P2 1_656 9.853(11)
V P2 2_544 8.114(11)
V P2 2_545 5.620(13)
V P2 2_555 9.118(12)
V P2 2_644 9.077(14)
V P2 2_645 3.245(12)
V P2 2_646 8.324(12)
V P2 2_655 7.879(12)
V P2 2_745 9.523(13)
V P2 3_555 6.898(11)
V P2 3_556 8.869(14)
V P2 3_565 7.481(11)
V P2 3_566 9.329(13)
V P2 3_655 6.733(13)
V P2 3_656 6.228(11)
V P2 3_665 7.329(13)
V P2 3_666 6.868(11)
V P2 4_454 5.883(10)
V P2 4_455 7.458(14)
V P2 4_554 5.311(14)
V P2 4_555 3.407(11)
V P2 4_655 8.295(12)
V O1 1_454 8.683(18)
V O1 1_455 9.18(2)
V O1 1_544 9.18(2)
V O1 1_545 7.45(2)
V O1 1_554 6.58(2)
V O1 . 3.82(2)
V O1 1_645 9.33(2)
V O1 1_655 6.79(2)
V O1 2_445 9.49(2)
V O1 2_544 9.98(2)
V O1 2_545 3.495(18)
V O1 2_546 7.44(2)
V O1 2_555 8.528(19)
V O1 2_645 5.97(2)
V O1 2_646 6.423(19)
V O1 2_655 9.81(2)
V O1 3_555 7.82(2)
V O1 3_556 6.24(2)
V O1 3_565 7.78(2)
V O1 3_566 6.20(2)
V O1 3_656 6.607(19)
V O1 3_666 6.564(19)
V O1 4_454 7.38(2)
V O1 4_553 9.88(2)
V O1 4_554 1.89(2)
V O1 4_555 6.34(2)
V O1 4_654 7.34(2)
V O1 4_655 7.269(18)
V O2 1_445 9.59(2)
V O2 1_455 6.76(2)
V O2 1_545 7.67(2)
V O2 1_546 9.429(19)
V O2 . 3.54(2)
V O2 1_556 6.533(19)
V O2 1_655 8.97(2)
V O2 1_656 8.548(17)
V O2 2_544 6.622(16)
V O2 2_545 5.31(2)
V O2 2_554 9.952(18)
V O2 2_555 9.13(2)
V O2 2_644 8.27(2)
V O2 2_645 3.890(19)
V O2 2_646 9.616(17)
V O2 2_655 8.386(19)
V O2 3_555 6.120(19)
V O2 3_556 9.33(2)
V O2 3_565 6.496(19)
V O2 3_566 9.58(2)
V O2 3_655 6.57(2)
V O2 3_656 7.433(17)
V O2 3_665 6.93(2)
V O2 3_666 7.745(18)
V O2 4_454 7.309(16)
V O2 4_455 7.47(2)
V O2 4_554 6.24(2)
V O2 4_555 1.955(17)
V O2 4_556 9.964(19)
V O2 4_655 7.28(2)
V O3 1_455 9.53(2)
V O3 1_545 6.100(19)
V O3 1_554 9.10(2)
V O3 . 4.417(19)
V O3 1_556 9.32(2)
V O3 1_645 8.20(2)
V O3 1_646 9.848(18)
V O3 1_655 7.04(2)
V O3 1_656 8.904(17)
V O3 2_444 9.779(17)
V O3 2_445 8.96(2)
V O3 2_544 7.55(2)
V O3 2_545 2.01(2)
V O3 2_546 9.04(2)
V O3 2_555 9.369(19)
V O3 2_645 5.39(2)
V O3 2_646 8.313(17)
V O3 3_465 9.259(18)
V O3 3_555 7.215(19)
V O3 3_556 8.03(2)
V O3 3_565 5.318(19)
V O3 3_566 6.38(2)
V O3 3_655 9.79(2)
V O3 3_656 8.403(18)
V O3 3_665 8.49(2)
V O3 3_666 6.843(17)
V O3 4_454 8.447(18)
V O3 4_554 4.349(19)
V O3 4_555 4.58(2)
V O3 4_564 9.826(19)
V O3 4_565 9.93(2)
V O3 4_654 8.23(2)
V O3 4_655 5.672(17)
V O4 1_454 8.281(16)
V O4 1_455 5.57(2)
V O4 1_545 9.116(17)
V O4 1_554 8.89(2)
V O4 . 1.99(2)
V O4 1_556 7.710(18)
V O4 1_655 8.84(2)
V O4 1_656 9.796(16)
V O4 2_544 8.974(16)
V O4 2_545 6.285(19)
V O4 2_555 7.860(18)
V O4 2_644 9.95(2)
V O4 2_645 4.510(18)
V O4 2_646 8.504(18)
V O4 2_655 6.528(18)
V O4 2_656 9.726(18)
V O4 3_555 6.186(16)
V O4 3_556 7.91(2)
V O4 3_565 8.714(17)
V O4 3_655 6.16(2)
V O4 3_656 4.958(17)
V O4 3_665 8.693(19)
V O4 3_666 7.890(17)
V O4 3_756 9.372(18)
V O4 4_444 9.976(17)
V O4 4_454 5.981(16)
V O4 4_455 7.97(2)
V O4 4_544 9.551(18)
V O4 4_545 9.023(17)
V O4 4_554 5.24(2)
V O4 4_555 4.201(17)
V O4 4_655 8.542(18)
V O5 1_445 7.899(19)
V O5 1_454 8.58(2)
V O5 1_455 5.064(18)
V O5 1_545 7.575(19)
V O5 . 4.541(19)
V O5 1_556 8.11(2)
V O5 2_544 8.697(18)
V O5 2_545 6.709(19)
V O5 2_644 8.48(2)
V O5 2_645 1.940(19)
V O5 2_646 8.13(2)
V O5 2_655 8.272(19)
V O5 2_745 7.984(19)
V O5 2_746 9.409(17)
V O5 3_555 8.273(17)
V O5 3_565 7.982(17)
V O5 3_566 9.92(2)
V O5 3_655 6.78(2)
V O5 3_656 6.56(2)
V O5 3_665 6.42(2)
V O5 3_666 6.19(2)
V O5 3_756 9.178(17)
V O5 3_766 8.918(16)
V O5 4_454 4.799(17)
V O5 4_455 6.36(2)
V O5 4_554 6.07(2)
V O5 4_555 4.072(18)
V O5 4_655 9.694(16)
V O6 1_454 9.686(16)
V O6 1_455 8.26(2)
V O6 1_545 8.42(2)
V O6 1_554 8.19(2)
V O6 . 1.97(2)
V O6 1_556 8.44(2)
V O6 1_655 6.39(2)
V O6 1_656 8.402(17)
V O6 2_445 9.97(2)
V O6 2_544 8.321(19)
V O6 2_545 4.04(2)
V O6 2_546 9.69(2)
V O6 2_555 7.12(2)
V O6 2_645 5.86(2)
V O6 2_646 8.626(18)
V O6 2_655 8.29(2)
V O6 3_455 9.694(18)
V O6 3_555 5.440(19)
V O6 3_556 6.48(2)
V O6 3_565 7.42(2)
V O6 3_566 8.21(2)
V O6 3_655 8.15(2)
V O6 3_656 6.419(18)
V O6 3_665 9.59(2)
V O6 3_666 8.166(19)
V O6 4_454 7.960(17)
V O6 4_544 9.68(2)
V O6 4_545 9.79(2)
V O6 4_554 4.22(2)
V O6 4_555 4.47(2)
V O6 4_654 8.58(2)
V O6 4_655 6.168(17)
V O7 1_445 9.289(19)
V O7 1_454 8.694(16)
V O7 1_455 7.17(2)
V O7 1_545 6.831(17)
V O7 1_554 8.58(2)
V O7 . 3.427(17)
V O7 1_556 8.975(19)
V O7 1_655 8.56(2)
V O7 2_544 8.602(17)
V O7 2_545 4.433(19)
V O7 2_546 9.79(2)
V O7 2_555 9.282(17)
V O7 2_645 3.61(2)
V O7 2_646 7.189(18)
V O7 2_655 8.917(17)
V O7 3_555 7.499(16)
V O7 3_556 8.20(2)
V O7 3_565 7.048(16)
V O7 3_566 7.79(2)
V O7 3_655 8.27(2)
V O7 3_656 6.462(16)
V O7 3_665 7.86(2)
V O7 3_666 5.932(16)
V O7 4_454 6.029(17)
V O7 4_455 8.80(2)
V O7 4_554 3.94(2)
V O7 4_555 4.362(19)
V O7 4_654 9.79(2)
V O7 4_655 7.862(17)
P1 P1 1_454 8.849(13)
P1 P1 1_455 7.114(16)
P1 P1 1_554 8.082(17)
P1 P1 1_556 8.082(17)
P1 P1 1_655 7.114(16)
P1 P1 1_656 8.849(13)
P1 P1 2_545 5.427(14)
P1 P1 2_546 9.233(17)
P1 P1 2_555 5.427(14)
P1 P1 2_556 9.233(17)
P1 P1 2_645 7.534(16)
P1 P1 2_646 8.657(14)
P1 P1 2_655 7.534(16)
P1 P1 2_656 8.657(14)
P1 P1 3_465 9.167(13)
P1 P1 3_555 9.562(15)
P1 P1 3_556 9.050(15)
P1 P1 3_565 5.378(15)
P1 P1 3_566 4.404(17)
P1 P1 3_656 9.508(14)
P1 P1 3_665 8.662(18)
P1 P1 3_666 5.282(13)
P1 P1 4_454 7.600(13)
P1 P1 4_455 9.766(17)
P1 P1 4_464 9.833(14)
P1 P1 4_554 5.095(16)
P1 P1 4_555 5.095(16)
P1 P1 4_564 8.054(15)
P1 P1 4_565 8.054(15)
P1 P1 4_654 9.766(17)
P1 P1 4_655 7.600(13)
P1 P1 4_665 9.833(14)
P1 P2 1_454 8.828(14)
P1 P2 1_455 4.651(15)
P1 P2 1_456 9.796(18)
P1 P2 . 2.811(17)
P1 P2 1_556 6.680(15)
P1 P2 1_565 9.983(14)
P1 P2 1_655 9.767(16)
P1 P2 1_656 9.721(13)
P1 P2 2_544 9.726(14)
P1 P2 2_545 6.954(15)
P1 P2 2_554 9.216(14)
P1 P2 2_555 6.220(15)
P1 P2 2_645 6.228(14)
P1 P2 2_646 9.250(14)
P1 P2 2_655 5.396(15)
P1 P2 2_656 8.711(14)
P1 P2 3_555 9.132(14)
P1 P2 3_565 5.527(13)
P1 P2 3_566 7.044(17)
P1 P2 3_655 9.624(15)
P1 P2 3_656 8.607(14)
P1 P2 3_665 6.307(17)
P1 P2 3_666 4.609(13)
P1 P2 3_766 9.700(14)
P1 P2 4_454 6.333(13)
P1 P2 4_455 7.008(17)
P1 P2 4_464 9.417(13)
P1 P2 4_465 9.884(16)
P1 P2 4_554 6.721(17)
P1 P2 4_555 4.072(13)
P1 P2 4_564 9.683(15)
P1 P2 4_565 8.072(14)
P1 P2 4_655 9.234(14)
P1 O1 1_454 7.980(19)
P1 O1 1_455 7.78(3)
P1 O1 1_554 6.56(3)
P1 O1 . 1.52(3)
P1 O1 1_556 9.60(3)
P1 O1 1_655 6.73(2)
P1 O1 1_656 9.88(2)
P1 O1 2_455 9.97(2)
P1 O1 2_545 5.81(2)
P1 O1 2_546 8.06(2)
P1 O1 2_555 5.75(2)
P1 O1 2_556 8.02(2)
P1 O1 2_645 8.29(2)
P1 O1 2_646 7.89(2)
P1 O1 2_655 8.25(2)
P1 O1 2_656 7.85(2)
P1 O1 3_465 9.632(19)
P1 O1 3_466 9.81(2)
P1 O1 3_556 8.54(2)
P1 O1 3_565 6.73(2)
P1 O1 3_566 3.35(2)
P1 O1 3_656 9.44(2)
P1 O1 3_665 9.95(3)
P1 O1 3_666 5.23(2)
P1 O1 3_667 9.29(2)
P1 O1 4_454 7.43(2)
P1 O1 4_464 9.74(2)
P1 O1 4_554 3.97(2)
P1 O1 4_555 6.35(2)
P1 O1 4_564 7.44(2)
P1 O1 4_565 8.94(2)
P1 O1 4_654 8.81(3)
P1 O1 4_655 8.03(2)
P1 O2 1_455 5.62(2)
P1 O2 1_456 9.35(2)
P1 O2 . 3.15(2)
P1 O2 1_556 5.30(2)
P1 O2 1_655 9.45(2)
P1 O2 1_656 8.362(19)
P1 O2 2_544 8.426(19)
P1 O2 2_545 6.58(2)
P1 O2 2_554 8.061(19)
P1 O2 2_555 6.11(2)
P1 O2 2_645 6.46(2)
P1 O2 2_655 5.98(2)
P1 O2 3_555 8.59(2)
P1 O2 3_565 4.167(19)
P1 O2 3_566 7.42(2)
P1 O2 3_655 9.54(2)
P1 O2 3_656 9.55(2)
P1 O2 3_665 5.88(2)
P1 O2 3_666 5.885(18)
P1 O2 4_454 7.780(18)
P1 O2 4_455 7.14(2)
P1 O2 4_465 9.79(2)
P1 O2 4_554 7.59(2)
P1 O2 4_555 3.23(2)
P1 O2 4_556 9.69(2)
P1 O2 4_565 7.44(2)
P1 O2 4_655 8.43(2)
P1 O3 1_454 9.990(18)
P1 O3 1_455 7.89(2)
P1 O3 1_545 9.02(2)
P1 O3 1_554 8.81(2)
P1 O3 . 1.556(19)
P1 O3 1_556 7.60(2)
P1 O3 1_655 6.62(2)
P1 O3 1_656 7.853(18)
P1 O3 2_445 9.01(2)
P1 O3 2_544 9.02(2)
P1 O3 2_545 4.06(2)
P1 O3 2_546 9.06(2)
P1 O3 2_555 6.24(2)
P1 O3 2_645 7.27(2)
P1 O3 2_646 9.000(19)
P1 O3 2_655 8.68(2)
P1 O3 3_465 7.991(19)
P1 O3 3_565 4.23(2)
P1 O3 3_566 4.28(2)
P1 O3 3_665 8.55(3)
P1 O3 3_666 5.994(19)
P1 O3 4_454 9.012(19)
P1 O3 4_464 9.881(19)
P1 O3 4_554 6.35(2)
P1 O3 4_555 5.51(2)
P1 O3 4_564 7.53(2)
P1 O3 4_565 6.84(2)
P1 O3 4_655 7.28(2)
P1 O3 4_665 8.33(2)
P1 O4 1_454 8.675(18)
P1 O4 1_455 5.07(2)
P1 O4 1_465 9.39(2)
P1 O4 1_554 9.86(2)
P1 O4 . 3.18(2)
P1 O4 1_556 7.32(2)
P1 O4 1_565 8.520(19)
P1 O4 1_655 9.78(2)
P1 O4 2_545 8.107(19)
P1 O4 2_554 8.933(19)
P1 O4 2_555 5.18(2)
P1 O4 2_645 7.62(2)
P1 O4 2_646 9.902(19)
P1 O4 2_655 4.37(2)
P1 O4 2_656 7.687(19)
P1 O4 3_555 8.115(18)
P1 O4 3_556 8.84(2)
P1 O4 3_565 6.503(18)
P1 O4 3_566 7.39(2)
P1 O4 3_655 8.77(2)
P1 O4 3_656 7.187(18)
P1 O4 3_665 7.31(2)
P1 O4 3_666 5.300(18)
P1 O4 4_454 5.639(17)
P1 O4 4_455 6.90(2)
P1 O4 4_554 5.91(2)
P1 O4 4_555 3.629(18)
P1 O4 4_565 9.541(19)
P1 O4 4_655 8.94(2)
P1 O5 1_454 8.37(2)
P1 O5 1_455 3.190(18)
P1 O5 1_456 8.99(3)
P1 O5 . 4.08(2)
P1 O5 1_556 7.05(2)
P1 O5 2_544 9.92(2)
P1 O5 2_545 7.47(2)
P1 O5 2_555 7.70(2)
P1 O5 2_645 5.10(2)
P1 O5 2_646 8.74(2)
P1 O5 2_655 5.43(2)
P1 O5 2_656 8.94(2)
P1 O5 2_745 9.87(2)
P1 O5 3_565 6.341(18)
P1 O5 3_566 7.93(2)
P1 O5 3_655 9.76(2)
P1 O5 3_656 8.96(2)
P1 O5 3_665 5.41(3)
P1 O5 3_666 3.79(2)
P1 O5 3_766 8.185(17)
P1 O5 4_454 5.87(2)
P1 O5 4_455 6.32(2)
P1 O5 4_464 8.37(2)
P1 O5 4_465 8.68(2)
P1 O5 4_554 7.73(3)
P1 O5 4_555 5.248(19)
P1 O5 4_564 9.76(2)
P1 O5 4_565 7.94(2)
P1 O6 1_454 9.629(18)
P1 O6 1_455 7.42(2)
P1 O6 1_554 8.80(2)
P1 O6 . 1.51(2)
P1 O6 1_556 7.60(2)
P1 O6 1_565 8.77(2)
P1 O6 1_655 7.12(2)
P1 O6 1_656 8.275(18)
P1 O6 2_455 9.37(2)
P1 O6 2_545 6.55(2)
P1 O6 2_554 9.01(2)
P1 O6 2_555 4.02(2)
P1 O6 2_556 9.05(2)
P1 O6 2_645 8.51(2)
P1 O6 2_655 6.76(2)
P1 O6 2_656 8.589(19)
P1 O6 3_465 9.061(19)
P1 O6 3_555 8.06(2)
P1 O6 3_556 8.08(2)
P1 O6 3_565 5.40(2)
P1 O6 3_566 5.44(2)
P1 O6 3_656 8.72(2)
P1 O6 3_665 8.81(2)
P1 O6 3_666 6.349(19)
P1 O6 4_454 7.679(18)
P1 O6 4_455 9.31(2)
P1 O6 4_554 4.99(2)
P1 O6 4_555 3.88(2)
P1 O6 4_564 9.52(2)
P1 O6 4_565 8.98(2)
P1 O6 4_654 9.60(2)
P1 O6 4_655 6.680(19)
P1 O7 1_454 8.180(18)
P1 O7 1_455 5.54(2)
P1 O7 1_545 9.935(19)
P1 O7 1_554 8.74(2)
P1 O7 . 1.60(2)
P1 O7 1_556 7.71(2)
P1 O7 1_655 8.70(2)
P1 O7 1_656 9.739(18)
P1 O7 2_545 5.876(19)
P1 O7 2_546 9.94(2)
P1 O7 2_555 6.309(19)
P1 O7 2_645 6.27(2)
P1 O7 2_646 8.127(19)
P1 O7 2_655 6.68(2)
P1 O7 2_656 8.445(19)
P1 O7 3_555 9.958(18)
P1 O7 3_556 9.91(2)
P1 O7 3_565 5.601(18)
P1 O7 3_566 5.51(2)
P1 O7 3_656 9.174(18)
P1 O7 3_665 7.42(2)
P1 O7 3_666 4.048(18)
P1 O7 4_454 6.614(18)
P1 O7 4_455 8.54(2)
P1 O7 4_464 8.796(18)
P1 O7 4_554 5.86(2)
P1 O7 4_555 5.089(19)
P1 O7 4_564 8.25(2)
P1 O7 4_565 7.716(19)
P1 O7 4_655 8.954(19)
P2 P2 1_454 8.849(13)
P2 P2 1_455 7.114(16)
P2 P2 1_554 8.082(16)
P2 P2 1_556 8.082(16)
P2 P2 1_655 7.114(16)
P2 P2 1_656 8.849(13)
P2 P2 2_544 9.493(13)
P2 P2 2_545 8.513(16)
P2 P2 2_554 9.493(13)
P2 P2 2_555 8.513(16)
P2 P2 2_644 9.015(15)
P2 P2 2_645 5.101(13)
P2 P2 2_654 9.015(15)
P2 P2 2_655 5.101(13)
P2 P2 2_745 8.988(15)
P2 P2 2_755 8.988(15)
P2 P2 3_555 9.547(13)
P2 P2 3_565 6.927(14)
P2 P2 3_566 9.780(17)
P2 P2 3_655 7.969(14)
P2 P2 3_656 8.576(14)
P2 P2 3_665 4.508(15)
P2 P2 3_666 5.512(15)
P2 P2 3_765 9.690(17)
P2 P2 3_766 8.145(13)
P2 P2 4_454 7.261(13)
P2 P2 4_455 9.505(17)
P2 P2 4_554 4.574(15)
P2 P2 4_555 4.574(15)
P2 P2 4_564 8.898(14)
P2 P2 4_565 8.898(14)
P2 P2 4_654 9.505(17)
P2 P2 4_655 7.261(13)
P2 O1 1_454 9.24(2)
P2 O1 1_554 5.28(2)
P2 O1 . 3.97(3)
P2 O1 1_654 8.46(3)
P2 O1 1_655 4.67(2)
P2 O1 2_545 6.12(2)
P2 O1 2_546 9.86(3)
P2 O1 2_555 6.81(2)
P2 O1 2_645 5.96(2)
P2 O1 2_646 7.59(2)
P2 O1 2_655 6.66(2)
P2 O1 2_656 8.16(2)
P2 O1 3_555 9.67(2)
P2 O1 3_556 9.38(2)
P2 O1 3_565 6.43(2)
P2 O1 3_566 5.99(3)
P2 O1 3_656 8.20(2)
P2 O1 3_665 7.63(3)
P2 O1 3_666 3.89(2)
P2 O1 3_766 9.78(2)
P2 O1 4_454 9.40(2)
P2 O1 4_553 9.46(2)
P2 O1 4_554 3.46(2)
P2 O1 4_555 8.07(3)
P2 O1 4_564 7.83(2)
P2 O1 4_654 6.07(2)
P2 O1 4_655 7.24(2)
P2 O1 4_664 9.28(2)
P2 O2 1_455 7.81(2)
P2 O2 1_554 9.29(2)
P2 O2 . 1.530(17)
P2 O2 1_556 7.01(2)
P2 O2 1_655 6.70(2)
P2 O2 1_656 7.353(17)
P2 O2 2_544 8.157(19)
P2 O2 2_545 8.21(2)
P2 O2 2_554 8.377(19)
P2 O2 2_555 8.43(2)
P2 O2 2_644 8.10(2)
P2 O2 2_645 5.39(2)
P2 O2 2_654 8.33(2)
P2 O2 2_655 5.71(2)
P2 O2 2_745 9.58(2)
P2 O2 2_755 9.77(2)
P2 O2 3_555 9.01(2)
P2 O2 3_564 9.941(18)
P2 O2 3_565 5.87(2)
P2 O2 3_655 7.85(2)
P2 O2 3_656 9.50(2)
P2 O2 3_665 3.85(2)
P2 O2 3_666 6.591(19)
P2 O2 3_765 9.82(2)
P2 O2 3_766 9.349(19)
P2 O2 4_454 8.552(19)
P2 O2 4_455 9.60(2)
P2 O2 4_554 5.77(2)
P2 O2 4_555 3.84(2)
P2 O2 4_564 9.38(2)
P2 O2 4_565 8.33(2)
P2 O2 4_654 9.73(2)
P2 O2 4_655 6.21(2)
P2 O2 4_665 9.65(2)
P2 O3 1_545 9.07(2)
P2 O3 1_554 7.72(2)
P2 O3 . 3.61(2)
P2 O3 1_556 9.85(2)
P2 O3 1_645 9.32(2)
P2 O3 1_655 4.20(2)
P2 O3 1_656 8.00(2)
P2 O3 2_544 7.84(2)
P2 O3 2_545 5.01(2)
P2 O3 2_554 9.68(2)
P2 O3 2_555 7.57(2)
P2 O3 2_644 9.93(2)
P2 O3 2_645 4.97(2)
P2 O3 2_646 9.02(2)
P2 O3 2_655 7.54(2)
P2 O3 3_465 9.98(2)
P2 O3 3_555 9.60(2)
P2 O3 3_565 4.100(18)
P2 O3 3_566 6.77(2)
P2 O3 3_665 5.93(2)
P2 O3 3_666 5.154(18)
P2 O3 4_554 5.609(19)
P2 O3 4_555 7.08(2)
P2 O3 4_564 7.585(19)
P2 O3 4_565 8.73(2)
P2 O3 4_654 7.41(2)
P2 O3 4_655 5.993(19)
P2 O3 4_664 9.00(2)
P2 O3 4_665 7.874(19)
P2 O4 1_454 8.701(17)
P2 O4 1_455 7.40(2)
P2 O4 1_554 7.80(2)
P2 O4 . 1.513(19)
P2 O4 1_556 8.62(2)
P2 O4 1_565 8.627(18)
P2 O4 1_655 7.14(2)
P2 O4 1_656 9.246(17)
P2 O4 2_545 9.33(2)
P2 O4 2_554 9.063(17)
P2 O4 2_555 7.60(2)
P2 O4 2_645 6.513(18)
P2 O4 2_654 8.67(2)
P2 O4 2_655 3.625(18)
P2 O4 2_656 9.04(2)
P2 O4 2_745 9.95(2)
P2 O4 2_755 8.35(2)
P2 O4 3_555 8.576(18)
P2 O4 3_565 7.723(19)
P2 O4 3_655 6.91(2)
P2 O4 3_656 7.145(19)
P2 O4 3_665 5.82(2)
P2 O4 3_666 6.10(2)
P2 O4 3_756 9.429(18)
P2 O4 3_766 8.661(18)
P2 O4 4_454 6.877(19)
P2 O4 4_455 9.57(2)
P2 O4 4_554 3.69(2)
P2 O4 4_555 4.51(2)
P2 O4 4_654 9.01(2)
P2 O4 4_655 7.091(18)
P2 O5 1_454 8.02(2)
P2 O5 1_455 5.74(2)
P2 O5 1_545 9.53(2)
P2 O5 1_554 8.45(3)
P2 O5 . 1.582(19)
P2 O5 1_556 8.01(2)
P2 O5 1_655 8.56(2)
P2 O5 1_656 9.868(18)
P2 O5 2_545 9.35(2)
P2 O5 2_644 8.51(2)
P2 O5 2_645 4.56(2)
P2 O5 2_646 9.99(3)
P2 O5 2_654 9.25(2)
P2 O5 2_655 5.82(2)
P2 O5 2_745 7.44(2)
P2 O5 2_746 9.83(2)
P2 O5 2_755 8.27(2)
P2 O5 3_565 7.992(18)
P2 O5 3_655 8.50(2)
P2 O5 3_656 9.27(2)
P2 O5 3_665 4.00(2)
P2 O5 3_666 5.45(3)
P2 O5 3_765 8.33(2)
P2 O5 3_766 6.745(18)
P2 O5 4_454 6.296(18)
P2 O5 4_455 8.58(2)
P2 O5 4_464 9.208(19)
P2 O5 4_554 5.29(2)
P2 O5 4_555 4.94(2)
P2 O5 4_564 8.55(2)
P2 O5 4_565 8.34(2)
P2 O5 4_655 8.740(18)
P2 O6 1_455 9.90(2)
P2 O6 1_554 7.41(2)
P2 O6 . 2.89(2)
P2 O6 1_556 9.61(2)
P2 O6 1_565 9.63(2)
P2 O6 1_655 4.46(2)
P2 O6 1_656 8.140(19)
P2 O6 2_544 9.37(2)
P2 O6 2_545 7.17(2)
P2 O6 2_554 8.41(2)
P2 O6 2_555 5.86(2)
P2 O6 2_645 6.64(2)
P2 O6 2_655 5.20(2)
P2 O6 2_656 9.15(2)
P2 O6 3_555 7.66(2)
P2 O6 3_556 9.37(2)
P2 O6 3_565 5.716(19)
P2 O6 3_566 7.85(2)
P2 O6 3_655 8.38(2)
P2 O6 3_656 7.85(2)
P2 O6 3_665 6.64(2)
P2 O6 3_666 5.957(19)
P2 O6 4_454 9.34(2)
P2 O6 4_554 4.035(19)
P2 O6 4_555 5.91(2)
P2 O6 4_564 9.57(2)
P2 O6 4_654 6.83(2)
P2 O6 4_655 5.261(18)
P2 O7 1_454 8.669(17)
P2 O7 1_455 8.22(2)
P2 O7 1_545 9.433(18)
P2 O7 1_554 6.91(2)
P2 O7 . 1.58(2)
P2 O7 1_556 9.38(2)
P2 O7 1_655 6.22(2)
P2 O7 1_656 9.301(18)
P2 O7 2_544 9.485(18)
P2 O7 2_545 7.23(2)
P2 O7 2_555 8.20(2)
P2 O7 2_644 9.77(2)
P2 O7 2_645 4.492(18)
P2 O7 2_646 8.69(2)
P2 O7 2_655 5.927(18)
P2 O7 2_656 9.51(2)
P2 O7 2_745 9.45(2)
P2 O7 3_555 9.953(18)
P2 O7 3_565 6.399(18)
P2 O7 3_566 8.28(2)
P2 O7 3_655 9.26(2)
P2 O7 3_656 8.706(18)
P2 O7 3_665 5.26(2)
P2 O7 3_666 4.204(19)
P2 O7 3_766 8.250(19)
P2 O7 4_454 7.92(2)
P2 O7 4_554 4.070(19)
P2 O7 4_555 6.06(2)
P2 O7 4_564 7.737(18)
P2 O7 4_565 8.94(2)
P2 O7 4_654 8.46(2)
P2 O7 4_655 7.352(18)
P2 O7 4_665 9.867(18)
O1 O1 1_454 8.85(2)
O1 O1 1_455 7.11(3)
O1 O1 1_554 8.08(3)
O1 O1 1_556 8.08(3)
O1 O1 1_655 7.11(3)
O1 O1 1_656 8.85(2)
O1 O1 2_545 6.48(3)
O1 O1 2_546 6.97(3)
O1 O1 2_555 6.48(3)
O1 O1 2_556 6.97(3)
O1 O1 2_645 9.20(3)
O1 O1 2_646 7.32(2)
O1 O1 2_655 9.20(3)
O1 O1 2_656 7.32(2)
O1 O1 3_466 9.22(3)
O1 O1 3_556 8.29(3)
O1 O1 3_565 8.14(3)
O1 O1 3_566 2.76(3)
O1 O1 3_567 8.92(3)
O1 O1 3_656 9.62(3)
O1 O1 3_666 5.60(3)
O1 O1 3_667 8.11(3)
O1 O1 4_454 7.57(2)
O1 O1 4_455 9.74(3)
O1 O1 4_464 9.88(3)
O1 O1 4_554 5.05(3)
O1 O1 4_555 5.05(3)
O1 O1 4_564 8.12(3)
O1 O1 4_565 8.12(3)
O1 O1 4_654 9.74(3)
O1 O1 4_655 7.57(2)
O1 O1 4_665 9.88(3)
O1 O2 1_455 5.94(2)
O1 O2 1_456 8.15(3)
O1 O2 . 4.60(3)
O1 O2 1_556 3.84(3)
O1 O2 1_656 8.01(3)
O1 O2 2_544 9.50(3)
O1 O2 2_545 6.16(3)
O1 O2 2_554 9.21(3)
O1 O2 2_555 5.71(3)
O1 O2 2_645 6.63(3)
O1 O2 2_646 9.21(2)
O1 O2 2_655 6.22(3)
O1 O2 2_656 8.91(2)
O1 O2 3_555 8.98(2)
O1 O2 3_556 9.68(3)
O1 O2 3_565 4.98(2)
O1 O2 3_566 6.15(3)
O1 O2 3_656 8.99(2)
O1 O2 3_665 7.05(3)
O1 O2 3_666 5.01(2)
O1 O2 4_454 8.73(2)
O1 O2 4_455 6.49(3)
O1 O2 4_465 9.37(3)
O1 O2 4_554 9.00(3)
O1 O2 4_555 3.04(3)
O1 O2 4_556 8.25(3)
O1 O2 4_565 7.41(3)
O1 O2 4_655 8.80(3)
O1 O2 4_656 9.94(2)
O1 O3 1_455 7.66(3)
O1 O3 1_545 9.21(3)
O1 O3 . 2.57(3)
O1 O3 1_556 6.12(3)
O1 O3 1_655 7.46(3)
O1 O3 1_656 6.99(2)
O1 O3 2_445 8.69(3)
O1 O3 2_455 9.93(3)
O1 O3 2_545 4.28(3)
O1 O3 2_546 7.71(3)
O1 O3 2_555 6.45(3)
O1 O3 2_556 9.09(3)
O1 O3 2_645 7.90(3)
O1 O3 2_646 8.12(2)
O1 O3 2_655 9.25(3)
O1 O3 2_656 9.44(2)
O1 O3 3_465 8.41(2)
O1 O3 3_466 9.17(3)
O1 O3 3_556 9.62(3)
O1 O3 3_565 5.69(3)
O1 O3 3_566 2.86(3)
O1 O3 3_665 9.76(3)
O1 O3 3_666 5.79(3)
O1 O3 4_454 9.47(2)
O1 O3 4_455 9.63(3)
O1 O3 4_554 7.51(3)
O1 O3 4_555 4.68(3)
O1 O3 4_564 8.57(3)
O1 O3 4_565 6.25(3)
O1 O3 4_655 7.22(3)
O1 O3 4_665 8.32(3)
O1 O4 1_454 9.93(3)
O1 O4 1_455 4.96(2)
O1 O4 1_456 9.01(3)
O1 O4 1_465 9.37(2)
O1 O4 . 4.07(3)
O1 O4 1_556 5.96(3)
O1 O4 1_565 8.93(3)
O1 O4 1_566 9.93(2)
O1 O4 1_656 9.55(2)
O1 O4 2_545 8.06(2)
O1 O4 2_555 5.16(2)
O1 O4 2_556 8.93(3)
O1 O4 2_645 8.05(3)
O1 O4 2_646 8.96(2)
O1 O4 2_655 5.16(3)
O1 O4 2_656 6.48(2)
O1 O4 3_555 8.80(2)
O1 O4 3_556 8.07(3)
O1 O4 3_565 7.38(2)
O1 O4 3_566 6.50(3)
O1 O4 3_655 9.80(3)
O1 O4 3_656 6.80(2)
O1 O4 3_665 8.56(3)
O1 O4 3_666 4.83(2)
O1 O4 4_454 6.56(2)
O1 O4 4_455 5.85(3)
O1 O4 4_554 7.33(3)
O1 O4 4_555 2.72(2)
O1 O4 4_556 9.57(3)
O1 O4 4_565 9.27(2)
O1 O4 4_655 9.05(3)
O1 O5 1_355 9.92(3)
O1 O5 1_454 9.78(3)
O1 O5 1_455 3.35(2)
O1 O5 1_456 7.57(3)
O1 O5 . 5.03(3)
O1 O5 1_556 5.82(3)
O1 O5 2_545 7.28(2)
O1 O5 2_555 7.56(2)
O1 O5 2_645 5.56(3)
O1 O5 2_646 7.53(3)
O1 O5 2_655 5.92(3)
O1 O5 2_656 7.80(3)
O1 O5 2_746 9.91(2)
O1 O5 3_565 7.09(2)
O1 O5 3_566 6.95(3)
O1 O5 3_656 8.52(3)
O1 O5 3_665 6.85(3)
O1 O5 3_666 2.72(3)
O1 O5 3_667 9.93(3)
O1 O5 3_766 8.23(2)
O1 O5 4_454 6.90(3)
O1 O5 4_455 5.33(3)
O1 O5 4_464 9.15(3)
O1 O5 4_465 8.04(3)
O1 O5 4_554 8.97(3)
O1 O5 4_555 4.87(2)
O1 O5 4_556 9.87(3)
O1 O5 4_565 7.74(2)
O1 O6 1_455 7.18(3)
O1 O6 . 2.52(3)
O1 O6 1_556 6.10(3)
O1 O6 1_565 9.04(3)
O1 O6 1_655 7.90(3)
O1 O6 1_656 7.46(2)
O1 O6 2_455 9.09(3)
O1 O6 2_545 6.68(3)
O1 O6 2_546 9.26(3)
O1 O6 2_555 4.31(3)
O1 O6 2_556 7.72(3)
O1 O6 2_645 9.04(3)
O1 O6 2_646 9.23(2)
O1 O6 2_655 7.46(3)
O1 O6 2_656 7.69(2)
O1 O6 3_465 9.44(2)
O1 O6 3_555 8.88(3)
O1 O6 3_556 7.39(3)
O1 O6 3_565 6.62(3)
O1 O6 3_566 4.43(3)
O1 O6 3_656 8.55(3)
O1 O6 3_665 9.99(3)
O1 O6 3_666 6.16(3)
O1 O6 4_454 8.23(2)
O1 O6 4_455 8.41(3)
O1 O6 4_554 6.42(3)
O1 O6 4_555 2.60(3)
O1 O6 4_565 8.55(3)
O1 O6 4_655 6.63(3)
O1 O7 1_454 9.38(2)
O1 O7 1_455 5.21(3)
O1 O7 1_456 9.85(3)
O1 O7 . 2.57(3)
O1 O7 1_556 6.23(3)
O1 O7 1_655 9.34(3)
O1 O7 1_656 9.05(2)
O1 O7 2_545 6.03(2)
O1 O7 2_546 8.72(3)
O1 O7 2_555 6.51(2)
O1 O7 2_556 9.06(3)
O1 O7 2_645 6.99(3)
O1 O7 2_646 7.14(2)
O1 O7 2_655 7.41(3)
O1 O7 2_656 7.55(2)
O1 O7 3_556 9.35(3)
O1 O7 3_565 6.78(2)
O1 O7 3_566 4.52(3)
O1 O7 3_656 9.01(2)
O1 O7 3_665 8.79(3)
O1 O7 3_666 3.75(2)
O1 O7 3_667 9.03(3)
O1 O7 4_454 7.22(2)
O1 O7 4_455 7.53(3)
O1 O7 4_464 9.30(2)
O1 O7 4_465 9.54(3)
O1 O7 4_554 7.11(3)
O1 O7 4_555 4.17(2)
O1 O7 4_564 9.21(3)
O1 O7 4_565 7.19(2)
O1 O7 4_655 8.91(3)
O2 O2 1_454 8.85(2)
O2 O2 1_455 7.11(3)
O2 O2 1_554 8.08(3)
O2 O2 1_556 8.08(3)
O2 O2 1_655 7.11(3)
O2 O2 1_656 8.85(2)
O2 O2 2_544 7.15(2)
O2 O2 2_545 8.40(3)
O2 O2 2_554 7.15(2)
O2 O2 2_555 8.40(3)
O2 O2 2_644 7.64(3)
O2 O2 2_645 6.34(2)
O2 O2 2_654 7.64(3)
O2 O2 2_655 6.34(2)
O2 O2 3_555 8.72(3)
O2 O2 3_564 8.45(2)
O2 O2 3_565 5.06(3)
O2 O2 3_655 8.03(3)
O2 O2 3_664 9.87(3)
O2 O2 3_665 3.74(3)
O2 O2 3_666 7.82(2)
O2 O2 4_454 7.38(2)
O2 O2 4_455 9.59(3)
O2 O2 4_554 4.75(3)
O2 O2 4_555 4.75(3)
O2 O2 4_564 8.58(3)
O2 O2 4_565 8.58(3)
O2 O2 4_654 9.59(3)
O2 O2 4_655 7.38(2)
O2 O3 1_454 9.51(2)
O2 O3 1_545 9.18(3)
O2 O3 1_554 6.28(2)
O2 O3 . 3.38(3)
O2 O3 1_645 9.85(3)
O2 O3 1_654 9.47(3)
O2 O3 1_655 4.90(3)
O2 O3 1_656 9.43(2)
O2 O3 2_544 6.65(2)
O2 O3 2_545 5.15(3)
O2 O3 2_554 8.53(2)
O2 O3 2_555 7.42(3)
O2 O3 2_644 9.46(3)
O2 O3 2_645 5.84(2)
O2 O3 2_655 7.91(3)
O2 O3 3_465 9.06(3)
O2 O3 3_555 9.28(2)
O2 O3 3_564 9.50(3)
O2 O3 3_565 2.68(2)
O2 O3 3_566 7.40(3)
O2 O3 3_665 5.80(3)
O2 O3 3_666 6.60(2)
O2 O3 4_454 9.61(3)
O2 O3 4_554 4.74(2)
O2 O3 4_555 7.73(3)
O2 O3 4_564 6.70(2)
O2 O3 4_565 9.07(3)
O2 O3 4_654 7.34(3)
O2 O3 4_655 7.32(2)
O2 O3 4_664 8.74(3)
O2 O3 4_665 8.72(2)
O2 O4 1_454 7.28(2)
O2 O4 1_455 7.12(3)
O2 O4 1_554 6.79(3)
O2 O4 . 2.48(2)
O2 O4 1_556 9.84(2)
O2 O4 1_565 8.64(2)
O2 O4 1_655 7.93(3)
O2 O4 2_544 9.54(2)
O2 O4 2_545 9.23(3)
O2 O4 2_554 7.62(2)
O2 O4 2_555 7.23(3)
O2 O4 2_644 9.60(3)
O2 O4 2_645 6.97(2)
O2 O4 2_654 7.69(3)
O2 O4 2_655 3.96(2)
O2 O4 2_755 8.96(3)
O2 O4 3_555 7.88(2)
O2 O4 3_565 6.68(2)
O2 O4 3_655 6.66(3)
O2 O4 3_656 8.14(2)
O2 O4 3_665 5.18(3)
O2 O4 3_666 6.98(2)
O2 O4 3_766 9.73(2)
O2 O4 4_454 5.79(3)
O2 O4 4_455 9.82(3)
O2 O4 4_554 2.80(3)
O2 O4 4_555 5.76(2)
O2 O4 4_564 9.58(2)
O2 O4 4_654 9.13(3)
O2 O4 4_655 8.43(2)
O2 O5 1_454 6.49(2)
O2 O5 1_455 5.42(3)
O2 O5 1_545 9.94(3)
O2 O5 1_554 7.57(3)
O2 O5 . 2.63(2)
O2 O5 1_556 9.34(3)
O2 O5 1_655 9.26(3)
O2 O5 2_544 8.88(2)
O2 O5 2_545 9.14(3)
O2 O5 2_554 9.40(2)
O2 O5 2_555 9.64(3)
O2 O5 2_644 7.61(3)
O2 O5 2_645 4.98(3)
O2 O5 2_654 8.21(3)
O2 O5 2_655 5.86(3)
O2 O5 2_745 8.21(2)
O2 O5 2_755 8.77(2)
O2 O5 3_565 6.95(2)
O2 O5 3_655 8.27(3)
O2 O5 3_665 2.90(3)
O2 O5 3_666 6.38(3)
O2 O5 3_765 8.36(3)
O2 O5 3_766 8.03(2)
O2 O5 4_454 5.29(2)
O2 O5 4_455 8.98(3)
O2 O5 4_464 8.34(2)
O2 O5 4_554 4.94(3)
O2 O5 4_555 6.27(3)
O2 O5 4_564 8.12(3)
O2 O5 4_565 8.99(3)
O2 O5 4_655 9.97(2)
O2 O6 1_454 8.99(2)
O2 O6 1_455 9.51(3)
O2 O6 1_554 6.06(2)
O2 O6 . 2.94(3)
O2 O6 1_565 9.45(3)
O2 O6 1_654 9.69(3)
O2 O6 1_655 5.31(3)
O2 O6 1_656 9.65(2)
O2 O6 2_544 8.40(2)
O2 O6 2_545 7.26(3)
O2 O6 2_554 7.05(2)
O2 O6 2_555 5.65(3)
O2 O6 2_645 7.31(3)
O2 O6 2_654 9.38(3)
O2 O6 2_655 5.71(3)
O2 O6 3_555 7.13(3)
O2 O6 3_556 9.92(3)
O2 O6 3_565 4.60(2)
O2 O6 3_566 8.29(3)
O2 O6 3_655 8.39(3)
O2 O6 3_656 8.96(2)
O2 O6 3_665 6.37(3)
O2 O6 3_666 7.11(2)
O2 O6 4_454 8.39(3)
O2 O6 4_554 2.73(2)
O2 O6 4_555 6.69(3)
O2 O6 4_564 8.90(3)
O2 O6 4_654 6.77(3)
O2 O6 4_655 6.74(2)
O2 O7 1_454 7.23(2)
O2 O7 1_455 7.95(3)
O2 O7 1_545 9.81(2)
O2 O7 1_554 5.73(3)
O2 O7 . 2.48(2)
O2 O7 1_655 7.10(3)
O2 O7 2_544 8.26(2)
O2 O7 2_545 7.00(3)
O2 O7 2_554 8.91(2)
O2 O7 2_555 7.76(3)
O2 O7 2_644 9.04(3)
O2 O7 2_645 5.00(2)
O2 O7 2_646 9.94(2)
O2 O7 2_654 9.65(3)
O2 O7 2_655 6.02(2)
O2 O7 3_555 9.37(2)
O2 O7 3_565 5.11(2)
O2 O7 3_566 8.50(3)
O2 O7 3_655 9.09(3)
O2 O7 3_656 9.55(2)
O2 O7 3_665 4.57(3)
O2 O7 3_666 5.42(2)
O2 O7 3_766 9.37(2)
O2 O7 4_454 7.10(3)
O2 O7 4_464 9.49(3)
O2 O7 4_554 3.50(2)
O2 O7 4_555 7.14(3)
O2 O7 4_564 7.20(2)
O2 O7 4_565 9.52(2)
O2 O7 4_654 8.67(3)
O2 O7 4_655 8.74(2)
O3 O3 1_454 8.85(2)
O3 O3 1_455 7.11(3)
O3 O3 1_554 8.08(3)
O3 O3 1_556 8.08(3)
O3 O3 1_655 7.11(3)
O3 O3 1_656 8.85(2)
O3 O3 2_444 9.94(2)
O3 O3 2_445 9.02(3)
O3 O3 2_454 9.94(2)
O3 O3 2_455 9.02(3)
O3 O3 2_544 8.99(3)
O3 O3 2_545 5.08(2)
O3 O3 2_554 8.99(3)
O3 O3 2_555 5.08(2)
O3 O3 2_645 8.45(3)
O3 O3 2_655 8.45(3)
O3 O3 3_465 6.97(2)
O3 O3 3_466 9.82(3)
O3 O3 3_565 3.42(3)
O3 O3 3_566 4.69(3)
O3 O3 3_665 8.72(3)
O3 O3 3_666 6.99(2)
O3 O3 4_454 8.75(2)
O3 O3 4_464 8.40(2)
O3 O3 4_554 6.69(3)
O3 O3 4_555 6.69(3)
O3 O3 4_564 6.22(3)
O3 O3 4_565 6.22(3)
O3 O3 4_655 8.75(2)
O3 O3 4_665 8.40(2)
O3 O4 1_454 8.07(2)
O3 O4 1_455 5.05(3)
O3 O4 1_465 8.09(2)
O3 O4 1_554 9.81(3)
O3 O4 . 4.36(3)
O3 O4 1_556 8.51(2)
O3 O4 1_565 7.68(2)
O3 O4 2_545 8.80(2)
O3 O4 2_554 7.68(2)
O3 O4 2_555 3.99(3)
O3 O4 2_645 8.88(2)
O3 O4 2_654 9.91(3)
O3 O4 2_655 4.17(3)
O3 O4 2_656 8.20(2)
O3 O4 3_555 8.42(2)
O3 O4 3_556 9.65(3)
O3 O4 3_565 4.98(2)
O3 O4 3_566 6.85(3)
O3 O4 3_655 9.55(3)
O3 O4 3_656 8.70(2)
O3 O4 3_665 6.71(3)
O3 O4 3_666 5.44(2)
O3 O4 4_454 4.99(2)
O3 O4 4_455 7.11(3)
O3 O4 4_464 8.96(2)
O3 O4 4_554 6.10(3)
O3 O4 4_555 5.03(2)
O3 O4 4_564 9.62(3)
O3 O4 4_565 8.98(2)
O3 O5 1_355 9.62(3)
O3 O5 1_454 7.55(3)
O3 O5 1_455 2.64(3)
O3 O5 1_456 9.36(3)
O3 O5 1_465 9.45(3)
O3 O5 . 4.75(3)
O3 O5 1_556 8.10(3)
O3 O5 2_544 9.68(2)
O3 O5 2_545 7.81(3)
O3 O5 2_554 8.64(2)
O3 O5 2_555 6.48(3)
O3 O5 2_645 6.36(2)
O3 O5 2_654 9.57(3)
O3 O5 2_655 4.62(2)
O3 O5 2_656 9.04(3)
O3 O5 3_565 5.07(2)
O3 O5 3_566 7.63(3)
O3 O5 3_665 4.88(3)
O3 O5 3_666 4.34(3)
O3 O5 3_766 8.98(2)
O3 O5 4_454 5.83(3)
O3 O5 4_455 7.02(3)
O3 O5 4_464 6.86(3)
O3 O5 4_465 7.89(3)
O3 O5 4_554 8.27(3)
O3 O5 4_555 6.79(2)
O3 O5 4_564 9.02(3)
O3 O5 4_565 7.69(2)
O3 O6 1_454 8.81(2)
O3 O6 1_455 7.07(3)
O3 O6 1_554 8.46(3)
O3 O6 . 2.50(3)
O3 O6 1_556 8.46(3)
O3 O6 1_565 7.64(3)
O3 O6 1_655 7.99(3)
O3 O6 1_656 9.57(2)
O3 O6 2_454 9.36(2)
O3 O6 2_455 8.37(3)
O3 O6 2_545 7.54(3)
O3 O6 2_554 7.91(3)
O3 O6 2_555 2.75(3)
O3 O6 2_556 9.12(3)
O3 O6 2_645 9.77(3)
O3 O6 2_655 6.80(3)
O3 O6 2_656 9.18(2)
O3 O6 3_465 7.77(2)
O3 O6 3_555 8.65(3)
O3 O6 3_556 9.23(3)
O3 O6 3_565 4.08(3)
O3 O6 3_566 5.19(3)
O3 O6 3_665 8.61(3)
O3 O6 3_666 6.84(2)
O3 O6 4_454 7.06(2)
O3 O6 4_455 9.35(3)
O3 O6 4_464 9.64(2)
O3 O6 4_554 4.99(3)
O3 O6 4_555 5.00(3)
O3 O6 4_564 8.25(3)
O3 O6 4_565 8.26(3)
O3 O6 4_655 7.98(2)
O3 O7 1_454 7.19(2)
O3 O7 1_455 5.04(3)
O3 O7 1_554 8.38(3)
O3 O7 . 2.53(2)
O3 O7 1_556 8.55(3)
O3 O7 1_565 9.52(2)
O3 O7 1_655 9.41(3)
O3 O7 2_544 9.89(2)
O3 O7 2_545 6.44(2)
O3 O7 2_554 8.98(2)
O3 O7 2_555 4.92(2)
O3 O7 2_556 9.92(3)
O3 O7 2_645 7.44(3)
O3 O7 2_646 9.59(2)
O3 O7 2_655 6.18(3)
O3 O7 2_656 8.65(2)
O3 O7 3_465 9.35(2)
O3 O7 3_565 4.35(2)
O3 O7 3_566 5.27(3)
O3 O7 3_665 7.19(3)
O3 O7 3_666 4.79(2)
O3 O7 4_454 6.45(2)
O3 O7 4_455 8.98(3)
O3 O7 4_464 7.26(2)
O3 O7 4_465 9.58(3)
O3 O7 4_554 6.43(3)
O3 O7 4_555 6.54(2)
O3 O7 4_564 7.25(3)
O3 O7 4_565 7.34(2)
O4 O4 1_454 8.85(2)
O4 O4 1_455 7.11(3)
O4 O4 1_554 8.08(3)
O4 O4 1_556 8.08(3)
O4 O4 1_655 7.11(3)
O4 O4 1_656 8.85(2)
O4 O4 2_544 9.98(2)
O4 O4 2_545 8.27(3)
O4 O4 2_554 9.98(2)
O4 O4 2_555 8.27(3)
O4 O4 2_644 9.72(3)
O4 O4 2_645 5.07(2)
O4 O4 2_646 9.35(2)
O4 O4 2_654 9.72(3)
O4 O4 2_655 5.07(2)
O4 O4 2_656 9.35(2)
O4 O4 2_745 9.18(3)
O4 O4 2_755 9.18(3)
O4 O4 3_555 7.78(2)
O4 O4 3_556 9.73(3)
O4 O4 3_565 8.71(2)
O4 O4 3_655 6.05(2)
O4 O4 3_656 5.76(2)
O4 O4 3_665 7.21(2)
O4 O4 3_666 6.97(2)
O4 O4 3_756 8.54(2)
O4 O4 3_766 9.40(2)
O4 O4 4_454 6.98(2)
O4 O4 4_455 9.29(3)
O4 O4 4_554 4.11(3)
O4 O4 4_555 4.11(3)
O4 O4 4_654 9.29(3)
O4 O4 4_655 6.98(2)
O4 O5 1_445 9.72(2)
O4 O5 1_454 8.57(2)
O4 O5 1_455 5.95(3)
O4 O5 1_545 8.12(2)
O4 O5 1_554 9.09(3)
O4 O5 . 2.62(2)
O4 O5 1_556 7.86(3)
O4 O5 1_655 8.92(3)
O4 O5 1_656 9.84(2)
O4 O5 2_544 9.75(2)
O4 O5 2_545 8.62(3)
O4 O5 2_644 8.25(3)
O4 O5 2_645 3.10(2)
O4 O5 2_646 9.04(3)
O4 O5 2_655 7.21(2)
O4 O5 2_745 6.79(3)
O4 O5 2_746 8.98(2)
O4 O5 2_755 9.40(2)
O4 O5 3_565 8.57(2)
O4 O5 3_655 7.38(2)
O4 O5 3_656 7.84(3)
O4 O5 3_665 5.25(3)
O4 O5 3_666 5.87(3)
O4 O5 3_756 8.89(2)
O4 O5 3_765 9.10(3)
O4 O5 3_766 7.22(2)
O4 O5 4_454 5.96(2)
O4 O5 4_455 7.92(3)
O4 O5 4_554 5.08(3)
O4 O5 4_555 3.92(3)
O4 O5 4_565 9.47(2)
O4 O5 4_655 8.32(2)
O4 O6 1_455 9.75(3)
O4 O6 1_545 9.82(3)
O4 O6 1_554 7.79(2)
O4 O6 . 2.69(3)
O4 O6 1_556 9.19(3)
O4 O6 1_655 4.54(3)
O4 O6 1_656 7.76(2)
O4 O6 2_544 8.85(2)
O4 O6 2_545 5.93(3)
O4 O6 2_554 9.51(2)
O4 O6 2_555 6.88(3)
O4 O6 2_645 5.45(3)
O4 O6 2_646 8.92(2)
O4 O6 2_655 6.47(3)
O4 O6 2_656 9.58(2)
O4 O6 3_555 6.67(2)
O4 O6 3_556 8.17(3)
O4 O6 3_565 6.91(2)
O4 O6 3_566 8.36(3)
O4 O6 3_655 7.61(3)
O4 O6 3_656 6.52(2)
O4 O6 3_665 7.82(3)
O4 O6 3_666 6.76(2)
O4 O6 4_454 9.29(2)
O4 O6 4_554 4.15(2)
O4 O6 4_555 5.40(3)
O4 O6 4_654 7.03(3)
O4 O6 4_655 4.87(2)
O4 O7 1_454 9.13(2)
O4 O7 1_455 8.31(3)
O4 O7 1_545 7.94(2)
O4 O7 1_554 7.61(3)
O4 O7 . 2.43(2)
O4 O7 1_556 9.20(3)
O4 O7 1_655 6.63(3)
O4 O7 1_656 9.22(2)
O4 O7 2_544 9.23(2)
O4 O7 2_545 6.38(3)
O4 O7 2_555 9.21(2)
O4 O7 2_644 9.62(3)
O4 O7 2_645 3.24(2)
O4 O7 2_646 7.68(2)
O4 O7 2_655 7.40(2)
O4 O7 2_745 9.03(3)
O4 O7 2_746 9.62(2)
O4 O7 3_555 8.96(2)
O4 O7 3_565 7.18(2)
O4 O7 3_566 8.50(3)
O4 O7 3_655 8.31(2)
O4 O7 3_656 7.22(2)
O4 O7 3_665 6.34(3)
O4 O7 3_666 4.83(2)
O4 O7 3_766 8.70(2)
O4 O7 4_454 7.56(2)
O4 O7 4_554 3.58(2)
O4 O7 4_555 5.11(3)
O4 O7 4_564 9.24(2)
O4 O7 4_565 9.94(2)
O4 O7 4_654 8.35(3)
O4 O7 4_655 6.74(2)
O5 O5 1_454 8.85(2)
O5 O5 1_455 7.11(2)
O5 O5 1_554 8.08(3)
O5 O5 1_556 8.08(3)
O5 O5 1_655 7.11(2)
O5 O5 1_656 8.85(2)
O5 O5 2_644 8.94(3)
O5 O5 2_645 5.65(3)
O5 O5 2_654 8.94(3)
O5 O5 2_655 5.65(3)
O5 O5 2_745 6.80(2)
O5 O5 2_746 9.56(3)
O5 O5 2_755 6.80(2)
O5 O5 2_756 9.56(3)
O5 O5 3_565 9.21(2)
O5 O5 3_655 9.28(3)
O5 O5 3_665 4.09(3)
O5 O5 3_666 5.84(3)
O5 O5 3_756 9.95(2)
O5 O5 3_765 7.07(3)
O5 O5 3_766 5.44(2)
O5 O5 4_454 7.75(2)
O5 O5 4_455 9.88(3)
O5 O5 4_464 9.59(2)
O5 O5 4_554 5.31(3)
O5 O5 4_555 5.31(3)
O5 O5 4_564 7.76(3)
O5 O5 4_565 7.76(3)
O5 O5 4_654 9.88(3)
O5 O5 4_655 7.75(2)
O5 O5 4_665 9.59(2)
O5 O6 1_554 7.91(3)
O5 O6 . 4.43(3)
O5 O6 1_565 9.53(3)
O5 O6 1_654 9.57(3)
O5 O6 1_655 3.31(3)
O5 O6 1_656 7.81(3)
O5 O6 1_665 9.06(3)
O5 O6 2_545 8.54(3)
O5 O6 2_554 8.69(2)
O5 O6 2_555 6.54(3)
O5 O6 2_645 6.74(3)
O5 O6 2_654 9.25(3)
O5 O6 2_655 3.90(3)
O5 O6 2_656 8.69(3)
O5 O6 2_755 9.43(3)
O5 O6 3_555 8.89(2)
O5 O6 3_565 6.31(2)
O5 O6 3_566 8.51(3)
O5 O6 3_655 8.38(3)
O5 O6 3_656 8.08(3)
O5 O6 3_665 5.57(3)
O5 O6 3_666 5.10(3)
O5 O6 3_766 9.00(2)
O5 O6 4_554 5.13(2)
O5 O6 4_555 6.97(3)
O5 O6 4_564 9.41(3)
O5 O6 4_654 6.04(3)
O5 O6 4_655 4.60(2)
O5 O6 4_664 9.93(3)
O5 O6 4_665 9.13(3)
O5 O6 4_755 9.74(2)
O5 O7 1_454 9.78(2)
O5 O7 1_455 9.57(3)
O5 O7 1_554 6.93(3)
O5 O7 . 2.54(3)
O5 O7 1_556 9.77(3)
O5 O7 1_655 4.74(2)
O5 O7 1_656 8.59(3)
O5 O7 2_545 8.77(2)
O5 O7 2_555 8.87(2)
O5 O7 2_644 9.82(3)
O5 O7 2_645 4.97(2)
O5 O7 2_646 9.14(3)
O5 O7 2_654 9.91(3)
O5 O7 2_655 5.15(2)
O5 O7 2_656 9.24(3)
O5 O7 2_745 8.58(3)
O5 O7 2_746 9.74(2)
O5 O7 2_755 8.69(3)
O5 O7 2_756 9.84(2)
O5 O7 3_565 7.45(2)
O5 O7 3_566 9.31(3)
O5 O7 3_655 9.66(2)
O5 O7 3_656 9.32(2)
O5 O7 3_665 4.69(3)
O5 O7 3_666 3.95(3)
O5 O7 3_765 9.48(3)
O5 O7 3_766 6.77(2)
O5 O7 4_454 9.48(2)
O5 O7 4_554 4.84(2)
O5 O7 4_555 6.86(3)
O5 O7 4_564 7.32(2)
O5 O7 4_565 8.79(3)
O5 O7 4_654 7.63(3)
O5 O7 4_655 6.66(2)
O5 O7 4_664 9.40(3)
O5 O7 4_665 8.63(2)
O6 O6 1_454 8.85(2)
O6 O6 1_455 7.11(3)
O6 O6 1_554 8.08(3)
O6 O6 1_556 8.08(3)
O6 O6 1_655 7.11(3)
O6 O6 1_656 8.85(2)
O6 O6 2_445 9.83(3)
O6 O6 2_455 9.83(3)
O6 O6 2_544 9.07(3)
O6 O6 2_545 5.21(3)
O6 O6 2_554 9.07(3)
O6 O6 2_555 5.21(3)
O6 O6 2_645 7.68(3)
O6 O6 2_646 9.84(2)
O6 O6 2_655 7.68(3)
O6 O6 2_656 9.84(2)
O6 O6 3_455 9.68(2)
O6 O6 3_465 9.20(2)
O6 O6 3_555 6.56(3)
O6 O6 3_556 7.30(3)
O6 O6 3_565 5.84(3)
O6 O6 3_566 6.66(3)
O6 O6 3_655 9.67(3)
O6 O6 3_656 8.14(2)
O6 O6 3_665 9.20(3)
O6 O6 3_666 7.57(2)
O6 O6 4_454 6.95(2)
O6 O6 4_455 9.27(3)
O6 O6 4_554 4.07(3)
O6 O6 4_555 4.07(3)
O6 O6 4_654 9.27(3)
O6 O6 4_655 6.95(2)
O6 O7 1_454 7.63(2)
O6 O7 1_455 5.65(3)
O6 O7 1_545 8.68(2)
O6 O7 1_554 8.36(3)
O6 O7 . 2.45(2)
O6 O7 1_556 8.53(3)
O6 O7 1_655 9.02(3)
O6 O7 2_544 8.83(2)
O6 O7 2_545 4.63(3)
O6 O7 2_546 9.78(3)
O6 O7 2_555 7.31(2)
O6 O7 2_645 5.34(3)
O6 O7 2_646 8.07(2)
O6 O7 2_655 7.78(3)
O6 O7 2_656 9.86(2)
O6 O7 3_555 8.46(2)
O6 O7 3_556 8.96(3)
O6 O7 3_565 5.52(2)
O6 O7 3_566 6.27(3)
O6 O7 3_655 9.87(3)
O6 O7 3_656 8.28(2)
O6 O7 3_665 7.51(3)
O6 O7 3_666 5.25(2)
O6 O7 4_454 5.51(2)
O6 O7 4_455 8.33(3)
O6 O7 4_464 9.53(2)
O6 O7 4_554 4.82(3)
O6 O7 4_555 4.97(2)
O6 O7 4_564 9.15(3)
O6 O7 4_565 9.22(2)
O6 O7 4_655 9.01(2)
O7 O7 1_454 8.85(2)
O7 O7 1_455 7.11(3)
O7 O7 1_554 8.08(3)
O7 O7 1_556 8.08(3)
O7 O7 1_655 7.11(3)
O7 O7 1_656 8.85(2)
O7 O7 2_545 7.05(2)
O7 O7 2_555 7.05(2)
O7 O7 2_645 5.67(2)
O7 O7 2_646 8.20(2)
O7 O7 2_655 5.67(2)
O7 O7 2_656 8.20(2)
O7 O7 3_565 6.24(2)
O7 O7 3_566 6.81(3)
O7 O7 3_656 9.11(2)
O7 O7 3_665 6.33(3)
O7 O7 3_666 3.16(2)
O7 O7 3_766 8.65(2)
O7 O7 4_454 7.83(2)
O7 O7 4_455 9.95(3)
O7 O7 4_464 9.47(2)
O7 O7 4_554 5.43(2)
O7 O7 4_555 5.43(2)
O7 O7 4_564 7.61(2)
O7 O7 4_565 7.61(2)
O7 O7 4_654 9.95(3)
O7 O7 4_655 7.83(2)
O7 O7 4_665 9.47(2)
loop_
_pd_proc_point_id
_pd_proc_2theta_corrected
_pd_proc_intensity_net
_pd_calc_intensity_net
_pd_proc_ls_weight
1 5.0120 10458.00 10111.00 102.26
2 5.0320 10224.00 10104.00 101.11
3 5.0520 9888.00 10097.00 99.44
4 5.0720 9915.00 10090.20 99.57
5 5.0920 10064.00 10083.40 100.32
6 5.1120 10094.00 10076.70 100.47
7 5.1320 10273.00 10070.10 101.36
8 5.1520 10231.00 10063.50 101.15
9 5.1720 9960.00 10057.10 99.80
10 5.1920 9879.00 10050.70 99.39
11 5.2120 9888.00 10044.40 99.44
12 5.2320 9860.00 10038.20 99.30
13 5.2520 9897.00 10032.00 99.48
14 5.2720 10399.00 10025.90 101.97
15 5.2920 10038.00 10019.90 100.19
16 5.3120 10026.00 10014.00 100.13
17 5.3320 10097.00 10008.20 100.48
18 5.3520 9860.00 10002.40 99.30
19 5.3720 10029.00 9996.67 100.14
20 5.3920 9982.00 9991.03 99.91
21 5.4120 9778.00 9985.46 98.88
22 5.4320 9987.00 9979.96 99.93
23 5.4520 10094.00 9974.54 100.47
24 5.4720 9940.00 9969.18 99.70
25 5.4920 9699.00 9963.89 98.48
26 5.5120 9884.00 9958.66 99.42
27 5.5320 9973.00 9953.51 99.86
28 5.5520 9928.00 9948.42 99.64
29 5.5720 10137.00 9943.40 100.68
30 5.5920 9815.00 9938.44 99.07
31 5.6120 9517.00 9933.55 97.56
32 5.6320 9847.00 9928.72 99.23
33 5.6520 9817.00 9923.96 99.08
34 5.6720 10113.00 9919.25 100.56
35 5.6920 9776.00 9914.62 98.87
36 5.7120 9934.00 9910.04 99.67
37 5.7320 9925.00 9905.53 99.62
38 5.7520 10063.00 9901.07 100.32
39 5.7720 9793.00 9896.68 98.96
40 5.7920 10003.00 9892.35 100.01
41 5.8120 9901.00 9888.07 99.50
42 5.8320 9801.00 9883.86 99.00
43 5.8520 9990.00 9879.70 99.95
44 5.8720 9560.00 9875.61 97.78
45 5.8920 9918.00 9871.56 99.59
46 5.9120 10058.00 9867.58 100.29
47 5.9320 10222.00 9863.65 101.10
48 5.9520 9874.00 9859.78 99.37
49 5.9720 9645.00 9855.96 98.21
50 5.9920 9705.00 9852.20 98.51
51 6.0120 9722.00 9848.49 98.60
52 6.0320 10147.00 9844.83 100.73
53 6.0520 9965.00 9841.23 99.82
54 6.0720 9706.00 9837.68 98.52
55 6.0920 9584.00 9834.19 97.90
56 6.1120 9856.00 9830.74 99.28
57 6.1320 9656.00 9827.35 98.26
58 6.1520 9683.00 9824.00 98.40
59 6.1720 9662.00 9820.71 98.30
60 6.1920 9627.00 9817.47 98.12
61 6.2120 10179.00 9814.27 100.89
62 6.2320 9884.00 9811.13 99.42
63 6.2520 10075.00 9808.03 100.37
64 6.2720 9764.00 9804.98 98.81
65 6.2920 9965.00 9801.98 99.82
66 6.3120 9613.00 9799.02 98.05
67 6.3320 9807.00 9796.11 99.03
68 6.3520 9511.00 9793.25 97.52
69 6.3720 9840.00 9790.43 99.20
70 6.3920 9955.00 9787.66 99.77
71 6.4120 9681.00 9784.93 98.39
72 6.4320 9903.00 9782.25 99.51
73 6.4520 9875.00 9779.61 99.37
74 6.4720 9553.00 9777.01 97.74
75 6.4920 9685.00 9774.46 98.41
76 6.5120 9924.00 9771.95 99.62
77 6.5320 9735.00 9769.48 98.67
78 6.5520 9839.00 9767.05 99.19
79 6.5720 9762.00 9764.66 98.80
80 6.5920 9832.00 9762.32 99.16
81 6.6120 9663.00 9760.01 98.30
82 6.6320 9681.00 9757.74 98.39
83 6.6520 9887.00 9755.52 99.43
84 6.6720 9428.00 9753.33 97.10
85 6.6920 9793.00 9751.18 98.96
86 6.7120 9676.00 9749.07 98.37
87 6.7320 9721.00 9747.00 98.60
88 6.7520 9766.00 9744.96 98.82
89 6.7720 9399.00 9742.96 96.95
90 6.7920 9593.00 9741.00 97.94
91 6.8120 9283.00 9739.07 96.35
92 6.8320 9693.00 9737.18 98.45
93 6.8520 9721.00 9735.33 98.60
94 6.8720 9207.00 9733.51 95.95
95 6.8920 9636.00 9731.72 98.16
96 6.9120 9471.00 9729.97 97.32
97 6.9320 9621.00 9728.25 98.09
98 6.9520 9505.00 9726.57 97.49
99 6.9720 9755.00 9724.92 98.77
100 6.9920 9563.00 9723.30 97.79
101 7.0120 9751.00 9721.71 98.75
102 7.0320 9561.00 9720.16 97.78
103 7.0520 9648.00 9718.64 98.22
104 7.0720 9499.00 9717.15 97.46
105 7.0920 9979.00 9715.69 99.89
106 7.1120 9391.00 9714.26 96.91
107 7.1320 9647.00 9712.86 98.22
108 7.1520 9588.00 9711.49 97.92
109 7.1720 9632.00 9710.15 98.14
110 7.1920 10015.00 9708.84 100.07
111 7.2120 9814.00 9707.55 99.07
112 7.2320 9555.00 9706.30 97.75
113 7.2520 9807.00 9705.07 99.03
114 7.2720 10063.00 9703.88 100.32
115 7.2920 10123.00 9702.70 100.61
116 7.3120 10065.00 9701.56 100.32
117 7.3320 9609.00 9700.44 98.03
118 7.3520 9632.00 9699.35 98.14
119 7.3720 9928.00 9698.29 99.64
120 7.3920 9834.00 9697.25 99.17
121 7.4120 9786.00 9696.23 98.92
122 7.4320 9507.00 9695.25 97.50
123 7.4520 9601.00 9694.28 97.98
124 7.4720 9634.00 9693.34 98.15
125 7.4920 9764.00 9692.43 98.81
126 7.5120 10004.00 9691.54 100.02
127 7.5320 9886.00 9690.67 99.43
128 7.5520 9668.00 9689.82 98.33
129 7.5720 9810.00 9689.00 99.05
130 7.5920 9699.00 9688.20 98.48
131 7.6120 9678.00 9687.42 98.38
132 7.6320 9771.00 9686.67 98.85
133 7.6520 9685.00 9685.93 98.41
134 7.6720 10105.00 9685.22 100.52
135 7.6920 10089.00 9684.53 100.44
136 7.7120 9861.00 9683.86 99.30
137 7.7320 9719.00 9683.21 98.58
138 7.7520 10022.00 9682.58 100.11
139 7.7720 9561.00 9681.97 97.78
140 7.7920 9702.00 9681.38 98.50
141 7.8120 9944.00 9680.81 99.72
142 7.8320 9719.00 9680.26 98.58
143 7.8520 9484.00 9679.72 97.39
144 7.8720 9796.00 9679.21 98.97
145 7.8920 9748.00 9678.71 98.73
146 7.9120 9675.00 9678.23 98.36
147 7.9320 9794.00 9677.77 98.96
148 7.9520 9837.00 9677.33 99.18
149 7.9720 9785.00 9676.90 98.92
150 7.9920 9485.00 9676.49 97.39
151 8.0120 9429.00 9676.10 97.10
152 8.0320 9358.00 9675.72 96.74
153 8.0520 9725.00 9675.36 98.62
154 8.0720 9833.00 9675.02 99.16
155 8.0920 9852.00 9674.69 99.26
156 8.1120 9746.00 9674.37 98.72
157 8.1320 9582.00 9674.07 97.89
158 8.1520 9846.00 9673.79 99.23
159 8.1720 9956.00 9673.52 99.78
160 8.1920 9640.00 9673.26 98.18
161 8.2120 9624.00 9673.02 98.10
162 8.2320 9386.00 9672.79 96.88
163 8.2520 9831.00 9672.58 99.15
164 8.2720 9783.00 9672.38 98.91
165 8.2920 9739.00 9672.19 98.69
166 8.3120 9854.00 9672.02 99.27
167 8.3320 9951.00 9671.86 99.75
168 8.3520 9367.00 9671.71 96.78
169 8.3720 9632.00 9671.57 98.14
170 8.3920 9660.00 9671.44 98.29
171 8.4120 9379.00 9671.33 96.85
172 8.4320 9311.00 9671.23 96.49
173 8.4520 9427.00 9671.14 97.09
174 8.4720 9782.00 9671.06 98.90
175 8.4920 9457.00 9670.99 97.25
176 8.5120 9705.00 9670.93 98.51
177 8.5320 9640.00 9670.88 98.18
178 8.5520 9694.00 9670.84 98.46
179 8.5720 9804.00 9670.81 99.02
180 8.5920 9902.00 9670.79 99.51
181 8.6120 9742.00 9670.79 98.70
182 8.6320 9899.00 9670.79 99.49
183 8.6520 9728.00 9670.79 98.63
184 8.6720 9678.00 9670.81 98.38
185 8.6920 9966.00 9670.84 99.83
186 8.7120 9970.00 9670.88 99.85
187 8.7320 9877.00 9670.92 99.38
188 8.7520 9932.00 9670.97 99.66
189 8.7720 9759.00 9671.03 98.79
190 8.7920 9977.00 9671.10 99.88
191 8.8120 9840.00 9671.17 99.20
192 8.8320 9866.00 9671.25 99.33
193 8.8520 9894.00 9671.34 99.47
194 8.8720 9903.00 9671.44 99.51
195 8.8920 9560.00 9671.54 97.78
196 8.9120 9500.00 9671.65 97.47
197 8.9320 9818.00 9671.77 99.09
198 8.9520 9797.00 9671.89 98.98
199 8.9720 9656.00 9672.02 98.26
200 8.9920 10175.00 9672.15 100.87
201 9.0120 9844.00 9672.29 99.22
202 9.0320 9632.00 9672.43 98.14
203 9.0520 9805.00 9672.58 99.02
204 9.0720 10087.00 9672.74 100.43
205 9.0920 9857.00 9672.90 99.28
206 9.1120 9898.00 9673.06 99.49
207 9.1320 9789.00 9673.23 98.94
208 9.1520 9670.00 9673.40 98.34
209 9.1720 9771.00 9673.58 98.85
210 9.1920 9982.00 9673.76 99.91
211 9.2120 9943.00 9673.95 99.71
212 9.2320 9689.00 9674.14 98.43
213 9.2520 9734.00 9674.33 98.66
214 9.2720 9713.00 9674.53 98.55
215 9.2920 9625.00 9674.73 98.11
216 9.3120 9790.00 9674.93 98.94
217 9.3320 9818.00 9675.14 99.09
218 9.3520 9827.00 9675.34 99.13
219 9.3720 9976.00 9675.55 99.88
220 9.3920 9792.00 9675.77 98.95
221 9.4120 9826.00 9675.98 99.13
222 9.4320 9739.00 9676.20 98.69
223 9.4520 9580.00 9676.42 97.88
224 9.4720 9889.00 9676.64 99.44
225 9.4920 9858.00 9676.87 99.29
226 9.5120 9860.00 9677.09 99.30
227 9.5320 9648.00 9677.32 98.22
228 9.5520 9766.00 9677.54 98.82
229 9.5720 9530.00 9677.77 97.62
230 9.5920 9681.00 9678.00 98.39
231 9.6120 9818.00 9678.23 99.09
232 9.6320 9617.00 9678.46 98.07
233 9.6520 9742.00 9678.70 98.70
234 9.6720 9551.00 9678.93 97.73
235 9.6920 10074.00 9679.16 100.37
236 9.7120 9743.00 9679.39 98.71
237 9.7320 9815.00 9679.63 99.07
238 9.7520 9831.00 9679.86 99.15
239 9.7720 9948.00 9680.09 99.74
240 9.7920 9930.00 9680.32 99.65
241 9.8120 9841.00 9680.55 99.20
242 9.8320 9817.00 9680.79 99.08
243 9.8520 9772.00 9681.01 98.85
244 9.8720 9801.00 9681.24 99.00
245 9.8920 9687.00 9681.47 98.42
246 9.9120 9891.00 9681.70 99.45
247 9.9320 9825.00 9681.92 99.12
248 9.9520 9839.00 9682.15 99.19
249 9.9720 9719.00 9682.37 98.58
250 9.9920 9682.00 9682.59 98.40
251 10.0120 9986.00 9682.81 99.93
252 10.0320 10001.00 9683.03 100.00
253 10.0520 10036.00 9683.25 100.18
254 10.0720 9769.00 9683.46 98.84
255 10.0920 9285.00 9683.67 96.36
256 10.1120 9687.00 9683.88 98.42
257 10.1320 9672.00 9684.09 98.35
258 10.1520 9400.00 9684.29 96.95
259 10.1720 10010.00 9684.50 100.05
260 10.1920 9582.00 9684.69 97.89
261 10.2120 9563.00 9684.89 97.79
262 10.2320 9624.00 9685.08 98.10
263 10.2520 9598.00 9685.27 97.97
264 10.2720 9440.00 9685.46 97.16
265 10.2920 9393.00 9685.65 96.92
266 10.3120 9715.00 9685.83 98.56
267 10.3320 9806.00 9686.00 99.03
268 10.3520 9622.00 9686.18 98.09
269 10.3720 9360.00 9686.35 96.75
270 10.3920 9477.00 9686.51 97.35
271 10.4120 9870.00 9686.68 99.35
272 10.4320 9813.00 9686.83 99.06
273 10.4520 9585.00 9686.99 97.90
274 10.4720 10007.00 9687.14 100.04
275 10.4920 9858.00 9687.29 99.29
276 10.5120 9787.00 9687.43 98.93
277 10.5320 9566.00 9687.57 97.81
278 10.5520 9702.00 9687.70 98.50
279 10.5720 9872.00 9687.83 99.36
280 10.5920 9680.00 9687.95 98.39
281 10.6120 9500.00 9688.07 97.47
282 10.6320 9588.00 9688.19 97.92
283 10.6520 9802.00 9688.29 99.01
284 10.6720 9387.00 9688.40 96.89
285 10.6920 9885.00 9688.50 99.42
286 10.7120 9550.00 9688.59 97.72
287 10.7320 9545.00 9688.68 97.70
288 10.7520 9647.00 9688.77 98.22
289 10.7720 9481.00 9688.84 97.37
290 10.7920 9516.00 9688.92 97.55
291 10.8120 9093.00 9688.98 95.36
292 10.8320 9090.00 9689.05 95.34
293 10.8520 9351.00 9689.10 96.70
294 10.8720 9640.00 9689.15 98.18
295 10.8920 9869.00 9689.20 99.34
296 10.9120 9681.00 9689.24 98.39
297 10.9320 9781.00 9689.27 98.90
298 10.9520 9628.00 9689.29 98.12
299 10.9720 9680.00 9690.27 98.39
300 10.9920 9608.00 9690.31 98.02
301 11.0120 9447.00 9690.34 97.20
302 11.0320 9761.00 9690.36 98.80
303 11.0520 9799.00 9690.38 98.99
304 11.0720 9411.00 9690.39 97.01
305 11.0920 9588.00 9690.40 97.92
306 11.1120 9734.00 9690.40 98.66
307 11.1320 9584.00 9690.39 97.90
308 11.1520 9569.00 9690.38 97.82
309 11.1720 9679.00 9690.37 98.38
310 11.1920 9505.00 9690.34 97.49
311 11.2120 9627.00 9690.31 98.12
312 11.2320 9611.00 9690.28 98.04
313 11.2520 9525.00 9690.24 97.60
314 11.2720 9440.00 9690.19 97.16
315 11.2920 9633.00 9690.14 98.15
316 11.3120 9863.00 9690.08 99.31
317 11.3320 9827.00 9690.02 99.13
318 11.3520 9983.00 9689.95 99.92
319 11.3720 9906.00 9689.87 99.53
320 11.3920 9772.00 9689.79 98.85
321 11.4120 9842.00 9689.70 99.21
322 11.4320 9851.00 9689.61 99.25
323 11.4520 9787.00 9689.51 98.93
324 11.4720 9765.00 9689.40 98.82
325 11.4920 9500.00 9689.29 97.47
326 11.5120 9653.00 9689.18 98.25
327 11.5320 9422.00 9689.05 97.07
328 11.5520 9789.00 9688.93 98.94
329 11.5720 9834.00 9688.79 99.17
330 11.5920 9699.00 9688.66 98.48
331 11.6120 9378.00 9688.51 96.84
332 11.6320 9642.00 9688.37 98.19
333 11.6520 9750.00 9688.21 98.74
334 11.6720 9820.00 9688.06 99.10
335 11.6920 9829.00 9687.90 99.14
336 11.7120 9666.00 9687.73 98.32
337 11.7320 9736.00 9687.56 98.67
338 11.7520 9535.00 9687.39 97.65
339 11.7720 9616.00 9687.22 98.06
340 11.7920 9558.00 9687.04 97.76
341 11.8120 9622.00 9686.86 98.09
342 11.8320 9819.00 9686.67 99.09
343 11.8520 9886.00 9686.49 99.43
344 11.8720 9718.00 9686.30 98.58
345 11.8920 9525.00 9686.12 97.60
346 11.9120 9503.00 9685.94 97.48
347 11.9320 9435.00 9685.75 97.13
348 11.9520 9442.00 9685.57 97.17
349 11.9720 9266.00 9685.39 96.26
350 11.9920 9634.00 9685.22 98.15
351 12.0120 9746.00 9685.05 98.72
352 12.0320 9841.00 9684.89 99.20
353 12.0520 10073.00 9684.74 100.36
354 12.0720 9763.00 9684.61 98.81
355 12.0920 9715.00 9684.49 98.56
356 12.1120 9746.00 9684.38 98.72
357 12.1320 9569.00 9684.31 97.82
358 12.1520 9465.00 9684.27 97.29
359 12.1720 9606.00 9684.27 98.01
360 12.1920 9624.00 9684.34 98.10
361 12.2120 9689.00 9684.51 98.43
362 12.2320 9829.00 9684.81 99.14
363 12.2520 9688.00 9685.29 98.43
364 12.2720 9719.00 9686.00 98.58
365 12.2920 9406.00 9687.02 96.98
366 12.3120 9376.00 9688.41 96.83
367 12.3320 9657.00 9690.24 98.27
368 12.3520 9339.00 9692.55 96.64
369 12.3720 9537.00 9695.36 97.66
370 12.3920 9710.00 9698.74 98.54
371 12.4120 9516.00 9702.52 97.55
372 12.4320 9685.00 9706.72 98.41
373 12.4520 9734.00 9711.34 98.66
374 12.4720 9843.00 9716.34 99.21
375 12.4920 10087.00 9721.70 100.43
376 12.5120 9757.00 9727.43 98.78
377 12.5320 9634.00 9733.52 98.15
378 12.5520 9757.00 9740.00 98.78
379 12.5720 9814.00 9746.88 99.07
380 12.5920 9584.00 9754.20 97.90
381 12.6120 9596.00 9761.98 97.96
382 12.6320 9689.00 9770.27 98.43
383 12.6520 9731.00 9779.12 98.65
384 12.6720 9665.00 9788.58 98.31
385 12.6920 9694.00 9798.73 98.46
386 12.7110 9467.00 9809.06 97.30
387 12.7310 9801.00 9820.77 99.00
388 12.7510 9866.00 9833.42 99.33
389 12.7710 9826.00 9847.15 99.13
390 12.7910 9800.00 9862.11 98.99
391 12.8110 9822.00 9878.50 99.11
392 12.8310 10006.00 9896.56 100.03
393 12.8510 10095.00 9916.61 100.47
394 12.8710 9979.00 9939.07 99.89
395 12.8910 9421.00 9964.50 97.06
396 12.9110 9960.00 9993.63 99.80
397 12.9310 10039.00 10027.40 100.19
398 12.9510 9941.00 10066.70 99.70
399 12.9710 10158.00 10112.60 100.79
400 12.9910 10215.00 10165.80 101.07
401 13.0110 10285.00 10225.80 101.42
402 13.0310 10081.00 10291.00 100.40
403 13.0510 10198.00 10357.50 100.99
404 13.0710 10143.00 10419.10 100.71
405 13.0910 10343.00 10467.40 101.70
406 13.1110 10372.00 10492.40 101.84
407 13.1310 10193.00 10484.40 100.96
408 13.1510 10299.00 10437.70 101.48
409 13.1710 10353.00 10355.10 101.75
410 13.1910 9974.00 10248.90 99.87
411 13.2110 9952.00 10135.10 99.76
412 13.2310 9913.00 10027.00 99.56
413 13.2510 9733.00 9932.81 98.66
414 13.2710 9772.00 9856.23 98.85
415 13.2910 9530.00 9797.42 97.62
416 13.3110 9661.00 9754.37 98.29
417 13.3310 9625.00 9724.00 98.11
418 13.3510 9558.00 9702.99 97.76
419 13.3710 9267.00 9688.46 96.27
420 13.3910 9438.00 9678.17 97.15
421 13.4110 9280.00 9670.54 96.33
422 13.4310 9191.00 9664.58 95.87
423 13.4510 9082.00 9659.68 95.30
424 13.4710 9376.00 9655.49 96.83
425 13.4910 9676.00 9651.79 98.37
426 13.5110 9266.00 9648.47 96.26
427 13.5310 9352.00 9645.44 96.71
428 13.5510 9566.00 9642.65 97.81
429 13.5710 9327.00 9640.06 96.58
430 13.5910 9355.00 9637.64 96.72
431 13.6110 9176.00 9635.36 95.79
432 13.6310 9360.00 9633.19 96.75
433 13.6510 9522.00 9731.44 97.58
434 13.6710 9681.00 9731.56 98.39
435 13.6910 9508.00 9731.82 97.51
436 13.7110 9777.00 9732.23 98.88
437 13.7310 9715.00 9732.79 98.56
438 13.7510 9605.00 9733.49 98.01
439 13.7710 9775.00 9734.34 98.87
440 13.7910 9933.00 9735.34 99.66
441 13.8110 9820.00 9736.51 99.10
442 13.8310 9743.00 9737.85 98.71
443 13.8510 9606.00 9739.35 98.01
444 13.8710 9445.00 9741.01 97.19
445 13.8910 9485.00 9742.84 97.39
446 13.9110 9342.00 9744.84 96.65
447 13.9310 9395.00 9747.00 96.93
448 13.9510 9605.00 9749.33 98.01
449 13.9710 9414.00 9751.82 97.03
450 13.9910 9531.00 9754.49 97.63
451 14.0110 9475.00 9757.34 97.34
452 14.0310 9291.00 9760.37 96.39
453 14.0510 9367.00 9763.61 96.78
454 14.0710 9802.00 9767.05 99.01
455 14.0910 9378.00 9770.72 96.84
456 14.1110 9645.00 9774.63 98.21
457 14.1310 9698.00 9778.79 98.48
458 14.1510 9533.00 9783.22 97.64
459 14.1710 9349.00 9787.96 96.69
460 14.1910 9431.00 9793.01 97.11
461 14.2110 9594.00 9798.41 97.95
462 14.2310 9548.00 9804.21 97.71
463 14.2510 9665.00 9810.44 98.31
464 14.2710 9577.00 9817.16 97.86
465 14.2910 9496.00 9824.45 97.45
466 14.3110 9305.00 9832.39 96.46
467 14.3310 9756.00 9841.11 98.77
468 14.3510 9603.00 9850.70 97.99
469 14.3710 9465.00 9861.26 97.29
470 14.3910 9649.00 9872.84 98.23
471 14.4110 10088.00 9885.36 100.44
472 14.4310 9634.00 9898.57 98.15
473 14.4510 9809.00 9912.03 99.04
474 14.4710 9838.00 9925.06 99.19
475 14.4910 9962.00 9936.79 99.81
476 14.5110 9955.00 9946.33 99.77
477 14.5310 10300.00 9953.03 101.49
478 14.5510 9772.00 9956.92 98.85
479 14.5710 9700.00 9958.98 98.49
480 14.5910 9838.00 9960.73 99.19
481 14.6110 9791.00 9980.92 98.95
482 14.6310 9777.00 9986.12 98.88
483 14.6510 9755.00 9993.83 98.77
484 14.6710 9749.00 10004.20 98.74
485 14.6910 9965.00 10017.10 99.82
486 14.7110 9643.00 10032.50 98.20
487 14.7310 9707.00 10050.10 98.52
488 14.7510 9830.00 10069.80 99.15
489 14.7710 9946.00 10091.40 99.73
490 14.7910 10184.00 10115.20 100.92
491 14.8110 9799.00 10141.10 98.99
492 14.8310 10243.00 10169.30 101.21
493 14.8510 10593.00 10200.20 102.92
494 14.8710 10320.00 10233.80 101.59
495 14.8910 10631.00 10270.70 103.11
496 14.9110 10607.00 10311.40 102.99
497 14.9310 10579.00 10356.30 102.85
498 14.9510 11208.00 10406.30 105.87
499 14.9710 10984.00 10462.60 104.81
500 14.9910 11124.00 10527.00 105.47
501 15.0110 11371.00 10601.70 106.64
502 15.0310 11718.00 10690.60 108.25
503 15.0510 11711.00 10798.50 108.22
504 15.0710 11909.00 10932.30 109.13
505 15.0910 12491.00 11100.50 111.76
506 15.1110 12396.00 11313.20 111.34
507 15.1310 12544.00 11581.70 112.00
508 15.1510 12995.00 11916.90 114.00
509 15.1710 13693.00 12328.10 117.02
510 15.1910 14078.00 12821.30 118.65
511 15.2110 14213.00 13398.30 119.22
512 15.2310 14929.00 14058.00 122.18
513 15.2510 15620.00 14797.20 124.98
514 15.2710 16270.00 15612.80 127.55
515 15.2910 17242.00 16502.40 131.31
516 15.3110 17943.00 17465.00 133.95
517 15.3310 18870.00 18501.60 137.37
518 15.3510 19441.00 19615.50 139.43
519 15.3710 20946.00 20810.70 144.73
520 15.3910 22344.00 22096.00 149.48
521 15.4110 22907.00 23479.60 151.35
522 15.4310 24762.00 24973.10 157.36
523 15.4510 26623.00 26590.10 163.17
524 15.4710 28279.00 28348.20 168.16
525 15.4910 30558.00 30268.70 174.81
526 15.5110 32135.00 32381.10 179.26
527 15.5310 34606.00 34716.90 186.03
528 15.5510 37827.00 37324.80 194.49
529 15.5710 41011.00 40267.00 202.51
530 15.5910 44276.00 43623.80 210.42
531 15.6110 48152.00 47494.40 219.44
532 15.6310 53112.00 51989.90 230.46
533 15.6510 59144.00 57215.50 243.20
534 15.6710 65775.00 63230.20 256.47
535 15.6910 73887.00 69996.00 271.82
536 15.7110 79223.00 77307.90 281.47
537 15.7310 86704.00 84736.10 294.45
538 15.7510 92075.00 91591.00 303.44
539 15.7710 97274.00 96935.60 311.89
540 15.7910 99909.00 99663.50 316.08
541 15.8110 99868.00 98716.70 316.02
542 15.8310 94982.00 93523.10 308.19
543 15.8510 85535.00 84503.50 292.46
544 15.8710 71411.00 73085.20 267.23
545 15.8910 59424.00 61020.70 243.77
546 15.9110 48431.00 49708.50 220.07
547 15.9310 40114.00 39972.80 200.29
548 15.9510 32403.00 32144.10 180.01
549 15.9710 27217.00 26199.10 164.98
550 15.9910 22843.00 21899.10 151.14
551 16.0110 19380.00 18904.20 139.21
552 16.0310 17753.00 16865.50 133.24
553 16.0510 15629.00 15483.20 125.02
554 16.0710 14527.00 14529.50 120.53
555 16.0910 13700.00 13847.70 117.05
556 16.1110 13072.00 13338.00 114.33
557 16.1310 12728.00 12940.80 112.82
558 16.1510 12249.00 12621.80 110.68
559 16.1710 11888.00 12361.40 109.03
560 16.1910 11710.00 12148.70 108.21
561 16.2110 11294.00 11976.90 106.27
562 16.2310 11262.00 11842.50 106.12
563 16.2510 11328.00 11743.10 106.43
564 16.2710 11237.00 11677.30 106.00
565 16.2910 11395.00 11643.70 106.75
566 16.3110 11321.00 11641.00 106.40
567 16.3310 11386.00 11667.30 106.71
568 16.3510 11040.00 11721.00 105.07
569 16.3710 11297.00 11800.20 106.29
570 16.3910 11472.00 11903.60 107.11
571 16.4110 11668.00 12030.30 108.02
572 16.4310 11719.00 12179.70 108.25
573 16.4510 11854.00 12352.00 108.88
574 16.4710 12125.00 12547.80 110.11
575 16.4910 12295.00 12768.40 110.88
576 16.5110 12524.00 13015.60 111.91
577 16.5310 12736.00 13292.20 112.85
578 16.5510 13084.00 13601.60 114.39
579 16.5710 13450.00 13948.40 115.97
580 16.5910 14130.00 14338.90 118.87
581 16.6110 14346.00 14781.30 119.78
582 16.6310 14937.00 15286.50 122.22
583 16.6510 15512.00 15868.10 124.55
584 16.6710 16630.00 16542.70 128.96
585 16.6910 17641.00 17328.00 132.82
586 16.7110 18254.00 18239.20 135.11
587 16.7310 19109.00 19283.10 138.24
588 16.7510 20563.00 20450.00 143.40
589 16.7710 21948.00 21703.30 148.15
590 16.7910 23496.00 22971.40 153.28
591 16.8110 24662.00 24143.00 157.04
592 16.8310 25356.00 25069.00 159.24
593 16.8510 26327.00 25572.90 162.26
594 16.8710 26248.00 25482.60 162.01
595 16.8910 25650.00 24694.70 160.16
596 16.9110 23675.00 23253.60 153.87
597 16.9310 22220.00 21367.90 149.06
598 16.9510 19936.00 19317.90 141.20
599 16.9710 17715.00 17344.30 133.10
600 16.9910 16383.00 15599.90 128.00
601 17.0110 14619.00 14157.50 120.91
602 17.0310 13484.00 13029.80 116.12
603 17.0510 12435.00 12189.90 111.51
604 17.0710 12333.00 11589.50 111.05
605 17.0910 11626.00 11173.60 107.82
606 17.1110 11278.00 10891.00 106.20
607 17.1310 11021.00 10700.00 104.98
608 17.1510 10678.00 10569.90 103.33
609 17.1710 10355.00 10480.10 101.76
610 17.1910 10431.00 10417.30 102.13
611 17.2110 10422.00 10373.80 102.09
612 17.2310 10284.00 10344.90 101.41
613 17.2510 10303.00 10328.30 101.50
614 17.2710 10159.00 10322.40 100.79
615 17.2910 10226.00 10326.80 101.12
616 17.3110 10176.00 10341.50 100.88
617 17.3310 10160.00 10366.80 100.80
618 17.3510 10500.00 10404.00 102.47
619 17.3710 10483.00 10454.70 102.39
620 17.3910 10916.00 10521.20 104.48
621 17.4110 10669.00 10606.00 103.29
622 17.4310 10871.00 10711.00 104.26
623 17.4510 11063.00 10836.60 105.18
624 17.4710 11434.00 10979.50 106.93
625 17.4910 11733.00 11131.50 108.32
626 17.5110 12214.00 11277.40 110.52
627 17.5310 12172.00 11395.70 110.33
628 17.5510 12241.00 11459.50 110.64
629 17.5710 12165.00 11441.40 110.29
630 17.5910 12391.00 11324.30 111.32
631 17.6110 12341.00 11114.80 111.09
632 17.6310 11715.00 10846.40 108.24
633 17.6510 11343.00 10562.40 106.50
634 17.6710 10913.00 10297.20 104.46
635 17.6910 10528.00 10070.60 102.61
636 17.7110 10152.00 9889.96 100.76
637 17.7310 9846.00 9753.61 99.23
638 17.7510 9775.00 9654.90 98.87
639 17.7710 9808.00 9585.16 99.04
640 17.7910 9643.00 9535.92 98.20
641 17.8110 9734.00 9500.30 98.66
642 17.8310 9800.00 9473.31 98.99
643 17.8510 9451.00 9451.71 97.22
644 17.8710 9329.00 9433.52 96.59
645 17.8910 9332.00 9417.61 96.60
646 17.9110 9172.00 9403.32 95.77
647 17.9310 9253.00 9390.26 96.19
648 17.9510 9305.00 9378.19 96.46
649 17.9710 9145.00 9366.95 95.63
650 17.9910 9280.00 9356.41 96.33
651 18.0110 9060.00 9346.46 95.18
652 18.0310 9097.00 9242.79 95.38
653 18.0510 8970.00 9235.39 94.71
654 18.0710 9076.00 9228.35 95.27
655 18.0910 9211.00 9221.63 95.97
656 18.1110 9218.00 9215.18 96.01
657 18.1310 8950.00 9208.98 94.60
658 18.1510 9028.00 9203.01 95.02
659 18.1710 9333.00 9197.22 96.61
660 18.1910 9168.00 9191.62 95.75
661 18.2110 9287.00 9186.18 96.37
662 18.2310 9224.00 9180.88 96.04
663 18.2510 9218.00 9175.71 96.01
664 18.2710 9055.00 9170.66 95.16
665 18.2910 9046.00 9165.72 95.11
666 18.3110 9386.00 9160.88 96.88
667 18.3310 9141.00 9156.13 95.61
668 18.3510 9376.00 9151.46 96.83
669 18.3710 9237.00 9146.88 96.11
670 18.3910 8879.00 9142.36 94.23
671 18.4110 8865.00 9137.91 94.15
672 18.4310 8919.00 9133.53 94.44
673 18.4510 8927.00 9129.20 94.48
674 18.4710 8858.00 9124.92 94.12
675 18.4910 8611.00 9120.69 92.80
676 18.5110 8650.00 9116.51 93.01
677 18.5310 9310.00 9118.45 96.49
678 18.5510 9157.00 9114.45 95.69
679 18.5710 9073.00 9110.49 95.25
680 18.5910 8903.00 9106.57 94.36
681 18.6110 8817.00 9102.68 93.90
682 18.6310 9458.00 9098.83 97.25
683 18.6510 9048.00 9095.01 95.12
684 18.6710 9151.00 9091.22 95.66
685 18.6910 9323.00 9087.46 96.56
686 18.7110 9252.00 9083.73 96.19
687 18.7310 9017.00 9080.02 94.96
688 18.7510 8847.00 9076.33 94.06
689 18.7710 8903.00 9072.67 94.36
690 18.7910 8923.00 9069.04 94.46
691 18.8110 8829.00 9065.42 93.96
692 18.8310 8956.00 9061.82 94.64
693 18.8510 9009.00 9058.25 94.92
694 18.8710 9224.00 9054.69 96.04
695 18.8910 8902.00 9051.15 94.35
696 18.9110 9279.00 9047.63 96.33
697 18.9310 8858.00 9044.13 94.12
698 18.9510 8957.00 9040.64 94.64
699 18.9710 8969.00 9037.17 94.70
700 18.9910 9148.00 9033.72 95.65
701 19.0110 8697.00 9030.28 93.26
702 19.0310 8647.00 9026.85 92.99
703 19.0510 8993.00 9023.44 94.83
704 19.0710 9053.00 9020.05 95.15
705 19.0910 9051.00 9016.67 95.14
706 19.1110 8973.00 9013.30 94.73
707 19.1310 8798.00 9009.95 93.80
708 19.1510 8938.00 9006.61 94.54
709 19.1710 8707.00 9003.29 93.31
710 19.1910 8880.00 8983.37 94.23
711 19.2110 9014.00 8980.34 94.94
712 19.2310 8828.00 8977.32 93.96
713 19.2510 8695.00 8974.31 93.25
714 19.2710 8945.00 8971.30 94.58
715 19.2910 8849.00 8968.31 94.07
716 19.3110 8881.00 8965.32 94.24
717 19.3310 8938.00 8962.34 94.54
718 19.3510 9056.00 8959.38 95.16
719 19.3710 8766.00 8956.42 93.63
720 19.3910 8644.00 8953.47 92.97
721 19.4110 8827.00 8950.54 93.95
722 19.4310 8943.00 8947.62 94.57
723 19.4510 8900.00 8944.71 94.34
724 19.4710 8692.00 8941.81 93.23
725 19.4910 9001.00 8938.93 94.87
726 19.5110 9010.00 8936.06 94.92
727 19.5310 8584.00 8933.21 92.65
728 19.5510 8679.00 8930.38 93.16
729 19.5710 8874.00 8927.57 94.20
730 19.5910 8820.00 8924.77 93.91
731 19.6110 8776.00 8922.00 93.68
732 19.6310 8826.00 8919.25 93.95
733 19.6510 8907.00 8916.52 94.38
734 19.6710 8865.00 8913.82 94.15
735 19.6910 8866.00 8911.14 94.16
736 19.7110 8921.00 8906.59 94.45
737 19.7310 8806.00 8904.00 93.84
738 19.7510 8812.00 8901.45 93.87
739 19.7710 8769.00 8902.72 93.64
740 19.7910 9037.00 8900.31 95.06
741 19.8110 8745.00 8897.94 93.51
742 19.8310 8693.00 8895.62 93.24
743 19.8510 8861.00 8893.34 94.13
744 19.8710 9221.00 8891.11 96.03
745 19.8910 8728.00 8888.94 93.42
746 19.9110 8685.00 8886.83 93.19
747 19.9310 9108.00 8884.79 95.44
748 19.9510 8685.00 8882.81 93.19
749 19.9710 8828.00 8880.90 93.96
750 19.9910 8774.00 8879.08 93.67
751 20.0110 8889.00 8877.35 94.28
752 20.0310 8909.00 8875.71 94.39
753 20.0510 8913.00 8874.17 94.41
754 20.0710 8890.00 8872.75 94.29
755 20.0910 9114.00 8871.46 95.47
756 20.1110 9033.00 8870.29 95.04
757 20.1310 8843.00 8869.28 94.04
758 20.1510 8796.00 8868.43 93.79
759 20.1710 8800.00 8867.76 93.81
760 20.1910 8622.00 8867.29 92.85
761 20.2110 8538.00 8867.33 92.40
762 20.2310 8751.00 8867.33 93.55
763 20.2510 8952.00 8868.63 94.61
764 20.2710 9048.00 8869.22 95.12
765 20.2910 8867.00 8870.16 94.16
766 20.3110 9209.00 8871.49 95.96
767 20.3310 8792.00 8873.25 93.77
768 20.3510 8776.00 8875.54 93.68
769 20.3710 8721.00 8878.43 93.39
770 20.3910 8697.00 8882.03 93.26
771 20.4110 8797.00 8886.51 93.79
772 20.4310 8954.00 8892.09 94.63
773 20.4510 9135.00 8899.05 95.58
774 20.4710 9141.00 8907.78 95.61
775 20.4910 9090.00 8918.81 95.34
776 20.5110 9331.00 8932.80 96.60
777 20.5310 8886.00 8950.58 94.27
778 20.5510 8902.00 8973.12 94.35
779 20.5710 9294.00 9001.54 96.41
780 20.5910 9521.00 9037.07 97.58
781 20.6110 9330.00 9080.94 96.59
782 20.6310 8826.00 9134.28 93.95
783 20.6510 9202.00 9198.06 95.93
784 20.6710 9490.00 9273.03 97.42
785 20.6910 9873.00 9359.75 99.36
786 20.7110 9911.00 9458.76 99.55
787 20.7310 9773.00 9570.71 98.86
788 20.7510 9684.00 9696.53 98.41
789 20.7710 9690.00 9837.54 98.44
790 20.7910 10132.00 9995.60 100.66
791 20.8110 10280.00 10173.20 101.39
792 20.8310 10501.00 10373.80 102.47
793 20.8510 10696.00 10601.30 103.42
794 20.8710 10858.00 10860.20 104.20
795 20.8910 11453.00 11154.80 107.02
796 20.9110 11603.00 11488.30 107.72
797 20.9310 11939.00 11861.60 109.27
798 20.9510 12510.00 12271.00 111.85
799 20.9710 12758.00 12706.50 112.95
800 20.9910 13326.00 13150.40 115.44
801 21.0110 13602.00 13575.60 116.63
802 21.0310 13737.00 13945.80 117.21
803 21.0510 14425.00 14303.00 120.10
804 21.0710 14745.00 14427.00 121.43
805 21.0910 14616.00 14360.80 120.90
806 21.1110 14514.00 14085.80 120.47
807 21.1310 13755.00 13623.40 117.28
808 21.1510 13783.00 13033.00 117.40
809 21.1710 12986.00 12388.80 113.96
810 21.1910 12060.00 11755.30 109.82
811 21.2110 11785.00 11176.50 108.56
812 21.2310 11173.00 10676.30 105.70
813 21.2510 11158.00 10263.30 105.63
814 21.2710 10479.00 9935.44 102.37
815 21.2910 10091.00 9683.89 100.45
816 21.3110 9502.00 9496.25 97.48
817 21.3310 9316.00 9359.15 96.52
818 21.3510 9446.00 9260.21 97.19
819 21.3710 9169.00 9189.04 95.75
820 21.3910 9383.00 9137.62 96.87
821 21.4110 9426.00 9100.22 97.09
822 21.4310 9209.00 9073.01 95.96
823 21.4510 8976.00 9053.65 94.74
824 21.4710 9014.00 9040.90 94.94
825 21.4910 9259.00 9034.24 96.22
826 21.5110 9253.00 9033.73 96.19
827 21.5310 9244.00 9039.72 96.15
828 21.5510 9198.00 9052.80 95.91
829 21.5710 9523.00 9073.57 97.59
830 21.5910 9371.00 9104.70 96.80
831 21.6110 9058.00 9142.27 95.17
832 21.6310 9011.00 9188.58 94.93
833 21.6510 9219.00 9243.79 96.02
834 21.6710 9409.00 9308.12 97.00
835 21.6910 9495.00 9382.00 97.44
836 21.7110 9778.00 9466.13 98.88
837 21.7310 9673.00 9561.69 98.35
838 21.7510 9757.00 9670.36 98.78
839 21.7710 9974.00 9794.52 99.87
840 21.7910 10236.00 9937.27 101.17
841 21.8110 10240.00 10102.40 101.19
842 21.8310 10464.00 10294.00 102.29
843 21.8510 10657.00 10515.70 103.23
844 21.8710 10803.00 10769.20 103.94
845 21.8910 10832.00 11052.20 104.08
846 21.9110 11249.00 11356.40 106.06
847 21.9310 11456.00 11665.20 107.03
848 21.9510 11489.00 11952.80 107.19
849 21.9710 11738.00 12184.40 108.34
850 21.9910 12457.00 12318.40 111.61
851 22.0110 11998.00 12314.60 109.54
852 22.0310 11999.00 12150.20 109.54
853 22.0510 11858.00 11838.80 108.89
854 22.0710 11438.00 11431.20 106.95
855 22.0910 11407.00 10991.60 106.80
856 22.1110 11137.00 10572.30 105.53
857 22.1310 10594.00 10205.70 102.93
858 22.1510 10338.00 9906.27 101.68
859 22.1710 9813.00 9675.87 99.06
860 22.1910 9752.00 9508.18 98.75
861 22.2110 9676.00 9392.68 98.37
862 22.2310 9363.00 9317.77 96.76
863 22.2510 9065.00 9276.06 95.21
864 22.2710 9121.00 9252.97 95.50
865 22.2910 9281.00 9245.62 96.34
866 22.3110 9242.00 9250.11 96.14
867 22.3310 9330.00 9264.10 96.59
868 22.3510 9159.00 9286.36 95.70
869 22.3710 9014.00 9316.33 94.94
870 22.3910 9316.00 9353.88 96.52
871 22.4110 9176.00 9399.15 95.79
872 22.4310 9244.00 9452.46 96.15
873 22.4510 9551.00 9514.29 97.73
874 22.4710 9278.00 9585.28 96.32
875 22.4910 9280.00 9666.21 96.33
876 22.5110 9370.00 9757.92 96.80
877 22.5310 9419.00 9861.31 97.05
878 22.5510 9889.00 9977.19 99.44
879 22.5710 10026.00 10106.30 100.13
880 22.5910 10094.00 10249.00 100.47
881 22.6110 10105.00 10405.70 100.52
882 22.6310 10119.00 10576.30 100.59
883 22.6510 10617.00 10761.10 103.04
884 22.6710 10781.00 10960.90 103.83
885 22.6910 10893.00 11178.90 104.37
886 22.7110 11304.00 11421.60 106.32
887 22.7310 11767.00 11698.90 108.48
888 22.7510 12133.00 12023.30 110.15
889 22.7710 12683.00 12409.20 112.62
890 22.7910 12965.00 12873.70 113.86
891 22.8110 13474.00 13437.90 116.08
892 22.8310 14128.00 14128.60 118.86
893 22.8510 14986.00 14976.40 122.42
894 22.8710 16045.00 16010.50 126.67
895 22.8910 17148.00 17254.20 130.95
896 22.9110 18502.00 18725.10 136.02
897 22.9310 19529.00 20438.70 139.75
898 22.9510 21646.00 22413.00 147.13
899 22.9710 24038.00 24673.70 155.04
900 22.9910 26063.00 27258.90 161.44
901 23.0110 28125.00 30224.20 167.71
902 23.0310 31907.00 33640.30 178.62
903 23.0510 36129.00 37601.10 190.08
904 23.0710 41547.00 42208.50 203.83
905 23.0910 46851.00 47556.60 216.45
906 23.1110 52553.00 53691.30 229.24
907 23.1310 59513.00 60561.30 243.95
908 23.1510 68056.00 67959.10 260.88
909 23.1710 75745.00 75470.00 275.22
910 23.1910 83048.00 82438.50 288.18
911 23.2110 88487.00 87976.60 297.47
912 23.2310 92592.00 91033.50 304.29
913 23.2510 93242.00 90604.00 305.36
914 23.2710 87666.00 86154.10 296.08
915 23.2910 78136.00 78095.20 279.53
916 23.3110 68695.00 67766.20 262.10
917 23.3310 57333.00 56784.90 239.44
918 23.3510 46714.00 46430.90 216.13
919 23.3710 37542.00 37457.50 193.76
920 23.3910 30549.00 30174.00 174.78
921 23.4110 25234.00 24576.20 158.85
922 23.4310 21216.00 20467.90 145.66
923 23.4510 18017.00 17558.30 134.23
924 23.4710 16132.00 15543.20 127.01
925 23.4910 14304.00 14153.60 119.60
926 23.5110 13108.00 13180.90 114.49
927 23.5310 12633.00 12477.10 112.40
928 23.5510 11558.00 11945.70 107.51
929 23.5710 11285.00 11526.80 106.23
930 23.5910 10728.00 11184.60 103.58
931 23.6110 10542.00 10897.60 102.67
932 23.6310 10365.00 10652.70 101.81
933 23.6510 10058.00 10441.10 100.29
934 23.6710 10205.00 10257.00 101.02
935 23.6910 9706.00 10095.60 98.52
936 23.7110 9551.00 9948.72 97.73
937 23.7310 9843.00 9823.40 99.21
938 23.7510 9549.00 9712.42 97.72
939 23.7710 9407.00 9614.02 96.99
940 23.7910 9622.00 9541.96 98.09
941 23.8110 9452.00 9465.06 97.22
942 23.8310 9219.00 9397.46 96.02
943 23.8510 9255.00 9338.60 96.20
944 23.8710 9138.00 9288.16 95.59
945 23.8910 9255.00 9245.97 96.20
946 23.9110 9036.00 9212.06 95.06
947 23.9310 9171.00 9186.55 95.77
948 23.9510 8849.00 9169.67 94.07
949 23.9710 9195.00 9161.67 95.89
950 23.9910 8982.00 9162.83 94.77
951 24.0110 9034.00 9173.49 95.05
952 24.0310 9278.00 9194.04 96.32
953 24.0510 9233.00 9225.06 96.09
954 24.0710 9114.00 9267.30 95.47
955 24.0910 9386.00 9321.71 96.88
956 24.1110 9120.00 9389.36 95.50
957 24.1310 9426.00 9471.28 97.09
958 24.1510 9423.00 9568.19 97.07
959 24.1710 9243.00 9680.18 96.14
960 24.1910 9574.00 9806.18 97.85
961 24.2110 9576.00 9943.46 97.86
962 24.2310 9743.00 10087.20 98.71
963 24.2510 9895.00 10230.10 99.47
964 24.2710 9715.00 10362.20 98.56
965 24.2910 10061.00 10470.90 100.31
966 24.3110 9963.00 10538.30 99.81
967 24.3310 10107.00 10556.70 100.53
968 24.3510 10238.00 10512.00 101.18
969 24.3710 10066.00 10402.30 100.33
970 24.3910 9888.00 10238.20 99.44
971 24.4110 9876.00 10040.10 99.38
972 24.4310 10069.00 9831.14 100.34
973 24.4510 9661.00 9630.87 98.29
974 24.4710 9411.00 9453.08 97.01
975 24.4910 9181.00 9305.87 95.82
976 24.5110 9311.00 9193.15 96.49
977 24.5310 9179.00 9115.67 95.81
978 24.5510 9145.00 9072.16 95.63
979 24.5710 9305.00 9060.17 96.46
980 24.5910 8942.00 9076.90 94.56
981 24.6110 9046.00 9119.83 95.11
982 24.6310 9317.00 9187.15 96.52
983 24.6510 9315.00 9277.90 96.51
984 24.6710 9591.00 9391.92 97.93
985 24.6910 9553.00 9529.50 97.74
986 24.7110 9649.00 9690.77 98.23
987 24.7310 10093.00 9874.90 100.46
988 24.7510 9968.00 10079.20 99.84
989 24.7710 10412.00 10298.20 102.04
990 24.7910 10232.00 10522.60 101.15
991 24.8110 10475.00 10739.00 102.35
992 24.8310 10829.00 10929.30 104.06
993 24.8510 11154.00 11071.50 105.61
994 24.8710 10821.00 11141.30 104.02
995 24.8910 10784.00 11117.10 103.85
996 24.9110 10678.00 10988.20 103.33
997 24.9310 10742.00 10763.00 103.64
998 24.9510 10251.00 10469.00 101.25
999 24.9710 9760.00 10142.40 98.79
1000 24.9910 9695.00 9815.62 98.46
1001 25.0110 9650.00 9511.82 98.23
1002 25.0310 9446.00 9244.18 97.19
1003 25.0510 9199.00 9018.22 95.91
1004 25.0710 8932.00 8834.11 94.51
1005 25.0910 8765.00 8688.33 93.62
1006 25.1110 8718.00 8575.72 93.37
1007 25.1310 8491.00 8489.99 92.15
1008 25.1510 8550.00 8425.12 92.47
1009 25.1710 8814.00 8375.79 93.88
1010 25.1910 8700.00 8337.43 93.27
1011 25.2110 8492.00 8307.34 92.15
1012 25.2310 8454.00 8282.88 91.95
1013 25.2510 8531.00 8262.44 92.36
1014 25.2710 8577.00 8244.94 92.61
1015 25.2910 8348.00 8229.66 91.37
1016 25.3110 8254.00 8216.13 90.85
1017 25.3310 8028.00 8204.04 89.60
1018 25.3510 7996.00 8193.14 89.42
1019 25.3710 8452.00 8183.29 91.93
1020 25.3910 8450.00 8174.35 91.92
1021 25.4110 8262.00 8165.23 90.90
1022 25.4310 8319.00 8157.85 91.21
1023 25.4510 8428.00 8151.14 91.80
1024 25.4710 8508.00 8145.04 92.24
1025 25.4910 8491.00 8139.52 92.15
1026 25.5110 8357.00 8134.53 91.42
1027 25.5310 8069.00 8050.02 89.83
1028 25.5510 8178.00 8059.66 90.43
1029 25.5710 8450.00 8057.60 91.92
1030 25.5910 8014.00 8055.99 89.52
1031 25.6110 8239.00 8054.80 90.77
1032 25.6310 8362.00 8054.04 91.44
1033 25.6510 8400.00 8053.71 91.65
1034 25.6710 8087.00 8053.83 89.93
1035 25.6910 8329.00 8054.40 91.26
1036 25.7110 8474.00 8055.44 92.05
1037 25.7310 8470.00 8056.97 92.03
1038 25.7510 8357.00 8059.04 91.42
1039 25.7710 8385.00 8061.66 91.57
1040 25.7910 8584.00 8064.90 92.65
1041 25.8110 8592.00 8068.80 92.69
1042 25.8310 8129.00 8073.45 90.16
1043 25.8510 8353.00 8078.93 91.39
1044 25.8710 8353.00 8085.36 91.39
1045 25.8910 8114.00 8092.88 90.08
1046 25.9110 8116.00 8101.67 90.09
1047 25.9310 8231.00 8111.95 90.72
1048 25.9510 8498.00 8123.98 92.18
1049 25.9710 8346.00 8138.09 91.36
1050 25.9910 8331.00 8154.63 91.27
1051 26.0110 8335.00 8174.08 91.30
1052 26.0310 8244.00 8196.93 90.80
1053 26.0510 8175.00 8223.80 90.42
1054 26.0710 8073.00 8263.24 89.85
1055 26.0910 8286.00 8300.30 91.03
1056 26.1110 8523.00 8343.57 92.32
1057 26.1310 8522.00 8393.88 92.31
1058 26.1510 8505.00 8452.11 92.22
1059 26.1710 8542.00 8519.10 92.42
1060 26.1910 8752.00 8595.71 93.55
1061 26.2110 8825.00 8682.68 93.94
1062 26.2310 8994.00 8780.66 94.84
1063 26.2510 9082.00 8890.09 95.30
1064 26.2710 9192.00 9011.10 95.87
1065 26.2910 9011.00 9143.45 94.93
1066 26.3110 9105.00 9286.40 95.42
1067 26.3310 9200.00 9438.73 95.92
1068 26.3510 9141.00 9598.62 95.61
1069 26.3710 9313.00 9763.72 96.50
1070 26.3910 9594.00 9931.18 97.95
1071 26.4110 9642.00 10098.00 98.19
1072 26.4310 9999.00 10261.40 100.00
1073 26.4510 10442.00 10419.70 102.19
1074 26.4710 10313.00 10573.30 101.55
1075 26.4910 10720.00 10726.70 103.54
1076 26.5110 10479.00 10888.60 102.37
1077 26.5310 10821.00 11071.40 104.02
1078 26.5510 11358.00 11289.60 106.57
1079 26.5710 11766.00 11557.00 108.47
1080 26.5910 12031.00 11885.50 109.69
1081 26.6110 12594.00 12284.10 112.22
1082 26.6310 12916.00 12758.60 113.65
1083 26.6510 13182.00 13312.20 114.81
1084 26.6710 14107.00 13945.40 118.77
1085 26.6910 14878.00 14656.30 121.97
1086 26.7110 15454.00 15441.20 124.31
1087 26.7310 16187.00 16294.60 127.23
1088 26.7510 16762.00 17208.70 129.47
1089 26.7710 17765.00 18169.60 133.29
1090 26.7910 19048.00 19153.10 138.01
1091 26.8110 19677.00 20121.80 140.27
1092 26.8310 20713.00 21023.70 143.92
1093 26.8510 21459.00 21791.90 146.49
1094 26.8710 22063.00 22348.70 148.54
1095 26.8910 22037.00 22613.10 148.45
1096 26.9110 22273.00 22517.30 149.24
1097 26.9310 21716.00 22028.30 147.36
1098 26.9510 21490.00 21167.90 146.60
1099 26.9710 20503.00 20014.00 143.19
1100 26.9910 19340.00 18678.30 139.07
1101 27.0110 18179.00 17275.00 134.83
1102 27.0310 16832.00 15897.90 129.74
1103 27.0510 15108.00 14612.60 122.92
1104 27.0710 13888.00 13506.00 117.85
1105 27.0910 12846.00 12503.30 113.34
1106 27.1110 12238.00 11655.00 110.62
1107 27.1310 11334.00 10954.10 106.46
1108 27.1510 10925.00 10386.90 104.52
1109 27.1710 10560.00 9933.30 102.76
1110 27.1910 9825.00 9578.43 99.12
1111 27.2110 9532.00 9301.46 97.63
1112 27.2310 9596.00 9085.52 97.96
1113 27.2510 9237.00 8916.24 96.11
1114 27.2710 9136.00 8782.04 95.58
1115 27.2910 8795.00 8673.95 93.78
1116 27.3110 8496.00 8585.26 92.17
1117 27.3310 8486.00 8511.07 92.12
1118 27.3510 8481.00 8447.90 92.09
1119 27.3710 8413.00 8393.32 91.72
1120 27.3910 8490.00 8345.57 92.14
1121 27.4110 8434.00 8303.42 91.84
1122 27.4310 8606.00 8265.98 92.77
1123 27.4510 8378.00 8252.50 91.53
1124 27.4710 8280.00 8222.85 90.99
1125 27.4910 8221.00 8196.27 90.67
1126 27.5110 7974.00 8172.42 89.30
1127 27.5310 8077.00 8151.03 89.87
1128 27.5510 8026.00 8131.86 89.59
1129 27.5710 8404.00 8114.69 91.67
1130 27.5910 8198.00 8099.37 90.54
1131 27.6110 8031.00 8082.73 89.62
1132 27.6310 8133.00 8070.72 90.18
1133 27.6510 7907.00 8060.18 88.92
1134 27.6710 8268.00 8051.02 90.93
1135 27.6910 8241.00 8043.16 90.78
1136 27.7110 8121.00 8036.53 90.12
1137 27.7310 8263.00 8031.09 90.90
1138 27.7510 8272.00 8026.77 90.95
1139 27.7710 8222.00 8023.53 90.68
1140 27.7910 8276.00 8021.34 90.97
1141 27.8110 7945.00 8070.03 89.13
1142 27.8310 7845.00 8070.47 88.57
1143 27.8510 7923.00 8071.85 89.01
1144 27.8710 7920.00 8074.13 88.99
1145 27.8910 7960.00 8077.27 89.22
1146 27.9110 7891.00 8081.27 88.83
1147 27.9310 8015.00 8086.12 89.53
1148 27.9510 7715.00 8091.83 87.84
1149 27.9710 8064.00 8098.47 89.80
1150 27.9910 8129.00 8123.22 90.16
1151 28.0110 8136.00 8132.23 90.20
1152 28.0310 7895.00 8142.55 88.85
1153 28.0510 8106.00 8154.31 90.03
1154 28.0710 8174.00 8167.67 90.41
1155 28.0910 8112.00 8182.78 90.07
1156 28.1110 8054.00 8199.81 89.74
1157 28.1310 8076.00 8218.96 89.87
1158 28.1510 7998.00 8240.43 89.43
1159 28.1710 8352.00 8264.50 91.39
1160 28.1910 8272.00 8291.48 90.95
1161 28.2110 8138.00 8321.79 90.21
1162 28.2310 8082.00 8355.94 89.90
1163 28.2510 8148.00 8394.60 90.27
1164 28.2710 8233.00 8438.62 90.74
1165 28.2910 8343.00 8489.11 91.34
1166 28.3110 8228.00 8547.48 90.71
1167 28.3310 8752.00 8615.53 93.55
1168 28.3510 8595.00 8695.51 92.71
1169 28.3710 8781.00 8790.21 93.71
1170 28.3910 8730.00 8903.06 93.43
1171 28.4110 9012.00 9038.22 94.93
1172 28.4310 9201.00 9200.61 95.92
1173 28.4510 9705.00 9396.02 98.51
1174 28.4710 9867.00 9631.00 99.33
1175 28.4910 10276.00 9912.93 101.37
1176 28.5110 10643.00 10249.70 103.17
1177 28.5310 11003.00 10649.30 104.89
1178 28.5510 11373.00 11119.90 106.64
1179 28.5710 11519.00 11672.50 107.33
1180 28.5910 12279.00 12305.90 110.81
1181 28.6110 13081.00 13028.10 114.37
1182 28.6310 14022.00 13840.50 118.42
1183 28.6510 15237.00 14740.20 123.44
1184 28.6710 15838.00 15719.50 125.85
1185 28.6910 16649.00 16763.30 129.03
1186 28.7110 18288.00 17849.40 135.23
1187 28.7310 18910.00 18945.90 137.51
1188 28.7510 20439.00 20012.30 142.96
1189 28.7710 21061.00 20999.00 145.12
1190 28.7910 22223.00 21848.80 149.07
1191 28.8110 23210.00 22503.60 152.35
1192 28.8310 23140.00 22914.20 152.12
1193 28.8510 23324.00 23054.70 152.72
1194 28.8710 22570.00 22934.80 150.23
1195 28.8910 23040.00 22598.50 151.79
1196 28.9110 21527.00 22108.60 146.72
1197 28.9310 21593.00 21524.60 146.95
1198 28.9510 20848.00 20886.30 144.39
1199 28.9710 20197.00 20208.90 142.12
1200 28.9910 19684.00 19487.90 140.30
1201 29.0110 19270.00 18712.30 138.82
1202 29.0310 18076.00 17880.50 134.45
1203 29.0510 16910.00 17011.60 130.04
1204 29.0710 16392.00 16144.90 128.03
1205 29.0910 15274.00 15325.80 123.59
1206 29.1110 14563.00 14592.80 120.68
1207 29.1310 14042.00 13971.10 118.50
1208 29.1510 13522.00 13472.00 116.28
1209 29.1710 12976.00 13096.30 113.91
1210 29.1910 12373.00 12838.30 111.23
1211 29.2110 12586.00 12688.00 112.19
1212 29.2310 12680.00 12634.10 112.61
1213 29.2510 12776.00 12665.30 113.03
1214 29.2710 12409.00 12773.50 111.40
1215 29.2910 12232.00 12954.80 110.60
1216 29.3110 12831.00 13213.00 113.27
1217 29.3310 13073.00 13561.30 114.34
1218 29.3510 13516.00 14023.00 116.26
1219 29.3710 14020.00 14629.80 118.41
1220 29.3910 15065.00 15419.00 122.74
1221 29.4110 16067.00 16429.00 126.76
1222 29.4310 17480.00 17697.40 132.21
1223 29.4510 18455.00 19260.80 135.85
1224 29.4710 20861.00 21153.40 144.43
1225 29.4910 22868.00 23406.40 151.22
1226 29.5110 24325.00 26042.20 155.96
1227 29.5310 27579.00 29064.50 166.07
1228 29.5510 31351.00 32449.20 177.06
1229 29.5710 35305.00 36125.60 187.90
1230 29.5910 38951.00 39970.50 197.36
1231 29.6110 43136.00 43787.40 207.69
1232 29.6310 48333.00 47307.50 219.85
1233 29.6510 52034.00 50185.50 228.11
1234 29.6710 53596.00 52024.30 231.51
1235 29.6910 53679.00 52437.30 231.69
1236 29.7110 52814.00 51178.00 229.81
1237 29.7310 49211.00 48291.60 221.84
1238 29.7510 44254.00 44158.00 210.37
1239 29.7710 39539.00 39353.40 198.84
1240 29.7910 34289.00 34434.60 185.17
1241 29.8110 29384.00 29809.60 171.42
1242 29.8310 25413.00 25718.60 159.41
1243 29.8510 22052.00 22270.20 148.50
1244 29.8710 19653.00 19482.40 140.19
1245 29.8910 17249.00 17311.40 131.34
1246 29.9110 15847.00 15678.80 125.89
1247 29.9310 14749.00 14493.30 121.44
1248 29.9510 13685.00 13663.70 116.98
1249 29.9710 13230.00 13110.70 115.02
1250 29.9910 12590.00 12769.90 112.21
1251 30.0110 12215.00 12598.30 110.52
1252 30.0310 12443.00 12564.50 111.55
1253 30.0510 12465.00 12650.90 111.65
1254 30.0710 13039.00 12849.30 114.19
1255 30.0910 13068.00 13157.30 114.32
1256 30.1110 13519.00 13560.90 116.27
1257 30.1310 13995.00 14092.50 118.30
1258 30.1510 14698.00 14737.40 121.24
1259 30.1710 15475.00 15494.10 124.40
1260 30.1910 15978.00 16357.60 126.40
1261 30.2110 17049.00 17313.80 130.57
1262 30.2310 17369.00 18345.10 131.79
1263 30.2510 18694.00 19424.70 136.73
1264 30.2710 20018.00 20516.40 141.49
1265 30.2910 20931.00 21576.60 144.68
1266 30.3110 22064.00 22553.60 148.54
1267 30.3310 22349.00 23393.00 149.50
1268 30.3510 23316.00 24037.80 152.70
1269 30.3710 24084.00 24436.60 155.19
1270 30.3910 24614.00 24551.50 156.89
1271 30.4110 23814.00 24373.70 154.32
1272 30.4310 23474.00 23934.20 153.21
1273 30.4510 23349.00 23305.40 152.80
1274 30.4710 22627.00 22587.20 150.42
1275 30.4910 22166.00 21887.80 148.88
1276 30.5110 22213.00 21308.60 149.04
1277 30.5310 21947.00 20938.10 148.15
1278 30.5510 21553.00 20843.00 146.81
1279 30.5710 21962.00 21082.00 148.20
1280 30.5910 22703.00 21700.20 150.68
1281 30.6110 23572.00 22731.10 153.53
1282 30.6310 24925.00 24197.50 157.88
1283 30.6510 26554.00 26108.80 162.95
1284 30.6710 28807.00 28460.30 169.73
1285 30.6910 30641.00 31228.30 175.05
1286 30.7110 33170.00 34365.60 182.13
1287 30.7310 36826.00 37793.20 191.90
1288 30.7510 39529.00 41397.50 198.82
1289 30.7710 42672.00 45023.10 206.57
1290 30.7910 46976.00 48467.20 216.74
1291 30.8110 50606.00 51482.60 224.96
1292 30.8310 53686.00 53783.00 231.70
1293 30.8510 54840.00 55068.70 234.18
1294 30.8710 55703.00 55085.40 236.01
1295 30.8910 53878.00 53707.50 232.12
1296 30.9110 50955.00 51013.50 225.73
1297 30.9310 47698.00 47288.10 218.40
1298 30.9510 43614.00 42939.30 208.84
1299 30.9710 38369.00 38373.20 195.88
1300 30.9910 34441.00 33914.40 185.58
1301 31.0110 29847.00 29784.50 172.76
1302 31.0310 26002.00 26108.90 161.25
1303 31.0510 22815.00 22944.60 151.05
1304 31.0710 20103.00 20296.30 141.79
1305 31.0910 18331.00 18134.90 135.39
1306 31.1110 16420.00 16409.50 128.14
1307 31.1310 14807.00 15059.20 121.68
1308 31.1510 13915.00 14019.80 117.96
1309 31.1710 12912.00 13231.00 113.63
1310 31.1910 12212.00 12640.60 110.51
1311 31.2110 12087.00 12205.60 109.94
1312 31.2310 12089.00 11893.50 109.95
1313 31.2510 11920.00 11680.80 109.18
1314 31.2710 11424.00 11552.10 106.88
1315 31.2910 11711.00 11499.00 108.22
1316 31.3110 11269.00 11527.10 106.16
1317 31.3310 11838.00 11619.20 108.80
1318 31.3510 11959.00 11788.00 109.36
1319 31.3710 12189.00 12040.00 110.40
1320 31.3910 12339.00 12382.20 111.08
1321 31.4110 12868.00 12822.70 113.44
1322 31.4310 13649.00 13368.80 116.83
1323 31.4510 14068.00 14026.50 118.61
1324 31.4710 15223.00 14798.40 123.38
1325 31.4910 16132.00 15683.20 127.01
1326 31.5110 16910.00 16675.10 130.04
1327 31.5310 17427.00 17761.10 132.01
1328 31.5510 18556.00 18922.20 136.22
1329 31.5710 20174.00 20131.00 142.04
1330 31.5910 21340.00 21352.00 146.08
1331 31.6110 22291.00 22541.20 149.30
1332 31.6310 23472.00 23645.10 153.21
1333 31.6510 24541.00 24603.40 156.66
1334 31.6710 25574.00 25353.50 159.92
1335 31.6910 25219.00 25828.60 158.80
1336 31.7110 24952.00 25982.10 157.96
1337 31.7310 24943.00 25792.10 157.93
1338 31.7510 24048.00 25273.70 155.07
1339 31.7710 22935.00 24479.50 151.44
1340 31.7910 21758.00 23487.90 147.51
1341 31.8110 20713.00 22384.30 143.92
1342 31.8310 19496.00 21244.90 139.63
1343 31.8510 18096.00 20126.70 134.52
1344 31.8710 17711.00 19066.20 133.08
1345 31.8910 17280.00 18080.00 131.45
1346 31.9110 16543.00 17168.70 128.62
1347 31.9310 16340.00 16322.60 127.83
1348 31.9510 15489.00 15525.30 124.46
1349 31.9710 14814.00 14761.90 121.71
1350 31.9910 14262.00 14023.10 119.42
1351 32.0110 13481.00 13303.70 116.11
1352 32.0310 12373.00 12623.20 111.23
1353 32.0510 12204.00 11986.40 110.47
1354 32.0710 11648.00 11403.10 107.93
1355 32.0910 10952.00 10878.40 104.65
1356 32.1110 10662.00 10414.40 103.26
1357 32.1310 10012.00 10009.20 100.06
1358 32.1510 9435.00 9659.62 97.13
1359 32.1710 9312.00 9360.86 96.50
1360 32.1910 9143.00 9095.19 95.62
1361 32.2110 8682.00 8881.64 93.18
1362 32.2310 8352.00 8702.06 91.39
1363 32.2510 8059.00 8551.10 89.77
1364 32.2710 7899.00 8423.78 88.88
1365 32.2910 7928.00 8315.74 89.04
1366 32.3110 7993.00 8223.24 89.40
1367 32.3310 8049.00 8143.24 89.72
1368 32.3510 7971.00 8073.24 89.28
1369 32.3710 7706.00 8010.77 87.78
1370 32.3910 7840.00 7909.91 88.54
1371 32.4110 7781.00 7860.56 88.21
1372 32.4310 7774.00 7815.71 88.17
1373 32.4510 7502.00 7774.67 86.61
1374 32.4710 7661.00 7736.92 87.53
1375 32.4910 7650.00 7702.07 87.46
1376 32.5110 8044.00 7685.43 89.69
1377 32.5310 7830.00 7655.63 88.49
1378 32.5510 7641.00 7627.89 87.41
1379 32.5710 7511.00 7602.02 86.67
1380 32.5910 7372.00 7577.86 85.86
1381 32.6110 7331.00 7555.27 85.62
1382 32.6310 7294.00 7534.11 85.40
1383 32.6510 7704.00 7514.28 87.77
1384 32.6710 7453.00 7494.19 86.33
1385 32.6910 7520.00 7476.74 86.72
1386 32.7110 7608.00 7460.36 87.22
1387 32.7310 7653.00 7444.97 87.48
1388 32.7510 7296.00 7430.53 85.42
1389 32.7710 7242.00 7416.97 85.10
1390 32.7910 7196.00 7404.25 84.83
1391 32.8110 7294.00 7392.32 85.40
1392 32.8310 7445.00 7381.17 86.28
1393 32.8510 7671.00 7370.74 87.58
1394 32.8710 7398.00 7361.04 86.01
1395 32.8910 7386.00 7352.03 85.94
1396 32.9110 7557.00 7343.71 86.93
1397 32.9310 7720.00 7336.07 87.86
1398 32.9510 7470.00 7329.11 86.43
1399 32.9710 7173.00 7322.86 84.69
1400 32.9910 7396.00 7317.33 86.00
1401 33.0110 7101.00 7312.55 84.27
1402 33.0310 7237.00 7308.58 85.07
1403 33.0510 7284.00 7305.50 85.35
1404 33.0710 7351.00 7303.40 85.74
1405 33.0910 7508.00 7302.41 86.65
1406 33.1110 7436.00 7302.68 86.23
1407 33.1310 7458.00 7304.43 86.36
1408 33.1510 6897.00 7307.90 83.05
1409 33.1710 7271.00 7313.40 85.27
1410 33.1910 7471.00 7321.28 86.43
1411 33.2110 7832.00 7331.20 88.50
1412 33.2310 7455.00 7345.15 86.34
1413 33.2510 7631.00 7362.85 87.36
1414 33.2710 7645.00 7384.82 87.44
1415 33.2910 7482.00 7411.56 86.50
1416 33.3110 7369.00 7443.49 85.84
1417 33.3310 7439.00 7480.91 86.25
1418 33.3510 7241.00 7523.90 85.09
1419 33.3710 7593.00 7572.35 87.14
1420 33.3910 7870.00 7625.75 88.71
1421 33.4110 7698.00 7683.32 87.74
1422 33.4310 7859.00 7743.76 88.65
1423 33.4510 7915.00 7805.42 88.97
1424 33.4710 7916.00 7866.08 88.97
1425 33.4910 7847.00 7923.10 88.58
1426 33.5110 7894.00 7973.33 88.85
1427 33.5310 8144.00 8013.44 90.24
1428 33.5510 7972.00 8040.14 89.29
1429 33.5710 7972.00 8050.95 89.29
1430 33.5910 8096.00 8044.92 89.98
1431 33.6110 7791.00 8023.16 88.27
1432 33.6310 7832.00 7988.79 88.50
1433 33.6510 8241.00 7946.20 90.78
1434 33.6710 8127.00 7900.11 90.15
1435 33.6910 8196.00 7854.99 90.53
1436 33.7110 7906.00 7814.26 88.92
1437 33.7310 7603.00 7780.94 87.20
1438 33.7510 7756.00 7757.33 88.07
1439 33.7710 7914.00 7745.27 88.96
1440 33.7910 7905.00 7746.28 88.91
1441 33.8110 7754.00 7761.69 88.06
1442 33.8310 7933.00 7781.66 89.07
1443 33.8510 7694.00 7829.53 87.72
1444 33.8710 8025.00 7895.18 89.58
1445 33.8910 7949.00 7979.48 89.16
1446 33.9110 8091.00 8083.08 89.95
1447 33.9310 8209.00 8206.20 90.60
1448 33.9510 8252.00 8348.70 90.84
1449 33.9710 8532.00 8509.73 92.37
1450 33.9910 8629.00 8687.87 92.89
1451 34.0110 8774.00 8831.93 93.67
1452 34.0310 9111.00 9037.75 95.45
1453 34.0510 9472.00 9252.15 97.32
1454 34.0710 9335.00 9471.12 96.62
1455 34.0910 9627.00 9687.28 98.12
1456 34.1110 9920.00 9902.54 99.60
1457 34.1310 10191.00 10111.00 100.95
1458 34.1510 10775.00 10312.40 103.80
1459 34.1710 10305.00 10511.10 101.51
1460 34.1910 10817.00 10716.80 104.00
1461 34.2110 11311.00 10944.20 106.35
1462 34.2310 11174.00 11210.00 105.71
1463 34.2510 11714.00 11529.40 108.23
1464 34.2710 12000.00 11912.50 109.54
1465 34.2910 12738.00 12366.00 112.86
1466 34.3110 13266.00 12878.10 115.18
1467 34.3310 13885.00 13437.80 117.83
1468 34.3510 14949.00 14021.20 122.27
1469 34.3710 15053.00 14594.80 122.69
1470 34.3910 15512.00 15118.90 124.55
1471 34.4110 15743.00 15534.20 125.47
1472 34.4310 16025.00 15788.20 126.59
1473 34.4510 15594.00 15830.30 124.88
1474 34.4710 15139.00 15629.50 123.04
1475 34.4910 14684.00 15189.10 121.18
1476 34.5110 13693.00 14550.90 117.02
1477 34.5310 12949.00 13782.70 113.79
1478 34.5510 12250.00 12957.50 110.68
1479 34.5710 11214.00 12137.30 105.90
1480 34.5910 10468.00 11365.30 102.31
1481 34.6110 10021.00 10668.50 100.11
1482 34.6310 9626.00 10059.70 98.11
1483 34.6510 8987.00 9542.56 94.80
1484 34.6710 8557.00 9113.82 92.50
1485 34.6910 8251.00 8766.09 90.83
1486 34.7110 7751.00 8489.24 88.04
1487 34.7310 8101.00 8272.36 90.01
1488 34.7510 8165.00 8104.55 90.36
1489 34.7710 7891.00 7976.00 88.83
1490 34.7910 7810.00 7878.17 88.37
1491 34.8110 7558.00 7804.17 86.94
1492 34.8310 7592.00 7748.66 87.13
1493 34.8510 7582.00 7707.63 87.07
1494 34.8710 7788.00 7678.22 88.25
1495 34.8910 7569.00 7658.42 87.00
1496 34.9110 7638.00 7646.92 87.40
1497 34.9310 7480.00 7644.95 86.49
1498 34.9510 7344.00 7647.87 85.70
1499 34.9710 7681.00 7657.52 87.64
1500 34.9910 7617.00 7673.84 87.28
1501 35.0110 7730.00 7697.00 87.92
1502 35.0310 7486.00 7727.29 86.52
1503 35.0510 7796.00 7765.24 88.29
1504 35.0710 7805.00 7811.56 88.35
1505 35.0910 7846.00 7867.29 88.58
1506 35.1110 7662.00 7933.83 87.53
1507 35.1310 7925.00 8013.14 89.02
1508 35.1510 8041.00 8107.85 89.67
1509 35.1710 8005.00 8221.50 89.47
1510 35.1910 8386.00 8358.79 91.58
1511 35.2110 8517.00 8525.70 92.29
1512 35.2310 8786.00 8729.77 93.73
1513 35.2510 8824.00 8979.95 93.94
1514 35.2710 9642.00 9286.82 98.19
1515 35.2910 10022.00 9662.34 100.11
1516 35.3110 10423.00 10119.60 102.09
1517 35.3310 10868.00 10672.00 104.25
1518 35.3510 11294.00 11332.40 106.27
1519 35.3710 12406.00 12111.30 111.38
1520 35.3910 13419.00 13015.50 115.84
1521 35.4110 14332.00 14041.10 119.72
1522 35.4310 15886.00 15187.30 126.04
1523 35.4510 17095.00 16455.40 130.75
1524 35.4710 18442.00 17765.40 135.80
1525 35.4910 19864.00 19094.20 140.94
1526 35.5110 20573.00 20362.80 143.43
1527 35.5310 21442.00 21527.50 146.43
1528 35.5510 22451.00 22478.90 149.84
1529 35.5710 22959.00 23117.40 151.52
1530 35.5910 22857.00 23349.30 151.18
1531 35.6110 22410.00 23111.30 149.70
1532 35.6310 21352.00 22397.50 146.12
1533 35.6510 20025.00 21273.90 141.51
1534 35.6710 18317.00 19864.40 135.34
1535 35.6910 17183.00 18311.10 131.08
1536 35.7110 15432.00 16741.10 124.23
1537 35.7310 14184.00 15246.10 119.10
1538 35.7510 13076.00 13884.50 114.35
1539 35.7710 12275.00 12689.20 110.79
1540 35.7910 11270.00 11663.80 106.16
1541 35.8110 10624.00 10807.20 103.07
1542 35.8310 10112.00 10106.30 100.56
1543 35.8510 9800.00 9542.12 98.99
1544 35.8710 8972.00 9093.88 94.72
1545 35.8910 8694.00 8740.32 93.24
1546 35.9110 8825.00 8462.11 93.94
1547 35.9310 8258.00 8242.35 90.87
1548 35.9510 8243.00 8067.06 90.79
1549 35.9710 7976.00 7925.39 89.31
1550 35.9910 7964.00 7808.92 89.24
1551 36.0110 7541.00 7711.53 86.84
1552 36.0310 7452.00 7628.69 86.32
1553 36.0510 7826.00 7557.19 88.46
1554 36.0710 7740.00 7494.71 87.98
1555 36.0910 7604.00 7439.58 87.20
1556 36.1110 7354.00 7390.55 85.76
1557 36.1310 7447.00 7346.69 86.30
1558 36.1510 7319.00 7309.42 85.55
1559 36.1710 7158.00 7273.86 84.61
1560 36.1910 7370.00 7241.66 85.85
1561 36.2110 7282.00 7212.44 85.33
1562 36.2310 7262.00 7185.85 85.22
1563 36.2510 7328.00 7161.60 85.60
1564 36.2710 7115.00 7139.45 84.35
1565 36.2910 7141.00 7119.15 84.50
1566 36.3110 7008.00 7100.53 83.71
1567 36.3310 7135.00 7085.49 84.47
1568 36.3510 6840.00 7069.74 82.70
1569 36.3710 7342.00 7055.22 85.69
1570 36.3910 7100.00 7041.83 84.26
1571 36.4110 7250.00 7029.49 85.15
1572 36.4310 7395.00 7018.15 85.99
1573 36.4510 7310.00 7007.73 85.50
1574 36.4710 7243.00 6998.21 85.11
1575 36.4910 7288.00 6989.52 85.37
1576 36.5110 7091.00 6981.65 84.21
1577 36.5310 7070.00 6974.55 84.08
1578 36.5510 7202.00 6968.19 84.86
1579 36.5710 7011.00 6965.50 83.73
1580 36.5910 7109.00 6960.61 84.31
1581 36.6110 7126.00 6956.43 84.42
1582 36.6310 7081.00 6952.95 84.15
1583 36.6510 7058.00 6950.18 84.01
1584 36.6710 7205.00 6948.12 84.88
1585 36.6910 6981.00 6946.81 83.55
1586 36.7110 7060.00 6946.25 84.02
1587 36.7310 7369.00 6946.48 85.84
1588 36.7510 6906.00 6947.51 83.10
1589 36.7710 7152.00 6949.36 84.57
1590 36.7910 7110.00 6952.05 84.32
1591 36.8110 7600.00 6955.58 87.18
1592 36.8310 7174.00 6959.95 84.70
1593 36.8510 7312.00 6965.14 85.51
1594 36.8710 7421.00 6971.12 86.15
1595 36.8910 7195.00 6977.84 84.82
1596 36.9110 7148.00 6985.25 84.55
1597 36.9310 7235.00 6993.28 85.06
1598 36.9510 7270.00 7001.85 85.26
1599 36.9710 7279.00 7010.89 85.32
1600 36.9910 7035.00 7020.28 83.87
1601 37.0110 7041.00 7029.40 83.91
1602 37.0310 7170.00 7039.21 84.68
1603 37.0510 7085.00 7049.12 84.17
1604 37.0710 7377.00 7059.13 85.89
1605 37.0910 7180.00 7069.39 84.73
1606 37.1110 7245.00 7080.15 85.12
1607 37.1310 7312.00 7091.82 85.51
1608 37.1510 7311.00 7104.95 85.50
1609 37.1710 7070.00 7120.22 84.08
1610 37.1910 7151.00 7138.39 84.56
1611 37.2110 7302.00 7160.34 85.45
1612 37.2310 7488.00 7187.06 86.53
1613 37.2510 7543.00 7219.68 86.85
1614 37.2710 7675.00 7259.45 87.61
1615 37.2910 7598.00 7307.84 87.17
1616 37.3110 7765.00 7366.41 88.12
1617 37.3310 7472.00 7436.88 86.44
1618 37.3510 7891.00 7520.99 88.83
1619 37.3710 8212.00 7620.55 90.62
1620 37.3910 8101.00 7737.22 90.01
1621 37.4110 8475.00 7872.58 92.06
1622 37.4310 8467.00 8027.80 92.02
1623 37.4510 8559.00 8203.82 92.51
1624 37.4710 8722.00 8400.94 93.39
1625 37.4910 8868.00 8618.67 94.17
1626 37.5110 9266.00 8855.80 96.26
1627 37.5310 9434.00 9110.10 97.13
1628 37.5510 9561.00 9378.93 97.78
1629 37.5710 9984.00 9659.37 99.92
1630 37.5910 9887.00 9949.01 99.43
1631 37.6110 10380.00 10246.60 101.88
1632 37.6310 10579.00 10546.80 102.85
1633 37.6510 10796.00 10845.50 103.90
1634 37.6710 11044.00 11126.00 105.09
1635 37.6910 11061.00 11396.10 105.17
1636 37.7110 11225.00 11635.40 105.95
1637 37.7310 11414.00 11832.70 106.84
1638 37.7510 11176.00 11978.00 105.72
1639 37.7710 11706.00 12062.60 108.19
1640 37.7910 11504.00 12079.10 107.26
1641 37.8110 11487.00 12021.90 107.18
1642 37.8310 11738.00 11891.70 108.34
1643 37.8510 11169.00 11691.00 105.68
1644 37.8710 11196.00 11442.20 105.81
1645 37.8910 10957.00 11165.30 104.68
1646 37.9110 10466.00 10885.60 102.30
1647 37.9310 10577.00 10624.20 102.85
1648 37.9510 9895.00 10396.40 99.47
1649 37.9710 10058.00 10210.50 100.29
1650 37.9910 10026.00 10068.40 100.13
1651 38.0110 9854.00 9966.05 99.27
1652 38.0310 10022.00 9895.59 100.11
1653 38.0510 9924.00 9844.18 99.62
1654 38.0710 9743.00 9796.44 98.71
1655 38.0910 9792.00 9735.93 98.95
1656 38.1110 9792.00 9648.24 98.95
1657 38.1310 9722.00 9524.73 98.60
1658 38.1510 9485.00 9365.61 97.39
1659 38.1710 9221.00 9179.77 96.03
1660 38.1910 9358.00 8980.99 96.74
1661 38.2110 8940.00 8783.44 94.55
1662 38.2310 8769.00 8598.39 93.64
1663 38.2510 8714.00 8433.49 93.35
1664 38.2710 8716.00 8293.10 93.36
1665 38.2910 8498.00 8179.20 92.18
1666 38.3110 8483.00 8092.14 92.10
1667 38.3310 8097.00 8031.21 89.98
1668 38.3510 7873.00 7995.08 88.73
1669 38.3710 8197.00 7986.31 90.54
1670 38.3910 8235.00 7995.04 90.75
1671 38.4110 8235.00 8024.01 90.75
1672 38.4310 8530.00 8072.25 92.36
1673 38.4510 8625.00 8139.24 92.87
1674 38.4710 8534.00 8225.06 92.38
1675 38.4910 8908.00 8330.31 94.38
1676 38.5110 9262.00 8456.24 96.24
1677 38.5310 9217.00 8604.77 96.01
1678 38.5510 9615.00 8778.41 98.06
1679 38.5710 9836.00 8986.30 99.18
1680 38.5910 9968.00 9221.65 99.84
1681 38.6110 10131.00 9496.19 100.65
1682 38.6310 10651.00 9817.80 103.20
1683 38.6510 10964.00 10196.00 104.71
1684 38.6710 11311.00 10640.60 106.35
1685 38.6910 11659.00 11161.30 107.98
1686 38.7110 11907.00 11765.60 109.12
1687 38.7310 13285.00 12458.40 115.26
1688 38.7510 13715.00 13225.50 117.11
1689 38.7710 14364.00 14095.20 119.85
1690 38.7910 14859.00 15043.50 121.90
1691 38.8110 15176.00 16056.20 123.19
1692 38.8310 16674.00 17112.20 129.13
1693 38.8510 17974.00 18183.90 134.07
1694 38.8710 18699.00 19235.80 136.74
1695 38.8910 19501.00 20226.00 139.65
1696 38.9110 20173.00 21106.30 142.03
1697 38.9310 21094.00 21825.10 145.24
1698 38.9510 22053.00 22332.20 148.50
1699 38.9710 22328.00 22584.20 149.43
1700 38.9910 22249.00 22553.80 149.16
1701 39.0110 22235.00 22236.90 149.11
1702 39.0310 21328.00 21655.70 146.04
1703 39.0510 20843.00 20857.60 144.37
1704 39.0710 19756.00 19896.40 140.56
1705 39.0910 18818.00 18837.60 137.18
1706 39.1110 17645.00 17738.20 132.83
1707 39.1310 16516.00 16645.60 128.51
1708 39.1510 15477.00 15595.00 124.41
1709 39.1710 14128.00 14611.70 118.86
1710 39.1910 13638.00 13710.90 116.78
1711 39.2110 12917.00 12901.20 113.65
1712 39.2310 12084.00 12184.70 109.93
1713 39.2510 11616.00 11559.80 107.78
1714 39.2710 11427.00 11020.90 106.90
1715 39.2910 10595.00 10559.90 102.93
1716 39.3110 10728.00 10167.90 103.58
1717 39.3310 10020.00 9835.05 100.10
1718 39.3510 9536.00 9552.08 97.65
1719 39.3710 9059.00 9310.68 95.18
1720 39.3910 8728.00 9104.29 93.42
1721 39.4110 8972.00 8927.82 94.72
1722 39.4310 8831.00 8777.79 93.97
1723 39.4510 8665.00 8651.52 93.09
1724 39.4710 8667.00 8546.97 93.10
1725 39.4910 8415.00 8462.68 91.73
1726 39.5110 8347.00 8394.76 91.36
1727 39.5310 8223.00 8345.93 90.68
1728 39.5510 8041.00 8312.23 89.67
1729 39.5710 8175.00 8291.66 90.42
1730 39.5910 8001.00 8282.04 89.45
1731 39.6110 8398.00 8280.98 91.64
1732 39.6310 8453.00 8285.88 91.94
1733 39.6510 8319.00 8294.03 91.21
1734 39.6710 8489.00 8302.61 92.14
1735 39.6910 8309.00 8308.95 91.15
1736 39.7110 8666.00 8310.71 93.09
1737 39.7310 8463.00 8306.39 91.99
1738 39.7510 8246.00 8295.73 90.81
1739 39.7710 8583.00 8280.09 92.64
1740 39.7910 8108.00 8262.27 90.04
1741 39.8110 8170.00 8246.02 90.39
1742 39.8310 8206.00 8235.35 90.59
1743 39.8510 8368.00 8233.99 91.48
1744 39.8710 8266.00 8244.97 90.92
1745 39.8910 8452.00 8270.57 91.93
1746 39.9110 8124.00 8312.36 90.13
1747 39.9310 8252.00 8371.19 90.84
1748 39.9510 8779.00 8447.37 93.70
1749 39.9710 8439.00 8540.58 91.86
1750 39.9910 8691.00 8649.95 93.23
1751 40.0110 8630.00 8774.09 92.90
1752 40.0310 8751.00 8910.97 93.55
1753 40.0510 9282.00 9058.10 96.34
1754 40.0710 9215.00 9212.35 95.99
1755 40.0910 9467.00 9370.19 97.30
1756 40.1110 9332.00 9527.57 96.60
1757 40.1310 9535.00 9680.46 97.65
1758 40.1510 9830.00 9824.79 99.15
1759 40.1710 9690.00 9957.14 98.44
1760 40.1910 10148.00 10074.90 100.74
1761 40.2110 10092.00 10176.80 100.46
1762 40.2310 9967.00 10262.50 99.83
1763 40.2510 10127.00 10332.60 100.63
1764 40.2710 9982.00 10387.60 99.91
1765 40.2910 9647.00 10427.80 98.22
1766 40.3110 9932.00 10452.20 99.66
1767 40.3310 9935.00 10459.00 99.67
1768 40.3510 10214.00 10445.50 101.06
1769 40.3710 9821.00 10408.90 99.10
1770 40.3910 10142.00 10347.70 100.71
1771 40.4110 9830.00 10263.10 99.15
1772 40.4310 9634.00 10159.20 98.15
1773 40.4510 9701.00 10043.30 98.49
1774 40.4710 9650.00 9924.72 98.23
1775 40.4910 9581.00 9813.70 97.88
1776 40.5110 9621.00 9719.57 98.09
1777 40.5310 9765.00 9650.18 98.82
1778 40.5510 10003.00 9611.33 100.01
1779 40.5710 9789.00 9606.78 98.94
1780 40.5910 9575.00 9638.30 97.85
1781 40.6110 9545.00 9705.74 97.70
1782 40.6310 10186.00 9807.18 100.93
1783 40.6510 10067.00 9938.81 100.33
1784 40.6710 10374.00 10095.10 101.85
1785 40.6910 10658.00 10268.80 103.24
1786 40.7110 10671.00 10455.40 103.30
1787 40.7310 11179.00 10635.80 105.73
1788 40.7510 11485.00 10803.30 107.17
1789 40.7710 11413.00 10946.80 106.83
1790 40.7910 11373.00 11056.10 106.64
1791 40.8110 11412.00 11123.10 106.83
1792 40.8310 11396.00 11142.50 106.75
1793 40.8510 11277.00 11112.00 106.19
1794 40.8710 11192.00 11032.90 105.79
1795 40.8910 10754.00 10909.40 103.70
1796 40.9110 10712.00 10748.40 103.50
1797 40.9310 10343.00 10560.40 101.70
1798 40.9510 10044.00 10356.20 100.22
1799 40.9710 10494.00 10147.00 102.44
1800 40.9910 9997.00 9943.34 99.99
1801 41.0110 9386.00 9753.68 96.88
1802 41.0310 9120.00 9584.41 95.50
1803 41.0510 8818.00 9439.54 93.90
1804 41.0710 9003.00 9321.08 94.88
1805 41.0910 9086.00 9229.10 95.32
1806 41.1110 9055.00 9162.07 95.16
1807 41.1310 8977.00 9116.96 94.75
1808 41.1510 9250.00 9089.58 96.18
1809 41.1710 9230.00 9074.65 96.07
1810 41.1910 9326.00 9066.12 96.57
1811 41.2110 9055.00 9057.40 95.16
1812 41.2310 8972.00 9041.65 94.72
1813 41.2510 8860.00 9012.22 94.13
1814 41.2710 9083.00 8963.33 95.30
1815 41.2910 8863.00 8890.99 94.14
1816 41.3110 8550.00 8790.74 92.47
1817 41.3310 8254.00 8674.37 90.85
1818 41.3510 8437.00 8535.45 91.85
1819 41.3710 8156.00 8388.24 90.31
1820 41.3910 8345.00 8237.79 91.35
1821 41.4110 8224.00 8105.95 90.69
1822 41.4310 7891.00 7966.26 88.83
1823 41.4510 7921.00 7837.31 89.00
1824 41.4710 7739.00 7720.96 87.97
1825 41.4910 7642.00 7618.05 87.42
1826 41.5110 7393.00 7528.71 85.98
1827 41.5310 7662.00 7452.69 87.53
1828 41.5510 7552.00 7389.26 86.90
1829 41.5710 7222.00 7337.51 84.98
1830 41.5910 7293.00 7296.50 85.40
1831 41.6110 7397.00 7265.27 86.01
1832 41.6310 7289.00 7242.98 85.38
1833 41.6510 7219.00 7228.92 84.96
1834 41.6710 7381.00 7220.59 85.91
1835 41.6910 7257.00 7221.72 85.19
1836 41.7110 7276.00 7230.18 85.30
1837 41.7310 7150.00 7246.04 84.56
1838 41.7510 7319.00 7269.51 85.55
1839 41.7710 7454.00 7300.92 86.34
1840 41.7910 7316.00 7340.60 85.53
1841 41.8110 7419.00 7388.21 86.13
1842 41.8310 7492.00 7445.37 86.56
1843 41.8510 7485.00 7511.43 86.52
1844 41.8710 7889.00 7586.17 88.82
1845 41.8910 7619.00 7668.97 87.29
1846 41.9110 7637.00 7758.79 87.39
1847 41.9310 7711.00 7853.99 87.81
1848 41.9510 7863.00 7952.45 88.67
1849 41.9710 7719.00 8051.27 87.86
1850 41.9910 8058.00 8147.04 89.77
1851 42.0110 7948.00 8235.77 89.15
1852 42.0310 8215.00 8313.22 90.64
1853 42.0510 8226.00 8375.28 90.70
1854 42.0710 8324.00 8418.67 91.24
1855 42.0910 8696.00 8441.53 93.25
1856 42.1110 8500.00 8444.11 92.20
1857 42.1310 8558.00 8428.73 92.51
1858 42.1510 8696.00 8399.42 93.25
1859 42.1710 8715.00 8361.05 93.35
1860 42.1910 8227.00 8318.43 90.70
1861 42.2110 8046.00 8275.69 89.70
1862 42.2310 8069.00 8236.01 89.83
1863 42.2510 7914.00 8201.60 88.96
1864 42.2710 8078.00 8175.54 89.88
1865 42.2910 7826.00 8155.53 88.46
1866 42.3110 8111.00 8144.00 90.06
1867 42.3310 8127.00 8141.84 90.15
1868 42.3510 7988.00 8150.35 89.38
1869 42.3710 7938.00 8171.25 89.10
1870 42.3910 7799.00 8206.66 88.31
1871 42.4110 8171.00 8258.96 90.39
1872 42.4310 8106.00 8330.52 90.03
1873 42.4510 8697.00 8423.64 93.26
1874 42.4710 8617.00 8540.23 92.83
1875 42.4910 8639.00 8681.87 92.95
1876 42.5110 8663.00 8849.63 93.08
1877 42.5310 9295.00 9044.06 96.41
1878 42.5510 9401.00 9264.96 96.96
1879 42.5710 9496.00 9511.53 97.45
1880 42.5910 9620.00 9781.96 98.08
1881 42.6110 9646.00 10073.70 98.21
1882 42.6310 10032.00 10383.40 100.16
1883 42.6510 10157.00 10706.90 100.78
1884 42.6710 10501.00 11039.30 102.47
1885 42.6910 10856.00 11374.60 104.19
1886 42.7110 11083.00 11706.30 105.28
1887 42.7310 11616.00 12026.70 107.78
1888 42.7510 11882.00 12328.10 109.00
1889 42.7710 12246.00 12603.20 110.66
1890 42.7910 12726.00 12846.90 112.81
1891 42.8110 12895.00 13056.80 113.56
1892 42.8310 13171.00 13234.30 114.76
1893 42.8510 13283.00 13383.50 115.25
1894 42.8710 13707.00 13509.50 117.08
1895 42.8910 14000.00 13616.30 118.32
1896 42.9110 14297.00 13705.40 119.57
1897 42.9310 14152.00 13783.00 118.96
1898 42.9510 14467.00 13826.50 120.28
1899 42.9710 15015.00 13836.00 122.54
1900 42.9910 14622.00 13802.30 120.92
1901 43.0110 14371.00 13717.40 119.88
1902 43.0310 14460.00 13576.60 120.25
1903 43.0510 13939.00 13380.30 118.06
1904 43.0710 13515.00 13134.80 116.25
1905 43.0910 13290.00 12851.50 115.28
1906 43.1110 12869.00 12545.40 113.44
1907 43.1310 12699.00 12232.50 112.69
1908 43.1510 12475.00 11927.60 111.69
1909 43.1710 11935.00 11643.20 109.25
1910 43.1910 11489.00 11388.20 107.19
1911 43.2110 11120.00 11168.30 105.45
1912 43.2310 10793.00 10985.70 103.89
1913 43.2510 10987.00 10842.50 104.82
1914 43.2710 10521.00 10730.10 102.57
1915 43.2910 10558.00 10645.40 102.75
1916 43.3110 10576.00 10564.60 102.84
1917 43.3310 10495.00 10510.60 102.44
1918 43.3510 10243.00 10456.80 101.21
1919 43.3710 10290.00 10392.50 101.44
1920 43.3910 10278.00 10308.60 101.38
1921 43.4110 9980.00 10198.40 99.90
1922 43.4310 9905.00 10059.10 99.52
1923 43.4510 9594.00 9892.33 97.95
1924 43.4710 9320.00 9703.15 96.54
1925 43.4910 9437.00 9499.10 97.14
1926 43.5110 9107.00 9288.24 95.43
1927 43.5310 8961.00 9078.14 94.66
1928 43.5510 8812.00 8874.92 93.87
1929 43.5710 8671.00 8683.28 93.12
1930 43.5910 8391.00 8506.41 91.60
1931 43.6110 8037.00 8346.49 89.65
1932 43.6310 7914.00 8203.95 88.96
1933 43.6510 8116.00 8080.71 90.09
1934 43.6710 8172.00 7976.09 90.40
1935 43.6910 7984.00 7889.84 89.35
1936 43.7110 7803.00 7821.40 88.33
1937 43.7310 7536.00 7770.16 86.81
1938 43.7510 7707.00 7734.71 87.79
1939 43.7710 7494.00 7715.91 86.57
1940 43.7910 7560.00 7712.46 86.95
1941 43.8110 7701.00 7723.93 87.76
1942 43.8310 7616.00 7749.98 87.27
1943 43.8510 7554.00 7790.34 86.91
1944 43.8710 7686.00 7844.77 87.67
1945 43.8910 7720.00 7913.04 87.86
1946 43.9110 7728.00 7994.72 87.91
1947 43.9310 7945.00 8089.25 89.13
1948 43.9510 8282.00 8195.70 91.01
1949 43.9710 8137.00 8312.76 90.21
1950 43.9910 8117.00 8450.27 90.09
1951 44.0110 8521.00 8582.29 92.31
1952 44.0310 8755.00 8717.14 93.57
1953 44.0510 8916.00 8850.80 94.42
1954 44.0710 9014.00 8978.39 94.94
1955 44.0910 8953.00 9094.55 94.62
1956 44.1110 8938.00 9193.57 94.54
1957 44.1310 9233.00 9283.21 96.09
1958 44.1510 9225.00 9333.06 96.05
1959 44.1710 9291.00 9353.23 96.39
1960 44.1910 9293.00 9343.05 96.40
1961 44.2110 9095.00 9304.09 95.37
1962 44.2310 9232.00 9240.00 96.08
1963 44.2510 9219.00 9156.05 96.02
1964 44.2710 8908.00 9058.32 94.38
1965 44.2910 9118.00 8953.02 95.49
1966 44.3110 8766.00 8845.89 93.63
1967 44.3310 8811.00 8741.96 93.87
1968 44.3510 8378.00 8645.33 91.53
1969 44.3710 8338.00 8559.40 91.31
1970 44.3910 8489.00 8486.91 92.14
1971 44.4110 8279.00 8430.26 90.99
1972 44.4310 8326.00 8391.61 91.25
1973 44.4510 8253.00 8373.13 90.85
1974 44.4710 8391.00 8377.22 91.60
1975 44.4910 8436.00 8406.67 91.85
1976 44.5110 8602.00 8464.86 92.75
1977 44.5310 8942.00 8555.89 94.56
1978 44.5510 8914.00 8684.70 94.41
1979 44.5710 8961.00 8857.18 94.66
1980 44.5910 9350.00 9079.94 96.70
1981 44.6110 9573.00 9360.30 97.84
1982 44.6310 10065.00 9705.80 100.32
1983 44.6510 10584.00 10126.90 102.88
1984 44.6710 11003.00 10623.10 104.89
1985 44.6910 11624.00 11201.40 107.82
1986 44.7110 12168.00 11859.70 110.31
1987 44.7310 12729.00 12598.00 112.82
1988 44.7510 13689.00 13402.90 117.00
1989 44.7710 14453.00 14255.60 120.22
1990 44.7910 15011.00 15129.20 122.52
1991 44.8110 15825.00 15987.90 125.80
1992 44.8310 16248.00 16789.30 127.47
1993 44.8510 17042.00 17486.90 130.54
1994 44.8710 17448.00 18036.30 132.09
1995 44.8910 18330.00 18399.50 135.39
1996 44.9110 18552.00 18551.10 136.21
1997 44.9310 18397.00 18482.50 135.64
1998 44.9510 18064.00 18207.00 134.40
1999 44.9710 17673.00 17759.30 132.94
2000 44.9910 17295.00 17188.80 131.51
2001 45.0110 16394.00 16548.20 128.04
2002 45.0310 15805.00 15882.80 125.72
2003 45.0510 15215.00 15224.30 123.35
2004 45.0710 14906.00 14595.20 122.09
2005 45.0910 14079.00 14004.30 118.65
2006 45.1110 13683.00 13454.00 116.97
2007 45.1310 12765.00 12942.50 112.98
2008 45.1510 12271.00 12465.70 110.78
2009 45.1710 11971.00 12019.70 109.41
2010 45.1910 11389.00 11600.90 106.72
2011 45.2110 11182.00 11205.70 105.75
2012 45.2310 10710.00 10837.30 103.49
2013 45.2510 10853.00 10493.90 104.18
2014 45.2710 10101.00 10174.40 100.50
2015 45.2910 9858.00 9883.38 99.29
2016 45.3110 9555.00 9617.28 97.75
2017 45.3310 9303.00 9380.44 96.45
2018 45.3510 9394.00 9170.73 96.92
2019 45.3710 8770.00 8987.84 93.65
2020 45.3910 8419.00 8831.42 91.76
2021 45.4110 8738.00 8700.89 93.48
2022 45.4310 8523.00 8595.67 92.32
2023 45.4510 8463.00 8514.96 91.99
2024 45.4710 8392.00 8458.02 91.61
2025 45.4910 8569.00 8423.94 92.57
2026 45.5110 8116.00 8411.74 90.09
2027 45.5310 8204.00 8420.27 90.58
2028 45.5510 8489.00 8448.16 92.14
2029 45.5710 8547.00 8493.71 92.45
2030 45.5910 8440.00 8554.79 91.87
2031 45.6110 8330.00 8628.72 91.27
2032 45.6310 8687.00 8712.22 93.20
2033 45.6510 8774.00 8801.29 93.67
2034 45.6710 8668.00 8891.23 93.10
2035 45.6910 8882.00 8976.63 94.24
2036 45.7110 8984.00 9051.41 94.78
2037 45.7310 9159.00 9110.62 95.70
2038 45.7510 9455.00 9143.50 97.24
2039 45.7710 9245.00 9145.10 96.15
2040 45.7910 9114.00 9110.56 95.47
2041 45.8110 8866.00 9038.70 94.16
2042 45.8310 8472.00 8933.15 92.04
2043 45.8510 8579.00 8801.96 92.62
2044 45.8710 8458.00 8655.51 91.97
2045 45.8910 8098.00 8504.19 89.99
2046 45.9110 7931.00 8356.53 89.06
2047 45.9310 7868.00 8218.81 88.70
2048 45.9510 7668.00 8094.95 87.57
2049 45.9710 7747.00 7987.26 88.02
2050 45.9910 7688.00 7896.79 87.68
2051 46.0110 7473.00 7823.65 86.45
2052 46.0310 7587.00 7767.45 87.10
2053 46.0510 7703.00 7727.39 87.77
2054 46.0710 7689.00 7702.53 87.69
2055 46.0910 7889.00 7691.92 88.82
2056 46.1110 7738.00 7694.72 87.97
2057 46.1310 7963.00 7710.27 89.24
2058 46.1510 7854.00 7738.16 88.62
2059 46.1710 8050.00 7778.29 89.72
2060 46.1910 7924.00 7832.22 89.02
2061 46.2110 8176.00 7896.96 90.42
2062 46.2310 8265.00 7975.78 90.91
2063 46.2510 8413.00 8068.97 91.72
2064 46.2710 8571.00 8177.52 92.58
2065 46.2910 8439.00 8302.59 91.86
2066 46.3110 8599.00 8445.34 92.73
2067 46.3310 8896.00 8606.81 94.32
2068 46.3510 9144.00 8787.90 95.62
2069 46.3710 9168.00 8988.96 95.75
2070 46.3910 9124.00 9208.38 95.52
2071 46.4110 9551.00 9447.29 97.73
2072 46.4310 9624.00 9701.37 98.10
2073 46.4510 9651.00 9966.22 98.24
2074 46.4710 9858.00 10237.60 99.29
2075 46.4910 10038.00 10501.50 100.19
2076 46.5110 10626.00 10750.00 103.08
2077 46.5310 10894.00 10970.60 104.37
2078 46.5510 10951.00 11151.30 104.65
2079 46.5710 11393.00 11281.40 106.74
2080 46.5910 11458.00 11354.90 107.04
2081 46.6110 11226.00 11371.10 105.95
2082 46.6310 11423.00 11335.60 106.88
2083 46.6510 11348.00 11258.10 106.53
2084 46.6710 11166.00 11150.20 105.67
2085 46.6910 10696.00 11022.90 103.42
2086 46.7110 11019.00 10885.80 104.97
2087 46.7310 10776.00 10746.50 103.81
2088 46.7510 10693.00 10610.40 103.41
2089 46.7710 10499.00 10481.30 102.46
2090 46.7910 10721.00 10361.20 103.54
2091 46.8110 10767.00 10250.70 103.76
2092 46.8310 10177.00 10149.80 100.88
2093 46.8510 10210.00 10057.60 101.04
2094 46.8710 10027.00 9974.84 100.14
2095 46.8910 10199.00 9902.03 100.99
2096 46.9110 9944.00 9841.34 99.72
2097 46.9310 9882.00 9796.05 99.41
2098 46.9510 9699.00 9770.20 98.48
2099 46.9710 9804.00 9767.56 99.02
2100 46.9910 9585.00 9792.97 97.90
2101 47.0110 9931.00 9849.53 99.65
2102 47.0310 10129.00 9940.21 100.64
2103 47.0510 10111.00 10067.60 100.55
2104 47.0710 10248.00 10233.80 101.23
2105 47.0910 10566.00 10440.80 102.79
2106 47.1110 10778.00 10690.30 103.82
2107 47.1310 10724.00 10984.00 103.56
2108 47.1510 11325.00 11323.60 106.42
2109 47.1710 11880.00 11711.10 109.00
2110 47.1910 11999.00 12149.20 109.54
2111 47.2110 12382.00 12641.40 111.27
2112 47.2310 13385.00 13193.30 115.69
2113 47.2510 13914.00 13811.70 117.96
2114 47.2710 14151.00 14505.00 118.96
2115 47.2910 15293.00 15280.90 123.67
2116 47.3110 15953.00 16143.80 126.31
2117 47.3310 16899.00 17090.90 130.00
2118 47.3510 18318.00 18105.90 135.34
2119 47.3710 19175.00 19170.30 138.47
2120 47.3910 20096.00 20241.20 141.76
2121 47.4110 21132.00 21266.50 145.37
2122 47.4310 22532.00 22186.90 150.11
2123 47.4510 22846.00 22947.10 151.15
2124 47.4710 23495.00 23501.90 153.28
2125 47.4910 24138.00 23824.30 155.36
2126 47.5110 24527.00 23900.00 156.61
2127 47.5310 23871.00 23720.20 154.50
2128 47.5510 23170.00 23277.20 152.22
2129 47.5710 23136.00 22571.50 152.10
2130 47.5910 22086.00 21624.70 148.61
2131 47.6110 20392.00 20486.10 142.80
2132 47.6310 19508.00 19227.10 139.67
2133 47.6510 18551.00 17925.70 136.20
2134 47.6710 17014.00 16651.20 130.44
2135 47.6910 15819.00 15454.10 125.77
2136 47.7110 14702.00 14362.40 121.25
2137 47.7310 13670.00 13402.10 116.92
2138 47.7510 12655.00 12574.10 112.49
2139 47.7710 11845.00 11876.20 108.83
2140 47.7910 10911.00 11300.50 104.46
2141 47.8110 10606.00 10837.00 102.99
2142 47.8310 10576.00 10470.80 102.84
2143 47.8510 10560.00 10194.60 102.76
2144 47.8710 10121.00 9992.88 100.60
2145 47.8910 9819.00 9853.62 99.09
2146 47.9110 9441.00 9765.37 97.16
2147 47.9310 9445.00 9717.56 97.19
2148 47.9510 9514.00 9700.17 97.54
2149 47.9710 9645.00 9703.67 98.21
2150 47.9910 9560.00 9718.78 97.78
2151 48.0110 9593.00 9736.39 97.94
2152 48.0310 9757.00 9747.75 98.78
2153 48.0510 9410.00 9744.88 97.01
2154 48.0710 9778.00 9721.29 98.88
2155 48.0910 9947.00 9672.88 99.73
2156 48.1110 9901.00 9598.55 99.50
2157 48.1310 9449.00 9500.42 97.21
2158 48.1510 9218.00 9383.28 96.01
2159 48.1710 9291.00 9253.69 96.39
2160 48.1910 9213.00 9118.68 95.98
2161 48.2110 8861.00 8984.85 94.13
2162 48.2310 8578.00 8857.87 92.62
2163 48.2510 8631.00 8742.08 92.90
2164 48.2710 8481.00 8640.77 92.09
2165 48.2910 8446.00 8556.00 91.90
2166 48.3110 8294.00 8489.03 91.07
2167 48.3310 8128.00 8440.21 90.16
2168 48.3510 8207.00 8409.19 90.59
2169 48.3710 8321.00 8394.83 91.22
2170 48.3910 8718.00 8395.33 93.37
2171 48.4110 8348.00 8408.14 91.37
2172 48.4310 8217.00 8426.95 90.65
2173 48.4510 8583.00 8454.27 92.64
2174 48.4710 8825.00 8485.62 93.94
2175 48.4910 8570.00 8511.34 92.57
2176 48.5110 8394.00 8522.65 91.62
2177 48.5310 8274.00 8532.53 90.96
2178 48.5510 8246.00 8531.73 90.81
2179 48.5710 8775.00 8520.52 93.68
2180 48.5910 8310.00 8500.62 91.16
2181 48.6110 8385.00 8474.66 91.57
2182 48.6310 8250.00 8445.47 90.83
2183 48.6510 8209.00 8415.51 90.60
2184 48.6710 8519.00 8386.36 92.30
2185 48.6910 8216.00 8358.61 90.64
2186 48.7110 8045.00 8331.88 89.69
2187 48.7310 8117.00 8305.00 90.09
2188 48.7510 8127.00 8276.24 90.15
2189 48.7710 8090.00 8243.72 89.94
2190 48.7910 7924.00 8205.70 89.02
2191 48.8110 7765.00 8161.05 88.12
2192 48.8310 7728.00 8109.39 87.91
2193 48.8510 7549.00 8051.23 86.89
2194 48.8710 7888.00 7987.78 88.81
2195 48.8910 7928.00 7920.80 89.04
2196 48.9110 8015.00 7852.18 89.53
2197 48.9310 7691.00 7783.81 87.70
2198 48.9510 7330.00 7717.30 85.62
2199 48.9710 7289.00 7654.01 85.38
2200 48.9910 7606.00 7595.02 87.21
2201 49.0110 7409.00 7541.05 86.08
2202 49.0310 7120.00 7492.59 84.38
2203 49.0510 7014.00 7449.90 83.75
2204 49.0710 7218.00 7413.06 84.96
2205 49.0910 7265.00 7381.96 85.24
2206 49.1110 7111.00 7356.40 84.33
2207 49.1310 7253.00 7340.71 85.16
2208 49.1510 7337.00 7323.05 85.66
2209 49.1710 7216.00 7311.84 84.95
2210 49.1910 7123.00 7304.38 84.40
2211 49.2110 7174.00 7300.08 84.70
2212 49.2310 7040.00 7298.30 83.90
2213 49.2510 6874.00 7298.41 82.91
2214 49.2710 6914.00 7299.77 83.15
2215 49.2910 7019.00 7301.82 83.78
2216 49.3110 6948.00 7306.65 83.35
2217 49.3310 6971.00 7308.69 83.49
2218 49.3510 7129.00 7310.28 84.43
2219 49.3710 7226.00 7309.84 85.01
2220 49.3910 7041.00 7310.54 83.91
2221 49.4110 7038.00 7311.16 83.89
2222 49.4310 7019.00 7312.07 83.78
2223 49.4510 6998.00 7313.79 83.65
2224 49.4710 7129.00 7316.87 84.43
2225 49.4910 7114.00 7321.91 84.34
2226 49.5110 7221.00 7329.51 84.98
2227 49.5310 7109.00 7340.25 84.31
2228 49.5510 7368.00 7354.73 85.84
2229 49.5710 7050.00 7373.49 83.96
2230 49.5910 7075.00 7397.06 84.11
2231 49.6110 7076.00 7425.83 84.12
2232 49.6310 7221.00 7460.13 84.98
2233 49.6510 7351.00 7500.08 85.74
2234 49.6710 7532.00 7545.75 86.79
2235 49.6910 7496.00 7596.54 86.58
2236 49.7110 7715.00 7651.97 87.84
2237 49.7310 7788.00 7711.12 88.25
2238 49.7510 7712.00 7772.76 87.82
2239 49.7710 7832.00 7835.35 88.50
2240 49.7910 8326.00 7897.06 91.25
2241 49.8110 8022.00 7955.69 89.57
2242 49.8310 8122.00 8008.71 90.12
2243 49.8510 8391.00 8053.33 91.60
2244 49.8710 8209.00 8086.65 90.60
2245 49.8910 8175.00 8106.02 90.42
2246 49.9110 8169.00 8109.45 90.38
2247 49.9310 8381.00 8095.97 91.55
2248 49.9510 8685.00 8063.81 93.19
2249 49.9710 8482.00 8018.86 92.10
2250 49.9910 8531.00 7961.65 92.36
2251 50.0110 8208.00 7895.35 90.60
2252 50.0310 7935.00 7823.28 89.08
2253 50.0510 7692.00 7748.46 87.70
2254 50.0710 7625.00 7673.46 87.32
2255 50.0910 7996.00 7600.27 89.42
2256 50.1110 8009.00 7530.38 89.49
2257 50.1310 7684.00 7464.82 87.66
2258 50.1510 7795.00 7404.24 88.29
2259 50.1710 7345.00 7349.04 85.70
2260 50.1910 7597.00 7299.36 87.16
2261 50.2110 7399.00 7255.21 86.02
2262 50.2310 7217.00 7216.44 84.95
2263 50.2510 7230.00 7205.81 85.03
2264 50.2710 7051.00 7175.64 83.97
2265 50.2910 7373.00 7151.78 85.87
2266 50.3110 7493.00 7132.21 86.56
2267 50.3310 7258.00 7116.63 85.19
2268 50.3510 7053.00 7104.76 83.98
2269 50.3710 7237.00 7096.35 85.07
2270 50.3910 7026.00 7091.22 83.82
2271 50.4110 7096.00 7089.23 84.24
2272 50.4310 7215.00 7090.31 84.94
2273 50.4510 7273.00 7094.47 85.28
2274 50.4710 7105.00 7101.77 84.29
2275 50.4910 7302.00 7112.35 85.45
2276 50.5110 7342.00 7126.32 85.69
2277 50.5310 7370.00 7142.51 85.85
2278 50.5510 7223.00 7164.27 84.99
2279 50.5710 7467.00 7190.34 86.41
2280 50.5910 7505.00 7221.01 86.63
2281 50.6110 7120.00 7256.59 84.38
2282 50.6310 7271.00 7297.35 85.27
2283 50.6510 7407.00 7342.87 86.06
2284 50.6710 7485.00 7394.52 86.52
2285 50.6910 7825.00 7451.69 88.46
2286 50.7110 7536.00 7514.19 86.81
2287 50.7310 7427.00 7581.67 86.18
2288 50.7510 7592.00 7653.49 87.13
2289 50.7710 7513.00 7728.70 86.68
2290 50.7910 7892.00 7806.04 88.84
2291 50.8110 7908.00 7883.78 88.93
2292 50.8310 8144.00 7959.81 90.24
2293 50.8510 8256.00 8031.65 90.86
2294 50.8710 8226.00 8096.63 90.70
2295 50.8910 8758.00 8152.05 93.58
2296 50.9110 8478.00 8195.62 92.08
2297 50.9310 8189.00 8225.73 90.49
2298 50.9510 8184.00 8234.07 90.47
2299 50.9710 8469.00 8236.70 92.03
2300 50.9910 8337.00 8227.02 91.31
2301 51.0110 8426.00 8208.05 91.79
2302 51.0310 8386.00 8182.07 91.58
2303 51.0510 8317.00 8151.71 91.20
2304 51.0710 8186.00 8109.20 90.48
2305 51.0910 8249.00 8076.51 90.82
2306 51.1110 8220.00 8044.66 90.66
2307 51.1310 8307.00 8014.27 91.14
2308 51.1510 8176.00 7985.50 90.42
2309 51.1710 7949.00 7958.23 89.16
2310 51.1910 7926.00 7932.22 89.03
2311 51.2110 8168.00 7906.49 90.38
2312 51.2310 8304.00 7882.85 91.13
2313 51.2510 8169.00 7861.01 90.38
2314 51.2710 8299.00 7841.94 91.10
2315 51.2910 8256.00 7826.87 90.86
2316 51.3110 8220.00 7817.18 90.66
2317 51.3310 8010.00 7814.21 89.50
2318 51.3510 8019.00 7819.13 89.55
2319 51.3710 8269.00 7832.85 90.93
2320 51.3910 8199.00 7856.02 90.55
2321 51.4110 8356.00 7888.98 91.41
2322 51.4310 8260.00 7931.76 90.88
2323 51.4510 8109.00 7984.17 90.05
2324 51.4710 8411.00 8045.62 91.71
2325 51.4910 8357.00 8115.25 91.42
2326 51.5110 8428.00 8191.78 91.80
2327 51.5310 8650.00 8273.55 93.01
2328 51.5510 8819.00 8358.45 93.91
2329 51.5710 8507.00 8443.84 92.23
2330 51.5910 8665.00 8526.66 93.09
2331 51.6110 8714.00 8603.38 93.35
2332 51.6310 8594.00 8670.38 92.70
2333 51.6510 8810.00 8721.72 93.86
2334 51.6710 9203.00 8758.67 95.93
2335 51.6910 9171.00 8776.52 95.77
2336 51.7110 9438.00 8774.01 97.15
2337 51.7310 9176.00 8751.23 95.79
2338 51.7510 9409.00 8709.63 97.00
2339 51.7710 9322.00 8651.85 96.55
2340 51.7910 8950.00 8581.23 94.60
2341 51.8110 8839.00 8501.49 94.02
2342 51.8310 9212.00 8416.25 95.98
2343 51.8510 9145.00 8328.84 95.63
2344 51.8710 8653.00 8242.06 93.02
2345 51.8910 8373.00 8158.24 91.50
2346 51.9110 8424.00 8079.18 91.78
2347 51.9310 8221.00 8006.30 90.67
2348 51.9510 8108.00 7940.59 90.04
2349 51.9710 8337.00 7882.79 91.31
2350 51.9910 7977.00 7833.44 89.31
2351 52.0110 7988.00 7792.87 89.38
2352 52.0310 8077.00 7761.27 89.87
2353 52.0510 7912.00 7742.26 88.95
2354 52.0710 7937.00 7728.63 89.09
2355 52.0910 7958.00 7723.62 89.21
2356 52.1110 7594.00 7726.71 87.14
2357 52.1310 7618.00 7737.14 87.28
2358 52.1510 7884.00 7753.87 88.79
2359 52.1710 7866.00 7775.68 88.69
2360 52.1910 7642.00 7801.21 87.42
2361 52.2110 8086.00 7829.20 89.92
2362 52.2310 7823.00 7858.67 88.45
2363 52.2510 7850.00 7889.12 88.60
2364 52.2710 7666.00 7920.52 87.56
2365 52.2910 7827.00 7953.16 88.47
2366 52.3110 7512.00 7987.33 86.67
2367 52.3310 7909.00 8023.13 88.93
2368 52.3510 7999.00 8060.27 89.44
2369 52.3710 8081.00 8098.20 89.89
2370 52.3910 8158.00 8135.93 90.32
2371 52.4110 8268.00 8172.25 90.93
2372 52.4310 8215.00 8205.76 90.64
2373 52.4510 8508.00 8235.00 92.24
2374 52.4710 8151.00 8258.56 90.28
2375 52.4910 8240.00 8273.11 90.77
2376 52.5110 8059.00 8282.00 89.77
2377 52.5310 8262.00 8282.75 90.90
2378 52.5510 8302.00 8275.64 91.12
2379 52.5710 8093.00 8261.65 89.96
2380 52.5910 8320.00 8242.43 91.21
2381 52.6110 8201.00 8220.19 90.56
2382 52.6310 8506.00 8197.50 92.23
2383 52.6510 8239.00 8177.07 90.77
2384 52.6710 8263.00 8159.45 90.90
2385 52.6910 8449.00 8155.37 91.92
2386 52.7110 8429.00 8156.55 91.81
2387 52.7310 8425.00 8168.53 91.79
2388 52.7510 8033.00 8192.14 89.63
2389 52.7710 8031.00 8227.50 89.62
2390 52.7910 7888.00 8273.80 88.81
2391 52.8110 7917.00 8329.18 88.98
2392 52.8310 7992.00 8390.51 89.40
2393 52.8510 7922.00 8453.40 89.01
2394 52.8710 8330.00 8512.14 91.27
2395 52.8910 8463.00 8560.22 91.99
2396 52.9110 8362.00 8590.96 91.44
2397 52.9310 8451.00 8598.86 91.93
2398 52.9510 8517.00 8580.80 92.29
2399 52.9710 8266.00 8537.04 90.92
2400 52.9910 8140.00 8470.96 90.22
2401 53.0110 8129.00 8387.01 90.16
2402 53.0310 7942.00 8293.64 89.12
2403 53.0510 8357.00 8195.82 91.42
2404 53.0710 8051.00 8098.65 89.73
2405 53.0910 7912.00 8006.12 88.95
2406 53.1110 7734.00 7921.13 87.94
2407 53.1310 7724.00 7845.57 87.89
2408 53.1510 7855.00 7780.60 88.63
2409 53.1710 8021.00 7726.72 89.56
2410 53.1910 7725.00 7683.95 87.89
2411 53.2110 7772.00 7652.02 88.16
2412 53.2310 7714.00 7630.40 87.83
2413 53.2510 7765.00 7618.48 88.12
2414 53.2710 7916.00 7615.54 88.97
2415 53.2910 8028.00 7620.91 89.60
2416 53.3110 7545.00 7633.92 86.86
2417 53.3310 7665.00 7653.94 87.55
2418 53.3510 7794.00 7680.41 88.28
2419 53.3710 7811.00 7712.81 88.38
2420 53.3910 7918.00 7750.65 88.98
2421 53.4110 7752.00 7793.46 88.05
2422 53.4310 7850.00 7840.76 88.60
2423 53.4510 8250.00 7892.10 90.83
2424 53.4710 8062.00 7946.92 89.79
2425 53.4910 8300.00 8004.66 91.10
2426 53.5110 8291.00 8064.67 91.05
2427 53.5310 8162.00 8126.29 90.34
2428 53.5510 8462.00 8188.85 91.99
2429 53.5710 8406.00 8251.75 91.68
2430 53.5910 8839.00 8314.48 94.02
2431 53.6110 8701.00 8377.01 93.28
2432 53.6310 8875.00 8439.44 94.21
2433 53.6510 8965.00 8502.38 94.68
2434 53.6710 8873.00 8566.86 94.20
2435 53.6910 8860.00 8634.30 94.13
2436 53.7110 9213.00 8706.35 95.98
2437 53.7310 9259.00 8784.81 96.22
2438 53.7510 9171.00 8870.48 95.77
2439 53.7710 9600.00 8966.58 97.98
2440 53.7910 9423.00 9073.34 97.07
2441 53.8110 9237.00 9191.23 96.11
2442 53.8310 9142.00 9320.17 95.61
2443 53.8510 8989.00 9459.16 94.81
2444 53.8710 9826.00 9606.67 99.13
2445 53.8910 9794.00 9760.03 98.96
2446 53.9110 9704.00 9921.45 98.51
2447 53.9310 9857.00 10075.90 99.28
2448 53.9510 10039.00 10224.80 100.19
2449 53.9710 10249.00 10363.60 101.24
2450 53.9910 10231.00 10488.50 101.15
2451 54.0110 10203.00 10596.00 101.01
2452 54.0310 10265.00 10683.60 101.32
2453 54.0510 10239.00 10748.80 101.19
2454 54.0710 10598.00 10790.10 102.95
2455 54.0910 10650.00 10806.00 103.20
2456 54.1110 10648.00 10796.00 103.19
2457 54.1310 10463.00 10760.50 102.29
2458 54.1510 10387.00 10701.40 101.92
2459 54.1710 10352.00 10622.50 101.75
2460 54.1910 10030.00 10528.80 100.15
2461 54.2110 9699.00 10426.50 98.48
2462 54.2310 9725.00 10322.20 98.62
2463 54.2510 9744.00 10222.60 98.71
2464 54.2710 9596.00 10133.80 97.96
2465 54.2910 9379.00 10061.40 96.85
2466 54.3110 9596.00 10010.20 97.96
2467 54.3310 9701.00 9984.10 98.49
2468 54.3510 9798.00 9986.50 98.98
2469 54.3710 10078.00 10020.00 100.39
2470 54.3910 10254.00 10086.80 101.26
2471 54.4110 10475.00 10188.20 102.35
2472 54.4310 10493.00 10328.50 102.43
2473 54.4510 10472.00 10501.20 102.33
2474 54.4710 10965.00 10708.90 104.71
2475 54.4910 11005.00 10949.90 104.90
2476 54.5110 11598.00 11221.30 107.69
2477 54.5310 11850.00 11518.50 108.86
2478 54.5510 11958.00 11836.00 109.35
2479 54.5710 12323.00 12166.80 111.01
2480 54.5910 12779.00 12504.10 113.04
2481 54.6110 12974.00 12841.20 113.90
2482 54.6310 13230.00 13173.40 115.02
2483 54.6510 13791.00 13498.60 117.43
2484 54.6710 13956.00 13813.00 118.14
2485 54.6910 14188.00 14116.80 119.11
2486 54.7110 14248.00 14410.50 119.36
2487 54.7310 14695.00 14687.10 121.22
2488 54.7510 14710.00 14944.40 121.29
2489 54.7710 14860.00 15177.40 121.90
2490 54.7910 15135.00 15381.90 123.02
2491 54.8110 15439.00 15554.70 124.25
2492 54.8310 15796.00 15694.40 125.68
2493 54.8510 16134.00 15801.70 127.02
2494 54.8710 16103.00 15878.10 126.90
2495 54.8910 16402.00 15925.80 128.07
2496 54.9110 16303.00 15944.70 127.68
2497 54.9310 16101.00 15938.20 126.89
2498 54.9510 16044.00 15904.70 126.67
2499 54.9710 16231.00 15843.70 127.40
2500 54.9910 16502.00 15755.30 128.46
2501 55.0110 16460.00 15640.50 128.30
2502 55.0310 16164.00 15501.90 127.14
2503 55.0510 15935.00 15344.00 126.23
2504 55.0710 15585.00 15172.80 124.84
2505 55.0910 15272.00 14995.00 123.58
2506 55.1110 15450.00 14817.60 124.30
2507 55.1310 14892.00 14646.50 122.03
2508 55.1510 14811.00 14486.60 121.70
2509 55.1710 14453.00 14340.70 120.22
2510 55.1910 14553.00 14210.10 120.64
2511 55.2110 14770.00 14094.10 121.53
2512 55.2310 14769.00 13990.80 121.53
2513 55.2510 14362.00 13897.10 119.84
2514 55.2710 14107.00 13809.90 118.77
2515 55.2910 13927.00 13725.90 118.01
2516 55.3110 13695.00 13642.60 117.03
2517 55.3310 13667.00 13557.80 116.91
2518 55.3510 14182.00 13469.80 119.09
2519 55.3710 13728.00 13377.20 117.17
2520 55.3910 13638.00 13277.80 116.78
2521 55.4110 13507.00 13170.10 116.22
2522 55.4310 13045.00 13051.20 114.21
2523 55.4510 12967.00 12918.30 113.87
2524 55.4710 13332.00 12768.90 115.46
2525 55.4910 12742.00 12601.00 112.88
2526 55.5110 12403.00 12414.20 111.37
2527 55.5310 12168.00 12209.20 110.31
2528 55.5510 12257.00 11988.40 110.71
2529 55.5710 11782.00 11755.50 108.54
2530 55.5910 11727.00 11515.00 108.29
2531 55.6110 11355.00 11271.90 106.56
2532 55.6310 10928.00 11030.90 104.54
2533 55.6510 10898.00 10796.60 104.39
2534 55.6710 10543.00 10572.80 102.68
2535 55.6910 10102.00 10374.10 100.51
2536 55.7110 10106.00 10179.20 100.53
2537 55.7310 9705.00 10002.50 98.51
2538 55.7510 9862.00 9844.48 99.31
2539 55.7710 9606.00 9705.51 98.01
2540 55.7910 9443.00 9585.66 97.18
2541 55.8110 9381.00 9484.49 96.86
2542 55.8310 9230.00 9401.25 96.07
2543 55.8510 9280.00 9334.74 96.33
2544 55.8710 9408.00 9283.46 96.99
2545 55.8910 9291.00 9245.49 96.39
2546 55.9110 9465.00 9218.58 97.29
2547 55.9310 9022.00 9200.12 94.98
2548 55.9510 8887.00 9187.17 94.27
2549 55.9710 9280.00 9176.60 96.33
2550 55.9910 9348.00 9165.16 96.69
2551 56.0110 9525.00 9149.56 97.60
2552 56.0310 9245.00 9127.54 96.15
2553 56.0510 8933.00 9096.87 94.51
2554 56.0710 9203.00 9056.46 95.93
2555 56.0910 9304.00 9006.16 96.46
2556 56.1110 9060.00 8946.75 95.18
2557 56.1310 8659.00 8879.67 93.05
2558 56.1510 8837.00 8806.87 94.01
2559 56.1710 8839.00 8730.49 94.02
2560 56.1910 8480.00 8652.18 92.09
2561 56.2110 8397.00 8574.83 91.64
2562 56.2310 8153.00 8499.67 90.29
2563 56.2510 8105.00 8428.07 90.03
2564 56.2710 8218.00 8361.11 90.65
2565 56.2910 8095.00 8299.54 89.97
2566 56.3110 8033.00 8243.79 89.63
2567 56.3310 7946.00 8194.09 89.14
2568 56.3510 7527.00 8150.38 86.76
2569 56.3710 7895.00 8112.44 88.85
2570 56.3910 7658.00 8079.94 87.51
2571 56.4110 7782.00 8052.53 88.22
2572 56.4310 7970.00 8030.03 89.27
2573 56.4510 8145.00 8011.83 90.25
2574 56.4710 7749.00 7999.76 88.03
2575 56.4910 7862.00 7993.99 88.67
2576 56.5110 7997.00 7995.65 89.43
2577 56.5310 7914.00 8006.03 88.96
2578 56.5510 7895.00 8033.08 88.85
2579 56.5710 7761.00 8064.57 88.10
2580 56.5910 8055.00 8107.88 89.75
2581 56.6110 8078.00 8163.44 89.88
2582 56.6310 7924.00 8231.16 89.02
2583 56.6510 7831.00 8310.35 88.49
2584 56.6710 8043.00 8399.54 89.68
2585 56.6910 7885.00 8496.43 88.80
2586 56.7110 8302.00 8597.65 91.12
2587 56.7310 8496.00 8698.92 92.17
2588 56.7510 8567.00 8797.03 92.56
2589 56.7710 8445.00 8883.10 91.90
2590 56.7910 8702.00 8953.42 93.28
2591 56.8110 9013.00 9007.59 94.94
2592 56.8310 8944.00 9044.07 94.57
2593 56.8510 8715.00 9064.82 93.35
2594 56.8710 8941.00 9073.37 94.56
2595 56.8910 8883.00 9073.71 94.25
2596 56.9110 9228.00 9069.26 96.06
2597 56.9310 9059.00 9062.22 95.18
2598 56.9510 8886.00 9053.49 94.27
2599 56.9710 8748.00 9042.66 93.53
2600 56.9910 8820.00 9028.72 93.91
2601 57.0110 8913.00 9009.87 94.41
2602 57.0310 9041.00 8984.28 95.08
2603 57.0510 9061.00 8950.36 95.19
2604 57.0710 8874.00 8907.06 94.20
2605 57.0910 8884.00 8858.46 94.25
2606 57.1110 8558.00 8796.36 92.51
2607 57.1310 8453.00 8726.23 91.94
2608 57.1510 8479.00 8649.79 92.08
2609 57.1710 8366.00 8568.97 91.47
2610 57.1910 8266.00 8485.81 90.92
2611 57.2110 8018.00 8402.19 89.54
2612 57.2310 7979.00 8319.83 89.33
2613 57.2510 7851.00 8240.14 88.61
2614 57.2710 7854.00 8164.32 88.62
2615 57.2910 7980.00 8091.53 89.33
2616 57.3110 7941.00 8026.04 89.11
2617 57.3310 7647.00 7966.67 87.45
2618 57.3510 7334.00 7913.86 85.64
2619 57.3710 7642.00 7867.96 87.42
2620 57.3910 7654.00 7829.20 87.49
2621 57.4110 7461.00 7797.82 86.38
2622 57.4310 7491.00 7773.69 86.55
2623 57.4510 7445.00 7757.58 86.28
2624 57.4710 7588.00 7749.29 87.11
2625 57.4910 7589.00 7749.18 87.11
2626 57.5110 7339.00 7757.45 85.67
2627 57.5310 7624.00 7774.45 87.32
2628 57.5510 7890.00 7800.64 88.83
2629 57.5710 7895.00 7836.62 88.85
2630 57.5910 7755.00 7883.15 88.06
2631 57.6110 7961.00 7941.18 89.22
2632 57.6310 7973.00 8011.85 89.29
2633 57.6510 8157.00 8096.57 90.32
2634 57.6710 8018.00 8196.80 89.54
2635 57.6910 8189.00 8314.40 90.49
2636 57.7110 8323.00 8451.21 91.23
2637 57.7310 8860.00 8609.24 94.13
2638 57.7510 8808.00 8790.26 93.85
2639 57.7710 9099.00 8995.99 95.39
2640 57.7910 9708.00 9227.74 98.53
2641 57.8110 9791.00 9486.19 98.95
2642 57.8310 10088.00 9775.07 100.44
2643 57.8510 10497.00 10085.30 102.46
2644 57.8710 11018.00 10418.10 104.97
2645 57.8910 11093.00 10768.10 105.32
2646 57.9110 11793.00 11128.00 108.60
2647 57.9310 12079.00 11487.10 109.90
2648 57.9510 12250.00 11830.70 110.68
2649 57.9710 12237.00 12141.40 110.62
2650 57.9910 12561.00 12398.30 112.08
2651 58.0110 13073.00 12580.40 114.34
2652 58.0310 12743.00 12669.60 112.89
2653 58.0510 12422.00 12655.40 111.45
2654 58.0710 12325.00 12537.30 111.02
2655 58.0910 11934.00 12326.10 109.24
2656 58.1110 11357.00 12040.90 106.57
2657 58.1310 11029.00 11705.00 105.02
2658 58.1510 10645.00 11346.70 103.18
2659 58.1710 10474.00 10975.20 102.34
2660 58.1910 10386.00 10610.70 101.91
2661 58.2110 10045.00 10263.80 100.22
2662 58.2310 9406.00 9941.37 96.98
2663 58.2510 8999.00 9647.04 94.86
2664 58.2710 8650.00 9382.58 93.01
2665 58.2910 8573.00 9148.00 92.59
2666 58.3110 8566.00 8942.29 92.55
2667 58.3310 8251.00 8763.60 90.83
2668 58.3510 8251.00 8609.82 90.83
2669 58.3710 8264.00 8478.46 90.91
2670 58.3910 8171.00 8369.54 90.39
2671 58.4110 8060.00 8275.63 89.78
2672 58.4310 8060.00 8196.83 89.78
2673 58.4510 7982.00 8131.64 89.34
2674 58.4710 7801.00 8078.14 88.32
2675 58.4910 7895.00 8035.47 88.85
2676 58.5110 8172.00 8001.22 90.40
2677 58.5310 8055.00 7975.03 89.75
2678 58.5510 8231.00 7956.23 90.72
2679 58.5710 8035.00 7944.29 89.64
2680 58.5910 8011.00 7938.91 89.50
2681 58.6110 7844.00 7940.42 88.57
2682 58.6310 7821.00 7947.74 88.44
2683 58.6510 8141.00 7961.35 90.23
2684 58.6710 8123.00 7981.24 90.13
2685 58.6910 8169.00 8007.33 90.38
2686 58.7110 8290.00 8039.46 91.05
2687 58.7310 8207.00 8077.31 90.59
2688 58.7510 8270.00 8120.46 90.94
2689 58.7710 8147.00 8167.89 90.26
2690 58.7910 8541.00 8219.41 92.42
2691 58.8110 8688.00 8273.64 93.21
2692 58.8310 8787.00 8329.38 93.74
2693 58.8510 8764.00 8385.31 93.62
2694 58.8710 8810.00 8440.08 93.86
2695 58.8910 8847.00 8492.16 94.06
2696 58.9110 8852.00 8540.07 94.09
2697 58.9310 9155.00 8582.22 95.68
2698 58.9510 8927.00 8616.97 94.48
2699 58.9710 9214.00 8641.31 95.99
2700 58.9910 9092.00 8656.61 95.35
2701 59.0110 8946.00 8660.31 94.58
2702 59.0310 8931.00 8651.80 94.50
2703 59.0510 8917.00 8629.20 94.43
2704 59.0710 8736.00 8596.87 93.47
2705 59.0910 8936.00 8554.20 94.53
2706 59.1110 8748.00 8502.99 93.53
2707 59.1310 8672.00 8445.20 93.12
2708 59.1510 8216.00 8383.02 90.64
2709 59.1710 8379.00 8318.46 91.54
2710 59.1910 8472.00 8253.37 92.04
2711 59.2110 8232.00 8187.81 90.73
2712 59.2310 8192.00 8126.11 90.51
2713 59.2510 8377.00 8067.95 91.53
2714 59.2710 7857.00 8014.11 88.64
2715 59.2910 8006.00 7965.25 89.48
2716 59.3110 8311.00 7921.91 91.16
2717 59.3310 7988.00 7884.52 89.38
2718 59.3510 7723.00 7853.43 87.88
2719 59.3710 7709.00 7828.94 87.80
2720 59.3910 7678.00 7811.30 87.62
2721 59.4110 7497.00 7800.72 86.59
2722 59.4310 7767.00 7797.42 88.13
2723 59.4510 7662.00 7801.58 87.53
2724 59.4710 7719.00 7813.38 87.86
2725 59.4910 7728.00 7833.01 87.91
2726 59.5110 7828.00 7860.66 88.48
2727 59.5310 7763.00 7896.52 88.11
2728 59.5510 7873.00 7940.78 88.73
2729 59.5710 7869.00 7993.61 88.71
2730 59.5910 8053.00 8055.17 89.74
2731 59.6110 8130.00 8125.59 90.17
2732 59.6310 8084.00 8204.99 89.91
2733 59.6510 8591.00 8293.40 92.69
2734 59.6710 8617.00 8390.84 92.83
2735 59.6910 8936.00 8498.02 94.53
2736 59.7110 8912.00 8612.28 94.40
2737 59.7310 9017.00 8735.72 94.96
2738 59.7510 9160.00 8867.14 95.71
2739 59.7710 9185.00 9004.42 95.84
2740 59.7910 9724.00 9150.05 98.61
2741 59.8110 9338.00 9301.77 96.63
2742 59.8310 9445.00 9458.79 97.19
2743 59.8510 9637.00 9620.75 98.17
2744 59.8710 9579.00 9786.83 97.87
2745 59.8910 9886.00 9959.81 99.43
2746 59.9110 10239.00 10140.40 101.19
2747 59.9310 10216.00 10331.50 101.07
2748 59.9510 10702.00 10536.30 103.45
2749 59.9710 10917.00 10758.40 104.48
2750 59.9910 10893.00 11000.90 104.37
2751 60.0110 11525.00 11266.20 107.36
2752 60.0310 11548.00 11554.60 107.46
2753 60.0510 11481.00 11864.90 107.15
2754 60.0710 11930.00 12193.50 109.22
2755 60.0910 12092.00 12534.20 109.96
2756 60.1110 12816.00 12877.40 113.21
2757 60.1310 12983.00 13211.30 113.94
2758 60.1510 12572.00 13521.10 112.12
2759 60.1710 13200.00 13790.00 114.89
2760 60.1910 13450.00 14001.10 115.97
2761 60.2110 13699.00 14137.10 117.04
2762 60.2310 13579.00 14192.90 116.53
2763 60.2510 13902.00 14163.10 117.91
2764 60.2710 13761.00 14053.20 117.31
2765 60.2910 13591.00 13876.20 116.58
2766 60.3110 13458.00 13649.40 116.01
2767 60.3310 12983.00 13392.10 113.94
2768 60.3510 12707.00 13121.80 112.72
2769 60.3710 12833.00 12853.50 113.28
2770 60.3910 12630.00 12598.40 112.38
2771 60.4110 12150.00 12364.40 110.23
2772 60.4310 12148.00 12156.50 110.22
2773 60.4510 12069.00 11977.60 109.86
2774 60.4710 11958.00 11828.10 109.35
2775 60.4910 12153.00 11707.20 110.24
2776 60.5110 11934.00 11612.30 109.24
2777 60.5310 12129.00 11539.80 110.13
2778 60.5510 11603.00 11485.60 107.72
2779 60.5710 11560.00 11445.30 107.52
2780 60.5910 11455.00 11415.50 107.03
2781 60.6110 11688.00 11393.30 108.11
2782 60.6310 11316.00 11377.70 106.38
2783 60.6510 11393.00 11368.50 106.74
2784 60.6710 11250.00 11367.00 106.07
2785 60.6910 11538.00 11374.80 107.42
2786 60.7110 11561.00 11394.50 107.52
2787 60.7310 11764.00 11428.00 108.46
2788 60.7510 11586.00 11476.80 107.64
2789 60.7710 11522.00 11542.40 107.34
2790 60.7910 11645.00 11624.90 107.91
2791 60.8110 11685.00 11725.70 108.10
2792 60.8310 11740.00 11844.20 108.35
2793 60.8510 11595.00 11979.90 107.68
2794 60.8710 12436.00 12131.70 111.52
2795 60.8910 12178.00 12296.00 110.35
2796 60.9110 12639.00 12469.30 112.42
2797 60.9310 13008.00 12652.80 114.05
2798 60.9510 13250.00 12834.90 115.11
2799 60.9710 13096.00 13008.10 114.44
2800 60.9910 13176.00 13160.30 114.79
2801 61.0110 13466.00 13277.90 116.04
2802 61.0310 12858.00 13348.00 113.39
2803 61.0510 13147.00 13359.50 114.66
2804 61.0710 13375.00 13306.30 115.65
2805 61.0910 13235.00 13188.20 115.04
2806 61.1110 12747.00 13011.50 112.90
2807 61.1310 12619.00 12786.90 112.33
2808 61.1510 12595.00 12527.90 112.23
2809 61.1710 12422.00 12248.10 111.45
2810 61.1910 12153.00 11959.70 110.24
2811 61.2110 11923.00 11672.50 109.19
2812 61.2310 11680.00 11394.60 108.07
2813 61.2510 10748.00 11131.40 103.67
2814 61.2710 10799.00 10887.50 103.92
2815 61.2910 10766.00 10665.10 103.76
2816 61.3110 10620.00 10466.40 103.05
2817 61.3310 9988.00 10291.30 99.94
2818 61.3510 10085.00 10151.20 100.42
2819 61.3710 9838.00 10030.30 99.19
2820 61.3910 9591.00 9936.99 97.93
2821 61.4110 9999.00 9871.75 100.00
2822 61.4310 9383.00 9834.75 96.87
2823 61.4510 9573.00 9825.71 97.84
2824 61.4710 9728.00 9843.88 98.63
2825 61.4910 9904.00 9886.72 99.52
2826 61.5110 9736.00 9954.58 98.67
2827 61.5310 9583.00 10041.40 97.89
2828 61.5510 9662.00 10147.60 98.30
2829 61.5710 10120.00 10266.50 100.60
2830 61.5910 10173.00 10391.80 100.86
2831 61.6110 10089.00 10516.10 100.44
2832 61.6310 10214.00 10631.10 101.06
2833 61.6510 10667.00 10727.30 103.28
2834 61.6710 10890.00 10795.50 104.36
2835 61.6910 10831.00 10828.30 104.07
2836 61.7110 10765.00 10820.70 103.75
2837 61.7310 10556.00 10771.90 102.74
2838 61.7510 10773.00 10685.00 103.79
2839 61.7710 10854.00 10570.90 104.18
2840 61.7910 10801.00 10428.00 103.93
2841 61.8110 10545.00 10269.00 102.69
2842 61.8310 10512.00 10100.90 102.53
2843 61.8510 10178.00 9929.19 100.89
2844 61.8710 9591.00 9757.60 97.93
2845 61.8910 9402.00 9588.47 96.96
2846 61.9110 9548.00 9423.11 97.71
2847 61.9310 9177.00 9262.40 95.80
2848 61.9510 8712.00 9106.63 93.34
2849 61.9710 8884.00 8956.19 94.25
2850 61.9910 8681.00 8811.63 93.17
2851 62.0110 8611.00 8673.44 92.80
2852 62.0310 8209.00 8542.20 90.60
2853 62.0510 8297.00 8418.42 91.09
2854 62.0710 8173.00 8302.62 90.40
2855 62.0910 8142.00 8195.06 90.23
2856 62.1110 8090.00 8095.89 89.94
2857 62.1310 7910.00 8005.09 88.94
2858 62.1510 7697.00 7922.15 87.73
2859 62.1710 7697.00 7847.55 87.73
2860 62.1910 7528.00 7779.25 86.76
2861 62.2110 7591.00 7719.76 87.13
2862 62.2310 7579.00 7662.48 87.06
2863 62.2510 7380.00 7616.69 85.91
2864 62.2710 7748.00 7577.22 88.02
2865 62.2910 7253.00 7543.68 85.16
2866 62.3110 7299.00 7515.71 85.43
2867 62.3310 7260.00 7493.00 85.21
2868 62.3510 7080.00 7475.19 84.14
2869 62.3710 7046.00 7461.96 83.94
2870 62.3910 7043.00 7452.97 83.92
2871 62.4110 7547.00 7447.89 86.87
2872 62.4310 7322.00 7446.40 85.57
2873 62.4510 7536.00 7448.17 86.81
2874 62.4710 7384.00 7452.93 85.93
2875 62.4910 7314.00 7460.40 85.52
2876 62.5110 7314.00 7470.40 85.52
2877 62.5310 7416.00 7482.79 86.12
2878 62.5510 7455.00 7497.56 86.34
2879 62.5710 7249.00 7514.84 85.14
2880 62.5910 7292.00 7534.87 85.39
2881 62.6110 7518.00 7558.00 86.71
2882 62.6310 7202.00 7584.73 84.86
2883 62.6510 7381.00 7615.60 85.91
2884 62.6710 7698.00 7651.19 87.74
2885 62.6910 7435.00 7692.11 86.23
2886 62.7110 7639.00 7738.91 87.40
2887 62.7310 7640.00 7792.13 87.41
2888 62.7510 7468.00 7852.15 86.42
2889 62.7710 7355.00 7919.28 85.76
2890 62.7910 7674.00 7993.72 87.60
2891 62.8110 7760.00 8075.46 88.09
2892 62.8310 7732.00 8164.31 87.93
2893 62.8510 8062.00 8259.85 89.79
2894 62.8710 8056.00 8361.28 89.76
2895 62.8910 8222.00 8467.52 90.68
2896 62.9110 8418.00 8577.01 91.75
2897 62.9310 8357.00 8687.74 91.42
2898 62.9510 8476.00 8797.13 92.07
2899 62.9710 8607.00 8902.20 92.77
2900 62.9910 8908.00 8999.51 94.38
2901 63.0110 8867.00 9085.67 94.16
2902 63.0310 8894.00 9157.58 94.31
2903 63.0510 9187.00 9212.92 95.85
2904 63.0710 9209.00 9248.95 95.96
2905 63.0910 8980.00 9268.98 94.76
2906 63.1110 9189.00 9273.04 95.86
2907 63.1310 9330.00 9263.78 96.59
2908 63.1510 9287.00 9244.50 96.37
2909 63.1710 8778.00 9218.77 93.69
2910 63.1910 8651.00 9189.92 93.01
2911 63.2110 8903.00 9160.97 94.36
2912 63.2310 9037.00 9134.42 95.06
2913 63.2510 9170.00 9112.25 95.76
2914 63.2710 9435.00 9096.04 97.13
2915 63.2910 9331.00 9086.93 96.60
2916 63.3110 9087.00 9085.68 95.33
2917 63.3310 9292.00 9093.01 96.39
2918 63.3510 9197.00 9109.16 95.90
2919 63.3710 9448.00 9134.19 97.20
2920 63.3910 9223.00 9167.85 96.04
2921 63.4110 9359.00 9209.53 96.74
2922 63.4310 9328.00 9258.15 96.58
2923 63.4510 9430.00 9312.13 97.11
2924 63.4710 9790.00 9369.17 98.94
2925 63.4910 9899.00 9426.40 99.49
2926 63.5110 9802.00 9480.31 99.01
2927 63.5310 9888.00 9527.15 99.44
2928 63.5510 9835.00 9563.13 99.17
2929 63.5710 10018.00 9585.12 100.09
2930 63.5910 9996.00 9591.08 99.98
2931 63.6110 9779.00 9580.50 98.89
2932 63.6310 9837.00 9554.51 99.18
2933 63.6510 9566.00 9515.74 97.81
2934 63.6710 9403.00 9467.93 96.97
2935 63.6910 9630.00 9415.29 98.13
2936 63.7110 9246.00 9362.01 96.16
2937 63.7310 9116.00 9311.90 95.48
2938 63.7510 8901.00 9268.19 94.35
2939 63.7710 8681.00 9242.96 93.17
2940 63.7910 8551.00 9219.20 92.47
2941 63.8110 8692.00 9207.87 93.23
2942 63.8310 8994.00 9209.50 94.84
2943 63.8510 9159.00 9226.37 95.70
2944 63.8710 8733.00 9258.57 93.45
2945 63.8910 8843.00 9306.37 94.04
2946 63.9110 9298.00 9370.72 96.43
2947 63.9310 9100.00 9451.42 95.39
2948 63.9510 9531.00 9548.22 97.63
2949 63.9710 9383.00 9660.47 96.87
2950 63.9910 9453.00 9787.06 97.23
2951 64.0110 9496.00 9926.22 97.45
2952 64.0310 9879.00 10075.70 99.39
2953 64.0510 9951.00 10232.80 99.75
2954 64.0710 10053.00 10393.90 100.26
2955 64.0910 10442.00 10554.90 102.19
2956 64.1110 10661.00 10711.60 103.25
2957 64.1310 10693.00 10859.30 103.41
2958 64.1510 11044.00 10993.40 105.09
2959 64.1710 11033.00 11109.70 105.04
2960 64.1910 11251.00 11204.70 106.07
2961 64.2110 11139.00 11275.50 105.54
2962 64.2310 11176.00 11320.10 105.72
2963 64.2510 10989.00 11337.60 104.83
2964 64.2710 11349.00 11327.40 106.53
2965 64.2910 11311.00 11289.40 106.35
2966 64.3110 11319.00 11224.20 106.39
2967 64.3310 11216.00 11132.80 105.91
2968 64.3510 11345.00 11017.00 106.51
2969 64.3710 11034.00 10878.90 105.04
2970 64.3910 10924.00 10721.80 104.52
2971 64.4110 10726.00 10549.40 103.57
2972 64.4310 10552.00 10365.70 102.72
2973 64.4510 10697.00 10175.10 103.43
2974 64.4710 10375.00 9981.89 101.86
2975 64.4910 10038.00 9789.88 100.19
2976 64.5110 9967.00 9602.40 99.83
2977 64.5310 9743.00 9422.40 98.71
2978 64.5510 9099.00 9251.93 95.39
2979 64.5710 9464.00 9092.95 97.28
2980 64.5910 9273.00 8946.63 96.30
2981 64.6110 9225.00 8813.68 96.05
2982 64.6310 8889.00 8694.54 94.28
2983 64.6510 8663.00 8589.25 93.08
2984 64.6710 8238.00 8497.67 90.76
2985 64.6910 8793.00 8419.32 93.77
2986 64.7110 8671.00 8353.42 93.12
2987 64.7310 8511.00 8299.08 92.26
2988 64.7510 8351.00 8255.09 91.38
2989 64.7710 8224.00 8220.06 90.69
2990 64.7910 8441.00 8191.92 91.87
2991 64.8110 8033.00 8169.57 89.63
2992 64.8310 8231.00 8145.42 90.72
2993 64.8510 8212.00 8127.59 90.62
2994 64.8710 8183.00 8108.97 90.46
2995 64.8910 8469.00 8087.41 92.03
2996 64.9110 8276.00 8066.29 90.97
2997 64.9310 8151.00 8034.06 90.28
2998 64.9510 7930.00 7995.32 89.05
2999 64.9710 7972.00 7949.97 89.29
3000 64.9910 7934.00 7898.75 89.07
3001 65.0110 7724.00 7842.77 87.89
3002 65.0310 7705.00 7783.62 87.78
3003 65.0510 7646.00 7722.91 87.44
3004 65.0710 7640.00 7662.20 87.41
3005 65.0910 7403.00 7602.84 86.04
3006 65.1110 7536.00 7545.92 86.81
3007 65.1310 7376.00 7492.33 85.88
3008 65.1510 7395.00 7442.65 85.99
3009 65.1710 7721.00 7397.29 87.87
3010 65.1910 7431.00 7355.28 86.20
3011 65.2110 7246.00 7322.03 85.12
3012 65.2310 7642.00 7290.51 87.42
3013 65.2510 7308.00 7263.48 85.49
3014 65.2710 7154.00 7242.15 84.58
3015 65.2910 7203.00 7223.52 84.87
3016 65.3110 7116.00 7207.83 84.36
3017 65.3310 7149.00 7196.37 84.55
3018 65.3510 7113.00 7187.93 84.34
3019 65.3710 7128.00 7182.06 84.43
3020 65.3910 7064.00 7178.36 84.05
3021 65.4110 7191.00 7176.40 84.80
3022 65.4310 7184.00 7175.77 84.76
3023 65.4510 7396.00 7175.77 86.00
3024 65.4710 7409.00 7176.92 86.08
3025 65.4910 7243.00 7178.72 85.11
3026 65.5110 7062.00 7181.14 84.04
3027 65.5310 7316.00 7184.30 85.53
3028 65.5510 7177.00 7188.43 84.72
3029 65.5710 7020.00 7193.88 83.79
3030 65.5910 7275.00 7201.05 85.29
3031 65.6110 7263.00 7206.49 85.22
3032 65.6310 7280.00 7218.59 85.32
3033 65.6510 7089.00 7232.65 84.20
3034 65.6710 7396.00 7251.75 86.00
3035 65.6910 7295.00 7275.15 85.41
3036 65.7110 7042.00 7303.36 83.92
3037 65.7310 7338.00 7339.42 85.66
3038 65.7510 7371.00 7378.73 85.85
3039 65.7710 7484.00 7424.24 86.51
3040 65.7910 7431.00 7476.37 86.20
3041 65.8110 7757.00 7535.40 88.07
3042 65.8310 7604.00 7601.29 87.20
3043 65.8510 7794.00 7674.77 88.28
3044 65.8710 7814.00 7755.48 88.40
3045 65.8910 7644.00 7843.21 87.43
3046 65.9110 7850.00 7937.36 88.60
3047 65.9310 7769.00 8037.02 88.14
3048 65.9510 7800.00 8141.64 88.32
3049 65.9710 7626.00 8249.91 87.33
3050 65.9910 8177.00 8360.69 90.43
3051 66.0110 8147.00 8476.47 90.26
3052 66.0310 8039.00 8590.97 89.66
3053 66.0510 8347.00 8707.66 91.36
3054 66.0710 8542.00 8827.64 92.42
3055 66.0910 8794.00 8952.11 93.78
3056 66.1110 8692.00 9082.42 93.23
3057 66.1310 9038.00 9219.47 95.07
3058 66.1510 8993.00 9363.91 94.83
3059 66.1710 9031.00 9515.45 95.03
3060 66.1910 9516.00 9671.33 97.55
3061 66.2110 9838.00 9833.36 99.19
3062 66.2310 9921.00 9996.53 99.60
3063 66.2510 9851.00 10157.30 99.25
3064 66.2710 9831.00 10310.20 99.15
3065 66.2910 10184.00 10448.80 100.92
3066 66.3110 10513.00 10566.00 102.53
3067 66.3310 10604.00 10654.30 102.98
3068 66.3510 10875.00 10706.90 104.28
3069 66.3710 10597.00 10716.00 102.94
3070 66.3910 10626.00 10684.10 103.08
3071 66.4110 10543.00 10609.30 102.68
3072 66.4310 10724.00 10494.90 103.56
3073 66.4510 10471.00 10347.20 102.33
3074 66.4710 9936.00 10173.60 99.68
3075 66.4910 9924.00 9982.31 99.62
3076 66.5110 9522.00 9780.84 97.58
3077 66.5310 9782.00 9575.82 98.90
3078 66.5510 9576.00 9372.63 97.86
3079 66.5710 9343.00 9175.37 96.66
3080 66.5910 9199.00 8987.30 95.91
3081 66.6110 8674.00 8810.31 93.13
3082 66.6310 8662.00 8645.35 93.07
3083 66.6510 8600.00 8494.32 92.74
3084 66.6710 8357.00 8357.12 91.42
3085 66.6910 8429.00 8236.50 91.81
3086 66.7110 8011.00 8126.45 89.50
3087 66.7310 7826.00 8029.51 88.46
3088 66.7510 7894.00 7944.96 88.85
3089 66.7710 8071.00 7872.18 89.84
3090 66.7910 7980.00 7810.36 89.33
3091 66.8110 7779.00 7758.72 88.20
3092 66.8310 7906.00 7716.34 88.92
3093 66.8510 7604.00 7682.39 87.20
3094 66.8710 7622.00 7656.01 87.30
3095 66.8910 7532.00 7636.35 86.79
3096 66.9110 7729.00 7622.64 87.91
3097 66.9310 7508.00 7614.19 86.65
3098 66.9510 7582.00 7610.40 87.07
3099 66.9710 7460.00 7610.77 86.37
3100 66.9910 7417.00 7614.89 86.12
3101 67.0110 7448.00 7622.64 86.30
3102 67.0310 7576.00 7633.81 87.04
3103 67.0510 7559.00 7648.33 86.94
3104 67.0710 7432.00 7666.19 86.21
3105 67.0910 7244.00 7687.37 85.11
3106 67.1110 7479.00 7711.88 86.48
3107 67.1310 7469.00 7739.66 86.42
3108 67.1510 7525.00 7770.69 86.75
3109 67.1710 7626.00 7804.86 87.33
3110 67.1910 7959.00 7842.10 89.21
3111 67.2110 7958.00 7882.34 89.21
3112 67.2310 8222.00 7925.49 90.68
3113 67.2510 8155.00 7971.51 90.31
3114 67.2710 8046.00 8020.29 89.70
3115 67.2910 8162.00 8071.84 90.34
3116 67.3110 8109.00 8126.04 90.05
3117 67.3310 8048.00 8182.18 89.71
3118 67.3510 7918.00 8241.03 88.98
3119 67.3710 8354.00 8301.64 91.40
3120 67.3910 8321.00 8363.34 91.22
3121 67.4110 8623.00 8425.16 92.86
3122 67.4310 8703.00 8485.97 93.29
3123 67.4510 8351.00 8544.33 91.38
3124 67.4710 8594.00 8598.61 92.70
3125 67.4910 8739.00 8647.07 93.48
3126 67.5110 8777.00 8687.98 93.69
3127 67.5310 8920.00 8719.79 94.45
3128 67.5510 8507.00 8741.24 92.23
3129 67.5710 8663.00 8751.54 93.08
3130 67.5910 8871.00 8750.45 94.19
3131 67.6110 8657.00 8738.21 93.04
3132 67.6310 8655.00 8715.60 93.03
3133 67.6510 8915.00 8685.92 94.42
3134 67.6710 8887.00 8645.99 94.27
3135 67.6910 8567.00 8597.91 92.56
3136 67.7110 8726.00 8545.72 93.41
3137 67.7310 8599.00 8489.12 92.73
3138 67.7510 8464.00 8428.97 92.00
3139 67.7710 8518.00 8366.12 92.29
3140 67.7910 8474.00 8301.27 92.05
3141 67.8110 8082.00 8235.24 89.90
3142 67.8310 8071.00 8168.72 89.84
3143 67.8510 8087.00 8102.59 89.93
3144 67.8710 8147.00 8037.69 90.26
3145 67.8910 7892.00 7974.84 88.84
3146 67.9110 7912.00 7914.91 88.95
3147 67.9310 7754.00 7858.63 88.06
3148 67.9510 7812.00 7806.71 88.39
3149 67.9710 7822.00 7758.79 88.44
3150 67.9910 7720.00 7717.10 87.86
3151 68.0110 7574.00 7681.01 87.03
3152 68.0310 7890.00 7651.03 88.83
3153 68.0510 7728.00 7627.23 87.91
3154 68.0710 7620.00 7609.75 87.29
3155 68.0910 7560.00 7598.72 86.95
3156 68.1110 7585.00 7594.16 87.09
3157 68.1310 7696.00 7596.09 87.73
3158 68.1510 7590.00 7604.51 87.12
3159 68.1710 7788.00 7619.34 88.25
3160 68.1910 7581.00 7640.52 87.07
3161 68.2110 7383.00 7667.94 85.92
3162 68.2310 7611.00 7701.40 87.24
3163 68.2510 7745.00 7740.71 88.01
3164 68.2710 7517.00 7785.51 86.70
3165 68.2910 7739.00 7834.58 87.97
3166 68.3110 8160.00 7889.15 90.33
3167 68.3310 7881.00 7946.43 88.78
3168 68.3510 8100.00 8008.12 90.00
3169 68.3710 8310.00 8072.11 91.16
3170 68.3910 8419.00 8137.42 91.76
3171 68.4110 8328.00 8203.01 91.26
3172 68.4310 8418.00 8267.28 91.75
3173 68.4510 8551.00 8331.17 92.47
3174 68.4710 8565.00 8393.38 92.55
3175 68.4910 8507.00 8453.47 92.23
3176 68.5110 8475.00 8511.25 92.06
3177 68.5310 8493.00 8566.36 92.16
3178 68.5510 9032.00 8619.93 95.04
3179 68.5710 8719.00 8668.63 93.38
3180 68.5910 8860.00 8713.43 94.13
3181 68.6110 8502.00 8753.82 92.21
3182 68.6310 8949.00 8789.21 94.60
3183 68.6510 9149.00 8819.07 95.65
3184 68.6710 8834.00 8842.68 93.99
3185 68.6910 9008.00 8859.37 94.91
3186 68.7110 9204.00 8868.46 95.94
3187 68.7310 9419.00 8869.34 97.05
3188 68.7510 9238.00 8861.64 96.11
3189 68.7710 8760.00 8845.28 93.59
3190 68.7910 9251.00 8820.54 96.18
3191 68.8110 9102.00 8787.71 95.40
3192 68.8310 9056.00 8748.64 95.16
3193 68.8510 8925.00 8704.34 94.47
3194 68.8710 8533.00 8656.35 92.37
3195 68.8910 8666.00 8606.29 93.09
3196 68.9110 8810.00 8555.85 93.86
3197 68.9310 8467.00 8506.54 92.02
3198 68.9510 8423.00 8459.82 91.78
3199 68.9710 8357.00 8416.63 91.42
3200 68.9910 8176.00 8378.40 90.42
3201 69.0110 8590.00 8345.73 92.68
3202 69.0310 8424.00 8319.26 91.78
3203 69.0510 8435.00 8299.38 91.84
3204 69.0710 8121.00 8286.35 90.12
3205 69.0910 8358.00 8278.20 91.42
3206 69.1110 8142.00 8278.97 90.23
3207 69.1310 8469.00 8286.38 92.03
3208 69.1510 8294.00 8300.03 91.07
3209 69.1710 8237.00 8319.35 90.76
3210 69.1910 8266.00 8343.64 90.92
3211 69.2110 8699.00 8372.05 93.27
3212 69.2310 8574.00 8403.50 92.60
3213 69.2510 8784.00 8436.87 93.72
3214 69.2710 8740.00 8474.10 93.49
3215 69.2910 8708.00 8507.45 93.32
3216 69.3110 8477.00 8538.76 92.07
3217 69.3310 8461.00 8566.78 91.98
3218 69.3510 8750.00 8590.38 93.54
3219 69.3710 8731.00 8608.66 93.44
3220 69.3910 8837.00 8620.95 94.01
3221 69.4110 9076.00 8626.93 95.27
3222 69.4310 9086.00 8626.57 95.32
3223 69.4510 9025.00 8620.11 95.00
3224 69.4710 9072.00 8608.07 95.25
3225 69.4910 9205.00 8591.13 95.94
3226 69.5110 9148.00 8570.15 95.65
3227 69.5310 8888.00 8546.16 94.28
3228 69.5510 8951.00 8520.29 94.61
3229 69.5710 9158.00 8493.73 95.70
3230 69.5910 8694.00 8467.82 93.24
3231 69.6110 8731.00 8443.85 93.44
3232 69.6310 8531.00 8423.10 92.36
3233 69.6510 8667.00 8412.98 93.10
3234 69.6710 8531.00 8402.03 92.36
3235 69.6910 8408.00 8397.28 91.70
3236 69.7110 8456.00 8399.31 91.96
3237 69.7310 8604.00 8408.48 92.76
3238 69.7510 8802.00 8424.94 93.82
3239 69.7710 8521.00 8448.56 92.31
3240 69.7910 8353.00 8478.73 91.39
3241 69.8110 8566.00 8515.54 92.55
3242 69.8310 8515.00 8557.96 92.28
3243 69.8510 8534.00 8604.79 92.38
3244 69.8710 8561.00 8655.66 92.53
3245 69.8910 8511.00 8709.18 92.26
3246 69.9110 8657.00 8764.12 93.04
3247 69.9310 8855.00 8819.22 94.10
3248 69.9510 8907.00 8873.14 94.38
3249 69.9710 8973.00 8924.47 94.73
3250 69.9910 8971.00 8971.62 94.72
3251 70.0110 9061.00 9013.31 95.19
3252 70.0310 9169.00 9048.15 95.75
3253 70.0510 9077.00 9075.01 95.27
3254 70.0710 9202.00 9093.08 95.93
3255 70.0910 8968.00 9101.99 94.70
3256 70.1110 9351.00 9101.84 96.70
3257 70.1310 9506.00 9093.19 97.50
3258 70.1510 9324.00 9077.07 96.56
3259 70.1710 9126.00 9054.89 95.53
3260 70.1910 9249.00 9028.25 96.17
3261 70.2110 9170.00 8998.93 95.76
3262 70.2310 9279.00 8968.75 96.33
3263 70.2510 9488.00 8938.85 97.41
3264 70.2710 9072.00 8911.92 95.25
3265 70.2910 8974.00 8888.75 94.73
3266 70.3110 9003.00 8869.90 94.88
3267 70.3310 9156.00 8855.27 95.69
3268 70.3510 8994.00 8849.20 94.84
3269 70.3710 9101.00 8849.83 95.40
3270 70.3910 9191.00 8857.15 95.87
3271 70.4110 8734.00 8870.83 93.46
3272 70.4310 8992.00 8890.21 94.83
3273 70.4510 9305.00 8914.24 96.46
3274 70.4710 9273.00 8941.49 96.30
3275 70.4910 9496.00 8970.17 97.45
3276 70.5110 9456.00 8998.17 97.24
3277 70.5310 9514.00 9023.13 97.54
3278 70.5510 9732.00 9042.66 98.65
3279 70.5710 9388.00 9054.51 96.89
3280 70.5910 9444.00 9056.84 97.18
3281 70.6110 9637.00 9048.45 98.17
3282 70.6310 9795.00 9028.98 98.97
3283 70.6510 9550.00 8998.45 97.72
3284 70.6710 9563.00 8959.10 97.79
3285 70.6910 9447.00 8910.76 97.20
3286 70.7110 9047.00 8858.80 95.12
3287 70.7310 8999.00 8803.54 94.86
3288 70.7510 9012.00 8748.03 94.93
3289 70.7710 9198.00 8693.79 95.91
3290 70.7910 8934.00 8642.33 94.52
3291 70.8110 9163.00 8594.96 95.72
3292 70.8310 9139.00 8552.59 95.60
3293 70.8510 8908.00 8515.94 94.38
3294 70.8710 9298.00 8485.49 96.43
3295 70.8910 8945.00 8461.64 94.58
3296 70.9110 8889.00 8444.71 94.28
3297 70.9310 8679.00 8434.95 93.16
3298 70.9510 8879.00 8432.58 94.23
3299 70.9710 9009.00 8438.62 94.92
3300 70.9910 8878.00 8451.33 94.22
3301 71.0110 9027.00 8471.44 95.01
3302 71.0310 8917.00 8498.58 94.43
3303 71.0510 8890.00 8532.06 94.29
3304 71.0710 8820.00 8570.87 93.91
3305 71.0910 8944.00 8613.62 94.57
3306 71.1110 9120.00 8657.89 95.50
3307 71.1310 9072.00 8702.43 95.25
3308 71.1510 8964.00 8743.97 94.68
3309 71.1710 9243.00 8779.54 96.14
3310 71.1910 9267.00 8806.14 96.27
3311 71.2110 9315.00 8820.49 96.51
3312 71.2310 9054.00 8821.56 95.15
3313 71.2510 9180.00 8807.54 95.81
3314 71.2710 9149.00 8778.40 95.65
3315 71.2910 9160.00 8734.85 95.71
3316 71.3110 9066.00 8678.61 95.22
3317 71.3310 9290.00 8611.86 96.38
3318 71.3510 9065.00 8537.28 95.21
3319 71.3710 8784.00 8458.69 93.72
3320 71.3910 9016.00 8376.44 94.95
3321 71.4110 8782.00 8294.06 93.71
3322 71.4310 8433.00 8213.56 91.83
3323 71.4510 8156.00 8136.74 90.31
3324 71.4710 8374.00 8064.80 91.51
3325 71.4910 8134.00 7998.85 90.19
3326 71.5110 8245.00 7939.43 90.80
3327 71.5310 8221.00 7887.23 90.67
3328 71.5510 7916.00 7842.33 88.97
3329 71.5710 7807.00 7804.74 88.36
3330 71.5910 7758.00 7774.38 88.08
3331 71.6110 7989.00 7750.90 89.38
3332 71.6310 7858.00 7733.81 88.65
3333 71.6510 8052.00 7722.86 89.73
3334 71.6710 7720.00 7717.32 87.86
3335 71.6910 7649.00 7713.33 87.46
3336 71.7110 7868.00 7716.56 88.70
3337 71.7310 8002.00 7723.03 89.45
3338 71.7510 8234.00 7731.96 90.74
3339 71.7710 8140.00 7742.59 90.22
3340 71.7910 7827.00 7754.16 88.47
3341 71.8110 8162.00 7765.95 90.34
3342 71.8310 8003.00 7781.03 89.46
3343 71.8510 7690.00 7791.40 87.69
3344 71.8710 8130.00 7800.23 90.17
3345 71.8910 8218.00 7807.04 90.65
3346 71.9110 8002.00 7811.45 89.45
3347 71.9310 8187.00 7813.16 90.48
3348 71.9510 7930.00 7811.91 89.05
3349 71.9710 8176.00 7807.61 90.42
3350 71.9910 8335.00 7800.26 91.30
3351 72.0110 7962.00 7789.97 89.23
3352 72.0310 7634.00 7777.03 87.37
3353 72.0510 8074.00 7761.83 89.86
3354 72.0710 8108.00 7744.85 90.04
3355 72.0910 7908.00 7726.66 88.93
3356 72.1110 7779.00 7707.85 88.20
3357 72.1310 7771.00 7689.01 88.15
3358 72.1510 7782.00 7670.63 88.22
3359 72.1710 7703.00 7653.15 87.77
3360 72.1910 7933.00 7636.69 89.07
3361 72.2110 7820.00 7621.90 88.43
3362 72.2310 7922.00 7608.67 89.01
3363 72.2510 7859.00 7596.99 88.65
3364 72.2710 7765.00 7586.83 88.12
3365 72.2910 7683.00 7578.07 87.65
3366 72.3110 7328.00 7570.58 85.60
3367 72.3310 7409.00 7564.26 86.08
3368 72.3510 7306.00 7559.01 85.48
3369 72.3710 7594.00 7556.18 87.14
3370 72.3910 7454.00 7552.74 86.34
3371 72.4110 7478.00 7550.03 86.48
3372 72.4310 7816.00 7547.92 88.41
3373 72.4510 7645.00 7546.27 87.44
3374 72.4710 7627.00 7544.81 87.33
3375 72.4910 7514.00 7543.84 86.68
3376 72.5110 7513.00 7543.26 86.68
3377 72.5310 7482.00 7543.20 86.50
3378 72.5510 7434.00 7543.91 86.22
3379 72.5710 7626.00 7545.62 87.33
3380 72.5910 7418.00 7548.56 86.13
3381 72.6110 7664.00 7552.85 87.54
3382 72.6310 7553.00 7558.52 86.91
3383 72.6510 7615.00 7565.46 87.26
3384 72.6710 7590.00 7573.43 87.12
3385 72.6910 7254.00 7582.12 85.17
3386 72.7110 7242.00 7591.17 85.10
3387 72.7310 7384.00 7600.15 85.93
3388 72.7510 7485.00 7608.65 86.52
3389 72.7710 7477.00 7615.66 86.47
3390 72.7910 7595.00 7622.16 87.15
3391 72.8110 7586.00 7627.25 87.10
3392 72.8310 7614.00 7630.78 87.26
3393 72.8510 7627.00 7632.67 87.33
3394 72.8710 7787.00 7632.96 88.24
3395 72.8910 7731.00 7631.75 87.93
3396 72.9110 7547.00 7629.27 86.87
3397 72.9310 7660.00 7625.74 87.52
3398 72.9510 7500.00 7621.41 86.60
3399 72.9710 7649.00 7616.53 87.46
3400 72.9910 7780.00 7611.33 88.20
3401 73.0110 7689.00 7606.01 87.69
3402 73.0310 7466.00 7600.71 86.41
3403 73.0510 7594.00 7595.50 87.14
3404 73.0710 7761.00 7590.35 88.10
3405 73.0910 7530.00 7585.22 86.78
3406 73.1110 7358.00 7579.92 85.78
3407 73.1310 7491.00 7574.07 86.55
3408 73.1510 7646.00 7567.69 87.44
3409 73.1710 7482.00 7560.32 86.50
3410 73.1910 7385.00 7551.66 85.94
3411 73.2110 7450.00 7541.45 86.31
3412 73.2310 7624.00 7529.53 87.32
3413 73.2510 8027.00 7515.82 89.59
3414 73.2710 7477.00 7500.38 86.47
3415 73.2910 7353.00 7483.30 85.75
3416 73.3110 7604.00 7464.80 87.20
3417 73.3310 7914.00 7445.07 88.96
3418 73.3510 7419.00 7424.37 86.13
3419 73.3710 7156.00 7402.92 84.59
3420 73.3910 7348.00 7380.94 85.72
3421 73.4110 7591.00 7358.64 87.13
3422 73.4310 7502.00 7336.23 86.61
3423 73.4510 7302.00 7313.83 85.45
3424 73.4710 7323.00 7291.86 85.57
3425 73.4910 7403.00 7270.52 86.04
3426 73.5110 7262.00 7255.35 85.22
3427 73.5310 7083.00 7236.16 84.16
3428 73.5510 7091.00 7218.32 84.21
3429 73.5710 7295.00 7202.56 85.41
3430 73.5910 7065.00 7189.00 84.05
3431 73.6110 7032.00 7178.20 83.86
3432 73.6310 7066.00 7169.94 84.06
3433 73.6510 7200.00 7164.26 84.85
3434 73.6710 7363.00 7162.24 85.81
3435 73.6910 7509.00 7163.57 86.65
3436 73.7110 7102.00 7167.62 84.27
3437 73.7310 7298.00 7175.90 85.43
3438 73.7510 7378.00 7187.66 85.90
3439 73.7710 7005.00 7202.57 83.70
3440 73.7910 7080.00 7221.06 84.14
3441 73.8110 7134.00 7242.59 84.46
3442 73.8310 6939.00 7267.16 83.30
3443 73.8510 7115.00 7294.42 84.35
3444 73.8710 7222.00 7324.13 84.98
3445 73.8910 7351.00 7356.04 85.74
3446 73.9110 7325.00 7389.92 85.59
3447 73.9310 7459.00 7425.57 86.37
3448 73.9510 7569.00 7462.79 87.00
3449 73.9710 7612.00 7501.52 87.25
3450 73.9910 7536.00 7541.62 86.81
3451 74.0110 7584.00 7583.01 87.09
3452 74.0310 7527.00 7625.42 86.76
3453 74.0510 7556.00 7668.92 86.93
3454 74.0710 7615.00 7713.14 87.26
3455 74.0910 7492.00 7757.76 86.56
3456 74.1110 7500.00 7802.35 86.60
3457 74.1310 7913.00 7846.39 88.96
3458 74.1510 8034.00 7889.25 89.63
3459 74.1710 8111.00 7930.19 90.06
3460 74.1910 8245.00 7968.44 90.80
3461 74.2110 8169.00 8002.83 90.38
3462 74.2310 8194.00 8033.45 90.52
3463 74.2510 8068.00 8057.95 89.82
3464 74.2710 8178.00 8078.66 90.43
3465 74.2910 8280.00 8094.11 90.99
3466 74.3110 8187.00 8104.43 90.48
3467 74.3310 8235.00 8109.96 90.75
3468 74.3510 8339.00 8111.22 91.32
3469 74.3710 8326.00 8108.80 91.25
3470 74.3910 8168.00 8103.34 90.38
3471 74.4110 8046.00 8095.47 89.70
3472 74.4310 7982.00 8085.77 89.34
3473 74.4510 7987.00 8074.86 89.37
3474 74.4710 8036.00 8063.28 89.64
3475 74.4910 8035.00 8051.59 89.64
3476 74.5110 8155.00 8040.31 90.31
3477 74.5310 7927.00 8029.97 89.03
3478 74.5510 8203.00 8021.00 90.57
3479 74.5710 8084.00 8013.75 89.91
3480 74.5910 8042.00 8008.49 89.68
3481 74.6110 8067.00 8005.35 89.82
3482 74.6310 8136.00 8004.33 90.20
3483 74.6510 8219.00 8007.92 90.66
3484 74.6710 8072.00 8010.70 89.84
3485 74.6910 7858.00 8014.92 88.65
3486 74.7110 7985.00 8020.13 89.36
3487 74.7310 8009.00 8025.88 89.49
3488 74.7510 8215.00 8031.63 90.64
3489 74.7710 7931.00 8036.88 89.06
3490 74.7910 7831.00 8041.14 88.49
3491 74.8110 8020.00 8044.04 89.55
3492 74.8310 8029.00 8045.27 89.60
3493 74.8510 8106.00 8044.69 90.03
3494 74.8710 8060.00 8042.20 89.78
3495 74.8910 8064.00 8038.13 89.80
3496 74.9110 7872.00 8032.68 88.72
3497 74.9310 8063.00 8026.24 89.79
3498 74.9510 7877.00 8019.30 88.75
3499 74.9710 7988.00 8012.01 89.38
3500 74.9910 7808.00 8005.62 88.36
3501 75.0110 7633.00 8000.37 87.37
3502 75.0310 7983.00 7996.70 89.35
3503 75.0510 8003.00 7995.84 89.46
3504 75.0710 7869.00 7996.48 88.71
3505 75.0910 7649.00 7999.71 87.46
3506 75.1110 7528.00 8005.74 86.76
3507 75.1310 7894.00 8014.37 88.85
3508 75.1510 7616.00 8026.47 87.27
3509 75.1710 7633.00 8041.78 87.37
3510 75.1910 7735.00 8060.48 87.95
3511 75.2110 7741.00 8082.70 87.98
3512 75.2310 7692.00 8108.58 87.70
3513 75.2510 8047.00 8138.21 89.71
3514 75.2710 8006.00 8171.63 89.48
3515 75.2910 8053.00 8208.79 89.74
3516 75.3110 8237.00 8249.59 90.76
3517 75.3310 8069.00 8293.75 89.83
3518 75.3510 8089.00 8340.91 89.94
3519 75.3710 8056.00 8390.56 89.76
3520 75.3910 8080.00 8442.13 89.89
3521 75.4110 8176.00 8494.67 90.42
3522 75.4310 8476.00 8547.90 92.07
3523 75.4510 8195.00 8600.70 90.53
3524 75.4710 8663.00 8652.16 93.08
3525 75.4910 8532.00 8701.33 92.37
3526 75.5110 8564.00 8747.23 92.54
3527 75.5310 8746.00 8788.80 93.52
3528 75.5510 8573.00 8825.05 92.59
3529 75.5710 8721.00 8855.07 93.39
3530 75.5910 8830.00 8877.92 93.97
3531 75.6110 8658.00 8892.94 93.05
3532 75.6310 8700.00 8899.56 93.27
3533 75.6510 8838.00 8897.44 94.01
3534 75.6710 8776.00 8886.45 93.68
3535 75.6910 8592.00 8866.72 92.69
3536 75.7110 8581.00 8838.46 92.63
3537 75.7310 8620.00 8802.13 92.84
3538 75.7510 8657.00 8758.18 93.04
3539 75.7710 8583.00 8707.26 92.64
3540 75.7910 8277.00 8649.95 90.98
3541 75.8110 8434.00 8586.96 91.84
3542 75.8310 8668.00 8518.93 93.10
3543 75.8510 8323.00 8446.67 91.23
3544 75.8710 8169.00 8370.81 90.38
3545 75.8910 8068.00 8292.19 89.82
3546 75.9110 7742.00 8211.64 87.99
3547 75.9310 7703.00 8129.86 87.77
3548 75.9510 7617.00 8047.63 87.28
3549 75.9710 7494.00 7965.65 86.57
3550 75.9910 7507.00 7884.44 86.64
3551 76.0110 7222.00 7804.58 84.98
3552 76.0310 7011.00 7725.55 83.73
3553 76.0510 7176.00 7650.61 84.71
3554 76.0710 7410.00 7578.49 86.08
3555 76.0910 7293.00 7509.54 85.40
3556 76.1110 7338.00 7443.85 85.66
3557 76.1310 7067.00 7381.64 84.07
3558 76.1510 7091.00 7322.95 84.21
3559 76.1710 7056.00 7267.81 84.00
3560 76.1910 6751.00 7216.22 82.16
3561 76.2110 7021.00 7168.11 83.79
3562 76.2310 6942.00 7123.52 83.32
3563 76.2510 6853.00 7082.29 82.78
3564 76.2710 6955.00 7044.42 83.40
3565 76.2910 6989.00 7009.80 83.60
3566 76.3110 6675.00 6978.38 81.70
3567 76.3310 6687.00 6954.41 81.77
3568 76.3510 6725.00 6929.15 82.01
3569 76.3710 6891.00 6906.84 83.01
3570 76.3910 6652.00 6887.42 81.56
3571 76.4110 6902.00 6870.83 83.08
3572 76.4310 6607.00 6856.96 81.28
3573 76.4510 6859.00 6845.77 82.82
3574 76.4710 6701.00 6837.16 81.86
3575 76.4910 6263.00 6831.03 79.14
3576 76.5110 6361.00 6827.28 79.76
3577 76.5310 6651.00 6825.76 81.55
3578 76.5510 6531.00 6826.34 80.81
3579 76.5710 6604.00 6828.85 81.26
3580 76.5910 6684.00 6833.11 81.76
3581 76.6110 6731.00 6838.94 82.04
3582 76.6310 6758.00 6846.19 82.21
3583 76.6510 6557.00 6854.45 80.98
3584 76.6710 6747.00 6864.17 82.14
3585 76.6910 6850.00 6875.02 82.76
3586 76.7110 6798.00 6886.99 82.45
3587 76.7310 6704.00 6900.03 81.88
3588 76.7510 6985.00 6912.96 83.58
3589 76.7710 6694.00 6928.03 81.82
3590 76.7910 6688.00 6944.00 81.78
3591 76.8110 6597.00 6960.73 81.22
3592 76.8310 6919.00 6978.11 83.18
3593 76.8510 6703.00 6996.01 81.87
3594 76.8710 6918.00 7014.41 83.17
3595 76.8910 7174.00 7033.32 84.70
3596 76.9110 7308.00 7052.80 85.49
3597 76.9310 6861.00 7073.16 82.83
3598 76.9510 6677.00 7094.43 81.71
3599 76.9710 6838.00 7117.37 82.69
3600 76.9910 6906.00 7142.12 83.10
3601 77.0110 6647.00 7169.02 81.53
3602 77.0310 7090.00 7198.46 84.20
3603 77.0510 7060.00 7230.60 84.02
3604 77.0710 7213.00 7265.52 84.93
3605 77.0910 7196.00 7303.03 84.83
3606 77.1110 7156.00 7343.09 84.59
3607 77.1310 7172.00 7385.03 84.69
3608 77.1510 6978.00 7428.10 83.53
3609 77.1710 7287.00 7470.96 85.36
3610 77.1910 7267.00 7512.77 85.25
3611 77.2110 7275.00 7551.72 85.29
3612 77.2310 7355.00 7586.03 85.76
3613 77.2510 7376.00 7614.03 85.88
3614 77.2710 7395.00 7634.18 85.99
3615 77.2910 7295.00 7645.38 85.41
3616 77.3110 7467.00 7647.14 86.41
3617 77.3310 7414.00 7638.21 86.10
3618 77.3510 7657.00 7622.37 87.50
3619 77.3710 7328.00 7599.58 85.60
3620 77.3910 7421.00 7571.57 86.15
3621 77.4110 7334.00 7540.29 85.64
3622 77.4310 7325.00 7507.50 85.59
3623 77.4510 7177.00 7474.85 84.72
3624 77.4710 7368.00 7443.66 85.84
3625 77.4910 7280.00 7414.98 85.32
3626 77.5110 7369.00 7388.40 85.84
3627 77.5310 7290.00 7365.00 85.38
3628 77.5510 7220.00 7347.61 84.97
3629 77.5710 7096.00 7334.55 84.24
3630 77.5910 7051.00 7325.89 83.97
3631 77.6110 7124.00 7321.54 84.40
3632 77.6310 7289.00 7321.38 85.38
3633 77.6510 7062.00 7325.18 84.04
3634 77.6710 7205.00 7332.65 84.88
3635 77.6910 7075.00 7343.44 84.11
3636 77.7110 7124.00 7357.16 84.40
3637 77.7310 7455.00 7373.36 86.34
3638 77.7510 7219.00 7391.59 84.96
3639 77.7710 7409.00 7411.37 86.08
3640 77.7910 7542.00 7432.27 86.84
3641 77.8110 7302.00 7453.86 85.45
3642 77.8310 7517.00 7475.79 86.70
3643 77.8510 7470.00 7497.78 86.43
3644 77.8710 7539.00 7519.63 86.83
3645 77.8910 7560.00 7541.22 86.95
3646 77.9110 7468.00 7561.67 86.42
3647 77.9310 7415.00 7582.63 86.11
3648 77.9510 7465.00 7603.33 86.40
3649 77.9710 7495.00 7623.83 86.57
3650 77.9910 7547.00 7644.22 86.87
3651 78.0110 7565.00 7664.57 86.98
3652 78.0310 7735.00 7684.95 87.95
3653 78.0510 7532.00 7705.43 86.79
3654 78.0710 7578.00 7726.09 87.05
3655 78.0910 7853.00 7746.97 88.62
3656 78.1110 7940.00 7768.14 89.11
3657 78.1310 7529.00 7789.60 86.77
3658 78.1510 8062.00 7811.50 89.79
3659 78.1710 7857.00 7833.80 88.64
3660 78.1910 7520.00 7856.48 86.72
3661 78.2110 7546.00 7879.48 86.87
3662 78.2310 8110.00 7902.69 90.06
3663 78.2510 7969.00 7925.95 89.27
3664 78.2710 8087.00 7948.99 89.93
3665 78.2910 7960.00 7971.53 89.22
3666 78.3110 7748.00 7992.93 88.02
3667 78.3310 7879.00 8013.34 88.76
3668 78.3510 8324.00 8031.99 91.24
3669 78.3710 8108.00 8048.37 90.04
3670 78.3910 8138.00 8061.92 90.21
3671 78.4110 8021.00 8072.05 89.56
3672 78.4310 8059.00 8081.25 89.77
3673 78.4510 8141.00 8082.82 90.23
3674 78.4710 8062.00 8079.33 89.79
3675 78.4910 8051.00 8070.15 89.73
3676 78.5110 7729.00 8055.41 87.91
3677 78.5310 7844.00 8034.82 88.57
3678 78.5510 8033.00 8008.46 89.63
3679 78.5710 8101.00 7976.60 90.01
3680 78.5910 8136.00 7939.58 90.20
3681 78.6110 7803.00 7898.42 88.33
3682 78.6310 7862.00 7853.73 88.67
3683 78.6510 7940.00 7806.40 89.11
3684 78.6710 7708.00 7757.41 87.80
3685 78.6910 7733.00 7707.62 87.94
3686 78.7110 7479.00 7657.91 86.48
3687 78.7310 7481.00 7609.12 86.49
3688 78.7510 7402.00 7561.87 86.03
3689 78.7710 7379.00 7516.80 85.90
3690 78.7910 7235.00 7474.32 85.06
3691 78.8110 7373.00 7434.81 85.87
3692 78.8310 7452.00 7398.42 86.32
3693 78.8510 7236.00 7365.05 85.06
3694 78.8710 7181.00 7335.09 84.74
3695 78.8910 7141.00 7308.12 84.50
3696 78.9110 7278.00 7283.88 85.31
3697 78.9310 7177.00 7261.90 84.72
3698 78.9510 6990.00 7241.64 83.61
3699 78.9710 7036.00 7222.33 83.88
3700 78.9910 7071.00 7203.39 84.09
3701 79.0110 6900.00 7183.62 83.07
3702 79.0310 7044.00 7163.05 83.93
3703 79.0510 6911.00 7140.76 83.13
3704 79.0710 6994.00 7116.40 83.63
3705 79.0910 7132.00 7089.15 84.45
3706 79.1110 7069.00 7060.66 84.08
3707 79.1310 7013.00 7030.55 83.74
3708 79.1510 7078.00 6999.36 84.13
3709 79.1710 7002.00 6967.68 83.68
3710 79.1910 6957.00 6937.29 83.41
3711 79.2110 6843.00 6906.35 82.72
3712 79.2310 6795.00 6877.74 82.43
3713 79.2510 6774.00 6849.44 82.30
3714 79.2710 6767.00 6822.94 82.26
3715 79.2910 6773.00 6798.41 82.30
3716 79.3110 6793.00 6776.04 82.42
3717 79.3310 6845.00 6755.91 82.73
3718 79.3510 6399.00 6738.10 79.99
3719 79.3710 6641.00 6722.64 81.49
3720 79.3910 6419.00 6709.53 80.12
3721 79.4110 6504.00 6698.79 80.65
3722 79.4310 6640.00 6690.39 81.49
3723 79.4510 6898.00 6684.32 83.05
3724 79.4710 6650.00 6680.55 81.55
3725 79.4910 6840.00 6679.06 82.70
3726 79.5110 7059.00 6679.81 84.02
3727 79.5310 6779.00 6682.65 82.33
3728 79.5510 6846.00 6687.82 82.74
3729 79.5710 6796.00 6695.17 82.44
3730 79.5910 6623.00 6704.27 81.38
3731 79.6110 6612.00 6715.66 81.31
3732 79.6310 6617.00 6729.57 81.34
3733 79.6510 6570.00 6745.69 81.06
3734 79.6710 6591.00 6764.04 81.18
3735 79.6910 6972.00 6784.68 83.50
3736 79.7110 7018.00 6807.60 83.77
3737 79.7310 6966.00 6832.86 83.46
3738 79.7510 6776.00 6860.59 82.32
3739 79.7710 6801.00 6890.64 82.47
3740 79.7910 6764.00 6922.98 82.24
3741 79.8110 7011.00 6958.06 83.73
3742 79.8310 7298.00 6995.62 85.43
3743 79.8510 7099.00 7035.40 84.26
3744 79.8710 7045.00 7077.69 83.93
3745 79.8910 7059.00 7122.26 84.02
3746 79.9110 7240.00 7168.79 85.09
3747 79.9310 7283.00 7217.47 85.34
3748 79.9510 7317.00 7267.92 85.54
3749 79.9710 7538.00 7320.00 86.82
3750 79.9910 7615.00 7373.45 87.26
3751 80.0110 7632.00 7427.72 87.36
3752 80.0310 7578.00 7482.64 87.05
3753 80.0510 7533.00 7538.79 86.79
3754 80.0710 7677.00 7595.34 87.62
3755 80.0910 7877.00 7651.95 88.75
3756 80.1110 7532.00 7708.33 86.79
3757 80.1310 7537.00 7764.14 86.82
3758 80.1510 7799.00 7819.02 88.31
3759 80.1710 7908.00 7872.60 88.93
3760 80.1910 7721.00 7924.50 87.87
3761 80.2110 8133.00 7974.32 90.18
3762 80.2310 8021.00 8021.59 89.56
3763 80.2510 8326.00 8065.90 91.25
3764 80.2710 8175.00 8106.82 90.42
3765 80.2910 8244.00 8143.91 90.80
3766 80.3110 8375.00 8176.76 91.51
3767 80.3310 8212.00 8204.96 90.62
3768 80.3510 8318.00 8228.16 91.20
3769 80.3710 8308.00 8246.06 91.15
3770 80.3910 8529.00 8258.45 92.35
3771 80.4110 8255.00 8265.21 90.86
3772 80.4310 8319.00 8266.38 91.21
3773 80.4510 8473.00 8262.12 92.05
3774 80.4710 8403.00 8252.70 91.67
3775 80.4910 8411.00 8238.56 91.71
3776 80.5110 8490.00 8220.24 92.14
3777 80.5310 8315.00 8198.37 91.19
3778 80.5510 8456.00 8173.62 91.96
3779 80.5710 8286.00 8146.69 91.03
3780 80.5910 7968.00 8118.75 89.26
3781 80.6110 8078.00 8089.60 89.88
3782 80.6310 8190.00 8060.34 90.50
3783 80.6510 7768.00 8031.50 88.14
3784 80.6710 7961.00 8003.41 89.22
3785 80.6910 7754.00 7976.87 88.06
3786 80.7110 7848.00 7951.93 88.59
3787 80.7310 7963.00 7928.92 89.24
3788 80.7510 7660.00 7907.90 87.52
3789 80.7710 7596.00 7888.90 87.15
3790 80.7910 7891.00 7871.83 88.83
3791 80.8110 7688.00 7857.34 87.68
3792 80.8310 7771.00 7843.65 88.15
3793 80.8510 7890.00 7830.95 88.83
3794 80.8710 7852.00 7819.62 88.61
3795 80.8910 7424.00 7809.01 86.16
3796 80.9110 7516.00 7798.78 86.69
3797 80.9310 7692.00 7788.55 87.70
3798 80.9510 7663.00 7778.15 87.54
3799 80.9710 7817.00 7767.22 88.41
3800 80.9910 7678.00 7755.53 87.62
3801 81.0110 7632.00 7742.87 87.36
3802 81.0310 7540.00 7728.83 86.83
3803 81.0510 7641.00 7713.90 87.41
3804 81.0710 7644.00 7697.74 87.43
3805 81.0910 7801.00 7680.40 88.32
3806 81.1110 7807.00 7661.87 88.36
3807 81.1310 7698.00 7642.18 87.74
3808 81.1510 7760.00 7621.35 88.09
3809 81.1710 7741.00 7599.41 87.98
3810 81.1910 7654.00 7576.28 87.49
3811 81.2110 7704.00 7551.94 87.77
3812 81.2310 7392.00 7526.11 85.98
3813 81.2510 7442.00 7499.97 86.27
3814 81.2710 7501.00 7471.92 86.61
3815 81.2910 7229.00 7442.67 85.02
3816 81.3110 7244.00 7412.29 85.11
3817 81.3310 7196.00 7380.86 84.83
3818 81.3510 7450.00 7348.57 86.31
3819 81.3710 7255.00 7315.59 85.18
3820 81.3910 7439.00 7282.11 86.25
3821 81.4110 7166.00 7248.01 84.65
3822 81.4310 6980.00 7214.19 83.55
3823 81.4510 6935.00 7180.55 83.28
3824 81.4710 7000.00 7147.29 83.67
3825 81.4910 6775.00 7114.59 82.31
3826 81.5110 6705.00 7082.64 81.88
3827 81.5310 6928.00 7051.60 83.23
3828 81.5510 6775.00 7021.58 82.31
3829 81.5710 6589.00 6992.67 81.17
3830 81.5910 6652.00 6964.83 81.56
3831 81.6110 6729.00 6938.37 82.03
3832 81.6310 6884.00 6913.22 82.97
3833 81.6510 6792.00 6889.35 82.41
3834 81.6710 6747.00 6866.78 82.14
3835 81.6910 6738.00 6845.51 82.09
3836 81.7110 6953.00 6825.50 83.38
3837 81.7310 6718.00 6806.76 81.96
3838 81.7510 6910.00 6789.25 83.13
3839 81.7710 6984.00 6772.83 83.57
3840 81.7910 6760.00 6757.79 82.22
3841 81.8110 6492.00 6743.99 80.57
3842 81.8310 6631.00 6731.41 81.43
3843 81.8510 6449.00 6722.10 80.31
3844 81.8710 6599.00 6712.04 81.23
3845 81.8910 6736.00 6703.22 82.07
3846 81.9110 6467.00 6695.65 80.42
3847 81.9310 6698.00 6689.29 81.84
3848 81.9510 6785.00 6684.12 82.37
3849 81.9710 6746.00 6680.08 82.13
3850 81.9910 6808.00 6677.12 82.51
3851 82.0110 6626.00 6675.19 81.40
3852 82.0310 6604.00 6674.20 81.26
3853 82.0510 6550.00 6674.08 80.93
3854 82.0710 6638.00 6674.73 81.47
3855 82.0910 6364.00 6676.08 79.77
3856 82.1110 6506.00 6678.01 80.66
3857 82.1310 6852.00 6680.41 82.78
3858 82.1510 7015.00 6683.13 83.76
3859 82.1710 6694.00 6686.16 81.82
3860 82.1910 6936.00 6689.33 83.28
3861 82.2110 6676.00 6692.53 81.71
3862 82.2310 7015.00 6695.67 83.76
3863 82.2510 6753.00 6698.65 82.18
3864 82.2710 6602.00 6701.40 81.25
3865 82.2910 6818.00 6703.86 82.57
3866 82.3110 6654.00 6706.01 81.57
3867 82.3310 6895.00 6707.84 83.04
3868 82.3510 6715.00 6709.31 81.95
3869 82.3710 6680.00 6710.62 81.73
3870 82.3910 6706.00 6713.73 81.89
3871 82.4110 6739.00 6714.85 82.09
3872 82.4310 6841.00 6716.08 82.71
3873 82.4510 6736.00 6717.41 82.07
3874 82.4710 6841.00 6719.30 82.71
3875 82.4910 6899.00 6721.77 83.06
3876 82.5110 7018.00 6724.63 83.77
3877 82.5310 6721.00 6728.78 81.98
3878 82.5510 6785.00 6733.78 82.37
3879 82.5710 6509.00 6740.19 80.68
3880 82.5910 6852.00 6747.88 82.78
3881 82.6110 6677.00 6756.91 81.71
3882 82.6310 6901.00 6767.28 83.07
3883 82.6510 6909.00 6778.97 83.12
3884 82.6710 6625.00 6791.88 81.39
3885 82.6910 6880.00 6805.86 82.95
3886 82.7110 6512.00 6820.76 80.70
3887 82.7310 6542.00 6836.33 80.88
3888 82.7510 6796.00 6852.37 82.44
3889 82.7710 6821.00 6868.66 82.59
3890 82.7910 6801.00 6885.07 82.47
3891 82.8110 6954.00 6901.47 83.39
3892 82.8310 6923.00 6917.88 83.20
3893 82.8510 7036.00 6934.34 83.88
3894 82.8710 7071.00 6951.00 84.09
3895 82.8910 6832.00 6968.02 82.66
3896 82.9110 6971.00 6985.56 83.49
3897 82.9310 6899.00 7003.80 83.06
3898 82.9510 7054.00 7022.83 83.99
3899 82.9710 7087.00 7042.74 84.18
3900 82.9910 7129.00 7063.50 84.43
3901 83.0110 7233.00 7085.10 85.05
3902 83.0310 7179.00 7107.41 84.73
3903 83.0510 7267.00 7130.31 85.25
3904 83.0710 7474.00 7153.61 86.45
3905 83.0910 7294.00 7177.12 85.40
3906 83.1110 7235.00 7200.62 85.06
3907 83.1310 7382.00 7223.84 85.92
3908 83.1510 7423.00 7246.56 86.16
3909 83.1710 7375.00 7268.53 85.88
3910 83.1910 7221.00 7289.49 84.98
3911 83.2110 7179.00 7309.19 84.73
3912 83.2310 7379.00 7327.44 85.90
3913 83.2510 7774.00 7342.91 88.17
3914 83.2710 7499.00 7357.67 86.60
3915 83.2910 7444.00 7370.53 86.28
3916 83.3110 7485.00 7381.39 86.52
3917 83.3310 7549.00 7390.25 86.89
3918 83.3510 7460.00 7397.15 86.37
3919 83.3710 7348.00 7402.19 85.72
3920 83.3910 7425.00 7405.47 86.17
3921 83.4110 7317.00 7407.18 85.54
3922 83.4310 7199.00 7407.51 84.85
3923 83.4510 7204.00 7406.67 84.88
3924 83.4710 7427.00 7404.88 86.18
3925 83.4910 7239.00 7402.40 85.08
3926 83.5110 7083.00 7399.45 84.16
3927 83.5310 7468.00 7396.28 86.42
3928 83.5510 7363.00 7393.10 85.81
3929 83.5710 7537.00 7390.16 86.82
3930 83.5910 7523.00 7387.64 86.74
3931 83.6110 7510.00 7385.68 86.66
3932 83.6310 7603.00 7384.40 87.20
3933 83.6510 7805.00 7383.69 88.35
3934 83.6710 7648.00 7383.93 87.45
3935 83.6910 7546.00 7386.42 86.87
3936 83.7110 7562.00 7386.89 86.96
3937 83.7310 7453.00 7388.88 86.33
3938 83.7510 7487.00 7391.36 86.53
3939 83.7710 7427.00 7394.19 86.18
3940 83.7910 7371.00 7397.04 85.85
3941 83.8110 7554.00 7399.03 86.91
3942 83.8310 7229.00 7401.30 85.02
3943 83.8510 7001.00 7403.01 83.67
3944 83.8710 7233.00 7404.01 85.05
3945 83.8910 7283.00 7404.21 85.34
3946 83.9110 7392.00 7403.56 85.98
3947 83.9310 7239.00 7402.06 85.08
3948 83.9510 7477.00 7399.74 86.47
3949 83.9710 7389.00 7396.34 85.96
3950 83.9910 7238.00 7394.23 85.08
3951 84.0110 7609.00 7390.07 87.23
3952 84.0310 7406.00 7385.54 86.06
3953 84.0510 7607.00 7378.94 87.22
3954 84.0710 7471.00 7374.01 86.43
3955 84.0910 7667.00 7369.00 87.56
3956 84.1110 7453.00 7363.96 86.33
3957 84.1310 7276.00 7358.93 85.30
3958 84.1510 7454.00 7353.90 86.34
3959 84.1710 7413.00 7348.83 86.10
3960 84.1910 7240.00 7343.70 85.09
3961 84.2110 7423.00 7338.41 86.16
3962 84.2310 7462.00 7332.88 86.38
3963 84.2510 7459.00 7326.99 86.37
3964 84.2710 7347.00 7320.63 85.71
3965 84.2910 7281.00 7313.63 85.33
3966 84.3110 7633.00 7305.87 87.37
3967 84.3310 7785.00 7296.47 88.23
3968 84.3510 7395.00 7286.76 85.99
3969 84.3710 7367.00 7275.89 85.83
3970 84.3910 7553.00 7263.74 86.91
3971 84.4110 7420.00 7250.28 86.14
3972 84.4310 7186.00 7235.48 84.77
3973 84.4510 7322.00 7219.35 85.57
3974 84.4710 7436.00 7201.95 86.23
3975 84.4910 7184.00 7183.38 84.76
3976 84.5110 7177.00 7163.78 84.72
3977 84.5310 7313.00 7143.29 85.52
3978 84.5510 7061.00 7122.05 84.03
3979 84.5710 7117.00 7100.41 84.36
3980 84.5910 7305.00 7078.50 85.47
3981 84.6110 7604.00 7056.63 87.20
3982 84.6310 7402.00 7035.02 86.03
3983 84.6510 7101.00 7013.88 84.27
3984 84.6710 6956.00 6993.46 83.40
3985 84.6910 7118.00 6973.94 84.37
3986 84.7110 7160.00 6955.48 84.62
3987 84.7310 7117.00 6937.99 84.36
3988 84.7510 6811.00 6922.07 82.53
3989 84.7710 7112.00 6908.79 84.33
3990 84.7910 7034.00 6895.70 83.87
3991 84.8110 6996.00 6884.05 83.64
3992 84.8310 6946.00 6873.77 83.34
3993 84.8510 6746.00 6864.81 82.13
3994 84.8710 6850.00 6857.07 82.76
3995 84.8910 6971.00 6850.42 83.49
3996 84.9110 6890.00 6844.71 83.01
3997 84.9310 7018.00 6839.79 83.77
3998 84.9510 7204.00 6835.55 84.88
3999 84.9710 7030.00 6831.82 83.85
4000 84.9910 6895.00 6828.48 83.04
4001 85.0110 7135.00 6825.46 84.47
4002 85.0310 6966.00 6822.64 83.46
4003 85.0510 6725.00 6819.99 82.01
4004 85.0710 6975.00 6817.50 83.52
4005 85.0910 6976.00 6815.15 83.52
4006 85.1110 6807.00 6812.97 82.50
4007 85.1310 6718.00 6810.82 81.96
4008 85.1510 7160.00 6809.52 84.62
4009 85.1710 6818.00 6807.85 82.57
4010 85.1910 6754.00 6806.33 82.18
4011 85.2110 6984.00 6804.92 83.57
4012 85.2310 6623.00 6803.58 81.38
4013 85.2510 6683.00 6802.22 81.75
4014 85.2710 7000.00 6800.79 83.67
4015 85.2910 6742.00 6799.20 82.11
4016 85.3110 6632.00 6797.38 81.44
4017 85.3310 6569.00 6795.22 81.05
4018 85.3510 6672.00 6792.74 81.68
4019 85.3710 6879.00 6789.86 82.94
4020 85.3910 6881.00 6786.58 82.95
4021 85.4110 6602.00 6782.94 81.25
4022 85.4310 6714.00 6778.96 81.94
4023 85.4510 6722.00 6774.75 81.99
4024 85.4710 6733.00 6770.38 82.05
4025 85.4910 6772.00 6766.01 82.29
4026 85.5110 6866.00 6761.76 82.86
4027 85.5310 7024.00 6757.79 83.81
4028 85.5510 6999.00 6754.25 83.66
4029 85.5710 6908.00 6751.31 83.11
4030 85.5910 6806.00 6749.13 82.50
4031 85.6110 6800.00 6747.82 82.46
4032 85.6310 6805.00 6747.53 82.49
4033 85.6510 7012.00 6748.34 83.74
4034 85.6710 6902.00 6750.30 83.08
4035 85.6910 6873.00 6753.46 82.90
4036 85.7110 6846.00 6757.76 82.74
4037 85.7310 6783.00 6763.13 82.36
4038 85.7510 6901.00 6769.41 83.07
4039 85.7710 7105.00 6776.35 84.29
4040 85.7910 6865.00 6783.66 82.86
4041 85.8110 6985.00 6790.92 83.58
4042 85.8310 7081.00 6797.68 84.15
4043 85.8510 7095.00 6803.42 84.23
4044 85.8710 6726.00 6807.09 82.01
4045 85.8910 6594.00 6809.24 81.20
4046 85.9110 6855.00 6808.83 82.79
4047 85.9310 6826.00 6805.64 82.62
4048 85.9510 6966.00 6799.63 83.46
4049 85.9710 6846.00 6790.73 82.74
4050 85.9910 6908.00 6779.12 83.11
4051 86.0110 6967.00 6765.09 83.47
4052 86.0310 6746.00 6749.07 82.13
4053 86.0510 6832.00 6731.46 82.66
4054 86.0710 6758.00 6712.70 82.21
4055 86.0910 6546.00 6693.23 80.91
4056 86.1110 6814.00 6673.37 82.55
4057 86.1310 6543.00 6653.48 80.89
4058 86.1510 6583.00 6633.79 81.14
4059 86.1710 6481.00 6614.57 80.50
4060 86.1910 6613.00 6595.96 81.32
4061 86.2110 6490.00 6578.11 80.56
4062 86.2310 6516.00 6561.14 80.72
4063 86.2510 6607.00 6545.13 81.28
4064 86.2710 6259.00 6530.14 79.11
4065 86.2910 6378.00 6516.20 79.86
4066 86.3110 6702.00 6503.34 81.87
4067 86.3310 6742.00 6491.55 82.11
4068 86.3510 6379.00 6480.84 79.87
4069 86.3710 6424.00 6471.18 80.15
4070 86.3910 6587.00 6462.57 81.16
4071 86.4110 6302.00 6454.80 79.39
4072 86.4310 6431.00 6448.24 80.19
4073 86.4510 6694.00 6442.71 81.82
4074 86.4710 6334.00 6438.18 79.59
4075 86.4910 6418.00 6434.66 80.11
4076 86.5110 6352.00 6432.17 79.70
4077 86.5310 6381.00 6430.31 79.88
4078 86.5510 6495.00 6429.84 80.59
4079 86.5710 6552.00 6430.46 80.94
4080 86.5910 6596.00 6432.13 81.22
4081 86.6110 6536.00 6434.88 80.85
4082 86.6310 6507.00 6438.69 80.67
4083 86.6510 6459.00 6443.57 80.37
4084 86.6710 6500.00 6449.51 80.62
4085 86.6910 6389.00 6456.51 79.93
4086 86.7110 6405.00 6464.51 80.03
4087 86.7310 6548.00 6473.52 80.92
4088 86.7510 6673.00 6482.75 81.69
4089 86.7710 6592.00 6493.58 81.19
4090 86.7910 6607.00 6505.21 81.28
4091 86.8110 6484.00 6517.45 80.52
4092 86.8310 6639.00 6530.43 81.48
4093 86.8510 6448.00 6543.94 80.30
4094 86.8710 6535.00 6560.46 80.84
4095 86.8910 6475.00 6574.72 80.47
4096 86.9110 6540.00 6589.16 80.87
4097 86.9310 6626.00 6603.70 81.40
4098 86.9510 6576.00 6618.24 81.09
4099 86.9710 6421.00 6632.67 80.13
4100 86.9910 6855.00 6646.93 82.79
4101 87.0110 6740.00 6660.93 82.10
4102 87.0310 6806.00 6674.60 82.50
4103 87.0510 6780.00 6687.48 82.34
4104 87.0710 6572.00 6700.30 81.07
4105 87.0910 6759.00 6712.56 82.21
4106 87.1110 6516.00 6723.97 80.72
4107 87.1310 6502.00 6734.93 80.64
4108 87.1510 6711.00 6745.09 81.92
4109 87.1710 6768.00 6754.33 82.27
4110 87.1910 6835.00 6762.53 82.67
4111 87.2110 6906.00 6769.61 83.10
4112 87.2310 6697.00 6775.40 81.84
4113 87.2510 6805.00 6779.81 82.49
4114 87.2710 6677.00 6782.73 81.71
4115 87.2910 6874.00 6784.14 82.91
4116 87.3110 6906.00 6784.03 83.10
4117 87.3310 7176.00 6782.48 84.71
4118 87.3510 7079.00 6779.66 84.14
4119 87.3710 6903.00 6775.77 83.08
4120 87.3910 6886.00 6771.10 82.98
4121 87.4110 7094.00 6765.81 84.23
4122 87.4310 6843.00 6760.45 82.72
4123 87.4510 6852.00 6755.20 82.78
4124 87.4710 6873.00 6750.28 82.90
4125 87.4910 6841.00 6745.89 82.71
4126 87.5110 6947.00 6742.13 83.35
4127 87.5310 6819.00 6739.06 82.58
4128 87.5510 6908.00 6736.60 83.11
4129 87.5710 6937.00 6734.65 83.29
4130 87.5910 6727.00 6732.96 82.02
4131 87.6110 7009.00 6731.27 83.72
4132 87.6310 6678.00 6729.25 81.72
4133 87.6510 6729.00 6726.54 82.03
4134 87.6710 6595.00 6722.78 81.21
4135 87.6910 6661.00 6717.68 81.61
4136 87.7110 6892.00 6710.99 83.02
4137 87.7310 7057.00 6702.60 84.01
4138 87.7510 6782.00 6692.49 82.35
4139 87.7710 6545.00 6680.78 80.90
4140 87.7910 6635.00 6667.65 81.46
4141 87.8110 7069.00 6653.40 84.08
4142 87.8310 6630.00 6638.33 81.42
4143 87.8510 6773.00 6622.82 82.30
4144 87.8710 6563.00 6607.18 81.01
4145 87.8910 6682.00 6591.75 81.74
4146 87.9110 6795.00 6576.85 82.43
4147 87.9310 6664.00 6562.75 81.63
4148 87.9510 6547.00 6549.72 80.91
4149 87.9710 6432.00 6537.99 80.20
4150 87.9910 6622.00 6527.77 81.38
4151 88.0110 6779.00 6519.23 82.33
4152 88.0310 6342.00 6512.41 79.64
4153 88.0510 6551.00 6507.72 80.94
4154 88.0710 6552.00 6505.12 80.94
4155 88.0910 6627.00 6504.70 81.41
4156 88.1110 6491.00 6506.55 80.57
4157 88.1310 6970.00 6510.53 83.49
4158 88.1510 6805.00 6517.00 82.49
4159 88.1710 6950.00 6525.82 83.37
4160 88.1910 6823.00 6536.97 82.60
4161 88.2110 6855.00 6550.44 82.79
4162 88.2310 6747.00 6566.18 82.14
4163 88.2510 6677.00 6584.14 81.71
4164 88.2710 6485.00 6604.24 80.53
4165 88.2910 6593.00 6626.39 81.20
4166 88.3110 6746.00 6650.44 82.13
4167 88.3310 6915.00 6676.30 83.16
4168 88.3510 6824.00 6703.75 82.61
4169 88.3710 7009.00 6732.59 83.72
4170 88.3910 6468.00 6762.61 80.42
4171 88.4110 6720.00 6793.51 81.98
4172 88.4310 6997.00 6825.01 83.65
4173 88.4510 7003.00 6856.72 83.68
4174 88.4710 6995.00 6888.18 83.64
4175 88.4910 6990.00 6919.22 83.61
4176 88.5110 6945.00 6949.28 83.34
4177 88.5310 7004.00 6977.92 83.69
4178 88.5510 7403.00 7004.65 86.04
4179 88.5710 7232.00 7029.22 85.04
4180 88.5910 7364.00 7051.21 85.81
4181 88.6110 7426.00 7070.35 86.17
4182 88.6310 7314.00 7086.47 85.52
4183 88.6510 7245.00 7099.49 85.12
4184 88.6710 7327.00 7109.40 85.60
4185 88.6910 7380.00 7116.21 85.91
4186 88.7110 7087.00 7120.11 84.18
4187 88.7310 6932.00 7121.18 83.26
4188 88.7510 7351.00 7119.51 85.74
4189 88.7710 7334.00 7115.23 85.64
4190 88.7910 7229.00 7108.44 85.02
4191 88.8110 7329.00 7099.28 85.61
4192 88.8310 7253.00 7087.88 85.16
4193 88.8510 7489.00 7074.42 86.54
4194 88.8710 7048.00 7059.08 83.95
4195 88.8910 7131.00 7042.06 84.45
4196 88.9110 7075.00 7023.51 84.11
4197 88.9310 7010.00 7003.80 83.73
4198 88.9510 6937.00 6983.07 83.29
4199 88.9710 7050.00 6961.50 83.96
4200 88.9910 6884.00 6939.29 82.97
4201 89.0110 7134.00 6917.50 84.46
4202 89.0310 7152.00 6894.41 84.57
4203 89.0510 7153.00 6871.06 84.58
4204 89.0710 6871.00 6847.51 82.89
4205 89.0910 6791.00 6823.86 82.41
4206 89.1110 6626.00 6800.16 81.40
4207 89.1310 6674.00 6776.47 81.69
4208 89.1510 6990.00 6752.82 83.61
4209 89.1710 6966.00 6729.29 83.46
4210 89.1910 6720.00 6705.91 81.98
4211 89.2110 6630.00 6682.62 81.42
4212 89.2310 6537.00 6659.75 80.85
4213 89.2510 6671.00 6637.24 81.68
4214 89.2710 7204.00 6614.98 84.88
4215 89.2910 6956.00 6593.41 83.40
4216 89.3110 6626.00 6572.18 81.40
4217 89.3310 6468.00 6551.80 80.42
4218 89.3510 6251.00 6532.12 79.06
4219 89.3710 6544.00 6513.18 80.89
4220 89.3910 6505.00 6494.97 80.65
4221 89.4110 6661.00 6476.44 81.61
4222 89.4310 6349.00 6459.71 79.68
4223 89.4510 6377.00 6443.80 79.86
4224 89.4710 6629.00 6428.59 81.42
4225 89.4910 6420.00 6414.04 80.12
4226 89.5110 6360.00 6400.09 79.75
4227 89.5310 6274.00 6386.65 79.21
4228 89.5510 6562.00 6373.64 81.01
4229 89.5710 6509.00 6360.91 80.68
4230 89.5910 6568.00 6348.49 81.04
4231 89.6110 6375.00 6336.09 79.84
4232 89.6310 6349.00 6323.91 79.68
4233 89.6510 6515.00 6311.75 80.72
4234 89.6710 6268.00 6299.60 79.17
4235 89.6910 6329.00 6287.43 79.56
4236 89.7110 6368.00 6275.23 79.80
4237 89.7310 6188.00 6263.07 78.66
4238 89.7510 6453.00 6250.95 80.33
4239 89.7710 6325.00 6239.02 79.53
4240 89.7910 6235.00 6227.31 78.96
4241 89.8110 6466.00 6215.94 80.41
4242 89.8310 6603.00 6205.01 81.26
4243 89.8510 6205.00 6194.64 78.77
4244 89.8710 6523.00 6184.90 80.77
4245 89.8910 6561.00 6175.93 81.00
4246 89.9110 6131.00 6167.81 78.30
4247 89.9310 6343.00 6160.64 79.64
4248 89.9510 6451.00 6154.50 80.32
4249 89.9710 6372.00 6149.48 79.82
4250 89.9910 6015.00 6145.64 77.56
4251 90.0110 5887.00 6143.04 76.73
4252 90.0310 5982.00 6141.73 77.34
4253 90.0510 5830.00 6141.76 76.35
4254 90.0710 6116.00 6143.16 78.20
4255 90.0910 6299.00 6145.95 79.37
4256 90.1110 6208.00 6150.14 78.79
4257 90.1310 6379.00 6155.73 79.87
4258 90.1510 6074.00 6162.71 77.94
4259 90.1710 6368.00 6171.04 79.80
4260 90.1910 5997.00 6180.67 77.44
4261 90.2110 5974.00 6191.54 77.29
4262 90.2310 6232.00 6203.57 78.94
4263 90.2510 6231.00 6216.63 78.94
4264 90.2710 6357.00 6230.57 79.73
4265 90.2910 6318.00 6245.21 79.49
4266 90.3110 6236.00 6260.31 78.97
4267 90.3310 6139.00 6275.54 78.35
4268 90.3510 6240.00 6293.56 78.99
4269 90.3710 6109.00 6307.97 78.16
4270 90.3910 6248.00 6321.26 79.04
4271 90.4110 6047.00 6332.87 77.76
4272 90.4310 6010.00 6342.29 77.52
4273 90.4510 6309.00 6349.00 79.43
4274 90.4710 6469.00 6352.59 80.43
4275 90.4910 6196.00 6352.78 78.71
4276 90.5110 6212.00 6349.45 78.82
4277 90.5310 6264.00 6342.72 79.15
4278 90.5510 5950.00 6332.86 77.14
4279 90.5710 6209.00 6320.31 78.80
4280 90.5910 6104.00 6305.62 78.13
4281 90.6110 6005.00 6289.39 77.49
4282 90.6310 6273.00 6272.26 79.20
4283 90.6510 6084.00 6254.77 78.00
4284 90.6710 6283.00 6237.46 79.27
4285 90.6910 6114.00 6220.52 78.19
4286 90.7110 5875.00 6204.79 76.65
4287 90.7310 6185.00 6191.28 78.64
4288 90.7510 6102.00 6178.31 78.12
4289 90.7710 6273.00 6166.99 79.20
4290 90.7910 6162.00 6157.42 78.50
4291 90.8110 6172.00 6149.69 78.56
4292 90.8310 6338.00 6143.82 79.61
4293 90.8510 6083.00 6139.86 77.99
4294 90.8710 6045.00 6137.69 77.75
4295 90.8910 6008.00 6137.46 77.51
4296 90.9110 6176.00 6139.02 78.59
4297 90.9310 6245.00 6142.33 79.03
4298 90.9510 5967.00 6147.30 77.25
4299 90.9710 6320.00 6153.85 79.50
4300 90.9910 6297.00 6161.86 79.35
4301 91.0110 6043.00 6171.18 77.74
4302 91.0310 6224.00 6181.78 78.89
4303 91.0510 6202.00 6193.46 78.75
4304 91.0710 6050.00 6205.75 77.78
4305 91.0910 6200.00 6219.16 78.74
4306 91.1110 6479.00 6233.19 80.49
4307 91.1310 6285.00 6247.68 79.28
4308 91.1510 6184.00 6262.44 78.64
4309 91.1710 6075.00 6277.90 77.94
4310 91.1910 6411.00 6292.68 80.07
4311 91.2110 6515.00 6307.25 80.72
4312 91.2310 6257.00 6321.45 79.10
4313 91.2510 6137.00 6335.16 78.34
4314 91.2710 6351.00 6348.26 79.69
4315 91.2910 6483.00 6360.72 80.52
4316 91.3110 6407.00 6372.46 80.04
4317 91.3310 6590.00 6383.48 81.18
4318 91.3510 6238.00 6395.14 78.98
4319 91.3710 6218.00 6404.78 78.85
4320 91.3910 6171.00 6413.67 78.56
4321 91.4110 6518.00 6422.14 80.73
4322 91.4310 6151.00 6430.14 78.43
4323 91.4510 6347.00 6437.79 79.67
4324 91.4710 6397.00 6445.17 79.98
4325 91.4910 6214.00 6451.78 78.83
4326 91.5110 6166.00 6458.88 78.52
4327 91.5310 6243.00 6466.01 79.01
4328 91.5510 6535.00 6473.16 80.84
4329 91.5710 6168.00 6480.33 78.54
4330 91.5910 6131.00 6487.47 78.30
4331 91.6110 6213.00 6494.52 78.82
4332 91.6310 6628.00 6501.36 81.41
4333 91.6510 6569.00 6507.87 81.05
4334 91.6710 6457.00 6513.91 80.36
4335 91.6910 6506.00 6519.34 80.66
4336 91.7110 6655.00 6524.02 81.58
4337 91.7310 6514.00 6527.82 80.71
4338 91.7510 6332.00 6530.63 79.57
4339 91.7710 6562.00 6532.36 81.01
4340 91.7910 6292.00 6532.92 79.32
4341 91.8110 6486.00 6532.29 80.54
4342 91.8310 6433.00 6530.45 80.21
4343 91.8510 6704.00 6526.98 81.88
4344 91.8710 6374.00 6522.71 79.84
4345 91.8910 6531.00 6517.64 80.81
4346 91.9110 6445.00 6511.77 80.28
4347 91.9310 6505.00 6505.32 80.65
4348 91.9510 6474.00 6498.52 80.46
4349 91.9710 6553.00 6491.64 80.95
4350 91.9910 6773.00 6484.97 82.30
4351 92.0110 6542.00 6478.75 80.88
4352 92.0310 6261.00 6473.27 79.13
4353 92.0510 6701.00 6468.74 81.86
4354 92.0710 6502.00 6465.37 80.64
4355 92.0910 6419.00 6463.35 80.12
4356 92.1110 6621.00 6462.81 81.37
4357 92.1310 6409.00 6463.85 80.06
4358 92.1510 6427.00 6466.53 80.17
4359 92.1710 6521.00 6470.86 80.75
4360 92.1910 6405.00 6476.81 80.03
4361 92.2110 6463.00 6484.32 80.39
4362 92.2310 6375.00 6493.27 79.84
4363 92.2510 6524.00 6503.18 80.77
4364 92.2710 6182.00 6514.44 78.63
4365 92.2910 6331.00 6526.51 79.57
4366 92.3110 6243.00 6539.03 79.01
4367 92.3310 6403.00 6551.64 80.02
4368 92.3510 6765.00 6563.89 82.25
4369 92.3710 6790.00 6575.32 82.40
4370 92.3910 6687.00 6585.42 81.77
4371 92.4110 6724.00 6593.58 82.00
4372 92.4310 6663.00 6601.48 81.63
4373 92.4510 6661.00 6604.43 81.61
4374 92.4710 6599.00 6604.08 81.23
4375 92.4910 6576.00 6600.13 81.09
4376 92.5110 6597.00 6592.41 81.22
4377 92.5310 6835.00 6580.88 82.67
4378 92.5510 6646.00 6565.70 81.52
4379 92.5710 6763.00 6547.09 82.24
4380 92.5910 6606.00 6525.47 81.28
4381 92.6110 6457.00 6501.27 80.36
4382 92.6310 6356.00 6475.03 79.72
4383 92.6510 6363.00 6447.23 79.77
4384 92.6710 6176.00 6418.40 78.59
4385 92.6910 6294.00 6388.54 79.33
4386 92.7110 6304.00 6358.99 79.40
4387 92.7310 6393.00 6329.65 79.96
4388 92.7510 6218.00 6300.81 78.85
4389 92.7710 6273.00 6273.27 79.20
4390 92.7910 6188.00 6246.08 78.66
4391 92.8110 6149.00 6219.73 78.42
4392 92.8310 6003.00 6194.65 77.48
4393 92.8510 5878.00 6170.71 76.67
4394 92.8710 5910.00 6147.85 76.88
4395 92.8910 5750.00 6127.26 75.83
4396 92.9110 6014.00 6106.43 77.55
4397 92.9310 6033.00 6086.47 77.67
4398 92.9510 6029.00 6067.14 77.65
4399 92.9710 5994.00 6048.58 77.42
4400 92.9910 5849.00 6030.58 76.48
4401 93.0110 5709.00 6012.52 75.56
4402 93.0310 5633.00 5995.38 75.05
4403 93.0510 5568.00 5978.62 74.62
4404 93.0710 5806.00 5962.22 76.20
4405 93.0910 6002.00 5946.24 77.47
4406 93.1110 5935.00 5930.71 77.04
4407 93.1310 5587.00 5915.69 74.75
4408 93.1510 5791.00 5901.26 76.10
4409 93.1710 5941.00 5887.49 77.08
4410 93.1910 5641.00 5874.45 75.11
4411 93.2110 5658.00 5862.17 75.22
4412 93.2310 5785.00 5850.73 76.06
4413 93.2510 5666.00 5840.13 75.27
4414 93.2710 5643.00 5830.19 75.12
4415 93.2910 5572.00 5821.32 74.65
4416 93.3110 5338.00 5813.24 73.06
4417 93.3310 5473.00 5806.08 73.98
4418 93.3510 5599.00 5799.74 74.83
4419 93.3710 5464.00 5794.20 73.92
4420 93.3910 5579.00 5789.40 74.69
4421 93.4110 5733.00 5785.33 75.72
4422 93.4310 5528.00 5781.71 74.35
4423 93.4510 5638.00 5778.95 75.09
4424 93.4710 5807.00 5776.80 76.20
4425 93.4910 5635.00 5775.22 75.07
4426 93.5110 5835.00 5774.15 76.39
4427 93.5310 5562.00 5773.59 74.58
4428 93.5510 5633.00 5773.49 75.05
4429 93.5710 5945.00 5773.82 77.10
4430 93.5910 5800.00 5774.59 76.16
4431 93.6110 5840.00 5775.76 76.42
4432 93.6310 5517.00 5777.34 74.28
4433 93.6510 5848.00 5779.33 76.47
4434 93.6710 5996.00 5781.72 77.43
4435 93.6910 5851.00 5784.51 76.49
4436 93.7110 5726.00 5787.70 75.67
4437 93.7310 5738.00 5791.25 75.75
4438 93.7510 5815.00 5795.29 76.26
4439 93.7710 5615.00 5799.76 74.93
4440 93.7910 5684.00 5804.68 75.39
4441 93.8110 5599.00 5810.47 74.83
4442 93.8310 5634.00 5816.30 75.06
4443 93.8510 5595.00 5822.57 74.80
4444 93.8710 5669.00 5829.32 75.29
4445 93.8910 5842.00 5836.52 76.43
4446 93.9110 5867.00 5844.17 76.60
4447 93.9310 5764.00 5852.26 75.92
4448 93.9510 5798.00 5860.79 76.14
4449 93.9710 5620.00 5869.72 74.97
4450 93.9910 5617.00 5879.01 74.95
4451 94.0110 5731.00 5888.65 75.70
4452 94.0310 6013.00 5898.30 77.54
4453 94.0510 5824.00 5908.47 76.32
4454 94.0710 5593.00 5918.64 74.79
4455 94.0910 5898.00 5928.94 76.80
4456 94.1110 5702.00 5939.38 75.51
4457 94.1310 6022.00 5949.74 77.60
4458 94.1510 6215.00 5959.92 78.84
4459 94.1710 6014.00 5969.82 77.55
4460 94.1910 5935.00 5979.33 77.04
4461 94.2110 5953.00 5988.37 77.16
4462 94.2310 6055.00 5996.83 77.81
4463 94.2510 6022.00 6004.64 77.60
4464 94.2710 6097.00 6011.73 78.08
4465 94.2910 5853.00 6017.86 76.50
4466 94.3110 5819.00 6023.33 76.28
4467 94.3310 5842.00 6027.96 76.43
4468 94.3510 5933.00 6031.70 77.03
4469 94.3710 6065.00 6034.56 77.88
4470 94.3910 5998.00 6036.53 77.45
4471 94.4110 6169.00 6037.55 78.54
4472 94.4310 5998.00 6037.79 77.45
4473 94.4510 6048.00 6037.17 77.77
4474 94.4710 5923.00 6035.77 76.96
4475 94.4910 6068.00 6033.60 77.90
4476 94.5110 5925.00 6030.71 76.97
4477 94.5310 5984.00 6027.13 77.36
4478 94.5510 6233.00 6022.90 78.95
4479 94.5710 5879.00 6018.06 76.67
4480 94.5910 5931.00 6012.66 77.01
4481 94.6110 5978.00 6006.74 77.32
4482 94.6310 5867.00 5999.99 76.60
4483 94.6510 5704.00 5993.16 75.52
4484 94.6710 5801.00 5985.92 76.16
4485 94.6910 5708.00 5979.95 75.55
4486 94.7110 5833.00 5972.07 76.37
4487 94.7310 5801.00 5963.92 76.16
4488 94.7510 5934.00 5955.57 77.03
4489 94.7710 5911.00 5947.07 76.88
4490 94.7910 5717.00 5938.44 75.61
4491 94.8110 5824.00 5929.76 76.32
4492 94.8310 5874.00 5920.94 76.64
4493 94.8510 5854.00 5912.29 76.51
4494 94.8710 6025.00 5903.73 77.62
4495 94.8910 5907.00 5895.31 76.86
4496 94.9110 5797.00 5887.08 76.14
4497 94.9310 5872.00 5879.07 76.63
4498 94.9510 5919.00 5871.35 76.93
4499 94.9710 5877.00 5863.93 76.66
4500 94.9910 5673.00 5856.88 75.32
4501 95.0110 5568.00 5850.21 74.62
4502 95.0310 5712.00 5843.96 75.58
4503 95.0510 5861.00 5838.15 76.56
4504 95.0710 5712.00 5832.60 75.58
4505 95.0910 5606.00 5827.73 74.87
4506 95.1110 5715.00 5823.33 75.60
4507 95.1310 5718.00 5819.44 75.62
4508 95.1510 5491.00 5816.03 74.10
4509 95.1710 5654.00 5813.11 75.19
4510 95.1910 5961.00 5810.65 77.21
4511 95.2110 5932.00 5808.69 77.02
4512 95.2310 6101.00 5807.21 78.11
4513 95.2510 6171.00 5806.19 78.56
4514 95.2710 5759.00 5805.64 75.89
4515 95.2910 5761.00 5805.49 75.90
4516 95.3110 5767.00 5805.83 75.94
4517 95.3310 5839.00 5806.62 76.41
4518 95.3510 5824.00 5807.86 76.32
4519 95.3710 5777.00 5809.54 76.01
4520 95.3910 5893.00 5811.39 76.77
4521 95.4110 5727.00 5813.97 75.68
4522 95.4310 5976.00 5817.00 77.30
4523 95.4510 6007.00 5820.39 77.50
4524 95.4710 5848.00 5824.32 76.47
4525 95.4910 5746.00 5828.69 75.80
4526 95.5110 6037.00 5833.51 77.70
4527 95.5310 5812.00 5838.76 76.24
4528 95.5510 5913.00 5844.43 76.90
4529 95.5710 5754.00 5850.50 75.86
4530 95.5910 5909.00 5856.94 76.87
4531 95.6110 5955.00 5863.73 77.17
4532 95.6310 6056.00 5871.82 77.82
4533 95.6510 5876.00 5879.16 76.66
4534 95.6710 5892.00 5886.70 76.76
4535 95.6910 6015.00 5894.36 77.56
4536 95.7110 5727.00 5902.06 75.68
4537 95.7310 5651.00 5909.70 75.17
4538 95.7510 5888.00 5917.18 76.73
4539 95.7710 5857.00 5924.36 76.53
4540 95.7910 5768.00 5931.11 75.95
4541 95.8110 5800.00 5937.26 76.16
4542 95.8310 5554.00 5942.67 74.53
4543 95.8510 5752.00 5947.15 75.84
4544 95.8710 5833.00 5950.43 76.37
4545 95.8910 6133.00 5952.59 78.31
4546 95.9110 5868.00 5953.39 76.60
4547 95.9310 5808.00 5952.73 76.21
4548 95.9510 5676.00 5950.59 75.34
4549 95.9710 5868.00 5946.99 76.60
4550 95.9910 6192.00 5941.69 78.69
4551 96.0110 5915.00 5935.35 76.91
4552 96.0310 6031.00 5927.84 77.66
4553 96.0510 5909.00 5919.31 76.87
4554 96.0710 6001.00 5909.93 77.47
4555 96.0910 5917.00 5899.82 76.92
4556 96.1110 5975.00 5889.23 77.30
4557 96.1310 6054.00 5878.29 77.81
4558 96.1510 6050.00 5867.12 77.78
4559 96.1710 5740.00 5855.87 75.76
4560 96.1910 5859.00 5844.65 76.54
4561 96.2110 5805.00 5833.21 76.19
4562 96.2310 5620.00 5822.32 74.97
4563 96.2510 5615.00 5811.70 74.93
4564 96.2710 5822.00 5801.42 76.30
4565 96.2910 5807.00 5791.51 76.20
4566 96.3110 5951.00 5782.02 77.14
4567 96.3310 6039.00 5772.97 77.71
4568 96.3510 6015.00 5764.38 77.56
4569 96.3710 6121.00 5756.28 78.24
4570 96.3910 5766.00 5748.66 75.93
4571 96.4110 5576.00 5741.55 74.67
4572 96.4310 5808.00 5738.25 76.21
4573 96.4510 5871.00 5732.19 76.62
4574 96.4710 5652.00 5726.67 75.18
4575 96.4910 5786.00 5721.71 76.07
4576 96.5110 5763.00 5717.32 75.91
4577 96.5310 5912.00 5713.52 76.89
4578 96.5510 5768.00 5710.32 75.95
4579 96.5710 5759.00 5707.76 75.89
4580 96.5910 5580.00 5705.53 74.70
4581 96.6110 5588.00 5704.31 74.75
4582 96.6310 6022.00 5703.71 77.60
4583 96.6510 5533.00 5703.94 74.38
4584 96.6710 5615.00 5704.94 74.93
4585 96.6910 5837.00 5706.74 76.40
4586 96.7110 5915.00 5709.39 76.91
4587 96.7310 5839.00 5712.90 76.41
4588 96.7510 5924.00 5717.34 76.97
4589 96.7710 5799.00 5722.74 76.15
4590 96.7910 5596.00 5729.16 74.81
4591 96.8110 5774.00 5736.49 75.99
4592 96.8310 5712.00 5744.82 75.58
4593 96.8510 5602.00 5754.59 74.85
4594 96.8710 5880.00 5765.59 76.68
4595 96.8910 5870.00 5777.90 76.62
4596 96.9110 5806.00 5791.55 76.20
4597 96.9310 5904.00 5806.62 76.84
4598 96.9510 5946.00 5823.15 77.11
4599 96.9710 5695.00 5841.23 75.47
4600 96.9910 5689.00 5860.88 75.43
4601 97.0110 5454.00 5882.16 73.85
4602 97.0310 6065.00 5905.08 77.88
4603 97.0510 6053.00 5929.71 77.80
4604 97.0710 5857.00 5956.05 76.53
4605 97.0910 5960.00 5984.06 77.20
4606 97.1110 6124.00 6013.71 78.26
4607 97.1310 6300.00 6044.90 79.37
4608 97.1510 6190.00 6077.43 78.68
4609 97.1710 6304.00 6111.27 79.40
4610 97.1910 5932.00 6146.04 77.02
4611 97.2110 6127.00 6181.43 78.28
4612 97.2310 6094.00 6216.94 78.06
4613 97.2510 6060.00 6252.01 77.85
4614 97.2710 5965.00 6285.89 77.23
4615 97.2910 6397.00 6317.86 79.98
4616 97.3110 6395.00 6346.45 79.97
4617 97.3310 6481.00 6371.77 80.50
4618 97.3510 6500.00 6392.54 80.62
4619 97.3710 6392.00 6407.91 79.95
4620 97.3910 6467.00 6417.35 80.42
4621 97.4110 6581.00 6420.50 81.12
4622 97.4310 6344.00 6417.39 79.65
4623 97.4510 6318.00 6408.30 79.49
4624 97.4710 6404.00 6393.80 80.03
4625 97.4910 6516.00 6374.68 80.72
4626 97.5110 6611.00 6351.81 81.31
4627 97.5310 6561.00 6326.23 81.00
4628 97.5510 6559.00 6298.85 80.99
4629 97.5710 6276.00 6270.55 79.22
4630 97.5910 6391.00 6242.11 79.94
4631 97.6110 6330.00 6214.18 79.56
4632 97.6310 6315.00 6187.23 79.47
4633 97.6510 6551.00 6161.80 80.94
4634 97.6710 6603.00 6138.24 81.26
4635 97.6910 6263.00 6116.72 79.14
4636 97.7110 6267.00 6097.42 79.16
4637 97.7310 6519.00 6080.43 80.74
4638 97.7510 6367.00 6065.79 79.79
4639 97.7710 6344.00 6053.50 79.65
4640 97.7910 6205.00 6043.53 78.77
4641 97.8110 6056.00 6035.80 77.82
4642 97.8310 6283.00 6030.21 79.27
4643 97.8510 6144.00 6026.63 78.38
4644 97.8710 6208.00 6024.91 78.79
4645 97.8910 6024.00 6024.85 77.61
4646 97.9110 6021.00 6026.26 77.60
4647 97.9310 6446.00 6028.91 80.29
4648 97.9510 6360.00 6032.61 79.75
4649 97.9710 6337.00 6037.12 79.61
4650 97.9910 6055.00 6042.16 77.81
4651 98.0110 6235.00 6047.55 78.96
4652 98.0310 6232.00 6053.03 78.94
4653 98.0510 6162.00 6058.41 78.50
4654 98.0710 6302.00 6063.52 79.39
4655 98.0910 6096.00 6068.14 78.08
4656 98.1110 6409.00 6072.31 80.06
4657 98.1310 6205.00 6075.89 78.77
4658 98.1510 6492.00 6078.85 80.57
4659 98.1710 6428.00 6081.18 80.17
4660 98.1910 6319.00 6082.68 79.49
4661 98.2110 6102.00 6083.91 78.12
4662 98.2310 5973.00 6084.66 77.29
4663 98.2510 6213.00 6085.02 78.82
4664 98.2710 6179.00 6085.06 78.61
4665 98.2910 6501.00 6084.84 80.63
4666 98.3110 6328.00 6084.46 79.55
4667 98.3310 6190.00 6083.94 78.68
4668 98.3510 5939.00 6083.33 77.06
4669 98.3710 6217.00 6082.67 78.85
4670 98.3910 6081.00 6081.97 77.98
4671 98.4110 6189.00 6081.25 78.67
4672 98.4310 6094.00 6080.50 78.06
4673 98.4510 6149.00 6079.73 78.42
4674 98.4710 6021.00 6078.94 77.60
4675 98.4910 5947.00 6078.14 77.12
4676 98.5110 6021.00 6077.33 77.60
4677 98.5310 6224.00 6076.56 78.89
4678 98.5510 6160.00 6075.83 78.49
4679 98.5710 6243.00 6075.22 79.01
4680 98.5910 6258.00 6074.79 79.11
4681 98.6110 6292.00 6074.60 79.32
4682 98.6310 6119.00 6074.77 78.22
4683 98.6510 6141.00 6076.04 78.36
4684 98.6710 6105.00 6077.22 78.13
4685 98.6910 6169.00 6079.08 78.54
4686 98.7110 6299.00 6081.71 79.37
4687 98.7310 5941.00 6085.25 77.08
4688 98.7510 5982.00 6089.66 77.34
4689 98.7710 6092.00 6095.27 78.05
4690 98.7910 6084.00 6102.05 78.00
4691 98.8110 5902.00 6110.06 76.82
4692 98.8310 6019.00 6119.32 77.58
4693 98.8510 5893.00 6129.83 76.77
4694 98.8710 5991.00 6141.62 77.40
4695 98.8910 6286.00 6154.54 79.28
4696 98.9110 6213.00 6168.77 78.82
4697 98.9310 6437.00 6184.08 80.23
4698 98.9510 6304.00 6199.97 79.40
4699 98.9710 6302.00 6217.04 79.39
4700 98.9910 6217.00 6235.25 78.85
4701 99.0110 6054.00 6253.30 77.81
4702 99.0310 6258.00 6271.48 79.11
4703 99.0510 6521.00 6289.52 80.75
4704 99.0710 6549.00 6307.16 80.93
4705 99.0910 6343.00 6324.11 79.64
4706 99.1110 6445.00 6340.03 80.28
4707 99.1310 6583.00 6354.95 81.14
4708 99.1510 6607.00 6368.62 81.28
4709 99.1710 6575.00 6380.96 81.09
4710 99.1910 6629.00 6391.97 81.42
4711 99.2110 6655.00 6401.71 81.58
4712 99.2310 6310.00 6410.35 79.44
4713 99.2510 6345.00 6418.10 79.66
4714 99.2710 6606.00 6425.16 81.28
4715 99.2910 6413.00 6431.78 80.08
4716 99.3110 6533.00 6438.22 80.83
4717 99.3310 6600.00 6444.70 81.24
4718 99.3510 6495.00 6451.42 80.59
4719 99.3710 6579.00 6458.53 81.11
4720 99.3910 6651.00 6466.15 81.55
4721 99.4110 6601.00 6474.33 81.25
4722 99.4310 6502.00 6483.09 80.64
4723 99.4510 6570.00 6492.76 81.06
4724 99.4710 6463.00 6502.53 80.39
4725 99.4910 6414.00 6512.69 80.09
4726 99.5110 6446.00 6523.12 80.29
4727 99.5310 6585.00 6533.67 81.15
4728 99.5510 6575.00 6543.89 81.09
4729 99.5710 6566.00 6554.16 81.03
4730 99.5910 6770.00 6564.11 82.28
4731 99.6110 6634.00 6573.50 81.45
4732 99.6310 6595.00 6582.11 81.21
4733 99.6510 6376.00 6589.67 79.85
4734 99.6710 6273.00 6595.76 79.20
4735 99.6910 6545.00 6600.60 80.90
4736 99.7110 6741.00 6603.72 82.10
4737 99.7310 6717.00 6604.80 81.96
4738 99.7510 6554.00 6603.82 80.96
4739 99.7710 6574.00 6600.56 81.08
4740 99.7910 6596.00 6594.91 81.22
4741 99.8110 6471.00 6586.84 80.44
4742 99.8310 6595.00 6576.37 81.21
4743 99.8510 6696.00 6563.59 81.83
4744 99.8710 6352.00 6548.65 79.70
4745 99.8910 6349.00 6531.66 79.68
4746 99.9110 6475.00 6513.54 80.47
4747 99.9310 6461.00 6493.20 80.38
4748 99.9510 6258.00 6471.48 79.11
4749 99.9710 6480.00 6448.57 80.50
4750 99.9910 6380.00 6424.67 79.87
4751 100.0110 6190.00 6399.90 78.68
4752 100.0310 5883.00 6374.33 76.70
4753 100.0510 6210.00 6348.17 78.80
4754 100.0710 6253.00 6321.43 79.08
4755 100.0910 6154.00 6294.17 78.45
4756 100.1110 6203.00 6266.40 78.76
4757 100.1310 6084.00 6238.19 78.00
4758 100.1510 5999.00 6209.54 77.45
4759 100.1710 5756.00 6180.60 75.87
4760 100.1910 5837.00 6151.40 76.40
4761 100.2110 5999.00 6122.04 77.45
4762 100.2310 5812.00 6092.66 76.24
4763 100.2510 5734.00 6063.35 75.72
4764 100.2710 5776.00 6034.30 76.00
4765 100.2910 5441.00 6005.62 73.76
