#------------------------------------------------------------------------------
#$Date: 2021-02-02 01:36:51 +0200 (Tue, 02 Feb 2021) $
#$Revision: 261359 $
#$URL: file:///home/coder/svn-repositories/cod/cif/4/00/38/4003858.cif $
#------------------------------------------------------------------------------
#
# This file is available in the Crystallography Open Database (COD),
# http://www.crystallography.net/
#
# All data on this site have been placed in the public domain by the
# contributors.
#
data_4003858
loop_
_publ_author_name
'Zhang, Keke'
'Sun, Changquan Calvin'
'Liu, Yu'
'Wang, Chenguang'
'Shi, Peng'
'Xu, Jun'
'Wu, Songgu'
'Gong, Junbo'
_publ_section_title
;
 Structural Origins of Elastic and 2D Plastic Flexibility of Molecular
 Crystals Investigated with Two Polymorphs of Conformationally Rigid
 Coumarin
;
_journal_name_full               'Chemistry of Materials'
_journal_paper_doi               10.1021/acs.chemmater.0c04560
_journal_year                    2021
_chemical_formula_moiety         'C9 H6 O2'
_chemical_formula_sum            'C9 H6 O2'
_chemical_formula_weight         146.14
_space_group_crystal_system      orthorhombic
_space_group_IT_number           29
_space_group_name_Hall           'P 2c -2ac'
_space_group_name_H-M_alt        'P c a 21'
_atom_sites_solution_hydrogens   geom
_atom_sites_solution_primary     dual
_audit_creation_date             2020-01-03
_audit_creation_method
;
Olex2 1.2-ac3
(compiled 2017.08.10 svn.r3458 for OlexSys, GUI svn.r5381)
;
_cell_angle_alpha                90
_cell_angle_beta                 90
_cell_angle_gamma                90
_cell_formula_units_Z            4
_cell_length_a                   15.5205(9)
_cell_length_b                   5.6630(2)
_cell_length_c                   7.9163(5)
_cell_measurement_reflns_used    2807
_cell_measurement_temperature    293
_cell_measurement_theta_max      76.3420
_cell_measurement_theta_min      5.6620
_cell_volume                     695.78(6)
_computing_cell_refinement       'CrysAlisPro 1.171.39.45g (Rigaku OD, 2018)'
_computing_data_collection       'CrysAlisPro 1.171.39.45g (Rigaku OD, 2018)'
_computing_data_reduction        'CrysAlisPro 1.171.39.45g (Rigaku OD, 2018)'
_computing_molecular_graphics    'Olex2 (Dolomanov et al., 2009)'
_computing_publication_material  'Olex2 (Dolomanov et al., 2009)'
_computing_structure_refinement  'ShelXL (Sheldrick, 2015)'
_computing_structure_solution    'ShelXT (Sheldrick, 2015)'
_diffrn_ambient_environment      N~2~
_diffrn_ambient_temperature      293
_diffrn_detector                 'CCD plate'
_diffrn_detector_type            HyPix
_diffrn_measured_fraction_theta_full 0.999
_diffrn_measured_fraction_theta_max 0.973
_diffrn_measurement_details
;
List of Runs (angles in degrees, time in seconds):

  # Type    Start    End  Width  t~exp~   \w     \q     \k     \f   Frames
--------------------------------------------------------------------------
  1  \w   -119.00 -56.00   0.50    0.05    --  -45.87-158.00 -70.00  126
  2  \w   -173.00 -86.00   0.50    0.06    -- -100.00-112.00 170.00  174
  3  \w   -139.00 -35.00   0.50    0.06    -- -100.00 158.00 -37.00  208
  4  \w     91.00 178.00   0.50    0.06    --  106.36  18.00  85.00  174
  5  \w    -94.00 -20.00   0.50    0.05    --  -45.87 125.00 -90.00  148
  6  \w     22.00 119.00   0.50    0.05    --   45.87  77.00-120.00  194
  7  \w   -124.00 -27.00   0.50    0.06    -- -100.00  77.00-180.00  194
  8  \w     33.00 121.00   0.50    0.06    --  106.36 -37.00-120.00  176
  9  \w     34.00 110.00   0.50    0.06    --  106.36 -99.00 120.00  152
 10  \w     92.00 178.00   0.50    0.06    --  106.36  37.00  90.00  172
 11  \w     73.00 119.00   0.50    0.05    --   45.87 125.00 -30.00   92
 12  \w     31.00 120.00   0.50    0.05    --   45.87  37.00  30.00  178
 13  \w     22.00 119.00   0.50    0.05    --   45.87  77.00 120.00  194
 14  \w   -174.00 -99.00   0.50    0.06    -- -100.00 -37.00-150.00  150
 15  \w     83.00 178.00   0.50    0.06    --  106.36  77.00   0.00  190
 16  \w     91.00 178.00   0.50    0.06    --  106.36  19.00 -60.00  174
;
_diffrn_measurement_device       'four-circle diffractometer'
_diffrn_measurement_device_type  'ROD, Synergy Custom system, HyPix'
_diffrn_measurement_method       '\w scans'
_diffrn_orient_matrix_type
'CrysAlisPro convention (1999,Acta A55,543-557)'
_diffrn_orient_matrix_UB_11      -0.1517426000
_diffrn_orient_matrix_UB_12      0.0252830000
_diffrn_orient_matrix_UB_13      -0.1538207000
_diffrn_orient_matrix_UB_21      0.2224606000
_diffrn_orient_matrix_UB_22      0.0006022000
_diffrn_orient_matrix_UB_23      -0.1118019000
_diffrn_orient_matrix_UB_31      -0.0384268000
_diffrn_orient_matrix_UB_32      -0.0959839000
_diffrn_orient_matrix_UB_33      -0.0414648000
_diffrn_radiation_monochromator  mirror
_diffrn_radiation_probe          x-ray
_diffrn_radiation_type           CuK\a
_diffrn_radiation_wavelength     1.54184
_diffrn_reflns_av_R_equivalents  0.0867
_diffrn_reflns_av_unetI/netI     0.0660
_diffrn_reflns_Laue_measured_fraction_full 0.999
_diffrn_reflns_Laue_measured_fraction_max 0.973
_diffrn_reflns_limit_h_max       14
_diffrn_reflns_limit_h_min       -19
_diffrn_reflns_limit_k_max       7
_diffrn_reflns_limit_k_min       -7
_diffrn_reflns_limit_l_max       9
_diffrn_reflns_limit_l_min       -10
_diffrn_reflns_number            6063
_diffrn_reflns_point_group_measured_fraction_full 0.990
_diffrn_reflns_point_group_measured_fraction_max 0.942
_diffrn_reflns_theta_full        67.684
_diffrn_reflns_theta_max         76.865
_diffrn_reflns_theta_min         5.701
_diffrn_source                   'Rotating-anode X-ray tube'
_diffrn_source_type              'Rigaku (Cu) X-ray Source'
_exptl_absorpt_coefficient_mu    0.817
_exptl_absorpt_correction_T_max  1.00000
_exptl_absorpt_correction_T_min  0.07896
_exptl_absorpt_correction_type   multi-scan
_exptl_absorpt_process_details
;
CrysAlisPro 1.171.39.45g (Rigaku Oxford Diffraction, 2018)
Empirical absorption correction using spherical harmonics,
 implemented in SCALE3 ABSPACK scaling algorithm.
;
_exptl_crystal_colour            colorless
_exptl_crystal_density_diffrn    1.395
_exptl_crystal_description       plate
_exptl_crystal_F_000             304
_exptl_crystal_size_max          0.8
_exptl_crystal_size_mid          0.1
_exptl_crystal_size_min          0.05
_refine_diff_density_max         0.145
_refine_diff_density_min         -0.228
_refine_diff_density_rms         0.052
_refine_ls_abs_structure_details
;
 Flack x determined using 443 quotients [(I+)-(I-)]/[(I+)+(I-)]
 (Parsons, Flack and Wagner, Acta Cryst. B69 (2013) 249-259).
;
_refine_ls_abs_structure_Flack   -0.3(3)
_refine_ls_extinction_method     none
_refine_ls_goodness_of_fit_ref   1.060
_refine_ls_hydrogen_treatment    constr
_refine_ls_matrix_type           full
_refine_ls_number_parameters     100
_refine_ls_number_reflns         1377
_refine_ls_number_restraints     1
_refine_ls_restrained_S_all      1.059
_refine_ls_R_factor_all          0.0620
_refine_ls_R_factor_gt           0.0523
_refine_ls_shift/su_max          0.004
_refine_ls_shift/su_mean         0.001
_refine_ls_structure_factor_coef Fsqd
_refine_ls_weighting_details
'w=1/[\s^2^(Fo^2^)+(0.0707P)^2^+0.0660P] where P=(Fo^2^+2Fc^2^)/3'
_refine_ls_weighting_scheme      calc
_refine_ls_wR_factor_gt          0.1272
_refine_ls_wR_factor_ref         0.1393
_reflns_Friedel_coverage         0.795
_reflns_Friedel_fraction_full    0.979
_reflns_Friedel_fraction_max     0.905
_reflns_number_gt                1138
_reflns_number_total             1377
_reflns_threshold_expression     'I > 2\s(I)'
_cod_data_source_file            cm0c04560_si_007.cif
_cod_data_source_block           032328_zkkform1straignt2room_rb
_cod_database_code               4003858
_shelx_shelxl_version_number     2018/1
_shelx_space_group_comment
;
The symmetry employed for this shelxl refinement is uniquely defined
by the following loop, which should always be used as a source of
symmetry information in preference to the above space-group names.
They are only intended as comments.
;
_reflns_odcompleteness_completeness 99.74
_reflns_odcompleteness_iscentric 1
_reflns_odcompleteness_theta     66.49
_olex2_refinement_description
;
1. Fixed Uiso
 At 1.2 times of:
  All C(H) groups
2.a Aromatic/amide H refined with riding coordinates:
 C3(H3), C2(H2), C6(H6), C9(H9), C7(H7), C8(H8)
;
_shelx_res_file
;
TITL 032328_zkkform1straignt2room_rb_a.res in Pca2(1)
    032328_zkkform1straignt2room_rb.res
    created by SHELXL-2018/1 at 14:05:06 on 03-Jan-2020
REM Old TITL
REM SHELXT solution in Pca2(1)
REM R1 0.105, Rweak 0.240, Alpha 0.002, Orientation a'=b, b'=a, c'=-c
REM Flack x = 0.080 ( 0.359 ) from Parsons' quotients
REM Formula found by SHELXT: C9 O2
CELL 1.54184 15.5205 5.663 7.9163 90 90 90
ZERR 4 0.0009 0.0002 0.0005 0 0 0
LATT -1
SYMM -X,-Y,0.5+Z
SYMM 0.5+X,-Y,+Z
SYMM 0.5-X,+Y,0.5+Z
SFAC C H O
UNIT 36 24 8

L.S. 2 0 0
PLAN  10
TEMP 19.85
BOND $H
list 4
fmap 2 53
acta
REM <olex2.extras>
REM <HklSrc "%.\\032328_ZKKform1straignt2room_Rb.hkl">
REM </olex2.extras>

WGHT    0.070700    0.066000
FVAR       1.07144
O2    3    0.653909    0.498898    0.579948    11.00000    0.05989    0.04568 =
         0.05786    0.00963   -0.00124    0.00259
O1    3    0.783048    0.400906    0.671158    11.00000    0.08063    0.06588 =
         0.08609    0.00892   -0.01764    0.02066
C4    1    0.629864    0.855343    0.421470    11.00000    0.05600    0.04094 =
         0.03902   -0.00249    0.00198    0.00091
C5    1    0.599542    0.649581    0.495519    11.00000    0.05473    0.04225 =
         0.03959   -0.00153    0.00044    0.00364
C1    1    0.740998    0.544374    0.593151    11.00000    0.05967    0.05449 =
         0.05212   -0.00075   -0.00447    0.00824
C3    1    0.719973    0.905655    0.435912    11.00000    0.06097    0.04770 =
         0.05130   -0.00246    0.00025   -0.00987
AFIX  43
H3    2    0.742221    1.042743    0.388146    11.00000   -1.20000
AFIX   0
C2    1    0.772432    0.756831    0.517659    11.00000    0.05607    0.06082 =
         0.05782   -0.00509   -0.00334   -0.00554
AFIX  43
H2    2    0.830778    0.792570    0.525524    11.00000   -1.20000
AFIX   0
C6    1    0.513039    0.588456    0.491224    11.00000    0.06091    0.05008 =
         0.05624   -0.00094    0.00282   -0.00516
AFIX  43
H6    2    0.493669    0.451358    0.543576    11.00000   -1.20000
AFIX   0
C9    1    0.570806    0.999823    0.337222    11.00000    0.07076    0.04776 =
         0.05002    0.00752    0.00378    0.00653
AFIX  43
H9    2    0.589554    1.138164    0.285681    11.00000   -1.20000
AFIX   0
C7    1    0.456374    0.735105    0.407760    11.00000    0.05642    0.07820 =
         0.05824   -0.00349   -0.00155    0.00181
AFIX  43
H7    2    0.398146    0.696775    0.403617    11.00000   -1.20000
AFIX   0
C8    1    0.485458    0.938760    0.330158    11.00000    0.06555    0.06927 =
         0.05708    0.00338   -0.00411    0.01491
AFIX  43
H8    2    0.446780    1.035093    0.272695    11.00000   -1.20000
AFIX   0
HKLF 4




REM  032328_zkkform1straignt2room_rb_a.res in Pca2(1)
REM R1 =  0.0523 for    1138 Fo > 4sig(Fo)  and  0.0620 for all    1377 data
REM    100 parameters refined using      1 restraints

END

WGHT      0.0707      0.0660

REM Highest difference peak  0.145,  deepest hole -0.228,  1-sigma level  0.052
Q1    1   0.5375  1.0384  0.1236  11.00000  0.05    0.14
Q2    1   0.6592  0.4786  0.3955  11.00000  0.05    0.14
Q3    1   0.5972  1.0586  0.0769  11.00000  0.05    0.13
Q4    1   0.7885  0.5048  0.8425  11.00000  0.05    0.12
Q5    1   0.8660  0.9560  0.5280  11.00000  0.05    0.12
Q6    1   0.4396  0.9791  0.0667  11.00000  0.05    0.12
Q7    1   0.6234  1.1226  0.0914  11.00000  0.05    0.12
Q8    1   0.4202  0.5890  0.3034  11.00000  0.05    0.12
Q9    1   0.3178  0.4615  0.3355  11.00000  0.05    0.12
Q10   1   0.8254  0.4652  0.8004  11.00000  0.05    0.12
;
_shelx_res_checksum              89000
_shelx_hkl_file
;
  -1   0   0    0.04    0.27
  -2   0   0  312.46   28.18
  -3   0   0    0.34    0.89
  -4   0   0 2428.11  217.90
  -5   0   0   -0.10    1.14
  -6   0   0  216.74   20.04
  -7   0   0   -0.58    1.24
  -8   0   0  715.37   64.95
  -9   0   0    1.60    1.53
  -9   0   0    0.53    1.32
   9   0   0    0.82    1.20
 -10   0   0   20.27    3.37
 -10   0   0   31.21    3.67
  10   0   0   31.48    4.09
  11   0   0   -0.27    2.07
 -11   0   0    1.02    1.46
 -12   0   0    0.29    1.63
 -13   0   0    0.93    1.80
 -14   0   0   61.30    7.00
 -15   0   0   -1.13    1.81
 -16   0   0   27.67    3.68
   0   0   1   -0.03    0.50
   0   0  -1    0.24    1.02
   1   0   1    0.41    0.50
  -1   0   1    0.30    0.42
  -1   0   1    0.06    0.43
   1   0  -1   -0.15    0.86
  -1   0   1   -0.13    0.87
  -2   0  -1 3112.84  271.00
  -2   0  -1 3000.60  271.00
  -2   0  -1 2950.50  271.02
  -2   0   1 3210.71  270.99
   2   0  -1 2901.66  270.97
   2   0   1 2985.87  270.88
  -2   0   1 3033.71  270.97
  -3   0   1    0.54    0.84
  -3   0  -1    0.41    1.05
   3   0  -1    0.67    0.73
   3   0   1   -0.64    0.51
  -3   0  -1    0.05    0.79
  -3   0   1   -0.21    0.96
  -3   0  -1    0.35    0.87
  -4   0   1  188.88   16.30
  -4   0  -1  183.93   16.15
  -4   0  -1  162.84   16.23
   4   0   1  163.01   16.02
  -4   0   1  194.28   16.08
   4   0  -1  175.08   16.07
   5   0   1    0.05    0.48
   5   0  -1    0.36    0.53
  -5   0   1   -0.10    1.15
  -5   0   1   -0.34    0.68
  -5   0  -1   -0.58    1.10
   6   0  -1 1199.29  101.18
  -6   0  -1 1184.25  101.60
   6   0   1  980.13  101.24
  -6   0   1 1192.15  101.64
   7   0   1    0.30    0.56
  -7   0  -1    0.28    1.18
   8   0   1  760.78   73.29
  -8   0  -1  941.09   73.83
   9   0   1    0.52    0.71
  -9   0   1   -0.18    1.31
 -10   0  -1    2.62    2.32
 -10   0   1    3.36    1.66
 -10   0   1    0.83    2.08
 -10   0  -1    5.14    1.56
 -11   0   1    0.87    1.64
 -11   0  -1    1.81    1.45
 -11   0  -1    1.37    2.52
  11   0  -1   -0.36    2.31
 -11   0   1   -0.48    2.29
 -12   0  -1   28.18    5.29
 -12   0   1   31.13    4.30
  12   0  -1   44.87    6.03
 -12   0  -1   48.04    4.93
 -12   0   1   39.60    5.20
 -12   0   1   50.18    5.50
 -13   0   1   -0.81    1.44
 -13   0  -1    0.32    3.54
 -13   0   1    2.97    3.44
 -13   0   1   -0.34    1.90
 -13   0  -1    0.80    1.35
 -14   0   1   45.82    5.33
 -14   0   1   36.67    5.64
 -14   0   1   30.13    4.43
 -14   0  -1   33.00    5.67
 -14   0  -1   46.11    5.09
 -15   0   1   -0.59    1.68
 -15   0  -1   -0.32    2.78
 -15   0  -1    1.33    1.60
 -15   0   1    3.38    3.38
 -16   0   1   11.63    3.41
 -16   0   1   15.76    2.58
 -16   0  -1   16.24    3.20
 -16   0  -1   13.93    2.44
 -17   0  -1    0.96    1.77
 -17   0   1    0.24    2.08
 -18   0   1    3.16    1.65
 -18   0  -1    5.11    1.70
 -19   0   1    0.70    0.92
   0   0   2 5329.41  483.12
   0   0   2 5469.14  483.33
   0   0  -2 5718.24  483.65
   1   0   2    0.15    1.03
  -1   0   2    0.62    0.75
  -1   0   2    0.51    0.50
   1   0  -2    0.32    1.48
  -2   0   2 4787.81  430.16
   2   0   2 4858.80  430.40
  -2   0   2 4808.69  430.18
   2   0  -2 4945.56  430.46
  -2   0   2 4709.46  430.34
  -2   0  -2 4695.81  430.54
   3   0  -2    0.92    1.33
  -3   0  -2   -0.12    1.39
   3   0   2   -0.67    0.77
  -3   0   2   -3.45    1.37
  -3   0  -2    0.18    1.32
  -3   0   2   -0.41    0.80
  -4   0  -2    9.40    1.82
  -4   0  -2    9.21    1.77
  -4   0   2   11.56    1.64
  -4   0   2   11.56    1.71
   4   0  -2   12.79    1.94
   4   0   2   11.43    1.37
   5   0   2    0.15    0.85
  -5   0  -2    1.07    1.13
  -5   0   2   -0.33    0.95
  -5   0   2    0.88    1.15
   5   0  -2   -0.70    1.15
  -5   0  -2    0.56    1.10
   6   0  -2   33.27    3.31
  -6   0   2   32.82    3.21
  -6   0   2   32.81    3.58
  -6   0  -2   32.88    3.30
   6   0   2   26.57    3.04
  -6   0  -2   29.44    3.34
  -7   0   2   -0.64    1.24
  -7   0   2    0.42    0.78
  -8   0   2  616.98   48.59
  -8   0   2  375.35   48.93
  -9   0   2   -0.65    1.50
  -9   0   2    0.22    1.55
  -9   0   2   -0.48    0.66
 -10   0   2   43.43    5.20
 -10   0   2   33.89    4.96
 -10   0   2   38.74    5.09
 -10   0  -2   43.51    5.54
 -10   0   2   49.59    4.42
 -11   0  -2    1.03    1.33
 -11   0   2    0.31    1.78
 -11   0   2   -1.25    2.39
 -11   0   2    0.11    0.84
 -11   0  -2    0.42    1.17
 -11   0  -2    5.34    3.39
 -12   0   2   57.66    6.65
  12   0  -2   73.20    7.68
 -12   0  -2   41.79    5.35
 -12   0  -2   58.80    6.93
 -12   0   2   59.68    6.62
 -12   0   2   49.17    5.36
 -12   0  -2   56.79    5.89
  12   0   2   67.58    8.12
  13   0   2    0.68    3.78
 -13   0   2    1.43    2.11
 -13   0   2    0.60    2.88
 -13   0  -2    1.84    1.53
  13   0  -2    3.84    3.31
 -13   0  -2    0.35    2.79
 -13   0  -2    0.14    1.17
 -13   0   2   -0.97    1.19
 -14   0   2   -0.37    1.36
 -14   0   2    1.38    2.13
  14   0   2    2.33    4.29
 -14   0   2    0.31    2.90
 -14   0  -2    0.72    2.62
 -14   0  -2    1.71    1.48
 -15   0   2    1.11    1.36
 -15   0  -2    1.01    2.10
 -15   0   2   -1.79    1.84
 -15   0  -2   -0.73    1.51
 -15   0   2    1.47    2.77
 -16   0  -2   25.37    3.74
 -16   0  -2   24.42    2.98
 -16   0   2   20.55    3.01
 -16   0   2   12.72    2.55
 -16   0   2   19.43    3.94
 -17   0   2    0.43    1.84
 -17   0   2   -1.44    1.43
 -17   0  -2    1.85    1.85
 -18   0   2    0.15    1.24
   0   0   3   -0.16    0.93
   0   0  -3    0.16    1.72
  -1   0  -3   -1.49    1.93
  -1   0   3   -0.03    0.45
   1   0   3   -0.81    1.21
   1   0  -3    0.49    1.66
  -1   0   3    0.35    0.88
  -2   0   3  233.37   22.17
   2   0   3  246.42   22.07
  -2   0   3  229.48   21.66
   2   0  -3  235.17   22.20
  -2   0   3  252.67   21.79
  -3   0  -3    0.35    1.69
  -3   0   3   -0.60    0.84
  -3   0   3    0.38    1.96
   3   0   3   -0.75    1.42
   3   0  -3    0.78    1.52
   4   0  -3   28.21    3.62
  -4   0   3   32.68    3.22
  -4   0   3   24.04    3.58
  -4   0  -3   28.80    3.54
  -4   0  -3   26.79    3.70
   4   0   3   34.62    3.77
  -5   0   3    0.36    1.02
  -5   0   3    0.72    1.59
  -5   0  -3   -0.13    1.59
   5   0   3   -0.19    1.66
   5   0  -3    0.47    1.34
  -5   0  -3   -0.18    1.39
  -6   0  -3   53.90    5.93
   6   0  -3   65.09    6.10
  -6   0   3   56.03    5.75
   6   0   3   62.65    6.47
  -6   0   3   58.04    6.02
  -6   0  -3   61.34    6.26
  -7   0   3    0.17    1.18
  -7   0  -3   -0.21    1.24
  -7   0   3    0.50    0.87
  -7   0   3    0.21    0.69
  -7   0   3   -0.83    1.29
   7   0   3   -0.25    1.87
  -8   0   3  272.60   28.84
  -8   0  -3  321.90   28.37
  -8   0   3  262.12   28.67
   8   0   3  272.96   29.14
  -8   0   3  277.63   28.27
  -9   0   3   -0.14    0.77
  -9   0  -3    0.20    1.05
  -9   0   3   -0.26    1.67
  -9   0   3   -0.61    1.78
  -9   0  -3   -1.29    1.79
  -9   0  -3   -0.50    1.08
  -9   0   3    0.22    1.20
  -9   0   3    0.55    0.82
   9   0   3   -0.71    2.17
 -10   0  -3  199.99   25.28
  10   0   3  236.93   26.20
 -10   0   3  202.74   25.46
 -10   0   3  269.22   25.49
 -10   0   3  186.58   25.20
 -10   0  -3  320.93   24.96
 -10   0   3  366.52   24.87
 -11   0  -3    0.58    1.76
 -11   0  -3    1.63    1.39
 -11   0   3   -0.10    0.84
 -11   0   3   -0.25    2.52
 -11   0   3    1.00    1.84
 -12   0   3  134.56   13.71
 -12   0   3  157.33   14.85
 -12   0  -3  175.60   14.33
 -12   0  -3  130.67   14.61
 -12   0  -3  144.30   13.74
 -12   0   3  152.95   14.96
  13   0  -3    1.69    2.80
 -13   0  -3   -0.34    2.18
 -13   0  -3   -0.42    1.49
 -13   0   3   -1.00    1.09
 -13   0  -3    0.13    1.25
 -13   0   3    1.43    2.61
 -13   0   3   -1.49    2.24
 -14   0  -3   28.98    3.43
 -14   0  -3   21.57    2.85
 -14   0  -3   30.34    4.24
 -14   0   3   20.47    2.87
 -14   0   3   18.29    3.69
 -14   0   3   20.25    4.11
 -15   0  -3    1.31    1.32
 -15   0  -3   -0.32    2.16
 -15   0   3    0.82    1.21
 -15   0   3    0.28    1.74
 -15   0   3   -0.25    2.52
 -16   0   3   13.57    2.44
 -16   0  -3   20.09    2.46
 -16   0   3   12.86    3.00
 -16   0   3   10.20    2.00
 -17   0   3   -0.15    1.21
 -17   0   3   -1.67    1.17
 -18   0   3    5.94    1.20
   0   0   4   85.92    8.63
   0   0  -4  105.16    9.49
  -1   0  -4    0.66    2.09
   1   0  -4   -0.86    1.76
  -1   0   4    1.87    2.47
  -1   0   4    0.56    0.99
   1   0   4   -0.36    1.01
  -2   0   4  182.07   17.95
  -2   0   4  181.67   17.27
   2   0   4  213.08   17.75
   2   0  -4  179.36   17.89
   3   0  -4   -0.22    1.62
   3   0   4    2.24    1.73
  -3   0  -4    0.46    1.78
  -3   0   4    3.05    2.75
  -3   0   4    0.07    0.54
  -4   0  -4    7.34    2.22
  -4   0   4    7.70    1.22
  -4   0  -4    4.98    2.07
  -4   0   4    6.59    2.41
   4   0  -4    7.96    2.14
   4   0   4    7.94    2.20
  -5   0   4    1.39    1.31
  -5   0  -4   -0.18    1.69
  -5   0   4    0.82    0.86
  -5   0  -4    0.24    1.63
   5   0  -4   -0.44    1.49
   5   0   4    0.23    1.62
  -5   0   4    0.53    1.62
  -5   0   4    1.88    1.76
  -6   0  -4   54.38    5.42
   6   0   4   47.06    5.62
  -6   0   4   42.02    4.90
  -6   0   4   54.55    5.79
   6   0  -4   55.14    5.59
  -6   0   4   45.09    5.04
  -6   0  -4   49.35    5.70
  -6   0   4   48.93    5.12
  -7   0  -4   -1.07    1.33
  -7   0   4   -0.49    1.05
  -7   0   4   -0.20    0.84
   7   0   4   -0.84    1.68
  -7   0  -4    0.45    1.35
  -7   0  -4    1.33    1.33
  -7   0   4    0.12    1.11
  -7   0   4   -0.81    1.84
   8   0   4   20.88    3.95
  -8   0  -4   29.83    3.36
  -8   0   4   31.59    3.09
  -8   0   4   22.42    3.73
  -8   0   4   22.86    3.33
  -8   0   4   27.88    3.13
  -8   0  -4   32.19    3.44
   9   0   4    0.36    2.03
  -9   0   4    0.20    1.69
  -9   0   4    0.70    0.99
  -9   0  -4   -0.86    1.23
  -9   0   4    0.31    1.59
  -9   0  -4   -0.39    1.24
  -9   0   4   -0.43    0.91
  -9   0  -4    1.60    1.29
 -10   0  -4  223.55   18.61
  10   0   4  181.94   19.79
 -10   0  -4  209.40   18.54
 -10   0   4  164.06   19.27
 -10   0   4  207.67   19.06
 -10   0   4  263.55   18.48
 -10   0  -4  115.07   18.56
 -11   0   4   -0.20    0.92
 -11   0   4    0.24    2.36
  11   0   4    1.77    2.60
 -11   0   4   -0.72    2.29
 -11   0  -4   -0.85    1.47
  11   0   4    1.44    2.73
 -12   0   4  230.14   23.96
  12   0   4  236.25   25.01
 -12   0   4  208.57   23.33
 -12   0  -4  275.06   22.92
 -12   0   4  254.74   22.82
 -13   0   4    0.23    2.05
 -13   0   4    2.05    1.11
 -13   0  -4    0.37    1.29
 -13   0  -4    0.39    1.59
 -13   0   4    1.09    2.28
 -14   0  -4    1.10    1.18
 -14   0   4    0.64    1.91
 -14   0   4    2.71    2.10
 -14   0  -4    0.20    1.45
 -14   0   4   -0.73    1.19
 -15   0   4   -0.72    1.16
 -15   0  -4    0.18    1.14
 -15   0   4   -0.48    1.60
 -15   0   4    1.37    1.02
 -16   0   4    4.76    1.22
 -16   0   4    0.95    0.33
 -17   0   4    0.10    0.88
   0   0  -5    0.58    1.89
   0   0   5    0.37    0.99
   0   0   5    2.83    2.52
   0   0   5    0.60    1.79
  -1   0   5   -0.18    1.77
   1   0  -5    0.29    1.87
  -1   0  -5   -0.58    1.96
  -1   0   5    0.54    2.55
   1   0   5   -0.58    1.02
   2   0  -5   35.53    5.03
  -2   0   5   37.66    4.69
  -2   0   5   37.36    4.54
   2   0   5   41.66    4.48
  -3   0  -5   -1.04    1.64
  -3   0  -5   -1.16    2.20
  -3   0   5    0.61    1.20
  -3   0  -5    0.29    1.94
   3   0  -5   -0.87    1.91
  -3   0   5    0.19    1.75
  -3   0   5    2.72    2.26
   3   0   5   -0.63    1.29
  -3   0   5    0.99    2.60
  -4   0  -5  700.31   64.18
   4   0  -5  678.12   64.11
  -4   0   5  666.12   63.61
  -4   0  -5  661.28   63.83
  -4   0   5  750.30   63.95
   4   0   5  698.85   63.88
  -4   0   5  795.65   64.64
  -5   0   5    3.10    1.62
  -5   0   5    0.83    1.64
  -5   0  -5   -0.22    1.77
   5   0   5    1.02    1.63
  -5   0  -5    0.59    1.75
  -5   0   5   -1.87    1.94
  -5   0   5   -0.33    1.93
   5   0  -5   -0.28    1.50
   6   0  -5    2.17    1.64
  -6   0  -5    6.64    2.06
   6   0   5    2.68    1.78
  -6   0   5    1.62    1.90
  -6   0  -5    4.13    1.95
  -6   0  -5    2.75    1.72
  -6   0   5    1.18    1.52
  -6   0   5    1.95    1.71
  -7   0   5    0.50    1.09
  -7   0  -5   -0.36    1.51
  -7   0  -5   -0.27    1.62
  -7   0  -5    0.18    1.58
  -7   0   5   -0.33    1.85
   7   0   5    0.28    1.41
  -7   0   5    0.47    1.30
  -8   0   5    8.91    2.56
  -8   0   5    7.41    1.63
  -8   0   5    9.31    1.63
  -8   0  -5    7.87    1.92
   8   0   5    8.71    2.43
  -8   0  -5   12.36    2.14
   9   0   5   -0.97    1.84
  -9   0   5   -0.34    1.88
  -9   0   5   -0.50    1.08
  -9   0  -5   -0.28    1.23
   9   0   5    0.35    2.99
  -9   0   5   -0.35    1.01
  -9   0  -5    0.31    1.56
 -10   0   5  147.82   17.78
  10   0   5  159.39   17.96
 -10   0  -5  226.56   17.23
 -10   0   5  197.83   16.89
  10   0   5  126.87   17.61
 -10   0  -5  172.29   16.98
 -10   0   5  193.89   16.94
  11   0   5    0.95    2.94
 -11   0   5   -0.70    1.08
 -11   0  -5    0.38    1.48
 -11   0   5    0.36    2.06
 -12   0   5  152.96   14.75
 -12   0  -5  174.75   14.88
 -12   0   5  135.11   15.75
 -13   0   5    0.60    0.95
 -13   0  -5   -0.22    1.23
 -13   0  -5   -0.33    1.51
 -13   0   5    0.32    1.97
 -14   0   5   15.33    2.35
 -14   0  -5   12.26    1.69
 -14   0   5   12.38    1.56
 -15   0   5   -0.48    1.29
 -15   0   5   -0.93    1.05
 -16   0   5   -0.29    0.79
   0   0   6    6.70    2.54
   0   0  -6    7.21    2.29
   0   0   6    4.69    3.35
   0   0  -6    5.11    2.20
  -1   0  -6    0.26    1.61
  -1   0   6    0.34    3.16
   1   0   6    1.10    2.57
   1   0  -6    1.08    2.01
   1   0   6    0.39    3.11
   1   0  -6   -0.28    1.82
  -1   0   6    0.94    2.04
  -1   0   6   -0.67    2.01
  -1   0  -6   -0.36    2.13
  -2   0   6  112.12   12.77
   2   0   6  148.39   13.72
  -2   0  -6  131.75   13.16
  -2   0   6  151.17   13.88
   2   0  -6  156.95   13.61
  -2   0  -6  121.47   13.31
  -2   0   6  128.17   13.09
   2   0  -6  147.87   13.88
  -2   0   6  129.64   13.80
  -3   0   6   -0.96    1.93
   3   0  -6   -1.54    2.23
   3   0  -6   -0.71    2.03
  -3   0  -6   -1.35    2.22
  -3   0   6   -0.28    2.57
  -3   0   6    0.54    1.32
   3   0   6    0.31    2.89
  -3   0  -6   -0.96    1.65
  -3   0   6   -0.91    2.00
  -4   0  -6   96.25    9.94
  -4   0  -6   82.61    9.22
  -4   0   6  105.02   10.44
  -4   0  -6   89.11    9.14
  -4   0   6   85.61    9.14
   4   0  -6   78.38    9.55
  -4   0   6   95.41    9.49
  -5   0   6   -0.91    1.80
  -5   0  -6    3.08    2.02
  -5   0   6    1.31    1.71
  -5   0   6   -0.38    2.37
   5   0  -6    0.34    1.83
   5   0   6    1.36    3.09
  -5   0  -6   -0.93    1.68
  -6   0   6   13.69    3.17
  -6   0  -6   16.74    2.97
  -6   0   6   12.53    2.36
  -6   0  -6   12.97    2.49
  -6   0   6   14.90    2.26
   6   0   6   11.57    3.72
   6   0   6    5.83    2.03
  -7   0   6   -0.35    1.90
   7   0   6    1.07    3.31
  -7   0  -6   -0.18    1.48
  -7   0  -6   -0.93    1.76
  -7   0   6   -0.52    1.28
  -7   0   6   -0.68    1.11
   7   0   6   -0.47    1.46
  -8   0   6    4.10    2.36
   8   0   6    5.05    1.67
  -8   0   6    6.91    1.53
   8   0   6    2.17    4.01
  -8   0  -6    8.14    1.73
  -8   0  -6    8.64    2.12
  -8   0   6    7.23    1.57
  -9   0   6    0.20    1.15
   9   0   6   -2.82    3.35
  -9   0  -6    0.29    1.52
  -9   0   6    0.67    2.10
  10   0   6  206.43   23.66
 -10   0   6  290.85   22.72
 -10   0   6  174.81   23.36
 -10   0  -6  253.89   22.81
  11   0   6    0.30    2.48
 -11   0   6    2.87    2.16
 -11   0  -6    1.97    1.46
 -11   0   6   -0.39    0.98
 -12   0   6   17.30    3.14
 -12   0   6   16.53    2.06
  12   0   6   16.68    2.98
 -12   0  -6   16.03    2.20
 -13   0  -6   -0.72    1.04
 -13   0  -6   -0.50    1.00
 -13   0   6    0.81    0.82
 -14   0   6    3.07    0.89
 -14   0  -6   -0.26    0.37
 -15   0   6   -0.31    0.65
   0   0   7   -1.66    3.65
   0   0   7   -0.86    2.08
   0   0  -7    0.41    2.08
   0   0  -7    0.29    1.97
   0   0   7    2.04    2.55
  -1   0   7    0.25    1.89
   1   0   7    1.78    3.22
  -1   0   7    2.20    3.11
  -1   0   7    1.39    2.83
  -1   0  -7    0.41    2.10
   1   0  -7   -0.80    1.84
   1   0   7   -1.25    2.70
   1   0  -7    0.30    1.97
  -1   0  -7    0.86    1.98
  -1   0  -7    0.70    2.63
  -2   0   7   54.01    6.28
   2   0   7   67.10    8.09
  -2   0  -7   51.84    7.06
  -2   0  -7   60.02    6.62
   2   0  -7   53.44    7.04
  -2   0   7   50.53    6.85
   2   0   7   62.48    7.09
  -2   0  -7   52.51    6.74
  -2   0   7   52.87    6.63
   2   0  -7   62.63    6.72
  -3   0   7   -0.18    1.44
   3   0   7    0.33    3.15
  -3   0  -7   -0.25    1.71
  -3   0   7    0.69    2.17
   3   0  -7   -0.29    1.98
   3   0  -7    1.89    1.87
   3   0   7   -0.48    3.29
  -3   0  -7    0.29    1.92
  -3   0   7    0.58    2.20
   4   0  -7  176.46   17.87
  -4   0  -7  170.41   17.11
  -4   0  -7  199.22   17.94
  -4   0  -7  165.12   17.03
   4   0  -7  179.89   17.31
   4   0   7  194.73   18.55
  -4   0   7  174.36   16.92
  -4   0   7  176.69   17.17
  -5   0  -7   -0.42    1.86
  -5   0   7    0.17    1.52
  -5   0  -7    0.21    1.56
   5   0  -7   -0.76    1.61
   6   0   7   50.08    6.55
   6   0  -7   49.51    5.59
  -6   0   7   47.56    5.15
   7   0   7   -0.33    3.27
  -7   0   7   -0.12    1.12
   8   0   7   17.45    4.39
  -8   0   7   27.60    2.95
  -8   0  -7   23.40    3.19
  -9   0  -7    0.46    1.34
   9   0   7   -0.89    2.52
  -9   0   7    0.25    1.06
 -10   0   7   52.95    4.39
 -10   0  -7   39.81    4.43
 -11   0   7    0.07    0.67
  11   0   7    1.28    1.75
 -11   0  -7    0.24    1.15
 -12   0   7   61.69    5.30
 -12   0  -7   60.84    5.43
 -12   0  -7   59.04    5.30
 -13   0  -7   -1.04    0.53
 -13   0   7    0.28    0.61
   0   0   8   23.58    3.93
   0   0  -8   20.80    3.15
   1   0   8    0.28    2.63
   1   0   8   -1.09    2.30
  -1   0   8   -1.10    1.70
   1   0  -8    0.24    1.65
  -1   0   8    1.25    2.28
  -1   0  -8    2.18    1.92
   2   0   8   14.33    3.42
  -2   0   8   19.21    3.29
   2   0   8   17.71    3.50
  -2   0   8   18.35    2.74
  -2   0  -8   20.28    3.10
   2   0  -8   21.60    3.09
  -3   0   8   -1.12    1.89
   3   0  -8   -0.61    1.45
   3   0   8   -1.76    2.43
  -3   0  -8    1.27    1.78
   3   0   8    0.55    2.23
  -4   0  -8    3.60    2.10
   4   0   8   -0.79    2.31
   4   0  -8    1.64    1.33
  -4   0   8    2.66    1.49
   5   0  -8   -0.31    1.17
  -5   0  -8    0.16    1.68
  -5   0   8   -0.12    1.15
  -6   0  -8    5.34    1.76
  -6   0   8    6.31    1.28
   6   0  -8    2.57    1.07
   6   0   8    4.96    2.46
  -7   0  -8    0.19    0.32
   7   0   8    0.22    2.02
  -7   0   8    0.81    0.87
   8   0   8    0.20    1.86
  -8   0   8    1.33    0.79
  -9   0   8    0.71    0.70
   9   0   8   -0.36    1.58
  -9   0  -8   -0.47    1.08
 -10   0   8   13.21    1.48
 -10   0  -8   14.15    1.73
 -11   0   8    0.05    0.43
 -11   0  -8    0.55    0.76
   0   0   9    0.28    1.47
   0   0   9   -0.33    1.07
   0   0  -9    1.71    1.25
   1   0   9    0.76    1.16
  -1   0  -9   -0.59    1.27
   1   0  -9   -0.11    1.07
  -1   0   9   -0.13    1.34
   1   0   9   -0.59    1.53
   2   0  -9    1.52    0.97
   2   0   9    1.34    1.23
  -2   0   9    2.22    1.20
  -2   0  -9    1.51    1.31
   2   0   9    1.86    1.57
   3   0  -9    1.00    0.77
   3   0  -9   -0.55    0.89
  -3   0   9    0.09    0.90
  -3   0  -9    2.90    1.39
  -3   0  -9   -0.17    0.79
   3   0   9    0.65    1.22
   3   0   9    1.96    1.44
  -4   0  -9   -0.07    0.80
   4   0  -9    1.32    0.73
  -4   0  -9    1.82    1.20
   4   0   9    1.40    1.26
   4   0   9    0.24    1.14
  -4   0   9    3.13    0.92
   5   0   9   -1.31    1.27
  -5   0  -9    0.50    0.67
   5   0  -9   -0.86    0.64
  -5   0  -9    1.15    1.17
   5   0   9    0.11    0.99
  -5   0   9    0.50    0.70
   6   0   9    5.51    1.16
  -6   0   9   15.71    1.08
  -6   0  -9   10.62    1.39
   7   0   9   -0.07    0.82
  -7   0   9    0.04    0.58
   7   0   9    0.18    0.88
   0   0 -10   19.83    1.93
   0   1   0  778.54   69.93
  -1   1   0 1146.08  104.88
   1   1   0 1157.95  105.04
  -1   1   0 1308.89  105.09
  -1  -1   0 1162.57  105.09
  -2  -1   0 1423.77  116.91
   2   1   0 1352.07  116.89
   2  -1   0 1595.63  117.09
  -2   1   0 1243.79  116.62
   3  -1   0  117.87    9.61
   3   1   0   90.85    9.29
  -3  -1   0   90.51    9.30
  -3   1   0  100.64    8.98
  -4  -1   0   15.81    2.33
   4   1   0   18.44    2.36
   4  -1   0   19.50    2.74
  -4   1   0   18.75    1.83
  -5  -1   0  133.00   13.19
   5  -1   0  153.24   13.48
   6  -1   0  221.72   20.18
  -6  -1   0  209.87   19.94
   7  -1   0  733.26   62.40
  -7  -1   0  649.82   62.11
   8  -1   0  145.72   13.07
  -8  -1   0  120.71   12.67
   9  -1   0    3.81    2.14
  -9   1   0    5.75    1.70
  -9  -1   0    6.72    1.62
  -9   1   0    5.79    1.18
  -9  -1   0    5.25    1.72
  -9  -1   0    6.91    1.29
 -10   1   0   18.13    2.92
  10  -1   0   27.50    3.54
 -10  -1   0   17.60    2.60
 -10  -1   0   21.05    3.27
 -10   1   0   20.47    2.58
 -10  -1   0   16.96    2.95
 -10   1   0   20.03    3.39
 -10  -1   0   16.36    3.40
 -11   1   0    0.50    2.23
  11  -1   0    2.28    1.96
 -11   1   0   -0.27    1.56
  11   1   0    0.65    3.93
 -11  -1   0    0.25    1.70
 -11  -1   0   -0.29    1.59
 -11   1   0   -0.33    1.11
 -11  -1   0    0.37    1.41
 -11  -1   0   -0.19    1.40
 -11  -1   0   -2.07    2.65
 -12  -1   0   36.82    4.72
 -12   1   0   41.56    5.46
 -12  -1   0   34.20    5.35
  12  -1   0   48.59    5.48
 -12  -1   0   35.53    5.03
 -12   1   0   35.25    4.51
 -12   1   0   48.20    5.42
 -12  -1   0   36.72    4.94
 -13  -1   0    3.21    1.69
 -13   1   0    4.67    1.74
 -13   1   0    6.85    2.68
 -13  -1   0    3.76    3.39
 -13   1   0   10.45    3.32
 -13  -1   0    5.52    2.01
 -14  -1   0    2.24    2.81
 -14   1   0   14.66    2.88
 -14  -1   0    8.38    2.19
 -14   1   0    8.69    2.21
 -14   1   0    9.76    3.37
 -15  -1   0    4.17    1.69
 -15   1   0    4.94    1.98
 -15  -1   0    7.49    2.63
 -15   1   0    5.07    2.38
 -15   1   0    9.69    3.19
 -16   1   0   17.19    3.77
 -16  -1   0   15.29    3.10
 -16   1   0   18.51    3.09
 -17   1   0    2.70    1.66
 -17  -1   0    0.95    1.77
 -17   1   0    3.81    2.26
 -18   1   0   -0.51    1.52
 -18   1   0    0.62    1.02
 -19   1   0    1.63    0.99
   0   1   1   -0.24    0.97
   0  -1  -1    0.84    1.55
   0  -1   1    0.52    2.13
  -1  -1  -1 2749.84  243.37
   1   1  -1 2591.13  243.28
  -1   1   1 2680.00  243.40
   1  -1   1 3069.31  243.67
   1   1   1 2920.05  243.60
  -1  -1   1 2682.17  243.38
  -1  -1  -1 2751.12  243.31
   1  -1  -1 2727.24  243.53
   2   1   1  712.67   57.64
  -2   1  -1  599.62   57.47
   2  -1   1  671.67   57.61
  -2  -1  -1  657.70   57.26
  -2  -1   1  649.48   57.31
  -2  -1  -1  655.83   57.28
  -2   1   1  619.92   57.32
   2   1  -1  592.69   57.24
  -2  -1  -1  647.19   57.40
   3  -1   1  180.97   14.68
  -3  -1  -1  178.51   14.30
   3   1   1  166.08   14.74
  -3   1  -1  162.36   14.47
  -3  -1  -1  169.81   14.50
  -3   1  -1  138.43   14.50
   3   1  -1  135.30   14.32
  -3   1   1  162.93   14.32
  -3  -1   1  143.87   14.28
  -4   1   1   43.21    3.95
  -4  -1   1   40.24    3.94
  -4   1  -1   40.40    4.10
  -4  -1  -1   44.97    4.00
  -4  -1  -1   44.52    4.27
   4  -1   1   40.96    4.33
  -4   1  -1   38.95    4.24
   4   1   1   36.53    4.48
  -5  -1  -1   48.42    5.28
  -5   1  -1   50.05    5.04
   5   1   1   46.95    5.63
  -5   1  -1   52.35    5.10
   5  -1   1   36.44    5.19
  -5   1   1   59.38    5.00
  -5  -1   1   61.96    5.00
  -6   1  -1  423.21   33.44
   6   1   1  363.37   34.07
  -6   1  -1  368.78   33.36
  -6  -1  -1  388.83   33.80
   6  -1   1  284.83   33.59
   7  -1   1   87.26   10.46
  -7  -1  -1  100.45   10.73
   7   1   1  100.82   11.05
   7  -1  -1  112.40   11.08
   8   1   1  530.10   41.66
   8  -1   1  375.11   40.66
   8  -1  -1  519.82   41.56
  -8  -1  -1  469.28   41.03
  -9   1  -1   40.44    5.44
  -9   1   1   60.00    5.49
  -9  -1  -1   44.44    5.54
  -9  -1  -1   61.54    6.09
  -9  -1   1   67.75    5.63
   9   1   1   66.65    7.21
  -9   1  -1   79.61    6.16
   9  -1   1   47.28    5.72
  -9  -1   1   52.72    5.95
  -9  -1  -1   63.64    6.26
  -9   1   1   57.91    6.03
   9  -1  -1   76.76    7.16
 -10   1   1   73.94    7.34
 -10  -1  -1   62.97    7.27
 -10   1   1   68.64    6.62
  10  -1   1   64.08    6.90
 -10  -1  -1   51.57    6.63
 -10  -1   1   61.53    7.22
 -10  -1  -1   82.87    6.92
  10  -1  -1   89.59    8.54
  10   1   1   86.58    8.70
 -10  -1   1   76.00    6.74
 -10   1  -1   49.04    6.51
 -10   1  -1   82.64    7.68
 -10  -1  -1   61.85    7.22
 -10  -1   1   63.74    7.11
 -10   1  -1   94.54    7.32
 -11   1  -1    5.10    2.81
  11   1   1    3.96    3.28
 -11  -1   1    5.49    1.85
 -11   1   1    7.92    2.28
 -11   1  -1    1.92    1.29
 -11   1  -1    4.94    1.80
 -11  -1  -1    5.48    1.89
 -11  -1   1    6.40    2.77
  11   1  -1   10.42    4.11
 -11  -1  -1    2.22    1.76
 -11  -1   1    3.58    1.92
 -11  -1  -1    5.53    1.65
 -11   1   1    5.99    1.37
 -11  -1  -1    1.88    1.31
  11  -1  -1    7.26    3.53
 -11  -1   1    4.51    1.35
 -12  -1   1   86.74    9.50
 -12   1  -1   89.94    9.81
  12  -1  -1  127.49   11.03
 -12   1   1   85.21    8.75
  12   1   1  158.49   13.42
 -12   1  -1  124.55    9.67
 -12  -1   1   83.50    9.20
 -12  -1  -1   82.73    9.20
 -12  -1  -1   80.18    9.18
 -12  -1  -1   79.73    8.85
 -12   1   1  117.38   10.01
 -12  -1   1   88.60    8.84
 -12   1  -1   61.00    8.56
 -12  -1   1   85.78    9.64
 -12  -1  -1   78.25    8.78
 -13   1  -1   32.14    5.47
 -13   1  -1   22.98    3.87
  13  -1  -1   30.78    5.10
 -13  -1  -1   33.82    4.40
 -13   1   1   49.93    5.62
 -13  -1  -1   28.66    4.10
 -13   1  -1   43.72    4.82
 -13  -1   1   35.96    4.24
 -13  -1   1   32.57    4.57
 -13  -1   1   35.03    5.60
 -13   1   1   34.09    4.11
 -14   1  -1   79.04    9.42
 -14   1   1   67.90    8.35
 -14   1  -1   99.60    9.20
 -14  -1   1   72.17    8.40
 -14   1   1  111.75    9.81
 -14  -1   1   79.50    9.29
 -15   1  -1    0.62    3.21
 -15   1   1   -0.35    2.33
 -15  -1   1    0.20    1.35
 -15   1  -1    1.54    1.94
 -15   1   1    0.20    1.51
 -15  -1   1    0.93    2.31
 -16  -1   1   -0.55    1.81
 -16   1   1    1.20    2.02
 -16   1  -1    1.35    1.86
 -16   1   1    0.53    1.27
 -16  -1   1    1.06    1.40
 -16   1  -1    3.27    2.53
 -17   1  -1    1.97    1.88
 -17   1   1    2.04    1.53
 -17  -1   1   -0.67    1.79
 -17   1  -1    1.31    1.43
 -18   1   1   -0.74    1.06
 -18   1  -1    0.59    1.04
 -18   1  -1    1.11    1.14
   0  -1   2 9999.00  793.39
   0  -1   2 8586.27  792.77
   0   1   2 9458.47  793.11
   0  -1  -2 8557.47  793.09
  -1  -1   2 1918.97  178.12
  -1  -1  -2 1963.18  177.82
   1  -1   2 2136.62  178.36
   1   1  -2 2177.35  178.36
  -1  -1  -2 2156.19  178.20
  -1   1   2 1950.04  178.11
  -1   1   2 1920.63  178.12
  -1  -1  -2 1912.54  177.92
   1  -1  -2 2047.85  178.14
  -1  -1   2 1898.96  178.34
  -2  -1   2 2191.25  200.25
  -2   1   2 2103.98  200.26
   2  -1   2 2369.06  200.49
  -2   1   2 2261.23  200.31
  -2  -1  -2 2262.86  199.96
  -2   1  -2 2362.67  200.50
  -2  -1  -2 2135.64  200.17
   2   1  -2 2169.23  200.42
  -2  -1   2 2375.83  200.36
  -2  -1  -2 2168.49  200.03
   2  -1  -2 2273.51  200.27
  -3  -1  -2  263.70   22.13
   3  -1  -2  268.00   22.25
   3   1  -2  237.71   22.41
  -3   1   2  250.24   22.33
   3  -1   2  233.50   22.43
  -3   1   2  223.22   22.21
  -3   1  -2  221.93   22.46
  -3  -1   2  268.88   22.43
  -3  -1  -2  237.37   22.16
  -3  -1   2  227.23   22.20
  -4  -1  -2  168.95   14.67
  -4  -1  -2  163.88   14.72
  -4   1   2  164.29   14.72
  -4   1  -2  171.29   14.91
  -4  -1   2  147.97   14.67
   4  -1   2  150.66   14.84
   4   1  -2  146.19   14.51
   4   1  -2  159.31   14.95
  -4  -1   2  187.72   15.03
  -4   1  -2  184.55   15.13
  -5   1  -2  311.97   28.53
  -5  -1  -2  326.61   28.53
   5   1   2  339.85   29.06
  -5   1  -2  364.40   28.81
  -5   1   2  323.57   28.37
  -5  -1   2  308.48   28.32
  -5  -1   2  329.65   28.73
   5  -1   2  253.13   28.46
  -5  -1  -2  322.85   28.33
   5   1  -2  284.30   28.60
  -6   1  -2   99.27   11.14
   6  -1   2   89.19   11.02
  -6   1   2  124.63   10.94
   6   1  -2  113.18   11.31
  -6  -1   2  125.23   11.45
  -6  -1  -2  116.35   11.20
  -6  -1   2  144.40   10.96
   6   1   2  120.63   11.82
  -6   1  -2  107.32   11.03
  -6  -1  -2  132.93   10.96
   7   1  -2  433.98   34.33
  -7  -1   2  472.12   33.83
  -7  -1  -2  342.37   34.08
  -7  -1  -2  442.38   33.83
  -7  -1   2  382.29   34.34
  -7   1  -2  349.74   33.79
   7   1   2  386.89   34.73
  -7   1   2  442.22   33.82
   7  -1   2  238.09   33.75
  -7   1  -2  308.43   33.85
  -8  -1   2  101.25   11.13
   8   1  -2  121.69   11.31
  -8  -1   2   95.27   11.30
  -8   1   2   81.52   10.99
   8  -1   2   58.11   10.67
  -8  -1  -2   88.69   11.11
  -8   1   2  203.61   10.90
  -8  -1   2  192.58   10.88
   8   1   2  101.46   11.74
  -8   1  -2  117.02   10.78
  -9  -1  -2   23.75    3.87
  -9  -1  -2   21.97    3.46
  -9  -1  -2   23.54    3.47
   9   1   2   27.90    4.54
  -9   1   2   20.77    3.47
  -9   1  -2   32.28    3.16
  -9  -1   2   32.17    3.00
  -9   1   2   28.97    3.78
  -9  -1   2   25.13    3.55
  -9  -1   2   22.89    3.73
  -9   1   2   35.86    3.06
 -10  -1  -2   45.02    5.75
 -10  -1  -2   35.74    5.14
 -10   1   2   53.14    4.75
 -10   1   2   52.65    5.61
 -10   1  -2   40.77    5.60
 -10  -1   2   45.46    5.64
 -10  -1   2   47.62    4.72
 -10   1   2   38.31    5.33
 -10  -1   2   42.16    5.33
  10  -1  -2   48.76    6.39
 -10  -1  -2   59.77    5.01
 -10  -1  -2   43.94    5.36
  10   1   2   53.41    6.73
 -10  -1   2   42.33    5.50
 -11  -1   2   35.35    5.07
 -11   1  -2   47.51    5.63
  11   1   2   51.82    6.63
 -11   1  -2   48.69    4.97
 -11  -1  -2   39.05    5.30
 -11  -1  -2   34.06    4.81
 -11  -1   2   38.85    5.17
 -11  -1  -2   49.26    4.53
  11  -1  -2   46.33    6.45
 -11   1   2   45.10    5.28
 -11  -1   2   42.64    4.35
 -11  -1   2   32.51    4.79
 -11   1   2   32.32    4.93
 -11   1   2   37.82    4.21
 -12   1   2  130.76   12.71
 -12   1  -2  124.40   12.76
 -12   1   2  123.44   11.61
 -12  -1   2  123.93   12.51
 -12  -1   2  102.28   12.31
 -12  -1  -2  112.71   12.47
 -12   1   2  142.26   12.73
 -12  -1  -2  102.61   11.59
  12   1   2  186.94   15.23
 -12   1  -2  133.54   12.22
  12  -1  -2  156.99   14.23
 -12  -1   2  112.88   11.54
 -13   1  -2   25.02    4.87
 -13   1  -2   28.60    3.88
 -13  -1  -2   22.71    3.33
 -13  -1   2   29.57    4.86
 -13  -1   2   20.43    3.66
 -13   1   2   20.01    4.28
 -13   1   2   26.00    4.54
 -13  -1   2   26.23    3.31
  13   1   2   34.26    6.43
 -13   1   2   23.34    3.19
  13  -1  -2   38.20    5.58
 -13  -1  -2   29.17    4.29
 -14  -1   2   47.88    5.62
 -14   1   2   55.21    5.79
 -14   1  -2   41.89    6.02
 -14  -1   2   35.07    4.44
 -14  -1  -2   27.18    4.39
 -14   1  -2   45.42    5.18
 -14   1   2   43.26    5.75
 -14   1   2   38.66    4.53
 -14  -1  -2   46.55    5.58
 -15  -1  -2   24.43    4.05
 -15   1  -2   25.36    4.22
 -15  -1   2   30.68    4.15
 -15   1   2   17.97    4.17
 -15   1   2   27.83    4.17
 -15  -1   2   20.71    3.08
 -15   1  -2   28.64    3.74
 -15   1   2   19.91    2.96
 -16   1  -2    4.99    1.92
 -16  -1   2    0.23    1.56
 -16   1   2    3.60    2.72
 -16   1   2    0.16    1.26
 -16   1   2    0.29    1.87
 -16  -1   2    0.99    1.18
 -16   1  -2    3.46    2.01
 -17  -1   2    0.17    1.24
 -17   1   2    0.26    1.03
 -17   1  -2    2.78    1.46
 -17  -1   2    0.53    1.08
 -17   1   2    0.21    1.49
 -17   1  -2    2.02    1.55
 -17   1   2    3.13    2.49
 -18   1   2    0.30    1.59
   0  -1  -3   -0.15    1.42
   0   1   3    0.36    1.25
   0  -1   3    0.11    0.41
   0   1  -3    0.20    2.08
   1  -1   3  565.12   53.91
   1   1  -3  615.92   54.19
   1   1   3  542.37   53.76
  -1   1   3  581.70   53.86
  -1  -1  -3  580.30   53.95
  -1   1   3  552.27   53.70
   1  -1   3  625.50   53.48
   1  -1  -3  624.72   53.85
  -1  -1   3  637.70   53.92
  -2   1   3 1377.59  123.86
  -2  -1  -3 1407.90  123.77
   2   1   3 1331.01  123.94
   2  -1   3 1350.01  123.96
  -2   1  -3 1240.85  124.10
  -2   1   3 1467.43  123.81
  -2  -1  -3 1383.17  123.40
  -2  -1   3 1462.07  123.93
  -2  -1  -3 1338.75  124.01
  -2  -1   3 1374.92  123.68
   2  -1   3 1281.46  123.63
   2  -1  -3 1406.66  123.85
   2   1  -3 1459.06  124.20
  -3   1   3   57.68    6.35
  -3  -1   3   56.07    6.25
  -3  -1   3   62.35    6.10
   3  -1  -3   62.79    6.20
   3  -1   3   60.37    6.31
  -3   1   3   65.96    6.24
  -3  -1  -3   59.52    6.15
   3   1  -3   65.10    6.62
  -3   1  -3   60.22    6.58
   3   1   3   63.30    6.57
  -4  -1   3  376.05   31.37
  -4  -1  -3  340.71   31.18
   4   1   3  352.14   31.75
  -4  -1   3  330.79   31.20
  -4   1  -3  353.42   31.48
  -4   1   3  328.85   31.28
   4  -1   3  338.73   31.37
   4   1  -3  370.94   31.73
  -4   1  -3  275.48   31.45
   4  -1  -3  384.32   31.33
  -4   1   3  328.49   31.24
  -5   1  -3  324.03   28.80
   5   1  -3  346.48   29.18
  -5  -1   3  299.43   28.49
  -5   1  -3  300.19   29.02
  -5  -1   3  357.97   28.87
  -5   1   3  308.48   28.55
   5  -1  -3  367.85   28.63
  -5  -1  -3  298.98   28.48
   5  -1   3  254.45   28.59
  -6  -1   3   40.31    4.01
  -6  -1  -3   39.67    4.03
  -6   1  -3   41.57    4.37
   6  -1   3   35.49    4.18
  -6  -1   3   45.12    4.50
   6   1  -3   36.59    4.67
  -6   1  -3   37.33    4.51
  -6   1   3   37.30    4.00
  -7  -1   3   86.75    7.59
  -7  -1   3   87.34    7.67
  -7   1   3   77.33    7.65
  -7   1  -3   65.79    7.81
   7   1  -3   93.07    8.69
  -7  -1   3   76.75    8.21
  -7   1  -3   78.83    8.12
  -7  -1  -3   79.80    7.66
  -7   1   3   80.97    7.60
  -8  -1   3  116.94   13.10
  -8  -1   3  149.63   12.54
  -8  -1   3  171.99   12.58
  -8  -1   3  105.57   12.76
  -8  -1   3  123.99   13.18
  -8   1  -3  107.07   12.72
  -8   1   3  132.47   12.56
  -8   1   3  157.85   12.53
  -8  -1  -3  156.43   12.71
  -8  -1  -3  130.46   12.52
  -8   1  -3  108.03   12.55
  -8  -1  -3  126.56   13.23
  -9   1  -3   13.27    1.87
  -9  -1  -3   13.60    2.07
  -9  -1   3   13.30    2.41
  -9  -1  -3   10.66    2.61
  -9  -1   3   12.26    2.45
  -9  -1   3   20.47    1.88
  -9   1   3   15.31    2.81
  -9  -1   3   12.63    2.23
  -9   1   3    8.68    2.28
  -9   1   3   12.72    1.70
  -9  -1  -3   10.03    2.12
  -9   1  -3    9.49    2.36
   9   1   3   11.70    3.42
 -10  -1  -3   46.87    6.86
 -10  -1   3   65.96    6.02
 -10  -1   3   53.22    6.48
 -10   1   3   62.97    6.92
  10   1   3   64.56    7.89
 -10  -1  -3   80.33    6.34
 -10   1   3   54.94    6.73
 -10  -1  -3   53.20    6.48
 -10   1  -3   63.67    6.09
 -10   1   3   77.04    6.08
 -10   1  -3   43.57    6.39
 -10  -1   3   49.30    6.75
 -10  -1   3   53.83    6.75
 -11   1   3  181.32   15.58
 -11   1  -3  136.32   16.07
 -11  -1   3  147.39   16.17
 -11  -1   3  176.03   15.56
 -11  -1  -3  200.07   15.82
  11   1   3  186.03   17.88
 -11   1   3  191.34   16.68
 -11  -1   3  144.51   16.23
 -11   1   3  151.10   16.49
 -11  -1  -3  163.83   16.66
 -11  -1   3  135.37   16.30
  11  -1  -3  178.55   17.78
 -12   1  -3   84.24   10.26
 -12  -1   3  102.97   10.49
 -12   1   3  119.83   10.90
 -12  -1   3   86.61   10.43
 -12  -1   3   97.09    9.66
 -12  -1  -3   91.88    9.74
 -12   1  -3  126.83   10.40
  12  -1  -3  135.50   12.56
 -12   1   3   96.57   10.72
 -12   1   3   92.97    9.58
  12   1   3  119.91   12.40
  12  -1   3  124.89   12.46
 -12  -1  -3  104.07   10.89
 -13   1  -3   11.90    2.87
 -13  -1   3    8.32    3.05
 -13   1   3   12.97    3.30
 -13  -1  -3   12.62    2.34
 -13  -1   3   11.26    1.90
 -13   1  -3   12.59    2.53
  13  -1  -3   12.82    4.79
 -13   1   3   14.24    3.76
  13  -1   3   14.53    4.21
 -13   1   3   10.79    1.92
  13   1   3   14.65    4.29
 -14   1   3   11.34    3.14
 -14   1   3   15.23    3.55
 -14  -1   3   15.91    3.02
 -14  -1   3   10.48    2.06
 -14   1  -3   13.12    2.70
 -14   1   3   15.07    2.19
 -14  -1  -3   10.83    2.33
 -14   1  -3   16.37    2.97
 -15  -1   3   -1.19    1.09
 -15   1   3   -0.52    2.37
 -15   1  -3    1.60    1.87
 -15   1   3    0.34    2.09
 -15   1   3    1.26    1.14
 -15  -1  -3    0.31    1.42
 -15  -1   3   -0.17    1.15
 -15   1  -3    0.72    1.72
 -16   1   3   -0.27    1.63
 -16  -1   3    0.87    0.43
 -16   1   3    3.08    2.54
 -16   1   3    1.15    1.18
 -16   1  -3    1.29    1.38
 -16  -1   3    1.50    1.17
 -17   1   3    0.17    1.87
 -17  -1   3    0.36    0.95
 -17   1   3    0.68    0.91
 -17   1  -3    1.10    1.06
 -17   1   3    1.06    1.36
 -18   1   3    0.86    0.92
   0   1  -4   83.48    8.22
   0  -1  -4   80.50    7.63
   0   1   4   63.73    7.07
   0  -1   4   67.31    6.73
  -1  -1   4  211.38   16.59
  -1   1   4  218.08   16.23
   1   1  -4  218.98   17.18
   1  -1  -4  215.28   16.59
   1   1   4  178.91   16.17
  -1   1   4  209.47   16.64
  -1  -1  -4  220.25   16.74
  -1  -1   4  203.63   15.85
  -2  -1  -4 1218.77  100.20
   2  -1   4 1052.89   99.47
  -2   1   4 1089.38   99.92
   2   1  -4 1107.94  100.39
  -2  -1   4 1159.91  100.02
   2   1   4  984.46   99.82
  -2   1  -4 1084.61  100.19
  -2   1   4 1177.44   99.76
  -2  -1  -4 1114.63   99.77
  -2  -1   4 1098.49   99.43
   2  -1  -4 1132.14   99.91
   3   1  -4   75.99    7.72
   3  -1   4   73.20    6.87
  -3  -1   4   68.06    7.24
  -3   1   4   66.90    6.80
  -3  -1   4   66.62    6.56
  -3   1  -4   56.12    7.15
   3   1   4   67.87    7.26
   3  -1  -4   69.99    6.97
  -3  -1  -4   62.34    6.83
  -3   1   4   60.44    7.08
  -4  -1   4  165.43   14.27
  -4   1  -4  127.55   14.65
  -4  -1   4  160.46   14.49
   4   1   4  190.81   15.13
  -4  -1  -4  178.27   15.06
   4  -1   4  107.21   14.40
  -4  -1  -4  159.79   14.40
  -4   1   4  139.45   14.20
   4  -1  -4  156.53   14.45
  -4  -1   4  144.58   14.24
  -4   1   4  154.71   14.38
   4  -1   4  149.49   14.36
   4   1  -4  150.01   15.13
  -4   1   4  172.64   15.10
  -4   1   4  147.70   14.42
   5  -1   4  237.51   25.87
   5  -1  -4  339.16   26.09
  -5   1   4  256.97   25.67
  -5  -1   4  296.24   25.93
  -5   1   4  260.87   25.85
   5  -1   4  210.36   25.96
  -5  -1   4  348.64   26.69
  -5  -1   4  300.86   25.89
  -5   1  -4  301.99   26.18
  -5  -1   4  278.98   25.72
  -5   1   4  274.05   26.36
   5   1  -4  313.50   26.88
   5   1   4  321.17   26.73
  -5   1  -4  259.84   26.26
  -5  -1  -4  292.55   25.82
  -6  -1  -4   25.75    2.99
   6   1   4   18.50    3.63
  -6  -1  -4   20.80    2.69
   6  -1   4   17.11    2.93
   6  -1   4   19.28    3.44
  -6  -1   4   23.72    2.85
  -6   1   4   21.20    3.19
  -6   1  -4   23.57    3.36
  -6   1   4   22.09    2.87
  -6   1  -4   22.51    3.35
   6   1  -4   30.88    4.05
  -6   1   4   24.44    2.69
  -6  -1   4   29.46    3.68
  -6  -1   4   23.71    3.02
  -6  -1   4   21.02    2.64
  -7   1   4    9.89    1.41
  -7  -1   4   11.01    1.98
  -7  -1   4    9.47    1.39
   7  -1   4    8.07    2.48
  -7   1  -4    5.97    1.61
   7   1   4   10.60    2.91
  -7   1  -4    5.88    1.96
  -7  -1  -4    7.42    1.55
  -7  -1   4    8.89    2.21
  -7  -1   4    9.53    1.50
  -7   1   4    7.94    1.51
   7   1  -4    8.56    2.54
   7  -1   4    3.56    1.80
  -7   1  -4    9.22    2.08
  -8  -1   4   79.55    6.84
  -8   1  -4   58.39    6.98
  -8   1   4   82.60    7.73
  -8   1  -4   66.05    7.39
  -8  -1   4   63.41    7.65
  -8  -1  -4   81.00    7.12
  -8   1   4   78.13    6.82
   8  -1   4   52.32    7.32
  -8  -1   4   69.25    7.43
   8   1   4   74.99    8.34
  -8  -1   4   68.64    6.83
   8  -1   4   48.59    7.27
  -8  -1  -4   76.23    6.95
  -8   1  -4   64.29    7.04
  -8   1   4   77.88    6.89
  -9   1   4   -0.27    1.54
  -9   1   4   -0.17    0.89
  -9  -1   4   -0.34    0.94
  -9   1   4    0.49    1.82
   9  -1   4    1.52    1.68
   9   1   4    1.66    2.42
  -9   1  -4    1.40    1.25
  -9  -1  -4   -0.26    1.42
  -9  -1  -4    1.12    1.05
  -9   1  -4    0.54    1.20
  -9  -1   4    0.60    1.82
  -9  -1   4    0.78    1.42
   9  -1   4   -0.23    2.00
  -9   1   4   -0.09    0.94
  -9  -1   4    0.19    0.88
 -10  -1  -4  252.87   18.53
 -10  -1   4  146.48   18.72
 -10   1   4  242.21   18.26
  10   1   4  158.18   19.58
 -10  -1   4  153.20   18.84
 -10  -1   4  257.29   18.29
  10  -1   4  151.49   19.07
 -10   1   4  180.12   18.89
 -10   1  -4  184.84   18.23
 -10   1  -4  194.28   18.22
 -10   1   4  137.17   18.70
 -11   1  -4   39.71    3.63
 -11  -1  -4   36.86    3.92
 -11  -1   4   26.16    4.19
  11  -1  -4   29.44    5.46
 -11   1   4   38.17    3.51
 -11  -1   4   32.94    3.43
 -11  -1   4   19.73    3.88
 -11   1   4   31.23    4.57
  11  -1   4   24.98    4.74
 -11   1   4   19.83    4.12
 -12   1   4    2.07    1.07
 -12  -1   4    0.50    0.94
  12  -1  -4   -0.56    3.86
 -12  -1  -4    3.63    1.70
 -12   1   4    2.46    2.25
 -12  -1   4    2.79    1.63
 -12   1  -4    3.17    1.39
 -12   1   4    1.86    2.52
  12  -1   4    3.47    2.89
 -13   1   4    5.46    2.45
 -13  -1  -4    4.77    1.67
 -13   1   4    4.66    2.86
 -13   1   4    4.15    1.21
 -13  -1   4    4.88    1.39
 -13   1  -4    2.80    1.90
 -14   1   4   -0.23    2.29
 -14   1   4    1.53    1.13
 -14   1  -4    0.43    1.58
 -14   1   4   -0.35    2.26
 -14  -1  -4   -0.30    1.52
 -14  -1   4    0.76    1.09
 -15  -1  -4    4.59    1.61
 -15   1   4    5.34    2.22
 -15   1   4    7.36    2.39
 -15   1   4    7.06    1.53
 -15   1  -4   10.44    2.10
 -15  -1   4    6.86    1.54
 -16   1   4    2.07    1.78
 -16   1  -4    1.96    1.21
 -16  -1   4    1.27    1.04
 -16   1   4    2.11    1.50
 -16   1   4    0.84    0.99
 -17  -1   4   11.98    1.31
 -17   1   4   11.16    1.23
   0  -1   5   -0.31    1.80
   0  -1   5   -0.82    2.40
   0   1   5   -0.19    1.46
   0   1   5    2.57    2.46
   0  -1   5    0.40    1.70
   0  -1  -5   -0.28    1.78
   0   1  -5    0.36    2.27
  -1   1   5   29.06    3.94
   1  -1   5   31.72    4.22
   1   1  -5   41.28    5.21
   1  -1   5   41.87    5.07
  -1   1   5   25.52    4.50
  -1   1   5   40.89    5.14
  -1  -1   5   32.84    4.71
  -1  -1  -5   34.94    4.49
   1  -1  -5   29.70    4.36
  -1  -1   5   33.08    4.12
   1   1   5   30.91    4.05
  -2   1   5   40.29    6.07
  -2  -1   5   64.67    6.92
   2  -1   5   70.07    7.24
  -2  -1   5   55.45    6.16
   2  -1  -5   61.65    6.60
   2   1   5   64.69    6.47
  -2  -1  -5   62.91    6.87
  -2   1   5   57.87    6.18
  -2  -1   5   51.68    6.56
  -2   1  -5   71.20    7.25
  -2  -1  -5   63.34    6.44
   2   1  -5   58.92    7.03
  -2   1   5   64.04    7.19
  -2   1   5   60.24    6.90
  -2  -1   5   49.12    6.13
  -2  -1  -5   58.91    6.19
   3  -1   5   76.11    8.36
  -3  -1   5   86.42    8.65
  -3  -1  -5   80.49    8.11
  -3   1  -5   75.43    8.23
  -3  -1   5   87.14    8.58
  -3   1   5   83.52    7.96
   3   1   5   69.17    8.16
  -3   1   5   79.49    8.11
  -3  -1   5   76.58    8.13
  -3   1   5  110.03    9.43
  -3   1  -5   75.40    8.88
   3   1  -5   74.83    8.85
   3  -1  -5   92.70    8.58
   3  -1   5  111.85    9.61
  -3  -1  -5   82.68    8.23
  -3  -1   5   48.72    7.84
  -3   1   5   92.73    8.67
  -4   1   5  304.89   27.25
   4  -1   5  405.21   28.39
  -4  -1   5  277.01   26.76
  -4  -1   5  282.47   26.31
  -4  -1   5  310.48   26.61
  -4   1  -5  272.25   26.99
  -4  -1   5  288.89   26.12
   4  -1   5  224.50   26.40
  -4   1   5  287.69   26.53
   4   1  -5  283.29   27.13
  -4   1   5  251.88   26.22
  -4  -1  -5  303.98   26.38
   4  -1  -5  311.81   26.70
   4   1   5  274.03   26.71
  -4  -1  -5  314.45   26.46
  -4   1  -5  244.55   26.33
  -5   1  -5   19.06    3.34
  -5   1  -5   13.82    2.77
  -5  -1   5   21.00    3.61
   5   1   5   19.18    3.20
  -5   1   5   14.81    3.18
  -5   1   5   18.92    3.07
   5  -1   5   17.68    3.30
   5  -1   5   25.00    4.38
  -5  -1   5   25.10    3.15
  -5  -1   5   18.38    2.68
  -5  -1  -5   19.82    2.91
  -5  -1  -5   19.15    2.83
   5  -1  -5   22.53    2.95
   5  -1   5   20.39    2.79
   5   1  -5   19.31    3.65
  -5  -1   5   15.21    3.11
  -5   1   5   16.50    2.72
   6   1   5    5.83    2.33
  -6   1   5    5.76    1.51
  -6  -1   5    7.19    2.06
  -6  -1   5    6.20    1.55
  -6   1  -5    5.90    1.78
  -6  -1  -5    7.53    1.89
  -6  -1   5    7.96    1.94
  -6  -1  -5    9.91    2.03
  -6   1   5    5.15    2.21
   6  -1   5    7.65    2.64
  -6  -1   5    8.80    2.58
  -6   1  -5    3.83    1.97
   6   1  -5   11.47    2.84
   6  -1   5    4.79    1.52
  -6   1   5    7.11    1.82
   7  -1   5   22.37    4.22
   7   1   5   33.62    4.40
  -7   1   5   29.63    3.16
  -7   1  -5   18.86    3.36
  -7  -1  -5   25.35    3.44
  -7  -1   5   32.87    3.22
  -7  -1   5   20.65    3.63
  -7  -1   5   30.58    4.37
  -7  -1  -5   27.24    3.25
  -7   1   5   29.56    3.36
  -7   1  -5   26.98    3.84
  -7  -1   5   28.21    3.25
   7  -1   5   24.36    3.48
  -7   1  -5   25.73    3.59
   8  -1   5    4.30    2.65
  -8   1   5    2.90    2.02
  -8  -1  -5    0.89    1.14
  -8   1  -5    1.16    1.47
  -8   1  -5    4.26    1.58
  -8   1  -5    1.85    1.55
  -8   1   5    2.81    1.20
  -8   1   5    2.55    1.07
  -8  -1   5    4.64    2.10
  -8  -1   5    2.48    1.19
  -8  -1   5    1.61    1.07
   8   1   5    1.86    2.10
   8  -1   5    0.23    1.32
  -9   1   5   46.08    4.18
  -9  -1   5   49.07    4.23
  -9   1   5   39.32    4.80
   9  -1   5   32.12    4.92
   9  -1   5   13.29    4.07
  -9  -1  -5   49.72    4.55
  -9  -1   5   30.70    4.93
  -9  -1   5   55.28    4.21
  -9  -1  -5   43.07    4.23
   9   1   5   28.11    5.06
  -9   1  -5   35.68    4.21
  -9   1  -5   37.19    4.32
  -9   1   5   18.75    4.40
  -9   1   5   49.80    4.13
 -10   1   5  142.22   10.07
  10   1   5   82.73   11.13
  10  -1   5   85.84   10.74
 -10  -1   5   85.92   10.76
 -10   1   5   66.94   10.47
 -10  -1  -5  156.42   10.57
 -10  -1   5  166.06   10.20
 -10   1   5   90.42   10.47
 -10   1  -5   89.98    9.98
  10  -1   5   64.43   10.30
 -10   1  -5   96.22   10.01
 -11   1   5  108.73   13.86
 -11   1   5   93.69   13.99
 -11   1  -5  162.55   13.49
 -11  -1  -5  177.98   13.77
 -11   1   5  162.60   13.46
 -11  -1   5  163.40   13.52
 -11  -1   5  108.65   14.03
  11  -1   5  119.98   13.98
 -12   1  -5   83.27    7.02
 -12   1   5   56.33    7.51
 -12   1   5   67.93    8.06
  12   1   5   54.92    8.48
 -12  -1   5   73.72    7.02
 -12  -1  -5   88.73    7.37
 -12  -1   5   54.85    7.46
 -12   1   5   70.66    7.00
 -13   1   5    4.17    1.88
 -13   1   5    2.39    1.03
 -13  -1   5    2.76    1.08
 -13  -1  -5    3.10    1.56
 -13   1   5    6.99    2.30
 -13   1  -5    2.71    1.71
 -14   1   5   -0.63    1.02
 -14   1  -5    1.85    1.44
 -14  -1   5    3.72    1.13
 -14  -1  -5    0.98    1.31
 -14   1   5    3.37    1.88
 -14   1   5    5.15    1.15
 -15  -1   5    0.34    0.86
 -15  -1  -5    0.10    0.99
 -15   1  -5   -0.28    1.09
 -15   1   5   -0.54    0.87
 -15   1   5    0.33    0.43
 -15   1   5    0.64    1.42
 -16   1   5    2.59    0.84
 -16  -1   5    1.16    0.74
   0   1  -6   12.17    3.29
   0   1   6   11.44    3.46
   0  -1  -6   11.34    2.29
   0  -1   6   11.49    2.63
   0  -1   6    8.46    3.35
   0   1  -6   10.75    3.22
   0   1   6   13.82    2.53
   0  -1  -6   13.08    2.82
  -1   1   6    4.69    2.26
  -1  -1  -6    5.84    1.76
  -1  -1   6    6.56    2.55
  -1  -1   6    1.82    2.01
   1   1   6   -1.14    3.21
   1  -1   6    5.85    2.87
  -1   1   6    0.53    2.48
   1  -1   6    4.17    3.00
  -1   1  -6    1.67    2.61
   1   1  -6    5.08    2.61
   1  -1  -6    5.40    1.61
  -1  -1   6    2.82    1.84
  -1  -1  -6    3.88    2.07
  -1  -1  -6    3.48    2.20
  -1   1   6    7.94    2.94
   1  -1  -6    0.94    1.83
  -1  -1   6    3.52    3.06
   1   1   6    6.81    2.09
   1  -1   6    3.19    2.32
  -2  -1   6    2.38    1.92
  -2  -1   6    9.61    3.08
   2  -1   6   10.01    3.23
  -2   1   6    5.44    3.00
   2   1   6   12.01    3.44
   2  -1   6    9.55    3.70
  -2  -1   6    7.89    2.61
  -2   1   6    5.26    2.41
   2  -1  -6   11.13    2.10
   2  -1   6    9.20    2.66
  -2  -1  -6   12.05    2.34
   2   1   6    6.79    2.32
  -2  -1  -6   10.26    2.11
  -2  -1  -6    6.19    2.42
   2  -1  -6   12.80    2.58
   2   1  -6    8.70    2.90
  -2   1   6    9.61    2.58
  -2  -1   6    9.09    2.51
  -3  -1   6   38.87    4.97
  -3  -1   6   41.52    5.32
  -3   1   6   42.80    5.37
   3  -1   6   59.65    6.65
  -3  -1   6   38.36    5.34
  -3  -1  -6   40.79    4.77
  -3   1   6   42.89    6.06
  -3  -1   6   41.64    4.68
  -3   1   6   36.56    4.99
   3  -1  -6   43.21    5.24
  -3   1  -6   39.28    5.96
   3   1   6   42.11    5.19
   3   1  -6   38.47    5.64
  -3  -1  -6   43.39    4.92
  -3   1  -6   35.62    5.24
  -4  -1   6    0.62    1.91
  -4  -1   6    0.14    1.18
   4   1   6   -1.40    1.97
  -4   1   6    1.23    2.20
  -4  -1  -6    1.76    1.68
  -4  -1   6    0.47    2.11
  -4   1  -6   -0.25    1.69
  -4  -1   6    1.13    1.85
   4  -1   6   -0.28    2.12
  -4  -1  -6   -0.82    1.70
  -4   1   6    0.78    2.56
  -4   1  -6    0.40    2.06
   4   1  -6    0.40    2.00
  -4   1   6   -0.40    1.84
  -5   1   6   23.91    3.26
  -5  -1  -6   25.11    3.43
   5   1   6   20.24    3.41
  -5   1  -6   20.14    3.34
  -5  -1  -6   23.26    3.15
  -5  -1   6   25.39    3.18
  -5   1   6   20.58    3.32
   5  -1   6   28.28    4.12
  -5  -1   6   19.22    3.59
  -5   1   6   22.19    3.88
  -5   1  -6   28.44    4.32
  -5  -1   6   25.45    3.46
   5   1  -6   19.34    3.79
  -6  -1   6    0.87    1.39
  -6  -1   6    6.66    1.64
  -6  -1  -6    4.90    2.01
  -6   1  -6    4.73    1.70
  -6  -1  -6    2.93    1.34
  -6   1   6    3.11    1.45
   6  -1   6    4.42    2.81
  -6   1  -6    6.13    2.19
  -6   1   6    0.99    2.02
   6   1   6    4.74    1.73
  -6   1   6    2.26    1.55
   6   1  -6    3.05    2.19
  -6  -1   6    2.33    1.81
  -7   1   6    2.30    1.29
  -7  -1  -6    3.28    1.66
  -7   1   6    3.37    1.61
  -7   1   6    1.51    1.13
  -7  -1   6    0.28    1.69
  -7   1  -6    4.30    1.85
   7  -1   6    6.28    2.82
  -7  -1  -6    2.63    1.20
  -7  -1   6    5.49    1.35
   7   1   6    2.93    1.69
  -7   1  -6    5.48    1.75
  -7  -1   6    3.01    1.30
  -7  -1  -6    3.26    1.01
  -8  -1   6    5.22    1.30
   8   1   6    4.09    1.75
   8  -1   6    4.50    2.53
  -8   1   6    5.01    1.30
  -8   1  -6    4.26    1.82
  -8   1   6    5.44    1.74
  -8  -1  -6    3.13    1.23
   9  -1   6    6.89    2.71
  -9   1  -6    3.11    1.51
  -9   1   6    5.68    1.39
  -9  -1   6    8.15    1.47
  -9   1   6    4.34    1.77
  10   1   6   49.53    5.87
 -10  -1  -6  114.59    4.54
 -10   1   6   45.27    4.38
 -10  -1   6  126.02    3.90
 -10   1   6  125.97    4.00
  10  -1   6   80.42    5.19
 -10   1  -6   84.38    3.69
 -11   1   6    0.55    0.84
 -11  -1   6    1.02    0.93
 -11   1  -6    0.09    1.12
  11   1   6    0.34    3.31
 -11  -1  -6   -0.12    1.56
  11  -1   6   -1.10    1.66
 -11   1   6   -0.28    1.75
 -12   1   6   39.02    3.41
  12   1   6   38.37    3.97
 -12  -1  -6   43.04    2.49
 -12   1   6   45.52    2.15
 -12  -1   6   41.79    2.15
 -13   1   6    6.73    1.19
 -13  -1   6    6.98    1.22
 -13   1   6    4.54    1.83
 -13   1  -6    8.49    1.73
 -13  -1  -6    6.24    1.50
 -14   1   6    0.69    0.72
 -14  -1   6    1.48    0.75
 -14   1   6   -0.37    1.53
 -14  -1  -6    1.48    0.93
 -14   1  -6    0.90    0.93
   0  -1  -7   -0.62    1.64
   0   1   7   -1.54    2.78
   0   1  -7   -1.13    2.73
   0  -1   7    0.25    2.07
   0   1   7   -0.82    2.41
   0   1  -7    0.44    2.35
   0   1   7    0.78    3.24
   0  -1   7   -1.59    3.65
   0  -1   7   -2.79    2.80
  -1   1   7   -2.09    3.04
   1  -1   7    0.30    2.66
  -1  -1   7    0.74    2.31
  -1   1  -7   -1.79    2.72
   1   1  -7   -1.52    2.40
   1   1   7   -4.30    3.20
  -1  -1   7   -0.22    1.65
  -1   1   7   -0.81    2.27
   1  -1   7    1.10    1.94
   1   1   7    1.23    3.36
  -1  -1  -7    0.21    1.43
  -1   1  -7   -0.92    2.11
   1  -1  -7   -1.03    1.56
  -1  -1   7    2.54    2.83
   1   1   7   -1.11    2.26
  -1  -1  -7   -0.26    1.58
  -1   1   7    1.04    2.53
  -1  -1   7    0.77    2.33
   1   1  -7    0.43    2.00
   1  -1   7    0.44    3.63
  -2   1   7    6.74    2.14
   2  -1   7    8.31    2.72
  -2   1  -7    4.99    2.62
   2  -1  -7    4.78    1.58
  -2  -1   7    6.61    2.73
   2   1   7    1.34    2.99
  -2  -1   7    5.21    2.66
  -2  -1   7    4.32    1.76
  -2   1   7    3.36    2.62
  -2  -1  -7    4.37    1.86
  -2  -1   7    3.29    2.24
   2  -1   7    5.64    3.78
   2   1  -7    6.52    2.50
   2   1  -7    5.90    2.86
  -2  -1  -7    6.50    2.00
  -2   1  -7    5.24    2.63
   2   1   7    6.34    3.47
  -2   1   7    6.31    2.43
  -3   1  -7    6.86    2.88
  -3  -1   7    3.96    2.39
   3   1   7   11.09    3.97
  -3  -1  -7    9.17    2.11
   3   1   7   10.22    3.67
  -3   1   7    8.56    2.68
   3   1  -7    9.29    2.93
   3  -1   7   18.83    4.56
  -3  -1  -7    9.86    2.33
  -3  -1   7    9.89    1.87
   3   1  -7    8.20    2.64
  -3  -1   7   11.46    2.56
  -3   1  -7    7.53    2.60
  -3   1   7   10.02    2.74
  -3  -1   7    7.87    2.38
  -4   1   7   16.40    2.77
  -4  -1  -7   13.22    2.40
  -4  -1   7   15.86    2.52
  -4  -1   7   16.47    3.26
  -4  -1   7   16.66    2.20
  -4   1  -7   20.41    3.82
  -4  -1  -7   11.42    2.60
   4   1  -7   21.22    3.38
   4   1  -7   13.87    3.07
  -4   1  -7   12.97    2.85
   4   1   7   11.24    3.75
  -5  -1   7    5.78    2.34
  -5  -1   7    6.28    1.62
  -5  -1  -7    7.90    2.02
   5  -1   7    4.89    2.69
  -5   1  -7    7.16    2.24
  -5   1   7    8.26    1.84
  -6   1   7    1.54    1.34
   6  -1   7    2.11    2.65
  -6   1  -7    0.59    1.72
   6  -1  -7    0.96    1.07
  -6  -1  -7    2.31    1.64
  -6  -1   7    1.23    1.15
  -6  -1  -7    1.48    1.02
  -7   1   7    1.83    1.08
  -7  -1  -7    3.63    1.55
   7   1   7    0.31    3.13
   7  -1  -7    1.82    1.13
  -7   1  -7    3.29    1.75
  -7  -1  -7    2.20    0.86
   7  -1   7    2.29    2.37
  -7  -1   7    1.99    1.05
   8   1   7    6.05    3.40
  -8  -1  -7   12.29    2.11
  -8   1   7   10.52    1.51
  -8  -1   7   10.71    1.50
  -8   1  -7    8.04    1.88
   8  -1   7    7.66    2.68
   8   1  -7    2.82    1.74
  -9   1  -7    8.31    1.63
  -9   1   7    8.17    1.39
  -9  -1   7    9.97    1.46
   9   1  -7    4.53    1.64
   9   1   7    7.87    3.53
   9  -1   7    2.93    2.27
  10   1   7   52.57    7.49
 -10   1   7   73.95    6.41
 -10  -1   7   81.96    6.47
 -10   1  -7   62.60    6.44
 -11  -1  -7   43.71    4.37
 -11   1  -7   32.94    4.07
  11   1   7   44.84    5.32
 -11   1   7   48.89    4.23
  11  -1   7   50.69    4.71
 -11  -1   7   43.49    4.18
 -12  -1   7    8.32    0.95
 -12  -1  -7    7.55    1.30
 -12   1  -7   12.71    1.49
  12   1   7   10.90    2.00
 -12   1   7   10.44    0.99
 -13  -1  -7    3.03    0.90
   0   1  -8   34.46    5.03
   0  -1  -8   38.82    4.47
   0   1   8   39.07    5.04
   0  -1   8   33.39    5.04
   0  -1   8   48.89    4.88
   0   1   8   38.29    4.95
   1  -1   8    1.41    1.80
  -1  -1  -8    0.47    1.54
   1   1  -8    3.72    2.31
   1   1   8    2.61    2.53
  -1  -1   8    0.67    2.23
  -1   1  -8    1.70    2.21
  -1   1   8    3.05    1.66
  -1  -1   8    3.01    1.64
   1  -1  -8    1.31    1.43
  -1   1   8    0.21    2.25
   1   1   8   -1.23    2.36
   1  -1   8    6.23    2.80
   2  -1  -8   37.35    4.06
  -2   1  -8   43.18    4.97
   2   1   8   31.31    4.74
   2  -1   8   43.43    5.25
   2  -1  -8   30.67    3.90
   2   1  -8   35.56    4.51
  -2  -1  -8   33.74    3.95
  -2  -1   8   36.29    4.42
   2   1   8   37.51    4.78
   2  -1   8   18.71    4.72
  -2  -1  -8   36.12    4.19
  -2   1   8   44.57    4.60
  -2  -1   8   43.37    4.22
   3  -1   8    2.03    2.24
  -3  -1  -8    3.86    1.19
   3  -1  -8    2.25    1.22
  -3  -1   8    3.18    1.17
   3  -1   8    0.27    2.49
   3   1   8   -0.23    1.98
   3   1  -8    3.90    1.71
  -3  -1   8    0.94    1.49
   3   1   8    2.84    2.00
  -3   1   8    1.59    1.47
  -3  -1  -8    3.51    1.72
  -4  -1   8    4.61    1.45
  -4  -1  -8    5.73    1.60
  -4  -1  -8    4.06    1.26
   4   1   8    3.94    2.41
   4  -1   8    4.37    2.32
  -4   1   8    5.80    1.51
   4   1  -8    3.44    1.50
   4   1   8    3.76    2.06
   4  -1  -8    5.39    1.35
  -5  -1   8   11.39    1.64
  -5   1   8   10.27    1.70
  -5   1  -8   10.92    2.39
  -5  -1  -8   14.95    2.07
   5   1   8   11.37    2.73
   5  -1  -8   10.33    1.68
  -5  -1  -8    9.60    1.63
   5   1  -8    6.04    1.69
   6  -1   8    1.12    1.93
  -6   1   8    1.06    0.93
  -6  -1   8    1.96    0.90
  -6   1  -8    1.88    1.55
  -6  -1  -8    1.57    1.31
   6   1  -8    1.31    1.14
  -6  -1  -8    2.35    0.94
   6  -1  -8    1.23    0.95
   7  -1   8    0.59    1.83
  -7   1   8    6.47    1.00
  -7  -1   8    5.82    1.03
   7   1   8    4.55    2.14
   7   1  -8    2.23    1.08
  -7   1  -8    6.18    1.48
  -7  -1  -8    7.10    1.47
  -8  -1  -8   30.18    3.26
   8  -1   8   22.12    3.61
  -8   1  -8   25.38    3.11
   8   1   8   13.79    3.53
  -8   1   8   28.89    3.01
  -8  -1   8   41.80    3.10
  -9   1   8    1.28    0.69
  -9  -1   8    1.48    0.64
  -9  -1  -8    2.03    1.20
  -9   1  -8    2.99    0.99
   9   1   8    3.21    1.77
   9  -1   8    0.55    1.43
  10  -1   8   16.54    2.14
 -10   1  -8   15.49    1.82
 -10  -1   8   16.73    1.75
  10   1   8   10.04    2.44
 -10   1   8   16.36    1.72
 -11  -1  -8    0.23    0.77
   0  -1  -9    0.13    0.84
   0   1  -9   -0.25    1.12
   0  -1   9   -0.50    1.17
   0  -1  -9    0.84    0.90
   0  -1   9    0.12    1.26
   0   1   9    0.11    1.20
   1  -1  -9    5.99    1.18
  -1   1   9    7.95    1.48
  -1  -1  -9    6.27    1.18
  -1  -1   9    6.35    1.30
  -1   1  -9    5.60    1.59
   1  -1   9    5.41    1.47
   1   1   9    1.87    1.20
  -1  -1   9    6.45    1.35
   1   1  -9    6.35    1.38
   1   1   9    4.95    1.49
   1  -1   9    7.24    1.70
  -2  -1  -9   28.96    2.49
   2  -1   9   23.73    2.72
   2  -1  -9   21.38    2.40
  -2   1  -9   24.79    2.78
  -2   1   9   23.86    2.48
   2   1  -9   19.58    2.44
   2  -1   9   23.40    2.82
  -2  -1   9   27.73    2.53
  -2  -1  -9   24.97    2.41
   2   1   9   14.81    2.56
  -3   1   9    2.96    0.85
   3  -1   9    0.37    1.34
   3  -1  -9    2.10    0.89
   3   1   9    1.49    1.12
  -3   1  -9    2.03    1.32
   3   1  -9    1.59    0.88
  -3  -1   9    0.97    0.85
   3  -1   9    1.77    1.21
  -3  -1  -9    1.66    0.94
  -3  -1  -9    3.47    1.11
   3   1   9    4.65    1.39
  -4   1   9    4.53    0.91
  -4  -1   9    3.71    0.85
   4  -1   9    2.22    1.32
   4  -1  -9    3.54    0.90
  -4  -1  -9    5.38    1.13
   4   1   9   -0.20    1.20
   4   1  -9    3.56    0.94
   4  -1   9    2.11    1.26
  -4  -1  -9    5.00    0.90
   4   1   9    1.91    1.00
  -5  -1  -9    8.54    1.05
  -5  -1  -9   11.68    1.38
   5  -1  -9   11.43    1.05
   5   1  -9    3.77    0.96
   5  -1   9    4.08    1.39
  -5   1  -9    3.40    0.91
   5   1   9    1.97    1.16
  -5   1   9   12.80    1.13
   5   1  -9    2.12    0.88
  -5  -1   9   12.90    1.16
   5   1   9    5.68    1.34
  -6  -1   9    7.84    0.91
  -6   1  -9    6.41    1.19
  -6   1   9    8.17    0.91
   6   1   9    1.13    1.01
   6  -1   9    2.91    1.10
  -6  -1  -9    4.61    1.15
   6   1   9    1.88    1.08
   6  -1   9    2.98    1.16
  -7   1  -9    2.88    0.84
  -7  -1  -9    3.77    0.97
   7  -1   9    2.80    0.92
   7  -1  -9    1.87    0.71
  -8  -1  -9    9.92    1.32
   0  -2   0 1962.10  177.14
   0   2   0 1975.73  176.93
   1  -2   0  817.89   73.07
  -1   2   0  867.73   72.86
  -1  -2   0  752.00   72.95
   1   2   0  789.89   72.79
  -2  -2   0    4.33    1.61
  -2   2   0    7.31    1.50
   2   2   0    7.46    1.45
  -3  -2   0  622.95   58.79
   3   2   0  672.91   58.73
   4   2   0   62.91    6.11
  -4  -2   0   55.29    6.06
   4  -2   0   62.20    6.46
   5  -2   0   47.91    4.85
  -5   2   0   37.08    3.86
   5   2   0   40.90    4.43
  -5  -2   0   39.95    4.40
   6   2   0  189.69   18.99
  -6  -2   0  190.66   18.94
   6  -2   0  245.31   19.53
  -7  -2   0    2.48    1.34
  -7  -2   0    3.03    1.48
   7  -2   0    2.54    1.91
   7   2   0    4.15    2.05
  -8   2   0   10.73    1.93
  -8  -2   0    9.01    2.07
  -8  -2   0    5.79    1.74
   8  -2   0   14.52    2.71
   8   2   0    9.34    2.47
  -9   2   0   -0.12    1.17
  -9   2   0    0.83    1.37
  -9  -2   0    3.71    1.74
  -9  -2   0    2.67    1.65
   9  -2   0    1.60    1.88
  -9   2   0    3.20    1.94
  -9  -2   0    0.21    1.55
  -9  -2   0    0.85    0.92
  -9  -2   0    1.77    1.85
   9   2   0    5.68    2.45
 -10  -2   0    4.68    2.05
 -10  -2   0    5.18    1.82
 -10   2   0    7.57    2.45
  10  -2   0    4.28    2.13
 -10   2   0    6.31    1.39
 -10   2   0    6.29    2.00
 -10  -2   0    4.43    1.39
 -10  -2   0    4.24    1.86
  10   2   0   13.61    3.65
 -11   2   0    0.34    1.17
 -11  -2   0   -0.19    1.32
 -11  -2   0    1.48    1.57
 -11   2   0    0.52    2.61
 -11  -2   0    0.26    1.76
  11  -2   0    1.99    2.04
  11   2   0    0.63    3.54
 -11  -2   0    0.86    1.73
 -11   2   0   -0.60    1.96
 -12  -2   0   97.68   11.59
 -12  -2   0  136.13   12.00
 -12   2   0  121.48   12.13
  12  -2   0  153.40   13.02
 -12  -2   0  115.80   11.70
 -12   2   0  107.48   11.07
 -12  -2   0  102.49   11.12
 -13  -2   0  233.19   22.60
 -13   2   0  279.61   22.79
 -13  -2   0  283.98   22.93
 -13  -2   0  246.78   22.53
 -13   2   0  208.06   21.81
 -13  -2   0  209.18   21.85
 -14  -2   0   53.78    6.21
 -14   2   0   54.27    6.28
 -14  -2   0   43.71    5.82
 -14   2   0   44.35    5.23
 -15   2   0   -1.03    2.53
 -15   2   0    1.34    2.00
 -16   2   0   -0.45    2.40
 -16   2   0    0.28    1.80
 -17   2   0    2.64    2.11
 -17   2   0    7.58    1.91
 -18   2   0    1.35    1.03
 -18   2   0    0.89    1.08
   0   2   1   -0.14    0.61
   0  -2   1   -0.06    0.16
   0   2   1    0.33    1.44
   0  -2  -1   -1.77    1.13
   0   2  -1    0.32    0.84
  -1  -2   1  295.78   25.04
  -1  -2  -1  311.58   25.56
   1  -2   1  254.69   25.12
  -1  -2   1  306.78   25.91
   1   2   1  291.37   25.61
  -1   2   1  242.50   25.07
   1  -2  -1  305.95   25.66
  -1   2   1  276.57   25.58
   1   2  -1  350.04   25.41
  -2   2   1  825.72   71.07
  -2  -2   1  762.17   71.28
  -2  -2  -1  731.58   70.92
   2  -2  -1  833.99   71.20
   2  -2   1  970.72   71.62
   2   2  -1  868.20   70.80
   2   2   1  828.88   71.14
  -2   2  -1  749.36   70.77
  -2   2   1  759.88   70.55
  -3   2  -1  211.25   20.33
  -3  -2  -1  207.45   20.58
  -3  -2   1  223.44   20.93
  -3  -2  -1  200.61   20.48
   3  -2   1  260.02   21.20
  -3   2   1  233.57   20.67
   3   2   1  223.83   20.80
   3  -2  -1  250.11   20.96
  -3   2  -1  257.31   20.78
   3   2  -1  227.36   20.39
  -4  -2   1  231.58   22.23
   4  -2   1  270.08   22.56
  -4   2  -1  239.79   21.98
   4   2  -1  214.27   21.77
   4   2   1  255.14   22.34
  -4   2  -1  241.58   21.65
  -4  -2  -1  253.63   22.06
  -5  -2  -1  292.59   27.51
   5  -2   1  312.19   27.91
  -5   2  -1  277.98   27.33
   5   2  -1  288.80   27.31
   5   2   1  306.20   27.83
  -5   2  -1  320.26   27.08
  -5  -2   1  278.04   27.68
  -6  -2   1  434.65   41.61
   6  -2   1  447.95   41.82
  -6  -2  -1  432.84   41.48
   6  -2  -1  484.46   42.00
  -6   2  -1  408.70   41.19
  -6   2  -1  499.80   40.99
   6   2  -1  430.81   41.32
   6   2   1  457.66   41.83
  -7  -2  -1   66.32    6.55
  -7   2   1   54.71    6.24
  -7  -2   1   63.43    6.63
  -7  -2  -1   50.79    6.18
  -7  -2   1   63.21    6.36
   7  -2  -1   74.45    7.20
   7   2  -1   66.30    6.36
   7   2   1   74.58    7.22
   7  -2   1   57.04    6.64
  -8  -2   1  116.42   10.51
   8   2  -1  113.54   10.25
  -8  -2  -1  100.39   10.19
   8  -2  -1  129.45   11.12
  -8  -2   1  100.86   10.10
  -8   2  -1  133.04   10.22
  -8  -2  -1   78.22    9.62
  -8   2   1   93.12   10.03
   8  -2   1   96.91   10.32
  -8  -2  -1  100.56   10.05
   8   2   1  129.67   11.17
  -9  -2   1  129.24   13.42
  -9  -2  -1  142.20   13.39
  -9  -2  -1  128.11   13.38
  -9   2  -1  178.68   13.64
  -9   2   1  142.39   13.28
   9  -2   1  139.22   13.52
  -9  -2  -1  146.71   13.06
  -9   2  -1  167.47   13.33
  -9   2   1  146.70   13.32
   9   2   1  177.59   14.71
  -9  -2   1  136.18   13.25
  -9  -2  -1  126.02   13.15
   9  -2  -1  166.30   14.27
  -9   2   1  142.07   12.71
  -9  -2   1  140.60   12.76
  -9   2  -1   96.75   12.59
  -9  -2  -1  117.06   12.75
  10  -2   1   33.75    4.28
 -10  -2  -1   33.21    4.24
 -10  -2   1   30.77    4.11
 -10   2  -1   30.28    4.59
 -10  -2  -1   35.44    4.14
 -10   2   1   33.74    4.23
 -10  -2  -1   29.02    3.85
 -10   2   1   31.77    4.04
 -10  -2  -1   21.95    3.43
  10  -2  -1   42.12    5.06
 -10  -2   1   31.48    4.05
 -10  -2  -1   34.40    4.11
  10   2   1   55.32    6.33
 -10   2   1   29.00    3.41
 -10  -2   1   29.52    3.48
 -10   2  -1   20.95    3.27
 -10   2  -1   40.13    4.26
 -10  -2   1   27.93    4.19
 -11  -2  -1   96.05   10.84
 -11  -2   1  101.62   11.32
 -11  -2  -1  104.35   11.27
 -11  -2  -1  105.55   11.36
 -11  -2   1  107.76   11.26
 -11   2  -1  135.96   11.83
  11  -2   1  115.39   11.53
 -11   2  -1  138.85   11.54
 -11   2   1  124.63   11.55
 -11   2   1  126.80   11.40
  11  -2  -1  132.06   12.34
 -11  -2   1  100.13   11.08
 -11  -2  -1  101.45   11.05
 -11   2   1   98.05   10.57
 -11  -2   1   94.68   10.60
 -12  -2  -1  120.53   12.80
 -12  -2   1  124.02   13.21
 -12  -2  -1  132.29   13.28
 -12  -2   1  140.29   13.22
 -12  -2  -1  113.99   12.91
 -12   2  -1  153.77   13.61
 -12  -2   1  111.39   12.37
  12  -2  -1  172.70   14.53
 -12  -2   1  133.39   13.12
 -12  -2  -1  124.24   13.01
 -12   2   1  143.47   13.23
 -12   2   1  117.55   12.42
 -13  -2  -1    3.94    2.31
 -13  -2   1    4.54    2.17
 -13  -2   1    4.15    2.05
 -13  -2  -1    4.41    1.71
 -13   2  -1    6.53    3.08
 -13   2   1    3.81    2.87
 -13  -2   1    3.57    1.50
  13  -2  -1    4.43    2.63
 -13  -2   1    4.09    2.08
 -13  -2  -1    3.92    2.06
  13   2   1    8.58    7.23
 -13   2   1    3.30    1.60
 -14  -2   1   49.52    5.96
 -14   2  -1   56.54    6.41
 -14   2   1   51.72    6.21
 -14  -2   1   44.51    5.27
 -14   2   1   47.64    5.41
 -15  -2   1   10.98    2.53
 -15   2   1   11.65    3.06
 -15  -2   1    7.85    1.78
 -15   2   1   10.44    1.99
 -15   2  -1   14.77    3.04
 -15   2   1   13.37    3.05
 -15   2  -1   14.88    3.47
 -16   2  -1    6.13    2.59
 -16   2   1    3.80    2.44
 -16   2  -1    6.31    1.99
 -16   2   1    6.32    2.30
 -17   2  -1    2.98    1.53
 -17   2   1    3.02    2.06
 -17   2  -1   -0.21    1.43
 -17   2   1    0.65    1.42
 -18   2  -1    1.02    0.90
 -18   2   1    1.76    1.41
 -18   2   1    0.28    1.06
 -18   2  -1    0.97    1.09
   0  -2   2  498.72   45.64
   0  -2  -2  500.06   45.77
   0  -2   2  578.52   46.50
   0   2   2  517.37   46.05
   0  -2  -2  503.64   45.32
   0   2   2  497.17   45.72
  -1   2   2   41.68    4.24
   1   2   2   38.92    4.50
  -1  -2   2   34.58    3.96
   1  -2   2   44.21    5.22
  -1  -2  -2   37.45    4.09
   1  -2  -2   41.21    4.40
  -1   2   2   38.15    4.58
  -1   2  -2   47.29    4.86
  -1  -2  -2   41.43    3.70
  -2  -2  -2  238.34   23.89
   2   2   2  259.22   24.30
   2  -2   2  268.36   24.70
  -2  -2   2  238.75   23.70
  -2   2   2  274.85   23.84
  -2  -2  -2  254.05   23.85
  -2   2  -2  283.13   24.56
  -2  -2  -2  282.16   23.60
   2  -2  -2  239.97   24.18
  -3   2   2   35.25    3.35
  -3  -2  -2   25.94    3.20
   3  -2  -2   38.45    4.43
  -3   2  -2   41.11    4.29
   3  -2   2   40.11    4.74
  -3  -2   2   33.44    3.26
   3   2   2   32.32    4.11
  -3   2  -2   37.01    3.77
  -3  -2   2   32.80    3.98
  -3  -2  -2   41.79    3.65
   4  -2   2   96.93   10.59
  -4  -2   2   95.26   10.46
  -4   2  -2  100.15   10.46
  -4   2   2  103.81    9.89
   4   2   2  108.55   10.70
   4  -2  -2  102.97   10.79
  -4   2  -2   93.30   10.13
  -4  -2  -2  105.99   10.18
  -4  -2   2  128.89    9.90
   5  -2   2   92.54   11.11
  -5  -2  -2  109.10   10.91
  -5  -2   2  137.02   10.55
   5  -2  -2  106.06   11.51
  -5   2  -2   96.95   10.97
   5   2   2  115.75   11.48
  -5   2  -2   88.25   10.66
  -5   2   2  129.43   10.53
  -5  -2   2  110.21   11.19
  -6  -2   2  268.47   24.09
  -6  -2  -2  273.44   23.82
  -6   2   2  214.73   23.74
  -6   2   2  325.49   23.38
  -6   2  -2  247.36   23.77
   6   2   2  266.70   24.42
  -6   2  -2  229.37   23.39
   6  -2   2  195.71   23.79
  -7  -2   2   71.33    7.16
  -7   2  -2   71.36    6.27
  -7  -2  -2   74.47    6.85
  -7   2   2   54.69    6.66
  -7  -2   2   63.17    6.68
  -7  -2  -2   62.41    6.63
   7  -2   2   58.48    6.76
   7   2  -2   59.62    6.73
   7   2   2   74.76    7.63
  -8  -2   2   20.40    3.18
  -8  -2   2   26.97    2.63
  -8  -2  -2   23.16    3.18
  -8  -2   2   25.30    3.58
   8   2  -2   18.43    3.21
  -8  -2  -2   27.20    3.01
  -8   2   2   17.91    3.06
   8  -2  -2   23.71    4.62
  -8   2   2   29.17    2.66
  -8   2  -2   27.68    2.71
   8  -2   2   17.74    3.06
  -8  -2  -2   21.82    3.11
   8   2   2   28.73    4.32
  -9  -2   2   41.31    4.95
  -9  -2  -2   39.02    4.70
  -9   2   2   38.16    4.77
  -9  -2   2   37.96    4.57
  -9  -2  -2   38.12    4.61
  -9   2   2   32.03    4.51
   9  -2   2   29.41    4.40
   9  -2  -2   47.25    5.97
  -9   2   2   41.57    3.99
  -9  -2   2   43.68    4.01
   9   2   2   42.38    5.87
  -9   2  -2   35.16    4.86
 -10  -2   2  121.07   13.07
 -10  -2  -2  127.27   12.89
 -10   2  -2  112.24   12.73
 -10   2   2  157.17   13.11
 -10  -2   2  123.12   12.78
 -10   2  -2  144.93   13.12
 -10  -2  -2  120.07   12.40
 -10   2   2  117.58   12.84
 -10  -2  -2  135.37   12.83
 -10   2   2  134.80   12.22
  10   2   2  159.60   14.65
 -10  -2   2  126.56   12.17
  10  -2   2   96.81   12.54
  10  -2  -2  154.95   14.11
 -10   2  -2  173.82   13.03
 -11  -2   2   14.68    3.10
 -11  -2  -2   15.85    2.75
 -11   2  -2   16.16    3.42
 -11   2   2   15.35    3.27
 -11  -2   2   17.13    2.86
 -11   2   2   15.87    2.15
 -11  -2   2   11.82    2.12
  11  -2  -2   15.91    3.69
 -11  -2  -2   16.93    2.59
 -11  -2  -2   14.29    2.72
 -11   2  -2   19.28    3.21
 -11   2   2   16.78    3.09
  11   2   2   24.43    4.90
 -12  -2   2   19.17    2.98
 -12  -2   2   18.89    3.29
 -12   2  -2   17.25    3.67
 -12   2   2   26.68    3.88
 -12   2   2   15.97    2.49
 -12  -2   2   16.53    2.47
 -12  -2  -2   18.36    2.88
  12  -2  -2   29.27    4.49
 -12  -2   2   19.68    3.20
 -12  -2  -2   12.08    3.01
  12   2   2   30.01    6.10
  13  -2  -2   52.20    6.46
 -13  -2  -2   31.44    4.41
 -13  -2   2   44.05    4.79
 -13   2  -2   42.36    5.56
 -13   2   2   42.09    5.40
 -13   2   2   37.79    4.26
 -13  -2   2   32.86    4.72
 -13  -2  -2   31.35    4.57
 -13  -2   2   33.81    4.15
 -14   2   2   11.12    2.13
 -14  -2   2   12.18    2.31
 -14   2  -2   16.62    3.42
 -14  -2   2   13.55    2.10
 -15   2  -2    9.99    2.64
 -15   2  -2   12.63    2.70
 -15  -2   2    9.77    1.86
 -15   2   2   11.72    2.98
 -15   2   2   10.46    1.88
 -16   2  -2    2.32    1.64
 -16   2   2    2.19    1.84
 -16   2   2    4.35    1.14
 -16  -2   2    1.91    1.10
 -16   2  -2    2.88    1.61
 -17   2  -2    1.42    1.13
 -17   2   2    2.40    1.55
 -17   2  -2    2.42    1.39
   0   2   3    2.58    1.62
   0  -2  -3   -0.25    0.77
   0  -2   3   -0.71    1.72
   0  -2   3    1.31    2.03
   0  -2  -3    0.78    1.16
  -1   2   3  287.92   26.20
  -1  -2   3  323.18   26.98
  -1  -2   3  295.79   26.16
   1  -2   3  299.03   26.85
   1   2  -3  292.96   26.63
  -1  -2  -3  279.13   25.93
   1  -2  -3  323.76   26.35
  -1   2   3  279.61   26.41
  -1  -2  -3  251.32   25.70
   1  -2  -3  284.57   25.81
  -1   2  -3  359.34   27.23
  -2   2   3  122.45   11.15
   2  -2   3  125.72   11.86
  -2  -2   3  120.75   10.99
   2  -2  -3  132.21   11.50
  -2   2  -3  140.83   12.21
  -2  -2  -3  104.49   10.63
  -2   2   3  124.28   11.51
   2   2  -3  105.04   11.31
  -3   2   3  608.50   48.73
   3  -2  -3  600.66   48.85
   3  -2   3  517.00   48.83
  -3  -2  -3  530.94   47.96
  -3  -2   3  524.02   48.15
   3   2  -3  424.76   48.44
  -3   2   3  512.95   48.23
  -3  -2   3  521.69   48.62
   4  -2  -3  592.43   50.99
  -4   2   3  648.85   50.82
  -4   2   3  540.56   50.24
   4  -2   3  524.82   50.77
  -4  -2   3  523.85   50.14
   4   2   3  532.73   51.03
   4   2  -3  437.29   50.50
  -4   2  -3  518.74   51.04
  -4  -2  -3  614.39   50.08
  -4   2  -3  587.63   50.64
  -4  -2   3  563.61   50.73
   5  -2   3   33.65    4.53
  -5   2  -3   48.57    5.07
  -5   2   3   46.39    4.28
   5  -2   3   28.73    4.69
  -5   2   3   41.10    4.92
   5  -2  -3   42.31    5.29
   5   2  -3   34.28    4.66
   5   2   3   45.14    5.33
  -5  -2   3   44.38    4.19
  -5  -2  -3   48.55    4.18
  -5   2  -3   38.80    4.62
  -5  -2   3   44.56    4.88
  -6  -2   3  223.51   20.77
  -6  -2   3  253.16   20.05
   6   2  -3  182.49   20.57
   6  -2   3  160.60   20.39
   6  -2   3  206.63   20.49
   6  -2  -3  188.72   20.95
  -6  -2   3  224.93   20.06
  -6   2   3  171.10   20.52
  -6  -2   3  293.39   20.05
  -6  -2   3  172.79   20.26
  -6   2   3  241.61   20.00
  -6   2  -3  177.95   20.53
   6   2   3  213.59   21.19
  -6   2  -3  176.41   20.23
  -6   2   3  241.64   20.07
  -7  -2   3  171.28   17.29
  -7   2   3  210.06   16.59
   7  -2   3  165.37   16.89
  -7  -2  -3  279.25   16.96
  -7  -2   3  193.15   16.49
  -7  -2   3  261.91   16.57
  -7   2  -3  186.42   17.82
  -7   2   3  127.83   16.94
  -7  -2   3  157.06   16.88
  -7  -2  -3  152.52   16.87
   7  -2  -3  173.19   17.81
  -7   2  -3  114.35   16.76
   7   2  -3  143.68   17.23
   7   2   3  186.82   17.89
  -7   2  -3  140.73   16.61
  -7   2   3  272.27   16.66
   7  -2   3   77.84   16.62
  -8  -2   3    7.51    2.11
  -8  -2   3    9.02    1.23
  -8   2   3    3.97    1.69
  -8  -2  -3    8.93    1.82
  -8  -2   3    5.18    1.64
  -8  -2  -3    7.06    1.75
  -8   2   3   11.82    1.31
   8  -2   3    2.54    1.64
   8   2  -3    6.24    2.07
  -8   2  -3    5.86    1.36
   8   2   3    7.04    2.86
  -8   2  -3    5.06    2.52
  -8  -2   3    6.09    1.88
  -9  -2   3   32.33    4.61
  -9  -2  -3   30.90    4.30
  -9   2   3   25.08    4.28
  -9  -2   3   41.01    3.79
  -9  -2   3   29.97    4.26
  -9   2   3   45.42    3.82
  -9   2  -3   35.71    3.84
   9   2   3   35.60    5.53
  -9   2  -3   37.17    5.05
 -10  -2   3  101.95   11.10
 -10   2   3  118.86   11.21
  10  -2  -3  129.59   12.33
 -10   2   3  115.50   10.12
 -10  -2   3   92.54   10.68
 -10  -2  -3  107.34   10.76
 -10  -2   3  110.19   10.11
  10   2   3  110.66   12.13
 -10   2   3   80.52   10.68
 -11  -2  -3  108.61   12.08
 -11   2  -3  159.04   12.73
 -11   2   3  116.69   12.71
 -11   2   3  144.82   13.02
  11  -2  -3  154.53   14.14
 -11  -2   3  107.54   12.36
 -11  -2  -3  111.70   12.38
  11   2   3  151.66   14.43
 -11   2   3  136.10   11.88
 -11  -2   3  119.54   11.81
 -11  -2   3  114.28   12.74
 -12  -2   3   25.15    4.09
 -12   2   3   36.18    4.61
 -12  -2  -3   20.41    3.46
  12  -2  -3   28.80    5.11
 -12   2   3   25.50    3.11
 -12  -2   3   28.06    3.16
 -12  -2  -3   26.14    3.69
  12   2   3   36.71    5.81
 -12  -2   3   23.75    3.64
 -13   2   3    1.97    2.65
 -13   2   3    0.61    1.10
 -13  -2   3    3.05    1.21
 -13  -2  -3    0.58    1.80
 -14   2   3   31.65    4.64
 -14  -2  -3   25.70    3.83
 -14   2   3   30.11    3.47
 -14  -2   3   30.34    3.52
 -15   2   3    3.98    2.16
 -15   2   3    1.16    2.21
 -15   2  -3   -0.24    1.57
 -15  -2   3    3.04    1.22
 -15   2   3    4.21    1.18
 -16   2   3    1.52    2.13
 -16   2   3    3.64    1.82
 -16   2  -3    0.21    1.49
 -16   2   3    1.87    0.89
 -16  -2   3    0.55    0.98
 -17   2   3    0.81    1.60
 -17   2  -3    0.89    1.03
 -17   2   3   -0.16    1.24
   0   2   4  778.87   72.32
   0  -2   4  801.75   72.26
   0  -2  -4  806.85   72.02
   0   2   4  788.57   72.37
  -1   2   4  712.81   50.90
  -1   2   4  552.01   49.95
  -1  -2   4  576.04   49.94
  -1  -2   4  530.28   49.82
  -1  -2   4  567.97   49.74
   1  -2  -4  554.41   49.85
  -1   2   4  536.37   50.02
   1   2   4  501.90   49.99
  -1   2  -4  650.52   51.34
   1   2  -4  487.52   50.33
  -1  -2  -4  526.64   49.42
   1  -2   4  493.71   49.85
  -2   2   4  353.86   32.75
  -2  -2   4  369.94   32.68
   2   2  -4  308.89   33.08
  -2  -2   4  394.08   32.62
  -2   2   4  462.18   33.94
   2  -2   4  289.95   32.78
   2  -2   4  304.52   33.09
   2  -2  -4  385.53   32.99
  -2   2   4  414.64   33.16
   2   2   4  326.88   32.95
  -2   2  -4  427.46   34.32
  -2  -2  -4  330.04   32.26
  -2  -2   4  367.49   32.78
  -3   2   4  155.41   16.15
   3  -2  -4  175.37   16.82
  -3   2   4  171.68   16.37
  -3  -2   4  182.82   16.34
  -3   2   4  215.67   17.55
   3  -2   4  173.74   16.60
   3   2   4  148.06   16.66
  -3  -2   4  200.02   16.25
   3  -2   4  151.67   16.67
  -3  -2   4  166.48   16.16
  -3   2   4  199.97   16.81
  -3   2  -4  203.70   17.89
   3   2  -4  137.86   16.61
  -3  -2  -4  173.50   15.98
  -3  -2   4  183.43   16.55
  -4  -2   4   34.24    4.00
  -4   2  -4   38.52    4.93
  -4   2  -4   34.49    4.28
   4  -2  -4   34.23    4.56
   4  -2   4   25.91    4.05
  -4   2   4   45.79    5.01
  -4  -2   4   28.34    4.08
  -4   2   4   38.31    4.36
  -4   2   4   31.52    3.78
  -4  -2   4   33.24    3.57
  -4  -2   4   36.81    3.68
  -4  -2   4   32.58    3.69
  -4   2   4   27.90    3.60
   4   2  -4   26.63    4.20
   4   2   4   32.98    4.58
  -4   2  -4   36.62    4.82
  -4  -2  -4   35.49    3.45
   4  -2   4   31.20    4.09
  -5  -2   4   46.28    4.94
  -5  -2  -4   44.45    4.28
  -5  -2   4   42.08    5.07
   5  -2  -4   46.80    4.32
  -5   2   4   40.17    4.29
  -5  -2  -4   57.15    4.65
  -5  -2   4   46.66    4.40
  -5   2   4   53.84    5.55
   5  -2   4   42.10    4.91
  -5  -2   4   41.97    4.26
   5  -2   4   32.07    4.74
  -5   2   4   41.40    4.49
   5  -2  -4   48.02    5.53
  -5   2  -4   51.20    5.92
  -5  -2   4   39.87    4.35
   5   2  -4   35.95    5.05
  -5   2  -4   30.43    4.95
   5  -2   4   27.40    4.34
  -5  -2  -4   44.98    4.24
  -5   2  -4   41.63    4.91
  -6  -2   4   64.06    6.70
  -6   2   4   58.18    6.83
  -6  -2   4   56.22    6.71
  -6   2  -4   49.30    6.27
   6  -2   4   53.30    6.43
  -6  -2  -4   70.22    5.92
  -6  -2   4   64.55    5.98
  -6   2   4   64.35    5.92
  -6  -2  -4   84.45    6.37
   6  -2   4   41.46    6.28
  -6  -2   4   73.72    5.96
   6  -2  -4   68.73    7.37
  -6   2  -4   34.84    6.40
   6   2  -4   53.74    6.78
  -6   2   4   62.37    6.01
  -6  -2   4   64.16    5.98
   6  -2   4   41.56    6.06
  -6  -2  -4   68.48    5.97
  -6   2  -4   57.88    6.48
  -7  -2   4   32.85    2.95
  -7  -2   4   23.84    3.49
  -7   2  -4   35.22    4.69
  -7  -2   4   25.21    3.67
  -7   2  -4   23.45    3.09
  -7  -2  -4   35.47    3.38
   7  -2   4   12.17    2.82
   7  -2   4   19.31    3.44
  -7   2   4   23.20    3.65
  -7   2   4   26.03    2.81
  -7  -2   4   29.32    2.83
   7  -2  -4   24.37    4.34
   7   2  -4   31.66    4.13
  -7   2  -4   20.94    3.30
  -7   2  -4   22.04    3.19
  -7   2   4   30.31    2.92
  -8  -2   4   10.26    2.33
  -8   2   4    8.57    1.56
  -8  -2   4    8.40    2.35
  -8  -2  -4   12.63    2.27
  -8  -2   4   11.79    1.56
   8  -2   4   10.12    2.24
  -8   2   4    8.37    2.21
   8  -2  -4   10.47    3.79
   8   2  -4    8.63    2.56
  -8   2  -4    8.60    1.84
  -8   2   4    9.72    1.51
   8  -2   4    5.98    1.94
  -9  -2   4   30.80    4.68
  -9   2   4   44.24    5.16
   9  -2  -4   42.46    6.03
  -9  -2  -4   53.67    4.65
  -9   2   4   15.04    4.21
  -9   2   4   50.81    4.08
  -9  -2   4   54.18    4.09
  -9   2  -4   35.67    4.04
   9   2   4   27.88    5.28
   9  -2   4   21.56    4.25
 -10   2   4   81.26    8.82
 -10   2   4   64.01    8.44
 -10   2   4   95.52    7.81
  10   2   4   79.32    9.56
 -10  -2   4   86.88    7.78
 -10   2  -4   85.03    7.85
 -10  -2   4   65.75    8.45
  10  -2   4   57.96    8.35
 -11   2   4   62.74    6.97
 -11   2   4   53.28    6.62
  11  -2   4   43.33    6.52
 -11   2   4   59.34    5.78
 -11  -2   4   59.87    5.79
  11   2   4   73.31    8.22
 -12   2   4   39.36    4.78
 -12  -2  -4   31.38    3.99
 -12   2   4   29.53    3.46
 -12  -2   4   31.88    3.57
 -13   2   4   12.08    1.83
 -13  -2   4   11.14    1.79
 -13  -2  -4    6.56    2.17
 -14   2   4    2.70    1.08
 -14  -2  -4    2.72    1.82
 -14   2  -4    3.70    1.80
 -14   2   4    3.79    2.50
 -14  -2   4    2.95    1.21
 -15   2   4    3.47    1.10
 -15   2   4    7.14    2.13
 -15   2  -4    7.85    1.85
 -15  -2   4    5.25    1.22
 -15   2   4    6.38    2.12
 -16   2   4    1.46    1.53
 -16   2  -4    3.87    1.22
 -16   2   4    3.15    1.48
   0   2   5    3.56    2.48
   0  -2   5   -0.84    1.59
   0  -2   5    1.00    2.39
   0  -2   5    0.70    1.33
   0  -2   5    0.35    2.29
   0  -2  -5    0.24    0.88
   0   2   5    0.26    2.09
  -1   2   5   97.42   10.48
   1  -2   5  100.26   10.81
  -1  -2   5   86.68   10.33
  -1   2   5  106.47   11.02
  -1  -2   5  111.07   10.83
   1  -2   5  128.32   11.77
  -1  -2   5  107.63   11.24
  -1   2  -5  105.94   10.78
   1  -2  -5   92.71   10.07
  -1  -2  -5  116.37   10.26
  -1  -2   5  119.91   10.63
  -1   2   5  119.09   11.03
   1   2   5  113.86   11.08
  -1   2  -5  131.35   12.39
   1   2  -5   90.23   11.43
   1   2   5  100.93   11.08
  -1   2   5  144.04   12.07
  -2   2   5  149.99   14.30
   2  -2   5  207.89   15.93
  -2  -2   5  159.85   14.30
   2  -2  -5  127.07   13.60
  -2  -2  -5  130.63   13.63
  -2  -2  -5  163.94   13.87
  -2   2   5  196.71   15.71
   2  -2   5  122.46   14.47
  -2  -2   5  151.83   14.03
  -2  -2   5  138.08   13.93
   2  -2  -5  157.93   14.40
  -2   2   5  159.01   14.55
   2   2   5  154.78   14.67
  -2   2  -5  192.71   16.04
   2   2  -5  131.14   14.78
   2  -2   5  141.48   14.45
  -2   2  -5  142.36   14.39
  -2   2   5  129.23   13.95
  -3   2  -5   64.49    7.18
   3  -2   5   71.64    8.08
  -3  -2   5   60.95    7.11
  -3   2  -5   63.62    7.23
   3  -2  -5   63.51    6.30
  -3  -2  -5   63.78    6.47
  -3   2   5   63.54    6.88
  -3   2  -5   60.13    6.93
  -3  -2   5   61.45    6.72
  -3   2   5   78.01    8.10
   3  -2   5   61.45    7.01
  -3   2   5   74.87    7.10
  -3   2   5   58.45    6.57
  -3  -2   5   61.00    6.57
  -3  -2   5   79.86    6.69
   3  -2  -5   60.63    7.25
  -3   2  -5   58.49    7.87
   3   2   5   62.11    7.21
   3   2  -5   53.30    7.26
  -3  -2  -5   57.68    6.29
  -4   2   5    2.71    1.76
  -4  -2   5    7.04    1.58
  -4   2   5    3.43    2.24
  -4  -2   5    5.70    2.21
  -4   2  -5    6.32    1.81
  -4  -2  -5    5.94    1.61
   4  -2  -5    6.98    1.41
  -4  -2  -5    5.13    1.36
   4   2  -5    0.67    1.93
   4  -2   5    4.74    2.04
   4  -2  -5    3.91    2.55
  -4  -2   5    7.05    1.83
  -4   2  -5    4.09    2.49
   4   2   5    2.87    2.09
  -4   2  -5    5.37    2.12
  -4  -2   5    5.27    1.60
  -4   2   5    5.97    1.64
   4  -2   5    4.59    2.76
  -5  -2   5   18.44    3.51
  -5   2   5   29.47    4.46
  -5  -2  -5   26.29    2.98
   5  -2  -5   31.09    3.06
  -5  -2  -5   32.38    3.36
  -5  -2   5   29.52    3.17
  -5   2  -5   17.83    3.27
   5   2   5   21.02    3.90
   5  -2   5   20.17    3.71
  -5   2   5   25.03    3.18
  -5  -2   5   24.33    2.97
  -5  -2   5   25.79    3.12
   5  -2  -5   25.67    4.23
  -5   2  -5   21.26    4.03
   5   2  -5   19.36    3.95
  -5  -2  -5   29.83    2.92
  -5   2  -5   21.76    3.57
  -5   2   5   24.22    2.99
  -5  -2  -5   26.44    3.02
   5  -2   5   31.04    4.71
  -6  -2   5    1.47    1.89
  -6  -2   5    1.45    1.00
  -6   2   5    1.74    1.08
  -6  -2   5    2.49    1.02
   6  -2  -5    2.82    1.21
   6  -2   5    2.10    2.49
  -6  -2  -5    4.10    1.67
  -6   2  -5    2.96    1.41
  -6   2   5    2.30    1.13
   6   2   5    2.94    2.36
  -6  -2  -5    2.51    1.10
   6  -2   5    1.66    1.99
  -6  -2   5    2.92    1.29
  -6   2   5    1.98    2.07
   6  -2  -5    1.07    2.54
  -6   2  -5    1.59    1.69
   6   2  -5    0.37    2.17
  -6  -2  -5    3.76    0.98
  -6   2  -5    1.73    1.77
  -7  -2  -5    0.16    0.82
  -7   2   5    0.37    0.85
  -7  -2   5    0.36    0.93
  -7   2   5   -0.92    1.68
  -7   2  -5    0.35    1.14
  -7  -2   5    0.30    1.86
  -7   2  -5    1.43    1.58
  -7  -2  -5   -0.43    1.51
   7  -2   5   -0.69    1.72
  -7   2   5   -0.22    1.10
   7  -2  -5   -2.32    3.10
  -7   2  -5    0.83    1.51
   7   2  -5    3.07    2.20
   7   2   5   -1.14    2.01
  -7  -2   5   -0.72    1.05
  -8   2   5   26.96    2.83
  -8  -2   5   27.98    2.89
  -8   2   5   17.12    3.53
  -8  -2   5   16.79    3.49
  -8  -2  -5   41.42    3.60
  -8   2  -5   22.85    3.01
   8  -2   5   13.83    3.39
  -8   2   5   29.77    2.89
   8  -2  -5   29.38    4.96
  -8  -2   5   29.73    2.89
  -8   2  -5   15.64    2.91
   8   2   5   14.94    3.82
  -9   2   5   80.31    8.14
  -9  -2   5   47.37    7.48
  -9  -2  -5   95.18    7.63
   9  -2   5   57.51    7.54
  -9   2  -5   59.11    7.01
   9  -2  -5   69.66    8.96
  -9   2   5   45.12    7.49
  -9  -2   5  115.92    7.23
   9   2   5   48.52    8.11
  -9   2  -5   61.84    7.10
  -9   2   5   99.83    7.16
 -10   2   5    7.65    2.73
 -10   2   5    5.47    2.30
  10  -2   5   13.64    2.27
 -10   2   5   12.83    1.71
 -10  -2   5   13.39    1.78
 -10  -2  -5   15.68    2.53
 -11  -2   5   10.53    1.65
 -11   2   5   12.43    2.77
 -11   2   5    8.03    2.35
 -11   2   5   14.13    1.73
 -12   2   5   23.54    3.48
 -12   2   5   20.21    2.40
 -12  -2   5   19.56    2.43
 -12   2   5   16.38    3.27
 -13   2   5   -1.13    1.95
 -13   2   5   -0.33    0.90
 -13  -2   5    0.58    0.89
 -13  -2  -5    1.03    1.56
 -14   2   5    0.15    1.59
 -14   2   5    0.95    0.79
 -14  -2   5    0.90    0.87
 -14  -2  -5    1.17    1.47
 -14   2  -5    1.32    1.36
 -15   2   5    0.73    1.28
 -15   2  -5    1.61    1.07
 -15   2   5    0.53    1.32
   0  -2  -6   12.73    2.16
   0  -2   6   14.31    2.80
   0   2   6   17.23    3.64
   0   2   6   17.15    3.24
   0   2   6   17.59    3.01
   0  -2   6   14.54    2.67
   0  -2   6   14.90    3.16
   0  -2   6   19.80    3.57
  -1   2   6   11.42    3.10
  -1  -2   6   12.21    2.75
   1  -2   6   14.26    3.56
  -1   2  -6   20.96    3.88
  -1  -2  -6    8.45    1.80
   1  -2  -6    7.34    1.70
   1  -2   6    4.88    2.21
  -1  -2   6   14.10    2.54
   1   2   6    9.57    3.51
   1  -2   6   15.35    3.23
   1   2  -6    5.09    2.99
  -1   2   6   11.66    2.52
   1   2   6   10.83    2.86
   1  -2   6    6.13    2.22
  -1   2   6   11.91    2.61
  -1  -2   6    9.05    2.13
  -2   2   6  261.44   24.44
   2   2   6  281.85   25.11
   2  -2  -6  246.95   23.78
   2  -2   6  266.13   24.84
  -2  -2   6  238.27   23.98
   2  -2   6  300.34   25.68
  -2  -2  -6  234.84   23.75
  -2  -2   6  245.51   24.20
  -2   2  -6  280.12   24.91
  -2  -2  -6  285.01   23.95
  -2  -2   6  281.68   24.13
  -2   2   6  239.08   24.12
  -2   2   6  271.47   24.47
   2   2   6  261.34   24.80
  -2   2  -6  321.67   26.19
   2   2  -6  208.47   24.73
   3  -2   6  144.04   13.59
  -3   2  -6  138.37   13.06
   3  -2   6  180.53   14.69
  -3  -2   6   87.77   12.74
  -3  -2  -6  130.93   12.15
  -3  -2   6  151.39   12.43
  -3  -2  -6  162.35   12.43
  -3   2   6  144.22   14.02
  -3  -2   6  112.44   12.38
  -3  -2   6  121.22   12.26
  -3   2  -6  137.71   14.15
   3   2   6  139.21   13.33
   3   2  -6  107.18   13.05
  -3   2  -6  115.42   12.92
  -3   2   6  120.02   12.60
   3  -2   6   92.04   12.96
  -3   2   6  128.04   12.44
   3   2   6  128.95   13.50
   3  -2  -6  126.64   12.16
   4   2   6   34.13    4.94
   4  -2   6   37.14    5.49
   4  -2   6   35.20    5.25
  -4   2  -6   22.59    3.96
  -4  -2  -6   40.69    3.84
  -4  -2   6   25.04    3.61
  -4  -2   6   26.82    4.30
  -4  -2  -6   34.85    3.53
   4  -2   6   26.68    4.35
  -4   2   6   30.03    3.66
  -4  -2   6   28.47    3.54
  -4   2   6   30.86    4.89
  -4   2  -6   30.23    5.15
   4   2  -6   23.58    4.22
  -4  -2   6   36.54    3.75
   4   2   6   25.53    4.50
  -4   2  -6   28.54    4.16
  -4   2   6   28.81    3.87
   4  -2  -6   33.53    3.57
  -5   2   6    4.26    1.35
  -5  -2   6    2.68    1.16
  -5  -2  -6    6.55    1.31
  -5   2   6    3.41    1.42
  -5   2  -6    4.98    2.04
   5  -2   6    8.79    3.13
   5  -2  -6    3.29    2.79
   5  -2  -6    6.53    1.58
  -5  -2  -6    6.41    1.73
  -5  -2   6    7.16    1.63
  -5  -2  -6    4.84    1.36
   5  -2   6    4.30    2.31
  -5   2   6    5.59    2.41
  -5   2  -6    2.89    2.25
   5   2  -6    5.04    2.11
  -5   2  -6    3.41    1.88
   5   2   6    2.36    2.03
  -5  -2   6    4.55    1.40
  -5  -2   6    2.37    1.91
  -6  -2   6    3.53    1.93
   6  -2  -6    3.90    1.26
  -6   2   6    2.93    1.15
  -6  -2   6    4.07    1.14
  -6  -2   6    3.35    1.17
  -6  -2   6    4.03    1.39
  -6  -2  -6    2.29    1.14
  -6  -2  -6    5.56    1.78
  -6   2  -6    1.60    1.45
   6  -2   6    0.50    2.01
   6   2   6    4.34    2.13
  -6   2   6    0.67    1.95
  -6   2   6    2.57    1.26
   6  -2  -6    1.07    2.85
  -6   2  -6    1.41    2.04
   6   2  -6    3.24    1.98
  -6   2  -6    3.32    1.60
  -7   2   6   -0.19    0.94
  -7  -2   6    0.09    0.89
  -7  -2   6    0.28    1.77
  -7   2  -6   -0.34    1.36
  -7  -2  -6    0.87    0.92
   7  -2  -6    0.18    0.98
   7  -2   6    0.70    1.74
  -7   2   6   -0.30    1.75
  -7  -2  -6    0.56    1.56
  -8   2   6   21.76    3.48
  -8  -2   6   13.32    3.03
  -8   2   6   30.44    2.70
  -8  -2  -6   26.55    3.22
  -8   2  -6   16.06    2.71
   8  -2   6   18.65    3.25
  -8   2   6   14.88    3.18
  -8  -2   6   25.68    2.58
  -9   2   6    6.74    2.28
  -9  -2  -6   14.14    2.24
  -9   2  -6    7.73    1.52
   9  -2   6    6.23    1.93
  -9   2   6    3.94    1.97
  -9   2   6   12.14    1.57
  -9  -2   6   10.31    1.45
 -10  -2  -6   11.37    1.83
  10  -2   6    7.77    1.81
 -10  -2   6    9.80    1.14
 -10   2   6    7.49    2.19
 -10   2   6    9.68    2.11
 -10   2   6   11.45    1.18
 -11   2   6   26.40    3.51
 -11  -2  -6   27.50    3.18
 -11   2   6   15.91    3.18
 -11   2   6   26.21    2.70
 -11  -2   6   25.00    2.70
 -12   2   6    0.14    0.96
 -12   2   6    5.14    0.94
 -12  -2   6    6.64    0.96
  12   2   6    6.39    2.80
 -12   2   6    3.25    1.82
 -13   2   6    0.21    0.60
 -13  -2  -6    5.53    1.44
 -13   2   6    5.07    0.81
 -13  -2   6    4.24    0.84
  13   2   6    3.07    2.03
 -14  -2  -6    0.55    0.90
 -14   2  -6    0.96    0.88
   0  -2   7   -0.70    2.25
   0   2   7   -0.83    2.67
   0  -2  -7    0.52    1.26
   0  -2   7    0.59    1.67
   0   2   7    0.46    2.07
   0  -2   7    2.05    1.93
   1  -2   7   47.39    6.59
  -1   2  -7   68.20    6.87
  -1  -2  -7   54.06    5.14
   1   2  -7   44.69    6.31
  -1   2   7   41.19    5.77
   1  -2   7   55.61    5.77
  -1  -2   7   48.79    5.52
   1  -2   7   45.92    5.73
   1   2   7   43.55    5.66
  -1   2   7   40.71    5.53
  -1  -2   7   48.33    5.46
   1  -2  -7   48.05    5.15
   2  -2   7   12.55    3.86
  -2  -2   7    9.23    2.71
  -2  -2  -7   15.86    2.14
  -2   2  -7   11.63    3.04
   2  -2  -7   16.02    2.12
  -2  -2  -7   11.72    2.04
  -2  -2   7   12.41    2.32
   2   2   7   11.08    2.86
   2  -2   7   11.02    2.88
  -2   2   7   13.55    2.55
  -2  -2   7    9.69    2.18
  -3   2   7   17.23    2.60
  -3  -2   7   15.34    2.39
   3  -2   7   23.35    4.56
  -3   2  -7   20.00    3.43
  -3  -2  -7   20.44    2.55
   3  -2  -7   18.10    2.45
  -3  -2   7   17.17    2.44
   3  -2   7   17.24    3.31
  -3  -2   7   11.86    2.98
  -3  -2  -7   20.21    2.50
  -4   2   7    9.74    1.68
  -4  -2   7    6.58    1.42
  -4  -2  -7    7.61    1.48
  -4  -2   7    5.71    2.13
  -4  -2  -7   10.10    1.83
  -4   2  -7    8.63    2.34
   4  -2  -7    6.58    1.65
  -4  -2  -7    8.94    1.64
   4  -2   7    7.61    2.60
  -4  -2   7    8.61    1.63
  -5   2   7   11.86    1.78
  -5  -2   7   11.05    1.65
  -5  -2  -7   17.61    2.29
   5  -2  -7   16.64    2.02
  -5  -2   7    4.23    2.32
  -5  -2  -7   14.88    1.85
  -5   2  -7    9.21    2.16
   5  -2   7   10.25    2.70
  -5  -2   7   10.53    1.81
  -6   2   7    2.10    0.88
  -6  -2   7    1.98    0.86
  -6  -2   7    2.55    1.89
  -6  -2  -7    1.38    0.97
   6  -2  -7    4.47    1.19
  -6  -2  -7    2.85    1.50
  -6   2  -7    1.40    1.41
   6  -2   7    2.78    1.94
  -7   2   7    4.90    1.13
  -7  -2   7    8.72    1.17
  -7   2   7    0.56    1.12
  -7  -2   7    0.71    1.77
  -7   2  -7    5.69    1.57
   7  -2  -7   10.31    1.32
  -7  -2  -7    1.17    0.81
   7  -2   7    5.41    2.01
  -7  -2  -7    9.20    1.67
  -8  -2  -7   13.06    1.96
   8  -2   7   14.40    2.27
  -8   2   7   14.62    1.50
  -8  -2   7   17.19    1.45
  -9  -2  -7   39.33    2.40
   9  -2   7   30.21    2.60
   9   2   7   26.36    3.58
  -9   2   7   43.11    1.81
  -9  -2   7   39.95    1.64
   9  -2  -7   44.37    2.42
 -10  -2  -7    5.00    1.39
 -10   2   7    3.87    0.76
 -10  -2   7    3.08    0.70
  10   2   7    3.84    2.54
  10  -2   7    4.16    1.37
 -11   2   7    1.97    0.59
 -11  -2   7    0.84    0.52
 -11   2  -7    2.44    1.33
  11   2   7    0.83    2.27
 -11  -2  -7    0.99    1.06
   0  -2   8  148.92   12.36
   0  -2  -8  162.80   12.09
   0   2   8  140.53   12.34
   0  -2   8  133.00   12.23
   1  -2  -8   68.63    5.66
   1   2   8   51.82    5.90
   1   2  -8   47.13    6.10
   1  -2   8   63.96    6.08
   1   2   8   36.66    5.77
   1  -2   8   57.03    6.00
  -1   2   8   55.08    5.80
  -1  -2   8   53.98    5.65
  -1  -2   8   64.65    5.87
  -2   2   8    5.31    1.48
  -2  -2   8    4.72    1.18
  -2  -2  -8    5.27    1.31
  -2  -2  -8    6.45    1.35
  -2  -2  -8    5.60    1.31
  -2   2  -8    5.95    2.02
   2  -2   8    4.13    1.90
   2   2  -8    2.81    1.65
   2   2   8    1.21    1.77
  -2  -2   8    5.51    1.53
   2  -2  -8    5.62    1.32
   2   2   8    4.98    2.01
   2  -2   8    6.41    2.02
  -3   2   8    1.16    1.00
  -3  -2  -8    2.12    1.01
  -3  -2   8    3.74    0.97
   3  -2  -8    5.03    1.27
  -3  -2   8    4.32    1.28
  -3   2  -8    4.73    2.01
   3   2  -8    4.42    1.51
   3   2   8    0.49    1.59
   3   2   8    0.68    1.75
   3  -2   8    0.36    1.86
  -3  -2  -8    4.86    1.26
  -3  -2  -8    3.79    1.17
  -4  -2  -8   -0.09    0.34
  -4   2   8    5.89    1.02
  -4  -2   8    6.84    0.99
   4  -2  -8   11.13    1.32
   4   2  -8    4.18    1.40
  -4  -2  -8    9.00    1.42
  -4   2  -8    6.40    1.81
  -4  -2  -8   10.46    1.26
   4   2   8    2.66    1.77
  -4  -2   8    5.29    1.13
   4   2   8    3.19    1.74
   4  -2   8    6.35    2.07
   5   2   8    0.30    1.54
  -5   2   8    1.31    0.75
  -5  -2   8    0.85    0.63
  -5  -2  -8    2.05    1.23
  -5   2  -8   -0.44    1.49
   5  -2  -8    1.89    0.94
  -5  -2  -8    0.44    0.83
   5  -2   8    1.59    1.58
   5   2   8    2.97    1.58
   5  -2   8    2.43    1.78
   5   2  -8   -0.14    1.04
  -6   2   8    1.59    0.79
  -6  -2   8    2.87    0.73
   6  -2   8    3.19    1.57
   6   2  -8    2.05    1.09
  -6   2  -8    3.42    1.28
  -6  -2  -8    1.83    1.18
   6  -2  -8    2.55    0.92
   6   2   8   -0.87    1.59
   6   2   8    2.28    1.39
   6  -2   8    1.98    1.56
   7  -2   8    7.58    1.75
   7  -2  -8   11.83    1.65
  -7   2   8   13.42    1.30
  -7   2  -8    8.40    1.46
   7   2  -8    4.79    1.37
  -7  -2   8    9.64    1.15
   7   2   8    2.39    1.56
   7  -2   8    7.12    1.71
  -7  -2  -8   12.73    1.67
   8  -2  -8    0.79    0.74
  -8   2   8    2.12    0.52
  -8   2  -8    0.11    0.38
  -8  -2  -8    0.90    1.03
   8   2  -8    0.27    0.79
   8   2   8   -0.97    1.56
   8  -2   8    2.98    1.22
   8   2   8   -0.83    1.07
  -9  -2  -8    1.98    1.01
   9   2   8    1.60    1.50
 -10  -2  -8    7.42    1.21
   0   2   9    0.84    0.57
   0  -2  -9    0.08    0.69
   0   2  -9   -0.79    0.93
   0  -2  -9    0.32    0.84
   0  -2   9   -0.48    1.00
  -1  -2   9   21.75    2.65
  -1   2   9   24.25    2.48
   1   2  -9   15.98    2.63
   1  -2   9   24.33    2.75
   1   2   9   17.55    2.46
  -1  -2  -9   30.02    2.70
   1  -2  -9   25.55    2.73
   2   2   9    2.39    0.73
  -2  -2  -9   -0.23    0.28
   2  -2  -9    1.88    0.89
  -2   2   9    2.55    0.59
   2  -2   9    1.49    1.02
   2  -2  -9    5.01    0.92
  -2  -2  -9    6.97    0.94
   2   2  -9    1.34    0.82
  -3   2  -9    2.21    1.10
   3   2  -9    1.05    0.70
   3  -2   9    2.29    1.06
   3  -2  -9    4.39    0.91
  -3  -2  -9    4.99    0.90
   4  -2  -9    2.61    0.81
  -4   2  -9    2.16    0.94
   4   2  -9    0.39    0.59
   4  -2  -9    3.99    0.73
  -4  -2  -9    1.97    0.68
   5  -2  -9   -0.55    0.68
  -5   2  -9    0.05    0.70
   5   2  -9    0.16    0.48
   5  -2   9   -0.25    0.80
   6  -2  -9    6.90    0.98
   0   3   0   23.32    2.99
   0  -3   0   17.78    3.12
  -1  -3   0    1.69    2.45
   1  -3   0    0.90    1.79
  -1   3   0   -0.30    1.31
   1   3   0   -0.15    1.58
   2  -3   0  668.85   58.60
  -2  -3   0  586.92   58.30
   2   3   0  663.77   58.09
  -3  -3   0  215.96   21.21
   3  -3   0  231.24   21.50
   3   3   0  227.73   20.94
  -4  -3   0   86.65    8.86
  -4  -3   0   89.18    9.07
   4   3   0   93.83    8.87
  -4  -3   0   87.20    9.09
  -5  -3   0   13.55    2.45
  -5  -3   0   12.49    2.15
   5  -3   0   18.57    3.08
  -5   3   0   13.50    1.95
   5   3   0   13.48    2.18
  -6   3   0  305.25   24.89
  -6  -3   0  235.45   24.71
   6  -3   0  326.84   25.88
   6   3   0  252.53   24.71
  -6  -3   0  251.88   24.96
  -7  -3   0    0.24    1.44
  -7   3   0    1.20    1.50
  -7  -3   0    1.20    1.26
  -7   3   0    1.41    1.31
   7  -3   0    3.95    2.39
   7   3   0    0.78    1.37
  -7   3   0    1.03    1.62
  -8  -3   0   73.38    8.84
  -8   3   0  102.77    9.07
  -8   3   0   84.29    8.78
  -8   3   0  100.10    9.06
  -8  -3   0   69.25    8.68
   8  -3   0  103.61    9.94
  -9  -3   0   39.87    5.05
  -9   3   0   47.23    5.20
  -9  -3   0   49.27    5.50
  -9   3   0   38.53    4.87
  -9   3   0   44.80    5.20
  -9  -3   0   35.15    4.84
   9  -3   0   39.57    5.81
 -10  -3   0  142.84   15.93
 -10   3   0  173.79   16.07
 -10  -3   0  160.11   16.05
 -10   3   0  187.12   16.39
 -10  -3   0  150.50   15.87
  10  -3   0  182.29   17.13
 -11  -3   0    0.61    1.62
 -11   3   0   -0.78    2.47
 -11   3   0    0.66    1.88
 -11  -3   0    2.76    2.05
  11  -3   0   -1.46    2.29
 -12   3   0    0.80    2.46
 -12   3   0    4.55    2.33
 -12  -3   0    2.82    2.09
  12  -3   0    1.00    2.35
 -13   3   0    5.37    2.54
 -13   3   0    2.79    2.29
 -13  -3   0    1.93    1.99
 -14   3   0    1.86    2.33
 -14   3   0   -0.65    1.85
 -14  -3   0    1.78    1.76
 -15   3   0   12.17    2.63
 -15   3   0   11.20    2.66
 -16   3   0   -0.15    1.75
 -16   3   0    1.56    1.57
 -17   3   0    0.49    1.01
 -17   3   0   -0.32    1.15
   0  -3   1   -2.63    2.81
   0  -3  -1    0.57    1.40
   0   3   1   -0.36    1.67
  -1  -3   1  183.26   18.51
   1  -3   1  187.50   18.80
   1  -3  -1  192.90   18.22
  -1   3   1  205.28   18.23
   1   3   1  204.47   18.20
  -1  -3  -1  176.86   18.08
   1   3  -1  192.41   17.69
  -2  -3   1  135.20   14.11
  -2  -3  -1  141.29   13.81
   2  -3  -1  139.68   13.91
  -2   3   1  149.35   13.76
   2   3  -1  151.46   13.35
   2   3   1  133.01   13.76
  -3  -3   1  133.23   12.94
  -3  -3  -1  125.27   12.33
  -3  -3   1  134.83   12.45
  -3  -3  -1  119.74   12.46
   3  -3  -1  139.42   12.84
   3   3   1  126.47   12.53
  -3   3   1  133.77   12.47
  -3  -3  -1  125.32   12.42
  -4  -3   1  269.53   24.71
  -4  -3  -1  246.45   24.56
  -4  -3  -1  237.56   24.54
   4  -3   1  338.60   25.93
   4  -3  -1  294.69   25.22
   4   3   1  260.66   24.79
  -4   3  -1  280.99   24.79
  -4  -3   1  287.93   25.11
  -4  -3  -1  253.02   24.69
  -5   3  -1  385.17   30.33
  -5   3   1  371.14   30.65
  -5  -3  -1  283.58   30.28
   5  -3  -1  326.18   30.97
   5  -3   1  433.80   31.80
   5   3   1  312.84   30.53
  -5   3  -1  317.62   30.34
  -5  -3   1  312.33   30.41
  -5  -3   1  305.69   30.73
  -5  -3  -1  316.08   30.47
  -6  -3  -1   19.34    3.00
  -6  -3   1   20.19    2.99
  -6  -3  -1   14.38    2.89
  -6   3  -1   28.95    3.10
   6  -3   1   34.88    4.41
  -6  -3   1   25.35    3.48
  -6   3   1   24.90    3.20
  -6  -3  -1   22.19    3.00
  -6   3  -1   26.47    3.70
   6   3   1   23.68    3.39
  -6  -3   1   26.49    3.57
  -7  -3   1  156.33   14.79
  -7  -3  -1  145.72   14.44
   7  -3   1  162.36   15.37
  -7  -3   1  165.20   14.85
  -7   3  -1  162.45   14.82
  -7   3  -1  170.56   14.41
  -7  -3  -1  139.29   14.28
  -7   3   1  147.70   14.47
  -7  -3  -1  125.18   14.17
  -7  -3   1  142.40   14.35
   7  -3  -1  163.14   15.21
   7   3   1  140.37   14.63
  -8  -3   1  121.57   12.74
  -8  -3   1  128.24   13.09
  -8  -3  -1  123.88   12.82
  -8  -3  -1  109.62   12.57
  -8  -3   1  187.43   13.70
  -8   3  -1  144.10   12.89
  -8   3   1  132.93   12.92
  -8  -3  -1  116.80   12.66
   8  -3   1  141.36   13.73
   8  -3  -1  140.87   13.65
   8   3   1  139.20   13.34
  -8   3  -1  121.61   12.94
  -9  -3   1  342.55   32.24
  -9  -3  -1  293.40   31.84
  -9   3  -1  380.94   31.93
  -9   3   1  353.74   31.90
  -9  -3   1  358.13   32.19
  -9   3  -1  340.55   32.09
  -9  -3  -1  320.73   31.80
  -9   3  -1  403.00   32.14
  -9   3   1  352.34   32.14
  -9  -3  -1  294.76   31.72
  -9  -3   1  292.90   31.78
   9  -3   1  387.36   32.98
   9  -3  -1  389.11   32.97
   9   3   1  382.19   32.82
 -10  -3   1   58.05    7.03
 -10  -3  -1   45.37    6.52
 -10   3  -1   59.11    6.97
 -10   3   1   59.74    6.79
 -10  -3   1   57.01    6.76
 -10   3  -1   68.81    7.05
 -10   3   1   63.77    7.15
  10  -3   1   69.48    7.81
  10  -3  -1   78.33    8.02
 -10  -3  -1   58.71    6.69
 -10  -3   1   57.59    6.80
  10   3   1   81.71    8.30
 -10   3  -1   58.25    6.77
 -11  -3   1   25.59    4.08
 -11  -3  -1   25.82    3.82
 -11   3  -1   31.94    4.31
 -11   3   1   23.02    3.95
 -11   3  -1   36.34    4.58
 -11  -3   1   25.55    3.89
 -11   3   1   30.38    4.38
 -11  -3  -1   26.52    3.86
  11  -3  -1   25.06    4.76
  11  -3   1   27.56    4.66
 -12   3  -1   83.43    8.46
 -12   3   1   76.81    8.39
 -12   3  -1   85.72    8.75
 -12   3   1   84.53    8.84
 -12  -3   1   71.18    8.36
 -12  -3  -1   65.69    8.14
 -13   3  -1   52.80    6.26
 -13   3   1   45.81    5.99
 -13   3  -1   52.79    6.28
 -13   3   1   57.62    6.50
 -13  -3   1   46.86    5.99
 -13  -3  -1   49.76    5.90
 -14   3  -1   10.04    2.91
 -14   3   1    6.66    2.62
 -14   3  -1    8.51    2.43
 -14   3   1   13.05    2.80
 -14  -3   1   12.53    2.55
 -14  -3  -1   10.00    2.34
 -15   3  -1    3.49    2.15
 -15   3   1    4.75    2.25
 -15   3   1    5.07    2.06
 -15   3  -1    3.80    1.89
 -16   3  -1   -0.26    1.21
 -16   3   1    0.80    1.66
 -16   3  -1    1.50    1.55
 -16   3   1   -0.89    1.59
 -17   3   1    0.33    1.39
 -17   3  -1    2.12    1.31
 -17   3   1    3.08    1.28
   0  -3   2  588.71   46.70
   0  -3  -2  497.17   47.06
   0   3   2  507.31   47.30
   0   3  -2  421.38   46.97
   1  -3   2  291.61   25.07
  -1  -3   2  288.23   25.05
  -1  -3   2  273.70   26.24
  -1  -3  -2  250.46   25.37
   1  -3  -2  243.22   25.49
  -1   3   2  289.67   25.78
   1   3   2  282.90   25.73
  -1   3  -2  251.55   25.61
  -2   3   2   86.23    8.44
  -2  -3   2   82.89    8.94
   2  -3   2  100.29    9.66
  -2  -3  -2   62.19    8.00
   2  -3  -2   85.52    8.37
   2  -3   2   86.21    7.80
   2   3   2   85.71    8.59
  -2   3  -2   85.31    8.62
  -2   3  -2   78.95    7.81
  -2  -3  -2   77.83    8.02
  -3  -3  -2   11.29    1.78
  -3  -3   2   11.10    1.88
  -3  -3  -2    8.83    1.72
  -3  -3   2   11.16    1.75
   3  -3   2   11.08    1.66
   3  -3  -2    9.49    2.20
  -3   3  -2    7.23    2.32
   3  -3   2   10.11    3.90
  -3   3   2   10.32    2.19
   3   3   2   13.02    2.43
  -3   3  -2    9.18    1.46
  -4  -3  -2    4.20    1.33
  -4  -3  -2    4.98    1.40
  -4  -3   2    6.89    1.57
   4  -3   2    6.48    1.40
   4  -3   2    2.90    3.72
   4  -3  -2    8.05    2.11
  -4   3  -2    7.42    2.04
   4   3   2   10.18    2.29
  -4   3  -2    5.21    1.06
  -4  -3   2    5.49    1.52
  -5  -3  -2   68.61    6.88
  -5  -3   2   60.63    6.92
  -5   3   2   84.55    7.50
   5  -3   2   74.40    6.53
  -5  -3   2   66.12    6.84
  -5  -3  -2   55.41    6.65
   5  -3   2   73.57    8.11
   5  -3  -2   75.61    7.53
   5   3   2   54.37    7.07
  -5   3  -2   61.49    6.94
  -5   3  -2   62.87    6.24
  -5   3  -2   91.75    7.92
  -6   3  -2   40.43    5.18
  -6  -3  -2   35.95    4.05
  -6  -3  -2   39.18    4.32
  -6  -3   2   30.35    4.35
  -6   3   2   43.58    4.65
  -6  -3  -2   30.93    4.03
  -6  -3   2   33.92    4.15
   6  -3   2   36.16    5.20
   6  -3  -2   32.72    4.66
   6   3   2   31.69    4.72
  -6  -3   2   29.91    4.41
   6  -3  -2   45.17    4.05
  -7  -3  -2   13.87    2.28
  -7   3  -2   16.84    3.23
   7  -3   2   10.74    2.86
  -7  -3  -2   11.22    2.13
  -7  -3  -2   10.97    2.13
  -7   3  -2   19.04    2.47
  -7   3   2   12.12    2.46
   7  -3  -2   14.26    3.02
   7   3  -2   15.25    2.85
   7   3   2   13.44    3.00
  -7  -3   2    9.44    2.18
  -7  -3   2    8.31    2.22
  -7  -3   2   16.10    2.71
  -8  -3  -2   19.87    2.90
  -8   3  -2   21.24    3.71
  -8   3  -2   27.35    3.28
  -8  -3  -2   16.08    2.79
  -8  -3   2   21.67    3.38
  -8  -3   2   19.79    3.10
  -8  -3  -2   16.58    2.86
  -8   3   2   19.05    3.15
   8  -3   2   18.91    3.46
   8   3  -2   21.86    3.42
   8   3   2   21.38    3.76
  -9  -3   2   17.50    2.92
  -9   3   2   19.48    3.28
  -9   3  -2   22.92    3.57
  -9  -3   2   19.20    3.16
  -9  -3  -2   19.35    3.02
  -9  -3  -2   15.13    2.82
  -9   3  -2   23.97    3.22
  -9   3   2   14.99    3.13
   9  -3   2   20.47    3.68
   9  -3  -2   15.61    3.45
   9   3  -2   15.20    3.25
   9   3   2   20.46    4.08
 -10  -3  -2   76.96    9.27
 -10   3   2  101.22    9.81
 -10  -3   2   88.84    9.59
 -10   3  -2   90.99    9.84
 -10   3  -2  108.10    9.81
 -10   3   2  110.68   10.16
  10  -3   2   81.06   10.05
  10  -3  -2  103.27   10.52
 -10  -3   2   98.20    9.66
 -10  -3  -2   74.68    9.25
  10   3   2  114.08   11.57
 -11   3   2   49.56    6.05
 -11   3  -2   46.89    5.91
 -11  -3  -2   43.14    5.64
 -11   3  -2   61.25    6.22
 -11   3   2   49.32    6.20
  11  -3  -2   58.45    6.88
 -11  -3   2   48.06    5.84
 -11  -3  -2   46.42    5.67
  11   3   2   61.60    8.12
 -12   3   2   55.73    6.01
 -12   3   2   51.17    6.27
 -12  -3   2   44.15    5.63
 -12  -3  -2   43.86    5.59
 -12   3  -2   49.16    5.97
 -13   3   2   64.78    6.76
 -13   3  -2   64.72    6.78
 -13   3   2   60.10    6.82
 -13  -3   2   46.26    6.20
 -13  -3  -2   51.55    6.16
 -14   3   2   10.85    3.10
 -14   3   2   21.49    3.35
 -14   3  -2   16.11    3.05
 -15   3   2    5.39    2.12
 -15   3  -2    7.64    1.98
 -15   3   2    3.69    2.11
 -16   3   2    0.61    1.80
 -16   3  -2    2.29    1.50
 -16   3   2    2.63    1.53
 -17   3   2    9.83    1.84
   0  -3   3    1.07    1.32
   0  -3   3    0.40    2.29
   0  -3  -3   -0.19    1.07
   0   3  -3    0.53    1.69
   0   3   3   -0.26    2.13
   0  -3   3   -0.17    0.96
   1  -3  -3    7.72    1.59
  -1  -3  -3   15.11    1.58
   1  -3   3    5.32    2.98
   1  -3  -3   12.07    1.49
   1  -3   3    9.52    1.80
   1  -3  -3    7.48    1.92
   1  -3   3    7.15    1.71
  -1   3  -3    8.99    2.65
  -1   3   3    5.51    2.66
   1   3   3    7.94    2.68
  -1  -3   3    4.69    1.64
  -1  -3   3    7.00    2.00
  -1  -3   3   10.66    1.78
  -2  -3   3   15.61    2.59
   2  -3  -3   38.94    2.66
  -2  -3  -3   34.49    2.60
  -2   3  -3   15.29    2.87
  -2  -3   3   21.75    2.67
  -2  -3   3   10.62    2.60
   2  -3   3   18.95    2.71
   2  -3   3   21.66    4.16
   2  -3  -3   21.37    3.14
  -2   3  -3   18.90    3.64
   2   3  -3   11.07    2.67
   2   3   3   18.64    3.46
   2  -3  -3   22.18    2.66
  -3   3  -3   36.20    5.07
   3  -3   3   44.25    4.59
   3  -3  -3   72.51    4.54
  -3  -3  -3   79.66    4.57
  -3  -3  -3   38.94    4.50
  -3  -3   3   36.87    4.59
  -3  -3   3   46.98    4.49
   3   3  -3   16.87    4.35
   3  -3   3   45.88    5.84
   3  -3  -3   45.57    5.22
   3   3   3   37.26    5.18
  -3   3  -3   36.20    5.54
  -3   3  -3   32.43    4.52
  -3  -3   3   26.55    4.68
  -3  -3  -3   42.83    4.44
   3  -3  -3   42.71    4.57
  -3  -3   3   38.13    5.08
  -4   3  -3   43.78    5.76
  -4  -3  -3   56.35    4.98
  -4   3   3   56.39    5.32
   4  -3  -3   96.51    5.14
  -4  -3  -3   88.65    5.04
  -4  -3   3   29.75    5.03
   4  -3   3   47.08    5.02
  -4  -3  -3   38.15    4.95
  -4   3   3   48.21    5.91
  -4  -3   3   43.35    4.91
  -4  -3   3   41.09    5.02
   4  -3   3   43.33    6.06
   4  -3  -3   42.71    5.80
   4   3   3   40.53    5.67
  -4   3  -3   53.50    6.24
   4   3  -3   21.87    4.85
  -4   3  -3   40.07    4.96
  -4  -3   3   33.59    5.34
  -4  -3  -3   48.99    4.95
   4  -3  -3   50.32    5.11
  -4  -3   3   49.96    5.69
  -5  -3  -3    8.32    1.38
  -5   3   3    6.01    2.15
   5  -3  -3    9.21    1.59
  -5  -3   3    5.29    1.87
  -5  -3  -3    6.17    1.49
   5  -3  -3    9.18    2.33
  -5  -3   3    5.22    1.47
  -5  -3  -3   10.91    1.37
  -5  -3  -3    7.79    1.59
  -5  -3   3    3.30    1.59
   5  -3  -3   12.48    1.47
   5  -3   3    7.63    1.68
  -5  -3   3    6.17    1.63
   5  -3   3    3.35    2.23
  -5   3  -3    3.53    2.07
   5   3  -3    4.17    1.63
   5   3   3    7.79    2.38
  -5   3  -3    4.65    1.38
  -5  -3   3    9.68    2.36
  -5   3   3    7.17    1.60
   6  -3  -3    8.61    1.60
  -6  -3   3    7.54    2.18
  -6  -3  -3    3.45    1.52
  -6  -3   3    8.31    1.74
  -6  -3   3    7.73    2.06
   6  -3  -3    9.90    1.32
  -6  -3  -3    7.64    1.21
   6  -3   3    8.69    1.63
  -6   3   3    7.09    2.20
  -6   3  -3   10.57    3.04
   6  -3   3    3.19    2.25
   6  -3  -3    7.48    2.28
  -6   3  -3    4.06    1.46
   6   3  -3    3.95    1.74
  -6   3  -3    5.69    1.27
   6   3   3    8.93    2.48
  -6  -3  -3    9.03    1.79
   7  -3  -3    2.61    1.19
  -7  -3   3    1.21    1.68
  -7  -3  -3    3.54    1.42
   7  -3  -3    0.73    1.84
  -7  -3   3    0.27    1.74
  -7  -3   3    0.82    1.51
  -7  -3  -3    0.72    1.45
   7  -3   3    1.55    1.98
  -7   3   3    1.17    1.58
   7   3  -3    2.28    1.65
  -7   3  -3    3.27    2.82
   7   3   3    1.83    2.11
  -8  -3   3   24.52    3.71
  -8   3  -3   27.15    4.61
  -8  -3   3   22.56    3.55
  -8  -3  -3   24.45    3.26
  -8  -3  -3   22.23    3.16
  -8   3   3   25.52    3.72
  -8  -3   3   25.91    3.35
   8  -3   3   11.08    3.42
   8  -3  -3   25.53    3.98
   8   3  -3   28.50    4.03
   8   3   3   24.80    4.34
  -9  -3   3   26.60    3.97
  -9   3  -3   41.31    4.93
  -9  -3   3   25.09    3.82
  -9   3  -3   37.87    4.04
  -9  -3  -3   29.28    3.61
  -9   3   3   18.31    3.59
   9  -3   3   13.09    3.43
  -9  -3   3   29.46    3.74
  -9  -3  -3   25.71    3.56
   9  -3  -3   28.26    4.36
   9   3   3   20.74    4.50
 -10  -3   3   37.14    5.03
 -10   3   3   40.24    5.14
 -10   3  -3   37.45    5.22
 -10  -3   3   35.63    4.78
 -10   3   3   30.27    4.86
 -10   3  -3   52.58    5.06
 -10  -3  -3   37.46    4.63
 -10  -3   3   33.37    4.50
 -10  -3  -3   37.53    4.58
  10   3   3   34.23    5.96
 -11   3   3    0.27    2.25
 -11  -3  -3   -0.83    1.94
 -11   3  -3    2.52    2.16
 -11   3   3    0.65    1.66
 -11  -3   3   -0.24    1.82
 -11  -3  -3   -0.23    1.47
 -12   3   3   23.37    3.53
 -12  -3  -3   15.01    2.96
 -12   3  -3   23.30    3.33
 -12   3   3   16.82    3.28
 -12  -3   3   14.46    2.73
 -12  -3  -3   16.27    2.76
 -13   3  -3    3.62    2.07
 -13   3   3    2.48    2.00
 -14   3   3   26.10    4.03
 -14   3  -3   32.88    4.04
 -14   3   3   27.57    4.07
 -15   3   3    4.87    2.08
 -15   3  -3    4.31    1.66
 -15   3   3    6.87    1.95
 -16   3   3    2.43    1.60
 -16   3  -3    3.70    1.25
 -16   3   3    4.58    1.43
   0   3  -4   36.50    5.36
   0  -3   4   41.91    6.01
   0   3  -4   39.56    6.01
   0  -3  -4   56.15    5.52
   1  -3  -4   48.66    3.65
   1   3  -4   20.36    3.66
   1  -3   4   31.22    4.74
   1  -3   4   36.07    3.97
   1  -3   4   36.01    5.22
  -1   3  -4   31.41    5.08
  -1   3   4   28.43    4.61
  -1  -3   4   35.22    4.46
  -1  -3  -4   38.19    3.90
  -1   3  -4   22.96    3.84
  -1  -3   4   27.89    4.18
   2  -3   4   80.18    8.96
  -2  -3   4   43.67    7.65
   2  -3  -4  108.89    7.48
  -2  -3  -4  110.29    7.49
  -2   3  -4   50.13    7.71
   2  -3   4   73.76    7.72
  -2  -3   4   82.19    7.63
   2  -3   4   64.90    8.62
   2  -3  -4   67.77    7.94
  -2   3   4   66.91    8.27
  -2   3  -4   75.80    9.34
   2   3  -4   53.57    7.77
  -2  -3  -4   81.77    7.70
  -2  -3   4   66.69    8.12
  -3  -3  -4   87.01    7.20
   3  -3   4   83.43    9.05
   3  -3  -4  103.26    7.23
  -3  -3  -4   96.32    7.21
  -3   3  -4   46.09    7.58
  -3   3   4   86.37    8.60
   3  -3   4   73.21    7.49
  -3  -3   4   76.12    7.34
   3  -3   4   47.46    8.05
   3  -3  -4   64.22    7.85
  -3   3   4   70.37    7.97
  -3   3  -4   78.98    9.17
   3   3  -4   41.62    7.32
  -3   3  -4   57.36    7.47
  -3  -3  -4   74.49    7.32
  -3  -3   4   56.37    7.67
   4  -3   4   76.79    8.19
  -4  -3   4   37.14    6.50
   4  -3  -4   99.31    6.41
  -4  -3  -4   99.92    6.38
  -4   3  -4   51.21    7.12
  -4   3   4   70.72    6.72
  -4  -3  -4   72.40    6.37
  -4   3  -4   45.18    6.39
  -4   3   4   71.44    7.73
   4  -3   4   53.29    6.55
  -4  -3   4   70.45    6.47
   4  -3   4   50.52    7.14
   4  -3  -4   53.72    6.99
   4   3   4   56.42    7.24
  -4   3  -4   68.97    8.17
   4   3  -4   31.83    6.37
  -4   3  -4   51.68    6.52
  -4  -3  -4   66.74    6.39
  -4  -3   4   61.37    7.01
  -5  -3  -4    8.13    1.42
   5  -3  -4    6.35    1.56
  -5  -3   4    3.46    1.79
  -5  -3   4    6.54    1.94
  -5  -3  -4    6.14    1.61
  -5   3  -4    3.74    2.63
   5  -3  -4   10.34    1.58
  -5  -3  -4   12.20    1.62
   5  -3   4    5.73    1.77
  -5  -3   4    9.33    1.94
  -5   3   4    5.41    2.34
   5  -3   4    3.20    2.03
   5  -3  -4    7.65    2.39
  -5   3  -4    5.02    2.25
   5   3  -4    3.68    1.69
   5   3   4    8.69    2.65
  -5   3  -4    8.02    1.87
   6  -3  -4   14.87    2.16
  -6  -3   4   11.24    2.59
   6  -3  -4   22.14    2.04
  -6  -3  -4   19.18    1.95
   6  -3   4   13.89    2.29
  -6  -3   4   11.92    2.19
  -6   3   4    9.98    2.78
   6  -3   4    5.36    2.15
   6  -3  -4   11.79    2.82
  -6   3  -4   10.02    2.37
   6   3  -4   12.25    2.43
  -6  -3  -4   13.61    2.26
   6   3   4    9.03    2.80
  -6   3  -4    9.24    1.91
  -6  -3   4    8.73    2.51
  -7  -3   4   27.88    3.91
  -7  -3   4   25.09    4.04
  -7  -3  -4   32.11    2.97
  -7  -3  -4   32.57    3.49
  -7   3  -4   33.63    5.19
   7  -3   4   28.34    3.40
  -7   3   4   27.74    4.12
   7  -3   4   13.50    3.30
   7  -3  -4   23.20    4.09
   7   3  -4   27.86    3.98
  -7   3  -4   21.53    2.96
   7   3   4   26.02    4.20
   7  -3  -4   38.35    3.58
  -8  -3   4   19.50    3.59
  -8  -3   4   24.93    3.98
  -8  -3  -4   25.13    3.34
   8  -3   4   25.76    3.13
  -8   3   4   24.29    3.88
   8  -3  -4   21.21    4.03
   8   3  -4   20.79    3.88
   8   3   4   26.00    4.24
  -8   3  -4   35.05    5.04
   8  -3  -4   31.53    3.32
  -9   3  -4   17.16    3.76
  -9  -3  -4   17.10    2.86
  -9  -3   4   13.75    3.12
  -9   3   4   12.21    2.96
   9  -3  -4   15.66    3.15
   9   3   4   15.60    3.38
 -10  -3   4   10.57    2.67
 -10  -3  -4   13.31    2.60
 -10   3   4   13.26    2.84
 -10   3  -4   19.67    2.90
 -11   3  -4   30.32    3.92
 -11  -3  -4   27.56    3.75
 -11   3   4   23.55    3.89
 -12  -3  -4    6.03    2.27
 -12   3  -4   10.27    2.31
 -12   3   4    7.78    2.32
 -13   3  -4    4.78    1.72
 -13   3   4    4.51    1.87
 -14   3   4    7.65    2.29
 -14   3  -4    8.81    1.91
 -14   3   4    7.49    2.16
 -15   3   4    7.69    1.78
 -15   3  -4   12.20    1.87
 -15   3   4    7.56    1.72
   0  -3   5   -0.86    1.58
   0   3  -5   -0.68    1.50
   0  -3  -5    1.14    1.25
   0   3  -5    0.41    2.24
   0   3   5   -0.34    2.59
   0  -3   5   -2.83    2.46
   1  -3   5   87.30   10.31
  -1  -3   5   71.86    9.73
   1  -3  -5  125.52    9.12
   1   3  -5   70.83    9.29
  -1   3  -5   70.07    9.30
   1  -3   5  103.97    9.56
  -1  -3   5  116.72    9.55
  -1   3   5   91.94   10.20
   1   3   5   88.99   10.18
  -1   3  -5   79.42   10.78
  -1  -3  -5  106.09    9.51
  -1  -3   5   86.89    9.70
   2  -3   5  260.45   23.01
  -2  -3   5  145.21   21.60
   2  -3  -5  308.49   21.25
  -2  -3  -5  306.56   21.29
  -2   3  -5  168.74   21.51
  -2   3   5  299.20   23.08
   2  -3   5  230.07   21.60
  -2  -3   5  234.38   21.39
  -2   3   5  221.71   22.11
   2   3   5  200.64   22.14
  -2   3  -5  228.00   23.22
   2   3  -5  130.06   21.46
  -2   3  -5  216.82   21.93
  -2  -3  -5  261.22   21.60
  -2  -3   5  216.08   21.82
   3  -3   5  111.78   11.62
   3  -3  -5  149.58    9.87
  -3  -3  -5  140.38    9.87
  -3   3  -5   74.74   10.30
  -3  -3  -5  118.50    9.81
  -3   3  -5   79.02   10.16
   3  -3   5   89.05   10.08
  -3  -3   5  102.55    9.92
  -3   3   5  114.23   11.34
  -3   3   5   87.69   10.42
   3   3   5   87.26   10.85
  -3   3  -5   99.04   11.73
   3   3  -5   55.33    9.93
  -3   3  -5   82.70   10.18
  -3  -3  -5  115.75   10.11
  -3  -3   5   85.13   10.26
  -4  -3   5   20.10    3.16
  -4  -3  -5   22.69    2.73
   4  -3  -5   26.50    2.66
  -4  -3  -5   30.70    2.74
   4  -3   5   22.81    4.25
  -4   3  -5   17.46    3.55
  -4  -3   5   11.05    3.05
  -4   3  -5   11.95    2.79
  -4  -3   5   24.13    3.04
   4  -3   5   18.57    3.01
  -4   3   5   21.61    2.88
  -4   3   5   25.32    4.08
   4  -3  -5   20.40    3.24
  -4   3  -5   19.45    4.11
   4   3  -5    8.96    2.77
   4   3   5   16.48    3.75
  -4   3  -5   19.01    3.14
  -4  -3  -5   22.15    2.72
  -5   3  -5   31.80    4.96
  -5  -3   5   50.85    5.68
  -5  -3   5   34.04    5.42
  -5   3  -5   35.58    5.80
   5  -3  -5   76.26    5.15
  -5  -3  -5   71.56    5.13
  -5  -3  -5   64.13    5.26
  -5   3   5   44.21    6.32
   5  -3   5   40.03    5.37
  -5  -3   5   48.21    5.07
   5  -3  -5   44.81    5.75
  -5   3  -5   33.53    5.75
   5   3  -5   28.44    5.19
  -5   3  -5   39.06    5.20
   5   3   5   41.34    6.10
  -5  -3  -5   53.01    5.06
   5  -3   5   44.69    6.28
  -6   3  -5   21.89    4.18
   6  -3  -5   36.16    2.92
  -6  -3  -5   30.68    2.78
  -6  -3   5   13.66    3.33
  -6  -3  -5   30.48    3.22
  -6   3  -5   16.56    2.65
  -6  -3   5   26.89    2.96
   6  -3   5   23.08    3.16
  -6   3   5   18.63    3.81
   6  -3  -5   12.87    3.25
   6   3  -5   11.30    3.04
  -6   3  -5   14.24    2.74
   6  -3  -5   23.20    3.04
   7  -3  -5   16.36    2.20
   7  -3  -5   17.25    1.90
  -7  -3  -5   11.02    2.33
  -7  -3  -5   12.40    1.74
   7  -3   5    9.68    2.25
  -7   3   5    8.12    2.80
   7  -3  -5   10.78    2.68
   7   3  -5    6.54    2.48
  -7  -3   5   12.60    2.91
   8  -3  -5   16.57    2.33
  -8  -3   5   12.17    2.99
  -8  -3  -5   14.96    2.62
   8  -3   5   14.62    2.37
  -8   3   5   16.34    3.18
   9  -3  -5   17.51    2.29
  -9   3   5   14.56    3.05
  -9  -3   5   11.26    2.88
  -9  -3  -5   16.36    2.62
  -9   3   5   13.81    2.88
 -10  -3   5   -0.21    0.88
 -10   3   5    4.34    2.28
 -10  -3  -5    4.43    1.76
 -10   3  -5    3.06    1.82
 -10   3   5    1.38    1.78
 -11   3   5    3.44    2.19
 -11  -3  -5    2.69    1.64
 -11   3  -5    3.19    1.60
 -11   3   5    0.51    1.85
 -12   3   5    6.62    2.15
 -12  -3  -5    5.48    1.82
 -12   3  -5    7.87    1.92
 -12   3   5    7.20    2.03
 -13   3   5    2.25    1.64
 -13  -3  -5    1.06    1.41
 -13   3  -5    0.98    1.33
 -13   3   5    2.98    1.55
 -14   3   5    5.13    1.48
 -14   3  -5    4.81    1.25
 -14   3   5    3.20    1.27
   0  -3   6  280.04   34.65
   0  -3   6  373.50   34.12
   0   3   6  331.73   34.83
   0  -3  -6  349.39   34.19
   1  -3   6  129.49   15.35
  -1  -3   6  131.95   15.10
   1  -3  -6  221.21   14.45
  -1   3  -6  179.77   15.80
  -1  -3   6  152.70   14.50
  -1   3   6  144.44   15.22
   1   3   6  163.30   15.64
  -1   3  -6  103.20   15.26
   1   3  -6   97.79   14.86
  -1   3  -6  113.91   15.07
  -1  -3  -6  187.88   14.82
  -2  -3  -6    2.16    1.41
  -2   3  -6    0.62    2.29
   2  -3   6   -0.41    2.70
   2  -3  -6    2.00    1.22
  -2  -3  -6    2.36    1.42
   2  -3   6    2.26    1.95
  -2  -3   6    1.21    1.71
  -2   3  -6    1.94    2.32
   2   3  -6   -0.96    1.54
  -2   3   6    0.89    1.78
   2   3   6    4.39    2.55
  -2   3  -6    0.60    1.95
  -3  -3  -6   90.91    7.40
   3  -3   6   62.85    8.63
   3  -3  -6  102.11    7.45
  -3  -3  -6   89.01    7.41
  -3   3  -6   55.08    7.78
   3  -3   6   62.72    7.59
  -3  -3   6   80.23    7.53
   3   3   6   65.47    8.36
  -3   3  -6   73.26    9.12
   3   3  -6   33.49    7.43
  -3  -3  -6   81.72    7.58
   4  -3   6   43.84    6.10
   4  -3  -6   65.79    4.73
  -4  -3  -6   58.74    4.69
  -4  -3  -6   51.02    4.68
  -4  -3   6   21.49    4.77
  -4   3  -6   28.67    4.78
   4  -3   6   28.56    4.76
  -4  -3   6   41.16    4.67
  -4  -3  -6   41.57    4.58
  -5  -3   6   36.97    5.76
   5  -3  -6   84.76    5.56
  -5  -3  -6   65.48    5.36
   5  -3   6   32.99    6.45
  -5   3  -6   35.60    5.34
  -5  -3  -6   63.49    5.47
  -5   3   6   43.92    6.39
   5  -3   6   36.54    5.51
  -5  -3   6   48.97    5.27
  -5  -3  -6   47.99    5.25
   5  -3  -6   55.75    5.71
   6  -3  -6    8.57    1.79
  -6  -3   6    3.88    1.93
  -6  -3  -6    8.79    1.90
  -6   3  -6    3.02    1.34
   6  -3  -6    9.77    1.47
  -6  -3  -6    6.22    1.35
   6  -3   6    4.89    1.81
  -6  -3   6    5.42    1.46
  -6   3   6    3.62    2.17
   7  -3  -6    4.95    1.59
  -7  -3   6    3.83    2.11
  -7  -3  -6    4.92    1.74
   7  -3  -6    8.94    1.26
  -7  -3  -6    7.20    1.15
   7  -3   6    6.49    1.78
  -7   3   6    4.44    2.09
   8  -3   6   18.82    2.56
  -8   3   6   13.26    3.07
  -8  -3   6   16.86    3.06
  -8  -3  -6   19.93    2.71
  -8   3   6   15.68    3.02
   8  -3  -6   24.91    2.68
   9  -3  -6    9.67    1.41
  -9   3   6    7.28    2.11
  -9  -3  -6    5.63    1.72
   9  -3   6    8.68    1.53
  -9   3   6    5.24    1.79
 -10   3   6    1.40    1.75
 -10  -3  -6    2.20    1.51
 -10   3  -6    1.82    1.51
 -10   3   6    1.06    1.50
 -11   3   6    1.88    1.53
 -11  -3  -6    0.72    1.25
 -11   3  -6    0.99    1.14
 -11   3   6   -0.19    1.21
 -12   3   6    3.97    1.47
 -12  -3  -6    2.33    1.20
 -12   3  -6    4.66    1.28
  12   3   6    1.50    2.27
 -12   3   6    1.70    1.34
   0  -3  -7   -0.17    1.12
   0  -3   7   -0.56    2.09
   0   3  -7    1.18    2.18
   0  -3  -7   -0.48    1.28
   0  -3   7    0.14    1.62
  -1   3  -7   31.63    4.67
   1  -3   7   30.35    4.70
  -1  -3   7   26.55    4.37
   1   3  -7   21.47    4.35
  -1  -3   7   33.25    3.94
  -1  -3  -7   35.31    4.00
   1  -3  -7   37.80    4.18
   2  -3   7   75.47   12.20
   2  -3  -7  177.02   11.63
  -2  -3  -7  157.89   11.54
  -2   3  -7   94.17   11.99
   2   3  -7   90.66   12.11
  -2  -3   7  104.04   11.47
  -2  -3  -7  110.23   11.59
   3  -3  -7   65.21    4.38
  -3  -3  -7   58.74    4.24
   3  -3   7   28.34    5.16
  -3  -3   7   19.85    4.38
  -3   3  -7   24.81    4.49
   3  -3   7   32.92    4.36
  -3  -3   7   33.69    4.15
  -3  -3  -7   40.02    4.19
   3  -3  -7   36.15    4.40
  -4  -3  -7   15.94    2.00
  -4  -3  -7   10.96    1.79
   4  -3  -7   13.68    2.19
   4  -3  -7   21.90    2.18
  -4  -3  -7   20.80    2.11
  -4  -3   7    9.20    2.39
   4  -3   7   10.65    2.31
  -4  -3   7   12.31    2.00
  -4   3  -7    9.85    2.26
   5  -3  -7    3.59    1.43
  -5  -3   7    1.32    1.70
  -5  -3  -7    2.92    1.29
  -5   3  -7    5.59    1.51
   5  -3  -7    6.93    1.31
  -5  -3  -7    8.23    1.36
   5  -3   7    2.33    1.71
  -5  -3   7    4.78    1.19
   6  -3  -7   18.97    1.51
  -6  -3  -7   13.53    1.35
  -6  -3   7   10.47    2.15
  -6  -3  -7   14.77    1.74
   6  -3   7   13.42    1.96
   6  -3  -7   17.85    1.97
   7  -3  -7    7.08    1.36
  -7   3   7    7.17    1.87
  -7  -3   7    4.58    1.62
  -7  -3  -7    5.25    1.30
   7  -3   7    5.65    1.46
   8  -3  -7    1.05    0.83
  -8   3   7    2.01    1.49
  -8  -3   7   -0.66    1.07
  -8  -3  -7    2.20    1.09
   8  -3   7    1.19    1.19
   9  -3  -7    1.38    0.70
  -9   3   7   -1.02    1.08
  -9  -3  -7    1.81    1.06
  -9   3  -7    0.67    1.15
 -10  -3  -7    0.57    0.98
  10   3  -7    0.61    1.05
 -10   3  -7    1.50    0.97
  10   3   7    0.74    2.18
 -11  -3  -7    2.02    0.77
   0  -3  -8   32.71    2.04
   0   3  -8   12.59    2.07
   0  -3   8   18.87    1.93
   0  -3  -8   22.98    1.86
  -1  -3  -8    8.69    1.40
   1  -3  -8    9.76    1.50
  -1   3  -8    4.37    1.76
   1   3  -8    4.69    1.64
   1  -3   8    6.20    1.71
  -1  -3   8    7.21    1.59
  -2  -3  -8   10.69    1.58
   2  -3  -8   11.50    1.83
   2  -3  -8   18.99    1.82
  -2  -3  -8   20.31    1.83
  -2   3  -8   10.22    2.00
   2   3   8    2.32    1.61
  -2  -3   8   10.28    1.72
   3  -3  -8   41.90    1.92
  -3  -3  -8   37.24    1.85
  -3  -3   8   12.28    1.98
  -3   3  -8   22.36    2.09
  -3  -3   8   18.29    1.50
   3   3   8    5.70    1.45
   4  -3  -8   31.71    1.59
  -4  -3  -8   23.48    1.44
  -4   3  -8   15.01    1.72
   4   3  -8   11.47    1.53
   4  -3   8   24.23    1.94
   4   3   8    3.21    1.35
   4  -3  -8   27.26    1.95
   5  -3  -8   -0.40    0.86
  -5   3  -8    0.07    0.48
   5  -3  -8    0.49    0.57
  -5  -3  -8    0.86    0.55
   5   3  -8    0.93    0.97
   5   3   8   -1.73    1.27
   5  -3   8    0.50    1.07
   6  -3  -8    0.69    0.78
   6   3  -8    0.09    0.82
   6   3   8    1.21    1.15
   6  -3   8    1.77    1.09
   7   3  -8    2.52    0.89
   7   3   8   -0.50    1.15
   0   3  -9   -0.24    0.53
   0  -3  -9   -0.46    0.44
   1   3  -9   -0.10    0.45
   1  -3  -9    0.26    0.36
   0  -4   0    8.75    2.12
   0   4   0    9.10    2.00
   0  -4   0    7.69    1.86
   0  -4   0   10.39    2.97
   0  -4   0    8.05    2.26
   1  -4   0    1.64    1.42
  -1   4   0    0.22    1.40
   1   4   0    0.20    1.33
   1  -4   0   -0.37    1.26
  -1  -4   0   -0.58    1.41
   1  -4   0    0.29    1.88
  -1  -4   0    0.33    2.08
   1  -4   0    0.67    2.87
   1   4   0    0.39    1.30
  -1  -4   0   -0.26    1.68
  -2  -4   0    1.08    1.64
   2  -4   0    0.23    1.47
   2   4   0    4.54    1.57
   2  -4   0    0.57    1.36
  -2  -4   0    0.20    1.49
   2  -4   0    2.30    2.03
  -2  -4   0    1.63    2.13
   2  -4   0    0.70    2.43
   2   4   0    1.60    1.47
  -2  -4   0    3.00    1.79
  -3  -4   0    4.43    2.09
   3  -4   0    5.93    1.79
  -3  -4   0    2.20    1.67
  -3  -4   0    7.24    2.00
  -3   4   0    8.48    2.31
   3   4   0    4.96    1.54
   3  -4   0    3.96    1.72
  -3  -4   0    5.75    1.79
  -3  -4   0    5.50    2.16
   3  -4   0    5.86    2.61
  -4  -4   0    0.85    2.03
   4  -4   0    0.23    1.48
  -4  -4   0   -0.98    1.62
  -4  -4   0    0.88    1.58
   4   4   0    0.40    1.26
  -4  -4   0    1.30    1.71
   4  -4   0    0.43    1.63
  -4   4   0    1.05    2.16
   4  -4   0    3.14    2.34
  -5  -4   0   20.73    3.48
   5  -4   0   18.61    2.97
  -5  -4   0   19.47    3.26
  -5  -4   0   20.76    3.03
   5  -4   0   16.23    3.16
   5   4   0   23.50    2.96
   5  -4   0   13.55    3.50
  -5   4   0   17.54    3.34
  -5  -4   0   16.33    2.84
   6  -4   0    4.31    2.07
  -6  -4   0    3.82    1.93
  -6  -4   0    7.24    2.02
   6  -4   0    6.47    2.54
  -6   4   0    7.65    2.58
  -6  -4   0   11.93    2.98
  -6  -4   0    4.92    2.02
  -6  -4   0    4.66    2.10
  -7  -4   0    1.75    1.55
  -7  -4   0    2.39    1.59
  -7  -4   0    2.80    1.81
  -7   4   0   -0.55    2.38
  -7  -4   0    6.81    2.77
  -7   4   0    1.33    1.66
   7  -4   0    2.83    2.34
  -7  -4   0    3.43    1.70
  -8  -4   0   52.10    6.46
  -8   4   0   76.20    6.59
  -8  -4   0   77.32    7.51
  -8   4   0   54.62    6.47
  -8   4   0   56.41    6.52
  -8  -4   0   54.15    6.40
   8  -4   0   62.16    7.58
  -8  -4   0   40.86    5.98
  -9  -4   0  126.62   13.54
  -9  -4   0  122.62   13.43
  -9   4   0  175.42   13.63
  -9  -4   0  143.42   14.13
  -9   4   0  111.27   13.30
  -9   4   0  138.55   13.64
   9  -4   0  142.18   14.65
 -10   4   0  146.95   13.46
 -10   4   0  130.26   13.40
 -10  -4   0  131.55   13.72
 -10   4   0  147.22   13.87
 -10  -4   0  123.95   13.52
 -11  -4   0    0.49    1.81
 -11   4   0    3.97    2.15
 -11  -4   0    5.11    2.24
 -11   4   0    1.84    1.82
 -12   4   0   21.55    3.13
 -12   4   0   15.50    3.14
 -12  -4   0   16.20    3.11
 -13   4   0   15.62    3.03
 -13   4   0   25.24    3.34
 -13  -4   0   20.47    3.21
 -14   4   0   -1.22    1.50
 -14   4   0    1.33    1.32
 -14  -4   0    0.95    1.57
 -15   4   0    2.17    1.24
   0  -4   1   -0.26    2.09
   0  -4  -1   -0.42    1.24
   0  -4   1   -0.38    1.85
   0   4  -1   -0.19    1.44
   0  -4   1    0.81    1.90
   0  -4  -1    0.16    1.01
   0  -4   1   -1.13    2.17
   0  -4  -1    0.61    2.50
   0  -4  -1    0.50    1.57
   0   4   1   -0.49    1.67
   0  -4   1    0.26    1.43
   0   4   1   -0.87    1.55
  -1  -4   1   25.32    4.13
   1  -4   1   28.82    4.01
  -1   4   1   35.16    4.20
   1  -4  -1   29.97    3.46
   1   4  -1   25.00    3.52
   1   4   1   46.63    4.20
   1  -4   1   30.90    4.16
  -1  -4   1   33.65    4.28
  -1  -4  -1   32.28    3.96
  -1   4  -1   21.00    3.76
  -1  -4  -1   28.76    4.26
  -1  -4   1   29.48    4.53
   1  -4   1   25.28    4.70
   1  -4  -1   28.33    4.33
   1   4   1   31.09    4.17
  -1  -4   1   37.68    4.13
   1  -4   1   18.59    3.45
  -1  -4   1   20.76    3.59
   1  -4  -1   30.59    3.67
   2   4   1   89.62    6.84
   2  -4   1   40.01    6.05
  -2  -4   1   46.39    6.15
   2  -4  -1   55.16    5.99
  -2  -4  -1   50.86    5.92
   2   4  -1   51.86    6.02
   2  -4   1   78.80    7.15
  -2  -4   1   66.12    6.83
  -2   4   1   81.62    6.78
  -2   4  -1   56.96    6.44
  -2  -4  -1   54.14    6.29
  -2  -4   1   64.42    6.54
  -2  -4   1   52.72    6.86
  -2  -4  -1   59.53    6.72
   2  -4   1   48.22    7.53
   2  -4  -1   60.94    6.84
   2   4   1   68.53    6.76
   2  -4   1   45.71    6.25
  -2  -4  -1   67.71    6.39
   2  -4  -1   57.68    6.18
   3  -4   1   -1.65    2.15
   3  -4   1   -1.04    1.91
  -3  -4  -1    0.23    1.24
   3  -4  -1    1.22    1.26
  -3  -4  -1   -0.92    1.55
  -3  -4   1    1.69    1.56
  -3  -4   1    1.03    1.82
  -3  -4  -1   -0.26    1.45
  -3  -4   1    1.35    1.95
  -3   4   1    1.68    1.53
   3   4  -1    1.25    1.26
  -3  -4   1    0.29    2.24
  -3  -4  -1    0.85    1.13
   3  -4  -1    0.71    1.18
  -3  -4   1    1.45    1.86
   3  -4   1   -0.88    3.87
   3  -4  -1    0.35    1.96
  -3   4  -1    1.68    1.84
   3   4   1    1.78    2.15
   3   4   1    0.85    1.56
  -3  -4   1    3.16    2.53
   4  -4   1   81.67   10.15
  -4  -4   1   83.27   10.25
  -4   4   1  119.42   10.53
   4  -4  -1  108.71   10.14
  -4  -4  -1   88.42    9.87
   4   4  -1  101.32   10.02
  -4  -4  -1   94.13   10.17
  -4  -4   1  115.65   10.46
   4  -4  -1  115.93   11.12
   4   4   1  109.12   10.49
  -4   4  -1   98.71   10.35
  -4  -4   1  105.84   10.89
   4  -4   1   92.09   10.30
  -4  -4  -1  104.98   10.29
   4  -4  -1   98.60   10.15
  -4  -4   1  108.64   10.87
  -4  -4  -1   87.80   10.20
   5  -4   1   57.32    7.10
  -5  -4   1   42.45    6.85
   5  -4  -1   65.03    6.91
  -5  -4  -1   50.05    6.60
  -5  -4   1   70.31    7.80
   5   4   1  108.54    7.65
  -5   4  -1   69.62    7.68
  -5   4   1   77.80    7.33
  -5  -4  -1   63.10    7.02
  -5  -4   1   63.07    7.08
   5  -4   1   73.00    8.76
   5  -4  -1   82.32    8.15
   5   4   1   71.31    7.36
  -5  -4   1   57.97    7.41
   5  -4   1   70.39    7.42
  -5  -4  -1   67.77    7.13
   5  -4  -1   76.62    7.11
  -5  -4   1   72.28    7.70
  -5  -4  -1   58.49    7.01
  -6  -4  -1    6.70    2.04
   6  -4  -1    5.56    1.76
  -6  -4   1    8.10    2.33
  -6  -4  -1    5.69    1.71
  -6  -4  -1    5.56    1.84
  -6  -4   1    7.18    1.98
   6  -4  -1    2.88    1.63
  -6   4  -1    8.78    2.90
  -6   4   1    4.27    2.05
  -6  -4  -1    5.40    1.61
  -6  -4   1    5.34    3.00
  -6  -4   1    2.06    1.85
   6  -4   1    4.48    3.07
   6  -4  -1    5.26    2.48
   6   4   1    4.25    2.09
   6  -4   1    4.14    2.04
  -6  -4   1    0.93    1.91
   6   4   1    6.59    2.01
  -7  -4   1   24.42    3.69
  -7  -4  -1   18.99    3.24
  -7   4  -1   25.67    4.11
  -7  -4  -1   22.23    3.36
  -7  -4   1   21.76    3.52
  -7  -4  -1   16.87    2.92
  -7  -4   1   25.22    4.42
  -7   4   1   27.65    3.57
  -7   4  -1   24.78    3.46
   7  -4   1   31.13    4.95
   7  -4  -1   24.22    4.21
  -7   4   1   23.03    3.59
  -7  -4   1   20.99    3.42
  -7  -4  -1   21.55    3.49
  -8  -4   1   32.07    4.96
  -8  -4  -1   32.04    4.52
  -8   4   1   48.44    4.98
  -8   4   1   35.32    4.58
  -8  -4   1   47.91    5.83
  -8   4  -1   37.41    5.04
  -8   4  -1   42.91    4.87
  -8   4   1   39.05    4.93
  -8  -4  -1   35.25    4.58
  -8  -4   1   37.51    4.73
   8  -4   1   36.30    6.09
  -8  -4   1   31.72    4.58
  -9  -4   1   12.88    2.87
  -9  -4  -1   11.89    2.54
  -9   4   1   14.33    2.95
  -9   4  -1   17.63    3.31
  -9   4   1   15.87    2.68
  -9  -4   1   16.13    3.53
  -9  -4  -1   18.81    3.50
  -9  -4  -1   13.63    2.76
  -9   4  -1   18.20    3.04
  -9   4   1   14.20    2.99
   9  -4   1   12.00    3.71
   9  -4  -1   13.16    3.35
 -10   4   1  122.19   11.13
 -10  -4   1  106.86   11.30
 -10  -4  -1  118.54   11.40
 -10   4  -1  101.24   11.09
 -10   4  -1  120.26   11.36
 -10   4   1  109.06   11.32
 -10  -4  -1   95.18   11.00
 -10  -4   1   98.70   11.10
 -11   4  -1   -0.48    1.61
 -11   4   1    0.69    2.22
 -11  -4   1    0.25    1.52
 -11  -4  -1    0.97    1.98
 -11   4  -1    0.87    1.80
 -11  -4   1    2.38    1.97
 -11   4   1    2.44    1.82
 -11  -4  -1    2.71    1.79
 -12   4   1   14.42    2.64
 -12   4  -1   13.33    2.41
 -12   4   1   15.43    2.53
 -12  -4   1   13.88    2.57
 -12  -4  -1   13.82    2.35
 -13   4   1    0.19    1.79
 -13   4  -1    2.25    1.76
 -13   4   1    3.08    1.82
 -13  -4   1    0.22    1.48
 -13  -4  -1    2.66    1.46
 -14   4   1   -0.76    1.69
 -14   4  -1    1.24    1.28
 -14   4   1   -0.21    1.49
 -14  -4   1    0.36    1.31
 -14  -4  -1   -0.17    1.30
 -15   4   1    4.58    1.56
 -15   4  -1    5.23    1.53
 -15   4   1    5.63    1.46
   0  -4  -2   20.86    2.77
   0   4  -2   20.00    3.21
   0  -4   2   25.13    3.70
   0  -4   2   15.25    2.96
   0  -4  -2   28.13    3.49
   0  -4   2   32.33    3.17
   0  -4   2   33.71    5.01
   0  -4  -2   27.81    4.06
   0   4  -2   20.95    3.60
   0   4   2   29.69    4.05
   0  -4   2   24.67    3.45
   0  -4   2   25.26    3.63
  -1  -4  -2    5.76    1.48
   1  -4  -2    7.79    1.61
  -1   4   2   10.74    2.23
   1  -4   2    2.89    1.63
  -1   4  -2    2.72    1.89
   1   4  -2    4.89    1.82
   1  -4   2   10.21    2.37
  -1  -4   2    5.29    2.21
   1  -4  -2    5.74    1.22
  -1  -4   2    2.60    1.67
   1  -4   2    7.05    1.74
  -1  -4   2    7.40    1.75
  -1  -4   2    8.75    2.90
   1  -4   2    6.82    3.31
   1  -4  -2    8.00    2.29
   1  -4  -2    6.70    1.99
   1  -4   2    7.25    1.85
  -1   4  -2    3.73    2.24
   1   4  -2    6.41    2.26
  -1   4   2    8.51    2.31
   1   4   2    7.64    2.65
   1   4   2    6.20    2.11
  -1  -4  -2    4.39    1.60
  -1  -4   2    4.57    1.59
  -1  -4   2    8.27    2.36
   1  -4   2    2.62    1.65
   2  -4   2  118.03   17.00
  -2  -4   2  113.04   17.02
   2  -4  -2  181.06   17.01
  -2  -4  -2  179.89   17.00
   2  -4   2  219.77   18.19
  -2  -4   2  148.70   17.44
  -2   4  -2  162.65   17.47
  -2   4   2  272.02   17.98
   2   4   2  293.97   18.14
   2  -4   2  256.01   17.14
  -2  -4  -2  196.35   17.47
  -2  -4   2  189.44   17.49
  -2  -4   2  202.98   18.64
   2  -4  -2  202.88   18.12
  -2   4   2  222.81   18.04
   2   4   2  204.70   18.03
  -2   4  -2  191.12   18.07
   2  -4   2  136.97   17.22
  -2  -4  -2  204.33   17.36
   2  -4  -2  207.57   17.34
  -2  -4  -2  190.89   17.50
   2   4  -2  140.24   17.03
  -3   4  -2   41.26    5.44
   3  -4   2   27.90    4.76
   3  -4  -2   46.69    4.72
  -3  -4  -2   42.08    4.62
   3  -4   2   63.84    6.10
  -3  -4   2   39.01    5.24
  -3  -4   2   26.46    4.80
   3   4  -2   35.89    4.77
  -3   4   2   63.43    5.56
  -3  -4  -2   46.01    5.04
  -3  -4   2   43.23    5.05
   3  -4   2   59.84    4.83
   3  -4   2   60.47    7.38
   3  -4  -2   52.66    5.96
   3   4   2   46.03    5.80
  -3   4  -2   54.29    6.11
  -3  -4   2   39.93    5.49
   3  -4   2   37.21    5.07
  -3  -4  -2   47.39    5.01
   3  -4  -2   48.56    4.98
   4  -4  -2   70.15    7.53
  -4  -4  -2   66.75    7.36
  -4   4   2   94.04    8.15
  -4  -4  -2   64.67    7.69
  -4  -4   2   79.07    7.95
   4  -4   2   97.09    7.53
   4  -4   2   86.24    9.89
   4  -4  -2   72.99    8.59
   4   4   2   81.25    8.46
  -4   4  -2   74.54    8.36
   4   4  -2   57.53    7.91
  -4  -4   2   80.39    8.64
   4  -4   2   60.42    7.79
  -4  -4  -2   76.01    7.76
   4  -4  -2   84.21    7.80
  -5  -4  -2   13.29    2.27
   5  -4  -2   14.47    2.29
  -5   4   2   13.42    2.59
  -5  -4  -2   13.23    2.28
  -5  -4   2   12.49    2.38
  -5  -4   2   13.43    3.06
   5  -4  -2   16.31    2.24
  -5  -4  -2    8.75    1.89
   5  -4   2   18.42    2.17
   5  -4   2   19.02    4.86
   5  -4  -2   14.38    3.14
   5   4  -2   13.64    3.03
   5   4   2    8.88    2.90
  -5  -4   2   14.30    3.27
   5  -4   2   10.64    2.56
   6  -4  -2   46.82    5.23
  -6  -4  -2   36.15    4.90
  -6  -4   2   47.09    6.05
  -6   4  -2   73.72    7.05
  -6   4   2   57.56    5.65
  -6  -4  -2   44.38    5.36
  -6  -4   2   45.34    5.47
   6  -4  -2   50.76    6.33
   6  -4   2   50.82    7.58
   6   4   2   47.92    6.04
   6   4  -2   42.09    6.00
  -6  -4   2   50.01    6.13
  -6  -4  -2   51.00    5.46
   6  -4  -2   60.06    5.56
  -7  -4  -2   18.92    3.06
  -7  -4   2   17.72    3.16
  -7  -4  -2   15.65    2.89
  -7   4  -2   27.12    4.26
  -7   4   2   20.87    3.28
  -7  -4   2   19.29    3.87
  -7  -4  -2   16.94    2.59
  -7   4  -2   23.04    3.09
  -7   4   2   25.31    3.51
   7  -4   2   20.10    5.10
   7  -4  -2   19.31    3.79
   7   4  -2   18.94    3.76
   7   4   2   21.33    3.68
   7  -4  -2   24.85    3.08
  -7  -4   2   21.79    3.55
  -8  -4   2   63.37    7.78
  -8  -4   2   68.01    8.02
  -8   4  -2   72.90    8.23
  -8   4   2   56.50    7.15
  -8   4  -2   76.57    7.49
  -8   4   2   69.92    7.68
  -8  -4  -2   57.81    7.17
  -8  -4   2   59.64    7.30
   8  -4   2   75.75    9.19
   8  -4  -2   57.22    7.90
   8   4   2   77.42    8.24
   8   4  -2   68.83    8.33
  -9   4   2   18.25    3.09
  -9   4  -2   22.95    3.82
  -9  -4   2   17.73    3.57
  -9  -4  -2   16.85    2.76
  -9  -4   2   14.58    2.94
  -9   4  -2   19.99    3.06
  -9   4   2   17.30    3.15
   9  -4  -2    9.78    3.13
 -10   4   2   38.42    4.98
 -10  -4   2   42.46    5.27
 -10   4  -2   44.07    5.35
 -10   4  -2   42.89    5.00
 -10   4   2   44.73    5.18
 -10  -4  -2   34.22    4.63
 -10  -4   2   31.34    4.74
 -11   4  -2   15.48    2.78
 -11   4   2   14.08    2.98
 -11  -4   2    6.16    2.10
 -11  -4  -2   13.57    2.66
 -11   4  -2   15.03    2.70
 -11   4   2   10.91    2.63
 -11  -4   2   13.97    2.58
 -11  -4  -2   13.68    2.36
 -12   4   2    2.95    2.18
 -12  -4  -2    0.18    0.66
 -12   4  -2    3.05    1.66
 -12   4   2    1.09    1.73
 -12  -4   2    1.94    1.47
 -12  -4  -2    2.37    1.42
 -13   4   2    0.18    1.83
 -13   4  -2    1.13    1.50
 -13   4   2   -0.24    1.71
 -13  -4   2    1.10    1.29
 -13  -4  -2    1.69    1.24
 -14   4   2    0.15    1.57
 -14   4  -2    0.37    1.28
 -14   4   2    1.16    1.31
 -15   4   2    0.95    1.28
 -15   4  -2    2.11    1.07
   0   4  -3    0.21    1.30
   0  -4   3   -0.91    2.00
   0   4   3    1.61    1.86
   0  -4  -3    0.36    0.91
   0  -4   3    1.82    1.64
   0   4  -3    0.67    1.91
   0   4   3   -1.74    2.57
   0  -4  -3    0.22    1.35
   0  -4   3   -1.59    1.37
   0  -4   3    0.26    1.48
  -1  -4  -3   11.51    2.15
  -1  -4   3    9.23    2.04
  -1  -4  -3   13.72    2.10
   1  -4  -3   10.45    1.86
   1   4  -3    5.56    1.83
   1  -4   3    8.34    2.66
  -1  -4   3    6.80    2.26
  -1   4   3   11.74    2.49
   1  -4  -3   12.24    1.70
   1  -4   3   12.31    2.15
  -1  -4   3   13.59    2.27
   1  -4   3    8.53    3.87
  -1   4  -3    9.38    2.84
   1   4  -3    7.83    2.30
  -1   4   3   14.68    3.13
   1   4   3    9.21    3.20
   1  -4  -3    6.71    2.00
   1  -4   3   11.82    2.28
  -1  -4   3    6.87    2.20
   1  -4   3    6.70    2.08
  -1   4  -3    8.30    2.24
   2  -4  -3  282.91   24.26
  -2  -4  -3  283.49   24.23
   2  -4   3  278.82   25.66
  -2  -4   3  191.89   24.62
  -2   4  -3  206.06   24.64
   2   4  -3  202.30   24.39
  -2   4   3  380.38   25.28
   2  -4  -3  291.83   24.92
   2  -4   3  305.34   25.04
  -2  -4  -3  260.13   24.66
  -2  -4   3  257.03   24.64
   2  -4   3  347.50   24.46
   2  -4   3  277.63   26.66
   2  -4  -3  288.32   25.41
  -2   4   3  310.22   25.44
   2   4   3  284.95   25.53
  -2   4  -3  286.23   25.82
  -2  -4   3  184.26   24.69
   2  -4   3  164.60   24.40
  -2  -4  -3  277.12   24.55
   2  -4  -3  318.67   24.68
  -2  -4   3  252.11   25.28
   3  -4  -3  115.65   10.65
  -3  -4  -3  117.65   10.58
   3  -4   3  137.13   12.34
  -3  -4   3   92.64   11.18
  -3   4  -3  102.71   11.41
  -3   4   3  138.38   11.39
  -3  -4  -3  112.70   10.97
  -3  -4   3  103.82   10.99
   3  -4   3  135.06   10.79
   3  -4   3  110.45   12.98
   3  -4  -3  115.98   11.78
   3   4   3  115.47   11.83
  -3   4  -3  117.83   12.29
   3   4  -3   67.48   10.84
   3  -4   3   78.78   10.90
  -3  -4  -3  114.02   10.91
   3  -4  -3  134.59   11.04
  -3  -4   3  113.75   11.71
  -4  -4   3   21.83    3.70
  -4  -4  -3   22.54    3.11
   4  -4  -3   19.09    2.66
  -4  -4  -3   24.04    2.67
  -4   4  -3   27.28    4.09
   4  -4   3   28.39    3.09
  -4  -4   3   22.28    3.18
   4  -4   3   18.17    4.53
   4  -4  -3   16.42    3.54
  -4   4  -3   24.68    4.07
   4   4  -3   13.05    3.10
   4   4   3   21.97    4.02
  -4  -4  -3   24.14    2.99
   4  -4  -3   26.01    3.04
  -4  -4   3   19.68    3.67
   4  -4   3   13.52    3.07
  -4   4   3   27.28    3.34
  -5  -4  -3   19.87    2.74
  -5  -4   3   13.55    3.14
   5  -4  -3   19.92    2.53
  -5  -4  -3   17.94    2.33
  -5  -4  -3   19.52    2.75
  -5  -4   3   18.73    2.90
  -5   4  -3   22.40    3.84
  -5  -4   3   15.21    3.21
  -5   4   3   22.01    3.03
  -5  -4  -3   14.04    2.58
   5  -4   3   24.75    2.80
   5  -4   3   16.31    4.01
   5  -4  -3   20.38    3.62
   5   4  -3   11.56    2.89
   5   4   3   20.66    3.74
   5  -4  -3   23.46    2.86
  -5  -4   3   20.20    3.70
   5  -4   3    9.48    3.12
  -6  -4   3   42.34    5.51
   6  -4  -3   45.36    4.73
  -6  -4  -3   35.96    4.45
  -6  -4   3   37.94    5.50
  -6  -4  -3   34.47    4.79
  -6   4   3   49.31    5.03
   6  -4   3   59.98    4.76
  -6  -4  -3   36.50    4.79
  -6  -4   3   44.04    4.99
   6  -4   3   46.03    6.29
   6  -4  -3   45.80    5.85
   6   4   3   42.73    5.77
   6   4  -3   27.93    5.14
  -6  -4  -3   44.03    4.90
   6  -4  -3   55.49    5.03
  -7  -4   3   97.23    9.63
   7  -4  -3   81.41    8.59
  -7  -4  -3   68.18    8.34
  -7  -4   3   92.65    9.64
  -7   4  -3  113.68   10.55
  -7   4   3   82.19    8.76
  -7  -4  -3   76.25    8.72
  -7   4  -3  110.04    9.06
  -7   4   3   97.90    9.49
  -7  -4  -3   83.30    8.83
  -7  -4   3   87.62    8.95
   7  -4   3   79.36    9.92
   7  -4  -3   83.66    9.71
   7   4   3   92.88    9.88
   7   4  -3   81.63    9.70
   7  -4  -3  110.11    8.95
  -8  -4  -3   73.56    9.62
  -8  -4   3  110.10   10.69
  -8   4  -3  126.45   11.41
  -8   4  -3  106.12    9.92
  -8   4   3   94.07   10.20
  -8  -4  -3   90.44    9.72
  -8  -4   3   87.31    9.79
   8  -4  -3  116.95    9.82
  -9   4   3    0.54    2.10
  -9   4  -3    1.10    2.42
  -9  -4   3    3.14    2.17
   9   4   3    4.20    3.13
  -9   4  -3    2.05    1.65
  -9  -4   3    1.59    1.57
  -9  -4  -3    3.69    1.50
  -9   4   3    4.23    1.96
 -10   4   3   32.83    4.24
 -10   4  -3   25.63    4.08
 -10  -4   3   27.83    4.11
 -10   4  -3   31.17    3.83
 -10   4   3   24.07    3.91
 -10  -4   3   24.74    3.60
 -10  -4  -3   26.29    3.53
 -11   4   3    2.28    2.13
 -11  -4   3   -0.22    0.87
 -11  -4  -3    5.85    1.80
 -11   4  -3    3.70    1.71
 -11   4   3    5.96    2.07
 -11  -4   3    5.15    1.69
 -11  -4  -3    4.34    1.58
 -12   4   3   23.78    2.82
 -12   4  -3   17.44    2.33
 -12   4   3   16.00    2.38
 -12  -4   3   19.75    2.07
 -12  -4  -3   15.39    1.81
 -13   4   3    0.34    1.86
 -13   4  -3    0.37    1.34
 -13   4   3    1.42    1.44
 -14   4   3   12.84    2.30
 -14   4  -3   11.47    1.96
 -14   4   3   10.09    1.89
 -15   4   3    4.92    1.21
   0  -4  -4  462.58   37.83
   0  -4   4  349.48   38.69
   0   4  -4  291.09   37.99
   0  -4   4  517.66   38.12
   0   4   4  440.34   39.16
   0   4  -4  315.32   38.56
   0  -4  -4  506.15   38.36
   1  -4  -4   63.52    5.02
   1  -4   4   45.48    6.08
  -1  -4   4   38.71    5.68
   1   4  -4   33.69    5.15
  -1   4  -4   34.37    5.23
  -1   4   4   64.91    5.91
   1  -4   4   69.60    5.44
  -1   4   4   40.02    5.86
   1   4   4   47.53    6.39
   1   4  -4   31.34    5.38
  -1   4  -4   36.68    5.96
  -1  -4  -4   57.66    5.40
  -1  -4   4   37.50    5.83
   2  -4  -4  175.24   14.25
  -2  -4  -4  170.01   14.24
   2  -4   4  152.22   15.74
  -2  -4   4   96.48   14.69
  -2   4  -4  100.83   14.47
  -2   4   4  198.07   15.09
   2  -4   4  170.19   14.43
   2  -4   4  142.29   16.23
   2   4   4  129.98   15.26
  -2   4  -4  128.31   15.62
  -2  -4  -4  157.90   14.56
   2  -4  -4  164.98   14.62
  -2  -4   4  143.80   15.25
   3  -4  -4   74.45    6.30
  -3  -4  -4   70.88    6.28
   3  -4   4   92.39    8.56
  -3  -4   4   38.59    6.65
  -3   4  -4   39.66    6.60
  -3   4   4   80.85    7.03
   3  -4   4   70.49    6.45
  -3  -4   4   75.48    6.62
   3  -4   4   51.60    7.90
   3   4   4   55.54    7.53
  -3   4  -4   64.10    8.12
   3   4  -4   38.59    6.50
  -3  -4  -4   67.50    6.59
   3  -4  -4   69.04    6.60
  -3  -4   4   41.99    6.88
  -4  -4  -4    8.04    1.69
   4  -4  -4    9.05    1.66
  -4  -4   4    8.19    2.23
   4  -4   4    4.07    2.74
  -4   4  -4    4.55    2.39
  -4   4   4    5.13    1.88
   4  -4  -4    6.00    1.36
  -4  -4  -4    7.76    1.35
   4  -4   4    8.79    2.08
  -4  -4   4    4.67    1.98
   4  -4   4    2.93    2.27
  -4   4  -4    7.14    2.60
   4   4  -4    2.09    1.68
   4   4   4    8.12    2.76
  -5  -4   4   27.78    3.99
   5  -4  -4   24.87    3.04
  -5  -4  -4   29.40    3.10
  -5   4  -4   28.02    4.44
  -5   4   4   29.50    3.63
  -5  -4   4   23.70    3.99
  -5  -4  -4   23.60    3.25
   5  -4   4   33.31    3.40
   5  -4   4   13.73    3.83
   5  -4  -4   26.99    3.99
   5   4  -4   16.20    3.48
   5   4   4   27.84    4.48
  -5  -4  -4   28.59    3.42
   5  -4  -4   31.09    3.45
  -6  -4  -4    2.48    1.22
   6  -4  -4    0.54    1.15
  -6  -4   4    0.67    2.00
  -6   4   4    3.04    1.36
  -6   4  -4    1.57    2.84
  -6  -4  -4   -0.52    1.63
   6  -4  -4    0.71    1.08
  -6  -4  -4    1.68    0.95
  -6   4  -4    2.85    1.55
   6  -4   4    1.29    1.35
   7  -4  -4   15.73    2.43
  -7  -4   4   19.75    3.67
  -7  -4  -4   12.82    2.55
   7  -4  -4   14.96    2.25
  -7  -4  -4   12.77    2.07
  -7   4  -4   20.08    2.69
   7  -4   4   21.14    2.40
  -7   4   4   18.81    3.13
   8  -4  -4   14.55    2.16
  -8   4  -4   16.41    3.90
  -8  -4  -4   12.16    2.62
  -8   4  -4   13.86    2.38
  -8   4   4   14.63    2.76
  -8  -4   4   10.99    3.15
  -9   4   4   -0.26    2.29
  -9   4  -4   -0.35    2.33
  -9  -4   4    6.49    2.52
  -9  -4  -4    1.58    1.93
  -9   4  -4    0.96    1.35
  -9   4   4    3.30    1.80
 -10   4   4    6.46    2.28
 -10  -4   4   -1.27    1.75
  10   4   4    6.58    4.35
 -10   4  -4    4.04    1.58
 -10   4   4    3.54    1.61
 -11   4   4    6.85    2.20
 -11   4  -4    5.69    1.64
 -11   4   4    2.67    1.54
 -12   4   4   16.19    2.82
 -12   4  -4   16.75    2.34
 -12   4   4   10.92    2.22
 -13   4   4    2.28    1.69
 -13   4  -4    2.51    1.04
 -13   4   4   -0.43    1.16
 -14   4   4   21.61    2.62
   0  -4  -5    0.59    1.19
   0   4  -5    0.45    1.58
   0  -4  -5   -0.95    1.14
   0  -4   5   -0.30    1.96
   0   4  -5    1.14    2.04
   0  -4   5   -0.69    2.28
  -1  -4  -5   13.84    2.33
  -1   4   5   16.30    2.79
  -1   4  -5    7.11    2.18
   1   4  -5    9.53    2.27
  -1  -4   5   12.54    3.10
   1  -4   5   10.16    3.34
   1  -4  -5   16.69    2.03
   1  -4   5   10.03    2.51
   2  -4  -5   67.98    5.82
  -2  -4  -5   74.29    5.88
   2  -4   5   57.96    7.31
  -2   4  -5   37.38    6.00
  -2   4   5   73.53    6.51
  -2  -4   5   30.11    6.14
  -2   4  -5   42.14    6.12
   2  -4   5   52.93    6.01
  -2  -4   5   58.95    6.06
  -2  -4  -5   64.09    6.14
   2  -4  -5   56.56    6.08
  -3   4  -5    3.61    2.06
  -3  -4  -5    7.48    1.76
   3  -4  -5    7.87    1.76
   3  -4   5    7.64    2.82
  -3  -4   5    2.96    2.39
  -3   4   5    8.73    1.92
   3  -4  -5    7.90    1.48
  -3  -4  -5    8.41    1.53
  -3   4  -5    5.80    1.61
   3  -4   5    9.32    2.15
  -3  -4   5    8.06    2.12
  -4  -4  -5   16.11    2.41
   4  -4  -5   17.07    2.46
   4  -4  -5   15.19    2.06
  -4  -4  -5   19.36    2.25
   4  -4   5   17.28    3.57
  -4   4  -5    7.51    2.76
  -4   4   5    9.81    2.40
   4  -4   5   20.33    2.60
  -4  -4   5   17.48    2.65
  -5  -4  -5   15.92    2.23
   5  -4  -5   20.82    2.16
  -5  -4  -5   17.90    2.03
  -5   4  -5   13.51    3.12
  -5  -4   5   11.83    2.95
  -5   4   5    4.18    1.73
   5  -4   5   22.94    2.58
   5  -4  -5   22.87    2.58
  -6  -4  -5    0.31    0.59
   6  -4  -5    7.69    1.53
  -6  -4   5    5.31    2.37
  -6  -4  -5    3.94    1.57
   6  -4  -5    6.21    1.22
  -6  -4  -5    4.29    1.00
  -6   4  -5    7.22    1.60
   6  -4   5    6.62    1.68
  -6   4  -5    4.46    2.49
  -7  -4   5   15.12    2.99
  -7  -4  -5   10.21    2.14
   7  -4  -5   14.90    1.75
  -7   4  -5   18.17    2.21
   7  -4   5   20.63    2.01
  -7   4   5   13.21    2.35
   7  -4  -5   19.40    2.13
   8  -4  -5   10.32    1.62
  -8  -4   5    5.33    2.36
  -8  -4  -5    4.49    1.77
  -8   4  -5    6.87    1.66
  -8   4   5    6.10    1.89
  -9  -4   5    0.24    1.79
  -9  -4  -5    0.77    1.49
  -9   4  -5    1.07    1.18
  -9   4   5    1.69    1.36
  10   4   5    2.34    3.70
 -10   4  -5    2.66    1.26
 -10   4   5    0.37    1.25
 -10  -4   5   -0.15    0.45
 -11  -4  -5    0.57    0.53
 -11   4  -5    1.84    1.03
 -11   4   5   -0.30    1.12
   0  -4  -6   44.21    4.11
   0   4   6   44.85    4.77
   0   4  -6   31.17    4.77
   0  -4  -6   41.02    4.40
  -1  -4  -6   10.66    1.91
   1  -4   6    7.72    2.61
  -1  -4   6    7.38    2.42
  -1   4   6   12.03    2.26
   1  -4  -6   11.94    1.74
  -1   4  -6    7.72    2.33
   1  -4   6   11.05    2.21
  -1  -4   6   10.39    2.20
  -2  -4  -6    0.66    1.10
  -2  -4   6    2.34    1.96
   2  -4   6    2.58    2.28
   2  -4  -6    0.10    0.96
  -2  -4  -6    1.38    0.99
  -2   4  -6    0.84    1.48
   2  -4   6    1.78    1.58
  -2  -4   6    0.25    1.59
  -2   4   6    2.60    1.43
  -3  -4  -6    0.77    1.00
   3  -4  -6   -0.50    1.18
   3  -4   6   -1.59    2.29
  -3   4   6    0.83    1.15
   3  -4  -6    0.96    0.96
  -3  -4  -6    0.10    0.82
  -3   4  -6    1.01    0.91
   3  -4   6    1.82    1.58
  -3  -4   6   -0.36    1.50
  -4  -4  -6    0.28    0.91
   4  -4  -6    1.11    1.18
   4  -4   6    1.17    1.79
   4  -4  -6    0.82    0.83
  -4  -4  -6    0.10    0.95
   4  -4   6    1.14    1.44
  -5  -4  -6   -0.13    0.61
   5  -4  -6    1.66    1.16
  -5  -4   6    1.24    1.87
   5  -4  -6    0.41    0.80
  -5  -4  -6    2.76    0.93
   5  -4   6    1.98    1.29
   6  -4  -6    6.83    1.52
  -6  -4   6    4.92    2.00
   6  -4  -6    8.02    1.28
  -6  -4  -6    6.89    1.21
   6  -4   6    8.85    1.66
  -7  -4   6   10.66    2.27
  -7  -4  -6    7.44    1.40
   7  -4   6   10.42    1.45
  -8  -4   6    0.20    1.40
   8  -4  -6    1.53    0.83
  -8   4   6    2.38    1.66
  -8  -4  -6    0.20    1.10
  -8   4  -6    1.50    0.92
   9   4   6    7.89    2.33
  -9   4   6    6.25    1.76
 -10   4   6    0.11    1.14
  10   4   6    2.26    1.57
 -11   4   6    3.70    1.17
   0  -4  -7    0.77    1.01
   0  -4   7   -1.23    1.47
   0   4   7   -1.43    1.32
   0  -4  -7    0.09    0.84
   0   4  -7   -1.40    1.43
  -1  -4  -7    2.94    1.05
   1  -4  -7    2.82    1.09
   1  -4   7    0.65    1.60
  -1  -4   7   -0.20    1.39
   1   4   7    3.65    1.40
   1  -4  -7    0.61    0.79
  -1   4  -7    1.10    1.31
   1   4  -7   -0.54    1.60
  -1  -4   7   -0.09    1.26
  -1   4   7   -0.13    0.92
  -2  -4  -7   10.17    1.32
   2  -4   7    5.54    2.03
  -2  -4   7    5.45    1.72
  -2   4   7    0.55    0.55
   2   4   7   14.48    1.97
   2  -4  -7   10.56    1.22
  -2  -4  -7    9.27    1.12
  -2   4  -7    0.13    0.89
   2   4  -7    2.87    1.56
   2  -4   7    8.08    1.54
  -2  -4   7    7.92    1.34
  -3  -4  -7    1.46    0.80
   3  -4  -7    2.73    1.04
   3  -4   7    2.60    1.75
   3   4   7    2.04    1.61
   3  -4  -7    1.05    0.75
  -3  -4  -7    1.87    0.80
  -3   4  -7    0.75    0.26
   3   4  -7    0.68    1.47
   3  -4   7    0.97    1.31
  -4  -4  -7    1.02    0.35
   4  -4  -7    2.58    1.00
  -4  -4   7    3.19    1.53
   4  -4  -7    3.49    0.79
  -4  -4  -7    2.89    0.77
   4   4  -7    2.40    1.47
   4  -4   7    2.29    1.28
   5  -4  -7   10.54    1.50
  -5  -4   7    5.48    1.68
   5  -4  -7    8.72    1.21
  -5  -4  -7    8.76    1.19
   5   4  -7    5.02    1.64
   5  -4   7    8.40    1.49
   6  -4  -7    1.64    0.77
  -6   4   7    1.43    1.38
  -6  -4   7    3.20    1.38
   6   4   7    5.02    1.67
  -6  -4  -7    0.21    0.32
   6  -4   7    3.32    1.01
   7  -4  -7    1.13    0.73
  -7   4   7    2.10    1.15
  -7  -4   7   -0.13    1.02
   7   4   7    0.39    1.25
  -8   4   7    0.30    0.85
   8   4   7    1.95    1.14
   8   4  -7    0.22    1.00
   8   4   7   -0.51    1.46
   0  -4  -8    9.76    1.32
   0  -4  -8    9.87    1.24
  -1  -4  -8    2.07    0.63
   1  -4  -8    2.96    0.74
   1  -4  -8    1.77    0.62
   1   4  -8    1.09    0.68
   1  -4   8    0.50    0.82
   2  -4  -8    9.48    1.08
  -2  -4  -8    8.26    1.04
   3  -4  -8    6.05    0.79
  -3  -4  -8    6.98    0.82
   4  -4  -8    7.65    1.07
   0  -5   0   -2.07    2.66
   0  -5   0   -0.83    2.21
   0   5   0   -0.57    2.23
   0  -5   0    1.45    2.71
   0  -5   0    0.43    1.95
   0  -5   0   -0.96    2.25
   1  -5   0    0.34    2.66
  -1  -5   0    1.86    1.98
  -1  -5   0    3.91    2.13
   1  -5   0   -0.83    2.33
  -1   5   0    1.21    2.26
   1   5   0    1.97    2.08
   1  -5   0    3.17    2.96
  -1  -5   0    0.74    2.51
  -1  -5   0    0.43    2.23
   1  -5   0    3.97    2.47
   1  -5   0    1.67    2.24
  -2  -5   0   30.08    5.19
   2  -5   0   28.42    4.89
  -2  -5   0   28.81    4.54
   2   5   0   37.12    4.51
  -2  -5   0   25.54    4.34
  -2   5   0   35.29    4.82
   2  -5   0   30.31    4.51
   2  -5   0   27.97    4.68
  -2  -5   0   42.87    5.34
  -2  -5   0   30.95    4.42
   2  -5   0   29.72    4.99
   2  -5   0   33.21    4.70
   3  -5   0  167.30   18.84
  -3  -5   0  157.11   18.71
  -3  -5   0  217.85   19.76
   3   5   0  234.99   19.23
   3  -5   0  238.87   19.72
  -3  -5   0  196.15   19.03
   3  -5   0  178.11   19.74
  -3  -5   0  200.88   19.42
   3  -5   0  195.37   19.26
  -3  -5   0  209.57   19.41
   4  -5   0   34.56    4.99
  -4  -5   0   25.77    4.14
   4  -5   0   27.29    4.52
  -4  -5   0   24.87    4.18
   4   5   0   32.91    4.33
  -4  -5   0   34.36    5.36
   4  -5   0   27.06    5.39
  -4   5   0   38.74    5.14
  -4  -5   0   36.08    4.49
  -4  -5   0   29.06    4.75
   5   5   0   46.65    5.25
  -5  -5   0   30.64    4.78
  -5   5   0   46.92    5.69
   5  -5   0   34.27    5.03
  -5  -5   0   39.04    5.07
   5  -5   0   35.91    6.44
  -5  -5   0   40.52    5.36
   5  -5   0   43.96    5.68
   6  -5   0   20.42    3.39
  -6  -5   0   20.61    3.22
  -6  -5   0   17.69    2.88
  -6   5   0   16.73    3.74
   6   5   0   13.89    3.15
  -6  -5   0   16.62    3.22
   6  -5   0   23.83    3.87
  -7   5   0    1.57    2.20
  -7  -5   0    2.37    2.04
  -7  -5   0    2.83    3.13
  -7  -5   0    1.56    1.64
  -8   5   0    0.29    1.88
  -8  -5   0    0.26    1.72
  -8  -5   0    3.80    2.90
  -8  -5   0    0.90    1.25
  -9   5   0   -1.30    2.06
  -9  -5   0   -0.55    2.03
  -9  -5   0   -0.24    1.86
 -10  -5   0   20.40    2.74
 -10  -5   0   22.61    2.81
 -11  -5   0    9.99    1.98
 -11  -5   0   13.68    2.41
 -12  -5   0    2.37    1.45
 -13  -5   0    0.92    1.04
   0  -5  -1   -0.93    2.05
   0  -5   1   -2.00    2.44
   0   5  -1   -1.41    2.41
   0  -5   1   -0.36    2.49
   0  -5  -1   -1.71    2.15
   0  -5  -1   -0.35    2.39
   0  -5   1   -1.38    2.57
   0   5  -1    2.62    2.18
   0  -5  -1   -0.60    1.97
   0  -5   1    0.30    1.86
   0   5   1   -0.84    1.79
   0  -5   1   -0.75    2.98
  -1  -5  -1   10.69    2.46
   1  -5  -1    8.97    2.30
  -1  -5   1   10.15    2.55
  -1  -5  -1    4.80    2.03
   1  -5   1   15.62    3.39
   1  -5   1    7.35    2.64
  -1   5  -1    7.29    2.93
  -1   5   1   11.02    2.76
   1   5   1   10.92    2.47
  -1  -5   1    6.54    3.10
   1  -5  -1    6.18    2.13
   1  -5  -1    7.92    2.92
  -1  -5  -1   12.29    3.09
  -1  -5   1    9.32    2.77
   1  -5   1   16.06    3.73
   1  -5  -1   10.53    2.99
  -1   5  -1    7.46    2.74
   1  -5  -1   12.46    2.81
   1  -5   1   11.09    2.73
   1   5  -1   12.34    2.81
  -1  -5   1    4.61    2.92
   1  -5   1    9.51    3.12
   2  -5   1   35.41    6.21
  -2  -5   1   42.15    6.27
   2  -5  -1   47.99    6.10
  -2  -5  -1   45.72    5.99
   2  -5   1   69.49    7.13
  -2  -5   1   68.06    7.25
   2  -5  -1   78.92    7.22
  -2  -5  -1   69.85    7.17
  -2   5  -1   51.22    6.75
   2   5   1   64.44    6.58
   2   5  -1   57.48    6.55
   2  -5  -1   62.09    6.80
   2  -5   1   65.88    6.81
  -2  -5  -1   53.92    6.36
  -2  -5   1   59.02    6.53
   2  -5   1   56.71    7.38
   2  -5  -1   52.87    7.22
  -2   5  -1   53.74    6.75
   2  -5   1   54.13    6.88
  -2  -5  -1   54.27    6.53
   2  -5  -1   53.47    6.44
  -2  -5   1   62.31    7.02
  -2  -5  -1   46.57    6.23
   3  -5   1   65.12    8.55
  -3  -5   1   59.65    8.52
   3  -5  -1   74.17    8.49
  -3  -5  -1   69.89    8.38
  -3  -5   1   90.68    9.54
  -3  -5  -1  100.57    9.47
  -3   5  -1   79.29    9.17
   3   5  -1   83.83    8.81
  -3   5   1   86.04    8.88
   3   5   1  107.54    9.07
   3  -5  -1   93.65    9.16
   3  -5   1   94.78    9.18
  -3  -5  -1   83.96    8.68
  -3  -5   1   93.23    8.82
   3  -5   1   74.97    9.56
   3  -5  -1   63.95    9.72
  -3  -5   1   81.60    9.26
   3  -5   1   80.87    9.09
  -3  -5  -1   76.71    8.79
   3  -5  -1   75.21    8.69
  -3  -5   1   93.26    9.45
  -3  -5  -1   74.55    8.62
   4  -5   1   96.73   12.10
  -4  -5   1   97.11   12.02
   4  -5  -1  112.88   12.13
  -4  -5  -1  100.16   11.83
  -4  -5   1  137.40   13.09
  -4  -5  -1  151.55   13.16
   4   5  -1  132.28   12.39
   4   5   1  141.91   12.49
  -4   5   1  126.62   12.49
  -4  -5  -1  124.87   12.23
  -4  -5   1  131.11   12.29
   4  -5   1  131.14   13.52
   4  -5  -1  118.96   13.30
  -4  -5   1  115.99   12.75
   4  -5   1  131.52   12.67
  -4  -5  -1  113.65   12.35
   4  -5  -1  122.65   12.39
  -4  -5   1  138.18   12.95
   5  -5  -1   62.87    6.66
  -5  -5  -1   47.30    6.21
  -5  -5  -1   65.17    7.25
  -5   5  -1   56.85    7.16
   5   5  -1   60.24    6.79
  -5   5   1   59.16    6.86
   5   5   1   78.56    7.09
  -5  -5  -1   52.31    6.44
  -5  -5   1   66.22    6.63
   5  -5   1   49.90    7.80
  -5  -5   1   50.07    6.81
   5  -5   1   48.77    6.66
  -5  -5  -1   46.97    6.53
   5  -5  -1   64.49    6.85
   6  -5  -1   12.01    2.87
  -6   5   1   13.58    2.49
  -6  -5  -1   11.76    2.40
  -6  -5   1    9.08    2.38
   6  -5  -1    9.08    2.82
  -6  -5  -1    7.67    2.07
  -6   5  -1   12.97    3.13
  -6   5   1    9.64    2.91
   6   5   1   13.97    2.79
  -6  -5   1   12.16    3.60
  -6  -5   1    9.62    2.66
   6  -5   1    6.94    2.44
  -6  -5  -1   12.45    2.62
   7  -5  -1   -2.48    2.52
  -7   5   1    1.39    2.11
  -7   5   1    1.21    1.60
   7  -5  -1    0.24    1.91
  -7  -5  -1    0.24    1.61
  -7   5  -1   -0.69    2.34
  -7  -5  -1    0.17    1.35
   7   5   1    0.82    1.86
  -7  -5   1    0.36    2.87
  -7  -5  -1   -1.01    2.74
  -7  -5   1    1.12    1.88
  -7  -5   1    1.01    1.68
  -7  -5  -1   -0.73    1.71
  -8   5   1    7.58    2.01
  -8   5  -1    6.02    2.43
  -8  -5   1    4.91    2.45
  -8   5   1    7.09    2.13
  -8  -5  -1    6.41    1.94
  -8  -5   1    3.72    1.95
  -8  -5  -1    6.73    3.00
  -8  -5   1    4.95    1.83
  -8  -5  -1   -0.62    0.97
  -9   5   1   13.44    2.25
  -9   5  -1   12.59    2.61
  -9  -5  -1   15.57    2.98
  -9  -5  -1   14.97    2.33
  -9  -5   1   14.96    2.48
  -9  -5   1   15.50    2.81
 -10   5   1    6.69    1.81
 -10   5  -1    5.30    1.87
 -10  -5   1    3.89    1.90
 -10  -5  -1    3.08    2.13
 -10  -5  -1    6.16    1.81
 -10  -5   1    3.44    1.89
 -11   5  -1    1.51    0.59
 -11  -5  -1   -0.67    1.46
 -11  -5   1   -0.51    0.99
 -11  -5   1    0.38    1.43
 -11  -5  -1    0.36    1.31
 -12  -5  -1   25.69    3.06
 -12  -5   1   21.07    2.94
 -13  -5   1   -0.47    0.98
 -13  -5  -1   -0.67    0.96
   0  -5   2   27.00    3.76
   0   5   2   35.61    4.26
   0   5  -2   23.28    3.97
   0  -5   2   28.44    4.53
   0  -5  -2   21.79    3.44
   0  -5  -2   32.65    3.91
   0  -5   2   25.52    4.74
   0   5  -2   26.18    4.38
   0  -5   2   22.43    4.27
  -1  -5   2   35.22    5.46
   1  -5  -2   40.93    4.70
   1  -5   2   49.47    5.90
  -1  -5   2   43.19    5.58
  -1   5  -2   43.35    5.33
   1   5  -2   36.94    5.09
   1   5   2   44.79    5.20
   1  -5  -2   41.76    5.00
   1  -5   2   40.09    4.94
  -1  -5  -2   41.53    4.96
  -1  -5   2   39.65    4.95
   1  -5   2   36.83    5.99
   1   5   2   34.94    4.97
  -1   5  -2   38.77    5.71
   1   5  -2   34.94    5.28
  -1  -5   2   39.78    5.63
  -1  -5  -2   39.39    4.93
   1  -5  -2   40.91    4.93
   1  -5   2   32.54    5.17
   2  -5  -2   39.21    5.62
  -2  -5  -2   38.37    5.58
   2   5   2   66.66    6.55
   2  -5   2   70.58    7.13
  -2  -5   2   56.15    6.66
   2  -5  -2   73.48    6.77
  -2   5  -2   56.16    6.57
   2   5  -2   47.06    6.12
  -2   5   2   67.65    6.47
   2  -5  -2   55.78    6.28
   2  -5   2   56.39    6.24
  -2  -5  -2   46.81    5.85
  -2  -5   2   49.88    5.98
   2  -5   2   50.35    7.31
   2   5   2   55.78    6.25
  -2   5  -2   43.93    6.62
   2   5  -2   46.71    6.48
   2  -5   2   54.86    6.48
  -2  -5  -2   56.87    6.22
   2  -5  -2   52.87    6.03
  -2  -5   2   55.37    6.71
   3   5   2  116.73    8.85
   3  -5  -2   69.06    7.83
  -3  -5  -2   63.37    7.69
   3  -5   2   95.97    8.98
  -3  -5   2   84.10    8.82
  -3   5  -2   78.98    8.78
   3   5  -2   79.02    8.31
  -3   5   2   96.04    8.51
   3  -5  -2   79.17    8.32
   3  -5   2   81.04    8.34
  -3  -5  -2   61.85    7.80
  -3  -5   2   70.53    7.95
   3  -5   2   71.48    9.60
   3  -5  -2   70.88    9.03
   3   5  -2   71.46    8.60
  -3  -5   2   70.33    8.71
   3  -5   2   63.09    8.30
  -3  -5  -2   70.42    8.07
   3  -5  -2   80.14    8.16
   4  -5  -2   31.34    4.57
  -4  -5  -2   37.66    4.58
  -4  -5   2   42.52    5.62
  -4   5   2   52.86    5.39
   4   5   2   60.81    5.52
  -4   5  -2   43.75    5.60
   4  -5  -2   38.98    5.01
   4  -5   2   46.03    5.25
  -4  -5  -2   40.86    4.71
  -4  -5   2   34.58    4.64
  -4  -5  -2   36.01    4.93
   4  -5  -2   42.87    4.96
  -4  -5   2   31.45    5.45
   4  -5   2   26.83    4.75
  -5  -5  -2   26.00    3.86
  -5  -5   2   22.16    3.40
  -5   5   2   33.02    4.07
   5  -5  -2   22.72    3.54
  -5  -5  -2   17.87    3.10
  -5  -5  -2   25.62    3.46
   5  -5  -2   24.17    3.73
  -5  -5   2   30.93    4.60
   5  -5   2   20.31    3.77
   6  -5  -2   11.10    2.40
  -6  -5  -2    7.48    2.00
  -6  -5   2    9.88    2.14
  -6   5  -2   12.05    3.44
   6   5   2   17.43    3.19
  -6   5   2   13.50    2.71
  -6  -5   2   13.11    3.18
   6  -5  -2   14.97    2.75
  -6  -5  -2    6.58    2.02
  -6  -5   2    8.81    2.78
  -6  -5  -2    8.57    2.52
   7  -5  -2   15.54    2.69
  -7   5   2   17.39    2.83
  -7   5  -2   14.26    3.48
  -7  -5  -2    6.64    2.00
   7  -5  -2   10.14    2.54
  -7  -5   2    9.12    3.08
  -7  -5  -2   12.78    2.33
  -7  -5   2   11.84    2.37
  -7   5   2   15.51    2.83
  -7  -5  -2   13.15    2.44
  -8   5   2    8.90    2.19
  -8   5  -2    7.40    2.56
  -8   5   2    0.86    1.39
  -8  -5   2    4.65    2.56
   8   5   2    9.92    2.82
  -8  -5  -2    6.71    2.50
  -8  -5  -2    4.71    1.80
  -8  -5   2    6.89    1.94
  -9   5   2   36.33    4.25
  -9  -5   2   39.23    4.77
  -9   5  -2   33.87    4.61
  -9  -5  -2   32.86    4.55
  -9  -5  -2   29.64    4.01
  -9  -5   2   34.40    4.16
 -10   5   2   16.09    2.58
 -10   5  -2   18.88    2.92
 -10  -5   2   12.25    2.52
 -10  -5  -2   15.25    2.76
 -10  -5   2   14.51    2.32
 -10  -5  -2   11.56    2.14
 -11   5   2    2.56    1.57
 -11  -5   2    0.15    0.78
 -11  -5  -2   -0.46    1.26
 -11  -5   2    0.30    1.14
 -11  -5  -2    0.58    1.05
 -12   5   2   20.86    2.49
 -12  -5   2   17.85    2.39
 -12  -5  -2   19.69    2.38
   0  -5  -3   -0.91    1.47
   0  -5   3   -1.17    1.68
   0   5  -3    0.27    1.87
   0  -5   3   -1.12    2.43
   0  -5  -3   -0.18    1.17
   0  -5   3    0.67    2.10
   1  -5  -3   25.83    3.66
  -1  -5  -3   25.42    3.72
   1  -5   3   22.93    3.66
   1   5   3   42.61    4.40
   1  -5  -3   26.18    3.46
  -1   5  -3   28.66    4.16
   1   5  -3   25.23    3.93
   1  -5   3   38.18    4.94
  -1  -5   3   26.77    4.41
  -1  -5  -3   29.52    3.67
  -1  -5   3   28.59    3.69
   1  -5  -3   30.82    3.80
  -1  -5   3   13.85    3.91
   1  -5   3   26.98    4.15
  -1   5   3   38.74    4.28
  -2  -5  -3   15.81    2.78
   2  -5  -3   10.32    2.38
  -2   5   3   17.29    2.92
  -2  -5  -3   14.05    2.37
  -2  -5   3   15.70    2.54
  -2   5  -3   14.78    3.09
   2   5  -3   17.12    2.96
   2  -5   3   11.46    3.49
  -2  -5   3   15.52    3.47
   2   5   3   23.31    3.25
   2  -5  -3   14.23    2.32
  -2  -5  -3   10.62    2.17
  -2  -5   3   16.88    3.58
   2  -5   3   10.33    2.88
   2  -5  -3   11.11    2.38
   2  -5   3   16.34    2.69
  -3  -5  -3   14.37    2.60
   3  -5  -3   11.02    2.38
  -3  -5  -3   13.61    2.39
  -3  -5   3   14.38    2.50
  -3   5  -3   12.75    3.20
   3  -5   3   24.90    3.83
  -3  -5   3   13.05    3.31
  -3   5   3   18.85    2.91
   3   5   3   22.23    3.34
   3  -5  -3   11.84    2.29
  -3  -5  -3   13.98    2.29
   3  -5  -3   14.79    2.54
   3  -5   3   12.99    2.68
   3  -5   3    7.72    2.76
  -4  -5  -3   10.61    2.29
   4  -5  -3   11.44    2.18
  -4  -5  -3   10.73    2.10
  -4  -5   3    9.53    2.17
  -4   5  -3   13.90    3.31
  -4  -5   3   10.00    2.92
  -4   5   3   16.05    2.66
   4   5   3   13.67    2.83
   4  -5  -3   10.38    2.05
  -4  -5  -3    8.57    2.04
   4  -5  -3   13.92    2.39
   4  -5   3   11.53    2.43
  -4  -5   3    9.03    2.92
   4  -5   3    8.56    2.55
  -5  -5  -3    9.55    2.38
   5  -5  -3   11.34    2.20
  -5  -5  -3   10.21    1.98
  -5  -5   3    7.82    1.95
  -5   5   3   11.16    2.43
   5   5   3   13.79    2.96
   5  -5  -3    5.04    1.82
  -5  -5  -3    7.78    1.81
   5  -5  -3    8.27    2.10
   5  -5   3   10.41    2.14
  -5   5  -3   11.44    3.13
  -6  -5  -3    2.93    1.97
   6  -5  -3    4.09    1.72
  -6  -5   3    4.77    2.70
  -6   5   3    6.26    2.12
   6   5   3   11.32    2.98
   6  -5  -3    6.56    1.75
  -6  -5  -3    2.34    1.34
  -6  -5  -3    2.75    1.35
  -6  -5   3    2.02    1.44
   6  -5  -3    5.29    1.77
   6  -5   3    3.62    1.70
   7  -5  -3   10.33    1.93
  -7   5  -3    9.25    3.10
  -7   5   3    0.38    1.22
  -7  -5   3   11.35    2.90
   7  -5  -3    9.16    1.91
  -7  -5  -3    0.75    0.88
   7   5   3   16.27    3.40
  -7  -5  -3    9.47    1.76
  -7  -5   3    7.85    1.66
   7  -5  -3    6.54    1.87
   7  -5   3   10.76    2.12
  -7  -5  -3   -0.55    0.77
   8  -5  -3   20.97    3.24
  -8   5   3   27.20    3.69
  -8   5  -3   25.40    4.14
  -8  -5   3   29.54    4.31
   8  -5  -3   28.55    3.47
  -8  -5   3   22.87    3.23
  -8  -5  -3   26.77    3.31
   8  -5   3   20.50    3.28
  -9   5   3   17.34    2.75
  -9   5  -3   11.59    2.92
  -9  -5   3   21.37    3.24
  -9  -5  -3   11.60    2.72
  -9  -5   3   15.42    2.23
  -9  -5  -3   13.52    2.21
   9  -5  -3   16.36    2.44
   9  -5   3   13.23    2.33
 -10   5   3   12.00    2.18
 -10  -5   3   11.54    2.24
 -10  -5  -3    7.31    2.21
 -10  -5   3    9.82    1.77
 -10  -5  -3   12.41    1.79
  10  -5  -3   14.29    1.97
  10  -5   3    8.51    1.83
 -11   5   3   -1.62    1.53
 -11  -5  -3    0.12    0.81
 -12   5   3    2.95    1.16
   0   5  -4   10.96    2.57
   0   5   4   18.15    2.88
   0  -5  -4   11.22    2.14
  -1  -5  -4   22.43    3.15
  -1   5   4   22.43    3.28
   1   5  -4   21.97    3.42
  -1   5  -4   14.03    3.02
   1  -5   4   28.27    4.23
  -1  -5   4   21.24    3.80
   1  -5  -4   16.57    2.61
  -2  -5  -4    4.55    1.75
   2  -5  -4    4.00    1.63
   2  -5   4    6.28    2.78
  -2   5  -4    2.95    2.02
  -2  -5   4    4.75    2.65
  -2   5   4    5.95    1.83
   2  -5  -4    3.82    1.37
  -2  -5  -4    1.15    1.31
  -3  -5  -4   -0.68    1.46
   3  -5  -4   -0.20    1.41
  -3   5  -4    0.28    2.11
  -3  -5   4   -0.34    2.16
   3  -5   4   -0.67    2.48
  -3   5   4    0.66    1.52
   3   5   4    1.33    1.84
   3  -5  -4    1.15    1.19
  -3  -5  -4    0.48    1.19
  -4  -5  -4    3.11    1.67
   4  -5  -4    1.95    1.24
  -4   5  -4    3.25    2.25
  -4  -5   4    0.67    2.39
  -4   5   4    6.80    1.89
   4   5   4    5.64    2.52
   4  -5  -4    1.46    1.17
  -4  -5  -4    2.46    1.28
  -5  -5  -4    0.62    1.46
   5  -5  -4    2.09    1.23
  -5   5  -4   -0.61    2.45
  -5   5   4    1.14    1.53
   5   5   4    2.11    2.30
   5  -5  -4    0.98    1.13
  -5  -5  -4    1.75    1.25
   6  -5  -4   26.01    2.26
  -6  -5  -4   26.71    2.20
  -6  -5   4   47.48    4.40
   6   5   4   64.18    4.99
  -6   5  -4   31.79    3.78
   6  -5  -4   31.90    2.64
  -7  -5   4   20.53    3.27
   7  -5  -4   22.80    2.14
   8  -5  -4   13.68    2.02
  -8   5   4    9.38    2.30
  -8   5  -4   12.21    2.89
  -8  -5   4   11.98    2.76
  -9   5   4   10.17    2.03
  -9  -5   4    7.60    1.99
 -10   5   4   -0.13    1.47
 -10  -5   4   -0.22    0.64
 -10  -5  -4    1.34    1.31
 -11   5   4    2.08    1.36
   0  -5  -5   -0.76    1.26
   0  -5   5   -0.89    2.21
   0   5  -5   -1.01    1.42
   0   5   5   -1.01    1.64
  -1  -5  -5    1.55    1.36
   1  -5   5    2.98    2.24
  -1   5  -5    0.41    1.57
  -1  -5   5    1.16    2.13
  -1   5   5    1.77    1.55
   1   5   5    3.10    1.73
   1  -5  -5    1.10    1.14
   1   5  -5    1.90    1.09
  -2  -5  -5   12.84    2.19
   2  -5  -5   11.36    2.14
  -2   5  -5   11.70    2.43
  -2  -5   5   12.74    2.73
  -2   5   5   14.61    2.39
   2  -5  -5   11.97    1.87
  -2  -5  -5    9.49    1.86
  -3  -5  -5    4.02    1.43
   3  -5  -5    2.93    1.33
   3  -5   5    2.75    2.02
  -3   5  -5    2.34    1.70
  -3  -5   5    0.56    2.01
  -3   5   5    1.38    1.38
   3  -5  -5    1.04    1.04
  -3  -5  -5    1.08    1.00
  -4  -5  -5    1.34    1.23
   4  -5  -5    1.46    1.16
  -4   5  -5    1.73    1.66
  -4   5   5    0.59    0.89
   4   5   5    3.26    1.93
   4  -5  -5    1.44    1.07
  -4  -5  -5    0.40    1.05
  -5  -5  -5   -0.14    0.71
   5  -5  -5    1.71    1.14
   5  -5  -5    1.27    1.03
  -5  -5  -5    1.74    1.04
   6  -5  -5   12.50    1.61
  -6  -5   5   15.45    2.70
   6   5   5   26.65    3.12
   6  -5  -5   10.38    1.37
  -6  -5  -5   -1.44    0.84
  -7   5   5   29.24    3.76
  -7  -5   5   27.80    4.00
   7  -5  -5   27.30    3.33
  -8   5   5   18.98    2.88
  -8  -5   5   20.07    3.00
  -9   5   5    2.93    1.37
  -9  -5  -5    0.11    1.06
 -10   5   5    1.37    0.91
   0  -5  -6   72.81    7.90
   0  -5   6   76.76    8.47
   0   5   6   92.71    8.38
   0  -5  -6   95.38    8.23
  -1  -5  -6   -0.27    1.07
   1  -5   6    0.20    1.61
  -1  -5   6    1.81    1.62
  -1   5   6    0.13    1.11
   1   5   6    1.47    1.16
   1  -5  -6    1.35    0.90
  -2  -5  -6    3.50    1.11
   2  -5   6    7.53    1.73
  -2  -5   6    5.14    1.71
  -2   5   6    2.33    1.01
   2   5   6    5.48    1.49
   2  -5  -6    3.83    1.02
  -2  -5  -6    5.05    1.07
   2   5  -6    0.12    0.60
  -3  -5  -6    0.12    0.94
   3  -5  -6    0.52    0.95
  -3  -5   6   -0.19    1.50
  -3   5   6    0.09    0.40
   3  -5  -6   -0.80    0.86
  -3  -5  -6    0.59    0.83
   3   5  -6    0.13    0.84
  -4  -5  -6   -0.26    0.41
   4  -5  -6    0.85    1.03
   4  -5  -6    2.46    0.87
  -4  -5  -6    1.80    0.79
   4   5  -6    0.53    1.06
   5  -5  -6    3.03    0.97
  -5  -5   6    2.10    1.45
   5   5   6    2.99    1.43
   5  -5  -6    1.76    0.86
  -5  -5  -6    2.58    0.72
   5   5  -6    0.92    1.24
   6  -5  -6    1.01    0.74
  -6  -5   6    1.20    1.26
   6   5   6    0.83    1.26
   6   5  -6   -0.61    1.18
  -7  -5   6    3.03    1.08
   7   5   6    1.04    1.19
   0  -5  -7    0.15    0.63
   0  -5  -7    0.85    0.62
   1  -5  -7    1.09    0.64
  -1  -5   7   -0.21    0.94
   1  -5  -7    1.54    0.65
   2  -5  -7    6.47    0.94
  -2  -5  -7    6.49    0.91
   0  -6   0   -1.31    1.91
   0  -6   0   -0.72    1.95
   0   6   0   -0.27    2.47
   0  -6   0    1.08    1.93
   0  -6   0    0.91    2.04
   1  -6   0   18.64    3.15
  -1  -6   0   18.30    3.07
   1  -6   0   14.73    2.99
  -1   6   0   18.68    3.53
   1   6   0   19.82    3.56
   1  -6   0   18.20    3.08
  -1  -6   0   22.60    3.50
   1  -6   0   12.27    3.20
   2  -6   0    3.48    2.01
  -2  -6   0    6.52    2.14
   2  -6   0    4.75    2.20
  -2  -6   0    6.34    2.02
  -2   6   0    7.08    2.90
   2   6   0    7.21    2.77
  -2  -6   0   10.22    2.64
   2  -6   0    3.49    2.28
  -3  -6   0   20.81    3.12
   3  -6   0   17.91    2.99
  -3  -6   0   19.20    2.97
   3   6   0   19.50    3.43
  -3  -6   0   22.08    3.51
  -3  -6   0   16.05    3.18
   3  -6   0   15.88    3.27
   3  -6   0   19.84    3.21
  -4  -6   0  185.21   18.08
   4   6   0  225.20   18.19
   4  -6   0  205.89   18.11
  -4  -6   0  190.54   17.80
  -4  -6   0  158.14   17.79
   4  -6   0  161.96   17.85
  -5  -6   0    1.46    1.65
  -5   6   0    1.61    2.18
   5   6   0    2.84    2.14
  -5  -6   0    1.05    2.28
   5  -6   0    0.24    1.80
  -5  -6   0   -0.23    1.71
   5  -6   0    2.13    1.76
  -6   6   0    1.25    1.92
  -6  -6   0    2.74    1.64
   6  -6   0    0.45    1.65
  -6  -6   0   -0.80    1.36
   6  -6   0    0.19    1.35
  -7   6   0    5.88    1.86
  -7  -6   0    4.32    1.54
   7  -6   0    5.63    1.71
  -7  -6   0    0.31    0.84
  -8   6   0   -0.18    1.29
  -8  -6   0   -0.37    1.46
  -8  -6   0   -0.81    1.22
   8  -6   0    0.69    1.19
  -9  -6   0    8.66    1.56
  -9  -6   0    9.59    1.56
   9  -6   0    9.33    1.47
   0  -6  -1    2.16    1.77
   0  -6   1   -0.24    1.69
   0  -6  -1   -0.23    2.12
   0   6  -1    1.71    2.29
   0   6   1   -0.78    2.35
   0  -6   1    1.71    2.09
   0  -6  -1    1.24    1.97
   0  -6   1   -1.58    2.22
   0  -6  -1   -0.28    2.62
   1  -6  -1    0.73    1.67
   1  -6   1    0.48    1.69
  -1  -6  -1    0.23    1.49
  -1  -6   1    0.23    1.49
   1  -6  -1   -0.45    2.11
  -1   6  -1    0.29    2.06
   1   6  -1    0.28    2.12
  -1   6   1    0.26    2.31
   1   6   1   -1.01    2.39
   1  -6   1    0.27    1.68
  -1  -6   1    1.47    2.04
   1  -6  -1    0.69    1.68
  -1  -6  -1    0.79    2.16
  -1  -6   1   -0.63    2.05
   1  -6   1    2.48    2.08
   1  -6  -1   -2.23    2.43
   2  -6  -1   45.04    6.47
  -2  -6  -1   57.52    6.59
   2  -6   1   75.84    6.91
  -2  -6   1   61.96    7.07
  -2  -6  -1   68.16    7.03
  -2   6  -1   78.63    7.44
   2   6  -1   57.17    6.88
   2   6   1   67.08    7.05
   2  -6  -1   64.50    6.77
   2  -6   1   59.46    6.65
  -2  -6  -1   64.70    6.64
  -2  -6   1   57.03    6.58
   2  -6   1   50.24    6.83
  -2  -6  -1   56.53    6.83
   2  -6  -1   52.74    6.84
   3  -6  -1    6.13    2.13
   3  -6   1    5.31    2.18
  -3  -6  -1    6.43    2.00
  -3  -6   1    6.00    1.84
   3  -6  -1    3.85    2.03
  -3  -6  -1    6.20    2.13
  -3   6  -1    5.07    2.64
   3   6  -1   10.94    2.58
  -3   6   1    6.83    2.74
   3   6   1    7.26    2.59
  -3  -6   1    6.39    2.52
  -3  -6  -1    9.61    2.66
  -3  -6   1    6.15    2.45
   3  -6   1    7.18    2.38
  -3  -6  -1    8.34    2.61
   3  -6  -1    6.23    2.56
  -4  -6   1   36.44    4.55
   4   6  -1   37.39    4.22
   4   6   1   40.50    4.57
   4  -6  -1   26.36    3.85
  -4  -6  -1   22.11    3.61
  -4   6   1   31.85    4.39
  -4  -6  -1   31.91    4.46
   4  -6  -1   33.72    4.12
   4  -6   1   32.16    4.03
  -4  -6  -1   26.42    3.75
  -4  -6   1   28.92    3.82
   4  -6   1   34.11    4.22
   4  -6  -1   31.86    4.22
  -4  -6   1   24.51    4.02
  -4  -6  -1   25.18    3.99
  -5  -6  -1    2.29    1.50
   5  -6  -1    2.76    1.58
  -5  -6  -1    1.59    1.26
  -5  -6   1    1.92    1.51
  -5   6   1    0.95    1.93
   5   6   1    1.95    2.29
  -5  -6   1    1.63    1.97
  -5  -6  -1    4.73    2.34
   5  -6  -1    1.81    1.52
   5  -6   1    2.22    1.70
  -5  -6   1   -0.47    1.60
   5  -6   1    0.69    1.62
  -5  -6  -1    0.88    1.57
   5  -6  -1    1.77    1.81
  -6   6  -1    9.71    2.51
  -6   6   1    8.50    2.13
   6   6   1   10.44    2.50
  -6  -6  -1    3.03    1.54
  -6  -6   1    6.83    1.71
  -6  -6  -1    8.82    2.54
   6  -6  -1    7.90    1.98
   6  -6   1    4.87    1.71
  -6  -6   1    4.60    1.68
  -6  -6  -1    6.56    1.76
   6  -6  -1    5.64    1.73
  -7   6  -1   -2.11    2.07
  -7   6   1    1.73    1.54
  -7  -6   1    2.19    1.68
  -7  -6  -1    1.31    1.27
  -7  -6   1    0.99    1.28
   7  -6  -1    0.56    1.37
   7  -6   1    3.07    1.53
  -7  -6  -1   -0.55    0.54
  -8   6  -1    1.85    1.54
  -8   6   1   -0.28    0.85
  -8  -6   1    0.73    1.41
  -8  -6  -1    4.37    1.57
  -8  -6  -1    1.59    1.16
  -8  -6   1   -0.15    1.10
   8  -6  -1    1.27    1.22
   8  -6   1    2.32    1.21
  -9   6  -1   -0.12    1.02
  -9  -6   1    0.14    1.17
  -9  -6  -1    1.51    1.16
  -9  -6   1   -0.73    0.99
  -9  -6  -1    0.48    0.99
   9  -6  -1    0.26    0.97
   9  -6   1   -0.13    0.99
   0  -6  -2    1.55    1.45
   0  -6   2    2.53    1.46
   0   6  -2    0.83    1.97
   0  -6   2    1.45    1.95
   0  -6  -2    2.17    1.96
   0   6   2    1.43    2.00
   0  -6  -2    1.11    1.90
   0  -6   2    0.92    2.02
   1  -6  -2    3.27    2.36
   1  -6  -2    1.17    1.36
   1  -6   2    1.18    1.38
  -1  -6  -2    1.13    1.31
  -1  -6   2    1.52    1.37
  -1   6  -2    0.28    1.92
   1   6  -2    2.44    1.95
   1  -6   2    1.11    1.87
   1  -6  -2    2.94    1.91
  -1  -6   2    2.68    1.88
   1   6   2    0.23    2.01
   1  -6  -2    1.61    1.67
  -1  -6  -2    1.18    2.07
  -1  -6   2    0.62    2.06
   1  -6   2    2.08    1.88
  -2  -6  -2   -1.24    2.16
   2  -6  -2    2.43    2.26
   2  -6  -2    0.39    1.30
   2  -6   2   -0.78    1.30
  -2  -6  -2   -0.37    1.29
  -2  -6   2    1.47    1.47
   2  -6   2   -0.25    1.97
  -2   6  -2    0.29    2.01
   2   6  -2    1.07    1.81
   2  -6  -2   -0.20    1.90
  -2  -6  -2   -0.20    1.83
  -2   6   2   -2.31    2.34
  -2  -6   2    0.60    2.09
   2   6   2    2.39    1.97
  -2  -6  -2   -1.22    2.01
   2  -6   2    0.28    1.75
   3  -6  -2   11.08    2.65
   3  -6  -2   11.86    2.12
   3  -6   2   10.50    2.10
  -3  -6  -2   10.13    1.88
  -3  -6   2    9.15    1.89
  -3   6  -2   14.36    2.95
   3   6  -2   12.56    2.66
   3  -6  -2    8.48    2.28
  -3  -6  -2    7.94    2.28
  -3   6   2   12.71    2.79
  -3  -6   2    9.05    2.69
   3   6   2   11.65    2.70
  -3  -6  -2   12.83    2.75
  -3  -6   2    9.26    2.57
   3  -6   2    7.68    2.47
  -3  -6  -2   11.04    2.56
   4  -6  -2   30.73    4.61
  -4  -6  -2   34.34    4.62
  -4  -6   2   50.35    5.44
  -4  -6  -2   51.86    5.52
  -4   6  -2   55.44    5.73
  -4   6   2   46.71    5.13
   4   6   2   53.38    5.47
   4  -6  -2   49.83    4.86
   4  -6   2   40.23    4.71
  -4  -6  -2   41.06    4.64
  -4  -6   2   38.61    4.57
  -4  -6   2   33.01    5.00
   4  -6   2   37.53    4.94
  -4  -6  -2   39.27    4.99
   4  -6  -2   44.76    5.07
   5  -6   2   12.50    2.13
   5  -6  -2   10.25    2.07
  -5  -6  -2    8.99    1.87
  -5   6   2   13.58    2.43
  -5  -6   2   16.70    3.00
   5   6   2    7.07    2.80
  -5  -6  -2    7.30    1.70
  -5  -6   2   10.53    1.95
  -5  -6  -2    9.09    2.66
  -5  -6  -2   10.30    2.14
   5  -6  -2    9.25    2.32
   5  -6  -2   10.62    2.00
   6  -6  -2    9.22    1.51
  -6  -6  -2    0.23    0.90
  -6   6   2   13.46    2.04
   6   6   2   26.20    3.33
  -6  -6  -2   18.66    2.74
  -6  -6  -2   15.58    1.86
  -6  -6   2   11.61    1.78
   6  -6  -2    9.16    1.72
  -6  -6  -2   -0.16    0.99
   6  -6  -2   13.92    2.03
   6  -6   2    8.91    1.70
  -7   6  -2    0.44    1.83
  -7   6   2   -0.42    0.97
  -7  -6   2   -0.21    1.36
  -7  -6  -2   -0.13    1.05
  -7  -6   2   -0.39    1.05
   7  -6  -2    0.85    1.06
   7  -6   2    0.14    1.10
  -8   6  -2   -0.51    1.65
  -8  -6   2   -0.34    1.30
  -8  -6  -2    1.12    1.52
  -8  -6   2    0.54    0.90
  -8  -6  -2    0.32    0.81
   8  -6  -2    0.70    0.87
   8  -6   2   -0.23    0.94
  -9  -6   2    0.23    0.91
  -9  -6  -2   -0.23    1.00
   0  -6  -3   -0.28    0.99
   0  -6   3   -0.29    1.09
   0   6  -3   -0.73    1.71
   0  -6   3   -1.08    1.84
   0  -6  -3   -1.19    1.54
   0  -6  -3    0.55    1.66
  -1  -6  -3    5.12    2.19
   1  -6  -3    4.78    2.03
   1  -6  -3    6.15    1.37
   1  -6   3    6.43    1.46
  -1  -6  -3    6.47    1.44
  -1  -6   3    5.74    1.37
   1   6  -3    5.34    2.05
   1  -6   3    3.96    2.08
  -1   6  -3    5.24    2.14
  -1  -6   3    5.83    2.31
  -1   6   3    3.23    2.04
   1   6   3    8.29    2.27
   1  -6  -3    4.62    1.87
  -1  -6  -3    7.84    2.07
  -2  -6  -3    0.67    2.00
   2  -6  -3    2.70    1.87
   2  -6  -3    1.09    1.00
   2  -6   3    2.87    1.10
  -2  -6  -3    0.94    0.97
  -2  -6   3    0.56    1.12
   2  -6   3    0.61    1.63
   2   6  -3    0.84    1.68
  -2   6  -3    1.26    1.81
  -2  -6   3    0.56    2.02
  -2   6   3    3.05    1.85
   2  -6  -3    3.46    1.73
   2   6   3    2.77    1.90
  -2  -6  -3   -1.87    1.66
  -2  -6  -3    1.05    1.76
   3  -6  -3    3.32    1.89
   3  -6  -3    2.48    0.99
   3  -6   3    1.53    0.97
  -3   6  -3    0.25    1.90
  -3  -6   3    3.29    2.13
  -3  -6  -3    1.40    0.99
  -3  -6   3    1.73    1.07
  -3   6   3    5.48    1.90
   3  -6  -3    1.87    1.55
  -3  -6  -3    2.41    1.60
   3   6   3    1.77    1.88
  -3  -6  -3   -0.22    2.04
  -3  -6  -3    2.89    2.00
   4  -6  -3   19.45    2.76
   4  -6  -3   14.24    2.12
  -4   6   3   18.21    2.32
  -4   6  -3   20.93    3.14
   4  -6  -3   12.15    2.41
  -4  -6  -3   14.40    2.49
  -4  -6   3   17.95    3.14
  -4   6   3   15.26    2.64
   4   6   3   25.27    3.15
  -4  -6  -3   14.88    2.13
  -4  -6  -3   18.57    3.03
  -4  -6   3   16.16    2.17
   4  -6   3   16.14    2.18
  -4  -6  -3   16.56    2.71
   5  -6  -3   13.53    2.16
   5  -6  -3    6.31    1.32
   5  -6   3    6.55    1.32
  -5   6   3    8.70    1.51
  -5   6  -3   12.40    2.58
   5  -6  -3    5.00    1.62
  -5  -6  -3    8.64    1.65
  -5  -6   3   13.54    2.52
  -5   6   3   10.21    1.91
   5   6   3   15.30    2.81
  -5  -6  -3    6.36    2.29
  -5  -6  -3    7.97    1.38
  -5  -6   3    8.38    1.43
  -5  -6  -3    0.46    1.27
  -6   6   3   14.07    1.47
   6  -6  -3   15.41    1.48
   6   6   3   20.75    3.14
  -6  -6  -3   21.14    2.64
   6  -6  -3   16.78    1.91
  -7  -6   3    2.32    1.50
   7   6   3    2.95    2.24
  -8  -6   3    0.88    1.16
  -8  -6  -3    2.35    1.35
   0  -6  -4   25.51    3.30
   0  -6   4   32.20    3.80
   0  -6  -4   23.09    3.22
   0   6  -4   26.76    3.42
   0   6   4   36.89    3.65
  -1  -6  -4   16.36    2.70
   1  -6  -4   10.28    2.36
   1  -6   4   18.76    2.54
  -1   6  -4   17.68    2.50
  -1  -6   4   16.28    2.70
  -1   6   4   12.22    2.45
   1  -6  -4   15.08    2.21
  -1  -6  -4   13.57    2.34
  -2  -6  -4    2.07    1.68
   2  -6  -4    2.12    1.37
  -2   6  -4    2.67    1.63
  -2  -6   4    1.53    1.70
  -2   6   4    1.85    1.46
   2   6   4    3.11    1.50
   2  -6  -4    1.30    1.29
  -2  -6  -4    1.23    1.39
  -2  -6  -4    1.43    1.57
   3  -6  -4    0.62    1.39
  -3   6  -4   -0.89    1.44
  -3  -6   4   -2.58    1.88
  -3   6   4   -1.81    1.37
   3  -6  -4    2.99    1.21
  -3  -6  -4    0.75    1.26
   3   6   4    0.36    1.56
  -3  -6  -4    1.15    1.62
  -3  -6  -4    1.51    1.44
   4  -6  -4    1.93    1.36
  -4   6   4    2.15    1.22
  -4   6  -4    3.77    1.57
  -4  -6   4    1.84    1.86
   4  -6  -4    3.52    1.25
  -4  -6  -4    2.72    1.28
  -4   6   4    2.67    1.14
   4   6   4    3.81    1.83
  -4  -6  -4    2.42    1.69
  -4  -6  -4    2.59    1.16
   5  -6  -4    3.63    1.26
  -5   6   4    1.71    0.98
  -5  -6   4    2.37    1.66
   5  -6  -4    2.27    0.96
  -5  -6  -4   -0.08    0.59
   5   6   4    4.21    1.76
  -5  -6  -4    2.72    1.63
   6   6   4    3.51    1.72
  -6  -6  -4    2.34    1.46
  -7  -6   4    4.63    1.16
   0  -6  -5    0.23    1.06
   0   6   5    0.92    1.05
   0  -6  -5    0.09    0.98
  -1  -6  -5    7.89    1.70
  -1  -6   5   14.69    1.82
  -1   6   5   10.46    1.69
   1   6   5    8.45    1.66
   1  -6  -5    9.13    1.54
   2  -6  -5    1.42    1.15
  -2  -6   5    2.96    1.24
   2  -6  -5    0.74    0.93
  -2  -6  -5    2.50    0.98
  -2  -6  -5    1.74    1.01
   3  -6  -5    0.19    1.02
  -3   6   5    0.62    0.83
  -3  -6   5    1.92    1.10
   3  -6  -5    0.63    0.82
  -3  -6  -5    0.48    0.78
   3   6   5    1.61    1.16
  -4  -6   5   -0.64    0.96
   4   6   5    0.20    1.06
   0  -7   0    0.31    0.69
   0   7   0    1.30    1.30
   0  -7   0   -1.27    1.08
   1  -7   0    0.10    0.90
  -1  -7   0   -0.21    0.80
  -1   7   0    0.57    1.21
   1   7   0    2.37    1.29
   1  -7   0   -0.12    0.93
  -2   7   0    3.61    1.35
  -2  -7   0    2.41    1.11
   2  -7   0    2.73    0.97
  -3   7   0    0.25    1.06
   0   7  -1    0.50    1.02
   0   7   1   -0.27    1.08
   0  -7  -1    0.73    1.03
  -1   7  -1    1.42    1.16
  -1   7   1    1.06    1.21
   1   7   1   -0.54    1.21
   1  -7  -1    1.15    0.94
  -2  -7  -1   10.36    1.49
   2  -7  -1    7.15    1.28
  -3   7  -1    0.11    0.96
   0   7   2    8.26    1.74
   0  -7  -2   11.21    1.56
   0   0   0    0.00    0.00


TITL 032328_ZKKform1straignt2room_Rb in Pbcm
REM Pbcm (#57, found as Pcmb in a-cb setting)
CELL 1.54184   5.662959  15.520548   7.916274  90.0000  90.0000  90.0000
ZERR    3.00   0.000246   0.000945   0.000452   0.0000   0.0000   0.0000
LATT  1
SYMM -x,-y, z+1/2
SYMM -x, y+1/2,-z+1/2
SYMM  x,-y+1/2,-z
SFAC C H N O
UNIT 33.00 30.00 3.00 3.00
TREF
HKLF 4
END
_computing_structure_solution     'SHELXT 2014/5 (Sheldrick, 2014)'
;
_shelx_hkl_checksum              95443
_olex2_submission_special_instructions 'No special instructions were received'
_oxdiff_exptl_absorpt_empirical_details
;
Empirical correction (ABSPACK) includes:
- Absorption correction using spherical harmonics
- Frame scaling
;
_oxdiff_exptl_absorpt_empirical_full_max 7.009
_oxdiff_exptl_absorpt_empirical_full_min 0.293
loop_
_space_group_symop_operation_xyz
'x, y, z'
'-x, -y, z+1/2'
'x+1/2, -y, z'
'-x+1/2, y, z+1/2'
loop_
_atom_site_label
_atom_site_type_symbol
_atom_site_fract_x
_atom_site_fract_y
_atom_site_fract_z
_atom_site_U_iso_or_equiv
_atom_site_adp_type
_atom_site_occupancy
_atom_site_site_symmetry_order
_atom_site_calc_flag
_atom_site_refinement_flags_posn
_atom_site_refinement_flags_adp
_atom_site_refinement_flags_occupancy
_atom_site_disorder_assembly
_atom_site_disorder_group
O2 O 0.65391(16) 0.4989(4) 0.5799(3) 0.0545(6) Uani 1 1 d . . . . .
O1 O 0.78305(19) 0.4009(6) 0.6712(4) 0.0775(10) Uani 1 1 d . . . . .
C4 C 0.6299(2) 0.8553(6) 0.4215(4) 0.0453(8) Uani 1 1 d . . . . .
C5 C 0.5995(2) 0.6496(5) 0.4955(4) 0.0455(8) Uani 1 1 d . . . . .
C1 C 0.7410(3) 0.5444(6) 0.5932(5) 0.0554(9) Uani 1 1 d . . . . .
C3 C 0.7200(2) 0.9057(6) 0.4359(4) 0.0533(9) Uani 1 1 d . . . . .
H3 H 0.742221 1.042743 0.388146 0.064 Uiso 1 1 calc R . . . .
C2 C 0.7724(2) 0.7568(6) 0.5177(5) 0.0582(9) Uani 1 1 d . . . . .
H2 H 0.830778 0.792570 0.525524 0.070 Uiso 1 1 calc R . . . .
C6 C 0.5130(3) 0.5885(6) 0.4912(4) 0.0557(9) Uani 1 1 d . . . . .
H6 H 0.493669 0.451358 0.543576 0.067 Uiso 1 1 calc R . . . .
C9 C 0.5708(3) 0.9998(6) 0.3372(4) 0.0562(9) Uani 1 1 d . . . . .
H9 H 0.589554 1.138164 0.285681 0.067 Uiso 1 1 calc R . . . .
C7 C 0.4564(3) 0.7351(8) 0.4078(5) 0.0643(10) Uani 1 1 d . . . . .
H7 H 0.398146 0.696775 0.403617 0.077 Uiso 1 1 calc R . . . .
C8 C 0.4855(3) 0.9388(7) 0.3302(6) 0.0640(10) Uani 1 1 d . . . . .
H8 H 0.446780 1.035093 0.272695 0.077 Uiso 1 1 calc R . . . .
loop_
_atom_site_aniso_label
_atom_site_aniso_U_11
_atom_site_aniso_U_22
_atom_site_aniso_U_33
_atom_site_aniso_U_23
_atom_site_aniso_U_13
_atom_site_aniso_U_12
O2 0.0599(14) 0.0457(12) 0.0579(12) 0.0096(11) -0.0012(12) 0.0026(11)
O1 0.081(2) 0.0659(17) 0.086(2) 0.0089(17) -0.0176(19) 0.0207(15)
C4 0.056(2) 0.0409(16) 0.0390(14) -0.0025(13) 0.0020(15) 0.0009(14)
C5 0.055(2) 0.0422(17) 0.0396(15) -0.0015(13) 0.0004(15) 0.0036(14)
C1 0.060(2) 0.0545(17) 0.0521(18) -0.0007(19) -0.0045(18) 0.0082(18)
C3 0.061(2) 0.0477(17) 0.0513(18) -0.0025(16) 0.0003(17) -0.0099(16)
C2 0.056(2) 0.061(2) 0.0578(19) -0.0051(18) -0.0033(17) -0.0055(17)
C6 0.061(2) 0.0501(17) 0.0562(18) -0.0009(16) 0.0028(18) -0.0052(17)
C9 0.071(2) 0.0478(18) 0.0500(17) 0.0075(18) 0.004(2) 0.0065(17)
C7 0.056(2) 0.078(2) 0.0582(19) -0.003(2) -0.0015(18) 0.002(2)
C8 0.066(3) 0.069(2) 0.0571(19) 0.003(2) -0.004(2) 0.015(2)
loop_
_atom_type_symbol
_atom_type_description
_atom_type_scat_dispersion_real
_atom_type_scat_dispersion_imag
_atom_type_scat_source
C C 0.0181 0.0091 'International Tables Vol C Tables 4.2.6.8 and 6.1.1.4'
H H 0.0000 0.0000 'International Tables Vol C Tables 4.2.6.8 and 6.1.1.4'
O O 0.0492 0.0322 'International Tables Vol C Tables 4.2.6.8 and 6.1.1.4'
loop_
_geom_angle_atom_site_label_1
_geom_angle_atom_site_label_2
_geom_angle_atom_site_label_3
_geom_angle
_geom_angle_site_symmetry_1
_geom_angle_site_symmetry_3
_geom_angle_publ_flag
C5 O2 C1 121.5(3) . . ?
C5 C4 C3 117.7(3) . . ?
C5 C4 C9 118.1(3) . . ?
C9 C4 C3 124.2(3) . . ?
O2 C5 C4 121.3(3) . . ?
O2 C5 C6 116.8(3) . . ?
C4 C5 C6 121.9(3) . . ?
O2 C1 C2 117.4(3) . . ?
O1 C1 O2 116.2(3) . . ?
O1 C1 C2 126.4(4) . . ?
C4 C3 H3 119.8 . . ?
C2 C3 C4 120.5(3) . . ?
C2 C3 H3 119.8 . . ?
C1 C2 H2 119.2 . . ?
C3 C2 C1 121.6(3) . . ?
C3 C2 H2 119.2 . . ?
C5 C6 H6 120.7 . . ?
C7 C6 C5 118.6(3) . . ?
C7 C6 H6 120.7 . . ?
C4 C9 H9 119.8 . . ?
C8 C9 C4 120.4(3) . . ?
C8 C9 H9 119.8 . . ?
C6 C7 H7 119.8 . . ?
C6 C7 C8 120.5(4) . . ?
C8 C7 H7 119.8 . . ?
C9 C8 C7 120.5(4) . . ?
C9 C8 H8 119.7 . . ?
C7 C8 H8 119.7 . . ?
loop_
_geom_bond_atom_site_label_1
_geom_bond_atom_site_label_2
_geom_bond_distance
_geom_bond_site_symmetry_2
_geom_bond_publ_flag
O2 C5 1.374(4) . ?
O2 C1 1.380(5) . ?
O1 C1 1.211(4) . ?
C4 C5 1.387(4) . ?
C4 C3 1.432(5) . ?
C4 C9 1.398(4) . ?
C5 C6 1.387(5) . ?
C1 C2 1.429(5) . ?
C3 H3 0.9300 . ?
C3 C2 1.339(5) . ?
C2 H2 0.9300 . ?
C6 H6 0.9300 . ?
C6 C7 1.378(6) . ?
C9 H9 0.9300 . ?
C9 C8 1.370(5) . ?
C7 H7 0.9300 . ?
C7 C8 1.382(6) . ?
C8 H8 0.9300 . ?
