#------------------------------------------------------------------------------
#$Date: 2020-06-09 01:27:54 +0300 (Tue, 09 Jun 2020) $
#$Revision: 253011 $
#$URL: file:///home/coder/svn-repositories/cod/cif/4/00/35/4003571.cif $
#------------------------------------------------------------------------------
#
# This file is available in the Crystallography Open Database (COD),
# http://www.crystallography.net/
#
# All data on this site have been placed in the public domain by the
# contributors.
#
data_4003571
loop_
_publ_author_name
'Yamaguchi, Yuji'
'Kojiguchi, Yuka'
'Kawata, So'
'Mori, Tatsuya'
'Okamoto, Kazuo'
'Tsutsui, Masanori'
'Koganezawa, Tomoyuki'
'Katagiri, Hiroshi'
'Yasuda, Takuma'
_publ_section_title
;
 Solution-Processable Organic Semiconductors Featuring S-Shaped
 Dinaphthothienothiophene (S-DNTT): Effects of Alkyl Chain Length on
 Self-Organization and Carrier Transport Properties
;
_journal_name_full               'Chemistry of Materials'
_journal_paper_doi               10.1021/acs.chemmater.0c01740
_journal_year                    2020
_chemical_formula_moiety         'C15 H14 S'
_chemical_formula_sum            'C15 H14 S'
_chemical_formula_weight         226.32
_chemical_name_common            S-DNTT-4
_space_group_crystal_system      triclinic
_space_group_IT_number           2
_space_group_name_Hall           '-P 1'
_space_group_name_H-M_alt        'P -1'
_atom_sites_solution_hydrogens   geom
_atom_sites_solution_primary     dual
_audit_creation_date             2019-07-18
_audit_creation_method
;
Olex2 1.2
(compiled 2018.05.29 svn.r3508 for OlexSys, GUI svn.r5506)
;
_cell_angle_alpha                96.494(3)
_cell_angle_beta                 90.898(4)
_cell_angle_gamma                101.587(4)
_cell_formula_units_Z            2
_cell_length_a                   4.8135(2)
_cell_length_b                   7.9484(3)
_cell_length_c                   14.8781(6)
_cell_measurement_reflns_used    6358
_cell_measurement_temperature    123
_cell_measurement_theta_max      30.5470
_cell_measurement_theta_min      2.5840
_cell_volume                     553.62(4)
_computing_cell_refinement       'CrysAlisPro 1.171.39.46e (Rigaku OD, 2018)'
_computing_data_collection       'CrysAlisPro 1.171.39.46e (Rigaku OD, 2018)'
_computing_data_reduction        'CrysAlisPro 1.171.39.46e (Rigaku OD, 2018)'
_computing_molecular_graphics    'Olex2 (Dolomanov et al., 2009)'
_computing_publication_material  'Olex2 (Dolomanov et al., 2009)'
_computing_structure_refinement  'ShelXL (Sheldrick, 2015)'
_computing_structure_solution    'ShelXT (Sheldrick, 2015)'
_diffrn_ambient_temperature      123
_diffrn_detector                 'Rigaku HyPix-6000 area detector'
_diffrn_detector_area_resol_mean 10.0
_diffrn_detector_type            'HPC area detector'
_diffrn_measured_fraction_theta_full 1.000
_diffrn_measured_fraction_theta_max 1.000
_diffrn_measurement_details
;
List of Runs (angles in degrees, time in seconds):

  # Type    Start    End  Width  t~exp~   \w     \q     \k     \f   Frames
--------------------------------------------------------------------------
  1  \w    -84.00  94.00   0.50    5.00    --    5.00  45.00  60.00  356
  2  \w    -99.00  79.00   0.50    5.00    --  -10.30  45.00   0.00  356
  3  \w    -99.00  79.00   0.50    5.00    --  -10.30  45.00  90.00  356
  4  \w    -99.00  79.00   0.50    5.00    --  -10.30  45.00 150.00  356
  5  \w    -84.00 -59.00   0.50    5.00    --    5.00  45.00 120.00   50
;
_diffrn_measurement_device       'three-circle diffractometer'
_diffrn_measurement_device_type  'Rigaku AFC HyPix-6000'
_diffrn_measurement_method       '\w scans'
_diffrn_orient_matrix_type
'CrysAlisPro convention (1999,Acta A55,543-557)'
_diffrn_orient_matrix_UB_11      0.0002975000
_diffrn_orient_matrix_UB_12      0.0208789000
_diffrn_orient_matrix_UB_13      0.0476354000
_diffrn_orient_matrix_UB_21      -0.0552139000
_diffrn_orient_matrix_UB_22      -0.0881217000
_diffrn_orient_matrix_UB_23      0.0047215000
_diffrn_orient_matrix_UB_31      0.1400462000
_diffrn_orient_matrix_UB_32      -0.0146729000
_diffrn_orient_matrix_UB_33      0.0037963000
_diffrn_radiation_monochromator  'multi-layer mirror optics'
_diffrn_radiation_probe          x-ray
_diffrn_radiation_type           MoK\a
_diffrn_radiation_wavelength     0.71073
_diffrn_reflns_av_R_equivalents  0.0380
_diffrn_reflns_av_unetI/netI     0.0308
_diffrn_reflns_Laue_measured_fraction_full 1.000
_diffrn_reflns_Laue_measured_fraction_max 1.000
_diffrn_reflns_limit_h_max       6
_diffrn_reflns_limit_h_min       -6
_diffrn_reflns_limit_k_max       10
_diffrn_reflns_limit_k_min       -10
_diffrn_reflns_limit_l_max       19
_diffrn_reflns_limit_l_min       -19
_diffrn_reflns_number            12732
_diffrn_reflns_point_group_measured_fraction_full 1.000
_diffrn_reflns_point_group_measured_fraction_max 1.000
_diffrn_reflns_theta_full        25.242
_diffrn_reflns_theta_max         27.466
_diffrn_reflns_theta_min         2.634
_diffrn_source                   'rotating anode X-ray generator'
_diffrn_source_type              FR-E+
_exptl_absorpt_coefficient_mu    0.258
_exptl_absorpt_correction_T_max  1.00000
_exptl_absorpt_correction_T_min  0.87921
_exptl_absorpt_correction_type   multi-scan
_exptl_absorpt_process_details
;
CrysAlisPro 1.171.39.46e (Rigaku Oxford Diffraction, 2018)
Empirical absorption correction using spherical harmonics,
 implemented in SCALE3 ABSPACK scaling algorithm.
;
_exptl_crystal_colour            yellow
_exptl_crystal_colour_primary    yellow
_exptl_crystal_density_diffrn    1.358
_exptl_crystal_description       prism
_exptl_crystal_F_000             240
_exptl_crystal_size_max          0.2
_exptl_crystal_size_mid          0.03
_exptl_crystal_size_min          0.02
_refine_diff_density_max         0.343
_refine_diff_density_min         -0.269
_refine_diff_density_rms         0.053
_refine_ls_extinction_method     none
_refine_ls_goodness_of_fit_ref   1.038
_refine_ls_hydrogen_treatment    constr
_refine_ls_matrix_type           full
_refine_ls_number_parameters     146
_refine_ls_number_reflns         2539
_refine_ls_number_restraints     0
_refine_ls_restrained_S_all      1.038
_refine_ls_R_factor_all          0.0377
_refine_ls_R_factor_gt           0.0313
_refine_ls_shift/su_max          0.001
_refine_ls_shift/su_mean         0.000
_refine_ls_structure_factor_coef Fsqd
_refine_ls_weighting_details
'w=1/[\s^2^(Fo^2^)+(0.0406P)^2^+0.2355P] where P=(Fo^2^+2Fc^2^)/3'
_refine_ls_weighting_scheme      calc
_refine_ls_wR_factor_gt          0.0805
_refine_ls_wR_factor_ref         0.0838
_reflns_Friedel_coverage         0.000
_reflns_number_gt                2252
_reflns_number_total             2539
_reflns_threshold_expression     'I > 2\s(I)'
_iucr_refine_instructions_details
;
TITL yasuda1907c_a.res in P-1
    yasuda1907c.res
    created by SHELXL-2018/3 at 08:54:19 on 18-Jul-2019
REM Old TITL yasuda1907c in P-1
REM SHELXT solution in P-1: R1 0.079, Rweak 0.005, Alpha 0.026
REM <I/s> 0.000 for 0 systematic absences, Orientation as input
REM Formula found by SHELXT: C14 S
CELL 0.71073 4.8135 7.9484 14.8781 96.494 90.898 101.587
ZERR 2 0.0002 0.0003 0.0006 0.003 0.004 0.004
LATT 1
SFAC C H S
UNIT 30 28 2

L.S. 4
PLAN  5
SIZE 0.02 0.03 0.2
TEMP -150.15
BOND
LIST 4
fmap 2
acta
REM <olex2.extras>
REM <HklSrc "%.\\yasuda1907c.hkl">
REM </olex2.extras>

WGHT    0.040600    0.235500
FVAR       1.63181
S1    3    0.977446    0.211461    0.431293    11.00000    0.01559    0.01261 =
         0.01318    0.00284    0.00169    0.00561
C2    1    0.784505    0.058772    0.593601    11.00000    0.01126    0.01199 =
         0.01168   -0.00019   -0.00199    0.00151
C6    1    0.497490    0.131071    0.721506    11.00000    0.01160    0.01283 =
         0.01383    0.00039   -0.00083    0.00084
C7    1    0.619916    0.172897    0.638386    11.00000    0.01044    0.01215 =
         0.01266   -0.00081   -0.00210    0.00087
C5    1    0.542721   -0.019684    0.758262    11.00000    0.01506    0.01554 =
         0.01316    0.00293    0.00159    0.00122
AFIX  43
H5    2    0.461641   -0.045760    0.814117    11.00000   -1.20000
AFIX   0
C3    1    0.818456   -0.087876    0.632407    11.00000    0.01174    0.01274 =
         0.01360   -0.00015   -0.00066    0.00283
C8    1    0.573614    0.323628    0.604408    11.00000    0.01519    0.01526 =
         0.01249    0.00178   -0.00027    0.00275
AFIX  43
H8    2    0.653817    0.353725    0.549032    11.00000   -1.20000
AFIX   0
C1    1    0.931182    0.067512    0.511131    11.00000    0.01219    0.01095 =
         0.01308    0.00058   -0.00177    0.00210
C10   1    0.290501    0.388569    0.732789    11.00000    0.01048    0.01542 =
         0.01552   -0.00259   -0.00203    0.00241
C11   1    0.333645    0.241070    0.766419    11.00000    0.01275    0.01582 =
         0.01456    0.00061    0.00199    0.00201
AFIX  43
H11   2    0.250526    0.212359    0.821613    11.00000   -1.20000
AFIX   0
C13   1    0.256040    0.587658    0.875559    11.00000    0.01443    0.01632 =
         0.01591    0.00103    0.00079    0.00388
AFIX  23
H13A  2    0.446453    0.657059    0.866502    11.00000   -1.20000
H13B  2    0.281798    0.494228    0.911640    11.00000   -1.20000
AFIX   0
C12   1    0.120139    0.506558    0.783613    11.00000    0.01353    0.01820 =
         0.01596    0.00001    0.00116    0.00663
AFIX  23
H12A  2   -0.072292    0.439453    0.792309    11.00000   -1.20000
H12B  2    0.099706    0.599687    0.746627    11.00000   -1.20000
AFIX   0
C9    1    0.413492    0.428001    0.650446    11.00000    0.01560    0.01360 =
         0.01526    0.00093   -0.00213    0.00447
AFIX  43
H9    2    0.385289    0.529023    0.626094    11.00000   -1.20000
AFIX   0
C4    1    0.699365   -0.127555    0.715369    11.00000    0.01574    0.01357 =
         0.01535    0.00363   -0.00116    0.00268
AFIX  43
H4    2    0.727649   -0.227409    0.740884    11.00000   -1.20000
AFIX   0
C14   1    0.083873    0.703147    0.929106    11.00000    0.02034    0.01871 =
         0.01720   -0.00010    0.00350    0.00534
AFIX  23
H14A  2    0.054414    0.795468    0.892763    11.00000   -1.20000
H14B  2   -0.104887    0.633448    0.939809    11.00000   -1.20000
AFIX   0
C15   1    0.227948    0.785566    1.019594    11.00000    0.03155    0.02319 =
         0.01939   -0.00287    0.00324    0.00201
AFIX 137
H15A  2    0.418854    0.849918    1.009667    11.00000   -1.50000
H15B  2    0.241399    0.695113    1.058120    11.00000   -1.50000
H15C  2    0.116462    0.864795    1.049325    11.00000   -1.50000
AFIX   0
HKLF 4




REM  yasuda1907c_a.res in P-1
REM wR2 = 0.0838, GooF = S = 1.038, Restrained GooF = 1.038 for all data
REM R1 = 0.0313 for 2252 Fo > 4sig(Fo) and 0.0377 for all 2539 data
REM 146 parameters refined using 0 restraints

END  
     
WGHT      0.0397      0.2359 

REM Highest difference peak  0.343,  deepest hole -0.269,  1-sigma level  0.053
Q1    1   0.7169  0.1271  0.6171  11.00000  0.05    0.34
Q2    1   0.3148  0.3968  0.6870  11.00000  0.05    0.29
Q3    1   0.2196  0.4515  0.7610  11.00000  0.05    0.29
Q4    1   0.1538  0.7353  0.9751  11.00000  0.05    0.27
Q5    1   0.5370  0.0605  0.7396  11.00000  0.05    0.26

  REM The information below was added by Olex2.
  REM
  REM R1 = 0.0313 for 2252 Fo > 4sig(Fo) and 0.0377 for all 12732 data
  REM n/a parameters refined using n/a restraints
  REM Highest difference peak 0.34, deepest hole -0.27
  REM Mean Shift 0, Max Shift -0.001.

  REM +++ Tabular Listing of Refinement Information +++
  REM R1_all = 0.0377
  REM R1_gt = 0.0313
  REM wR_ref = 0.0838
  REM GOOF = 1.038
  REM Shift_max = -0.001
  REM Shift_mean = 0
  REM Reflections_all = 12732
  REM Reflections_gt = 2252
  REM Parameters = n/a
  REM Hole = -0.27
  REM Peak = 0.34
  REM Flack = n/a

  
;
_cod_data_source_file            cm0c01740_si_002.cif
_cod_data_source_block           S-DNTT-4
_cod_database_code               4003571
_shelx_shelxl_version_number     2018/3
_chemical_oxdiff_formula         'C H S'
_shelx_space_group_comment
;
The symmetry employed for this shelxl refinement is uniquely defined
by the following loop, which should always be used as a source of
symmetry information in preference to the above space-group names.
They are only intended as comments.
;
_shelx_estimated_absorpt_t_max   0.995
_shelx_estimated_absorpt_t_min   0.950
_reflns_odcompleteness_completeness 99.96
_reflns_odcompleteness_iscentric 1
_reflns_odcompleteness_theta     27.42
_olex2_refinement_description
;
1. Fixed Uiso
 At 1.2 times of:
  All C(H) groups, All C(H,H) groups
 At 1.5 times of:
  All C(H,H,H) groups
2.a Secondary CH2 refined with riding coordinates:
 C13(H13A,H13B), C12(H12A,H12B), C14(H14A,H14B)
2.b Aromatic/amide H refined with riding coordinates:
 C5(H5), C8(H8), C11(H11), C9(H9), C4(H4)
2.c Idealised Me refined as rotating group:
 C15(H15A,H15B,H15C)
;
_olex2_submission_special_instructions 'No special instructions were received'
_oxdiff_exptl_absorpt_empirical_details
;
Empirical correction (ABSPACK) includes:
- Absorption correction using spherical harmonics
- Frame scaling
;
_oxdiff_exptl_absorpt_empirical_full_max 1.278
_oxdiff_exptl_absorpt_empirical_full_min 0.844
loop_
_space_group_symop_operation_xyz
'x, y, z'
'-x, -y, -z'
loop_
_atom_site_label
_atom_site_type_symbol
_atom_site_fract_x
_atom_site_fract_y
_atom_site_fract_z
_atom_site_U_iso_or_equiv
_atom_site_adp_type
_atom_site_occupancy
_atom_site_site_symmetry_order
_atom_site_calc_flag
_atom_site_refinement_flags_posn
_atom_site_refinement_flags_adp
_atom_site_refinement_flags_occupancy
_atom_site_disorder_assembly
_atom_site_disorder_group
S1 S 0.97745(7) 0.21146(4) 0.43129(2) 0.01329(11) Uani 1 1 d . . . . .
C2 C 0.7845(3) 0.05877(16) 0.59360(8) 0.0119(2) Uani 1 1 d . . . . .
C6 C 0.4975(3) 0.13107(16) 0.72151(8) 0.0131(3) Uani 1 1 d . . . . .
C7 C 0.6199(3) 0.17290(16) 0.63839(8) 0.0122(2) Uani 1 1 d . . . . .
C5 C 0.5427(3) -0.01968(16) 0.75826(9) 0.0147(3) Uani 1 1 d . . . . .
H5 H 0.461641 -0.045760 0.814117 0.018 Uiso 1 1 calc R . . . .
C3 C 0.8185(3) -0.08788(16) 0.63241(8) 0.0128(3) Uani 1 1 d . . . . .
C8 C 0.5736(3) 0.32363(16) 0.60441(9) 0.0144(3) Uani 1 1 d . . . . .
H8 H 0.653817 0.353725 0.549032 0.017 Uiso 1 1 calc R . . . .
C1 C 0.9312(3) 0.06751(15) 0.51113(8) 0.0122(2) Uani 1 1 d . . . . .
C10 C 0.2905(3) 0.38857(16) 0.73279(9) 0.0142(3) Uani 1 1 d . . . . .
C11 C 0.3336(3) 0.24107(17) 0.76642(9) 0.0146(3) Uani 1 1 d . . . . .
H11 H 0.250526 0.212359 0.821613 0.017 Uiso 1 1 calc R . . . .
C13 C 0.2560(3) 0.58766(17) 0.87556(9) 0.0155(3) Uani 1 1 d . . . . .
H13A H 0.446453 0.657059 0.866502 0.019 Uiso 1 1 calc R . . . .
H13B H 0.281798 0.494228 0.911640 0.019 Uiso 1 1 calc R . . . .
C12 C 0.1201(3) 0.50656(17) 0.78361(9) 0.0156(3) Uani 1 1 d . . . . .
H12A H -0.072292 0.439453 0.792309 0.019 Uiso 1 1 calc R . . . .
H12B H 0.099706 0.599687 0.746627 0.019 Uiso 1 1 calc R . . . .
C9 C 0.4135(3) 0.42800(16) 0.65045(9) 0.0147(3) Uani 1 1 d . . . . .
H9 H 0.385289 0.529023 0.626094 0.018 Uiso 1 1 calc R . . . .
C4 C 0.6994(3) -0.12755(16) 0.71537(9) 0.0148(3) Uani 1 1 d . . . . .
H4 H 0.727649 -0.227409 0.740884 0.018 Uiso 1 1 calc R . . . .
C14 C 0.0839(3) 0.70315(18) 0.92911(9) 0.0187(3) Uani 1 1 d . . . . .
H14A H 0.054414 0.795468 0.892763 0.022 Uiso 1 1 calc R . . . .
H14B H -0.104887 0.633448 0.939809 0.022 Uiso 1 1 calc R . . . .
C15 C 0.2279(3) 0.78557(19) 1.01959(10) 0.0256(3) Uani 1 1 d . . . . .
H15A H 0.418854 0.849918 1.009667 0.038 Uiso 1 1 calc GR . . . .
H15B H 0.241399 0.695113 1.058120 0.038 Uiso 1 1 calc GR . . . .
H15C H 0.116462 0.864795 1.049325 0.038 Uiso 1 1 calc GR . . . .
loop_
_atom_site_aniso_label
_atom_site_aniso_U_11
_atom_site_aniso_U_22
_atom_site_aniso_U_33
_atom_site_aniso_U_23
_atom_site_aniso_U_13
_atom_site_aniso_U_12
S1 0.01559(17) 0.01261(16) 0.01318(16) 0.00284(11) 0.00169(11) 0.00561(12)
C2 0.0113(6) 0.0120(6) 0.0117(6) -0.0002(4) -0.0020(5) 0.0015(5)
C6 0.0116(6) 0.0128(6) 0.0138(6) 0.0004(5) -0.0008(5) 0.0008(5)
C7 0.0104(6) 0.0121(6) 0.0127(6) -0.0008(5) -0.0021(5) 0.0009(5)
C5 0.0151(6) 0.0155(6) 0.0132(6) 0.0029(5) 0.0016(5) 0.0012(5)
C3 0.0117(6) 0.0127(6) 0.0136(6) -0.0001(5) -0.0007(5) 0.0028(5)
C8 0.0152(6) 0.0153(6) 0.0125(6) 0.0018(5) -0.0003(5) 0.0027(5)
C1 0.0122(5) 0.0109(6) 0.0131(6) 0.0006(4) -0.0018(5) 0.0021(5)
C10 0.0105(6) 0.0154(6) 0.0155(6) -0.0026(5) -0.0020(5) 0.0024(5)
C11 0.0128(6) 0.0158(6) 0.0146(6) 0.0006(5) 0.0020(5) 0.0020(5)
C13 0.0144(6) 0.0163(6) 0.0159(6) 0.0010(5) 0.0008(5) 0.0039(5)
C12 0.0135(6) 0.0182(6) 0.0160(6) 0.0000(5) 0.0012(5) 0.0066(5)
C9 0.0156(6) 0.0136(6) 0.0153(6) 0.0009(5) -0.0021(5) 0.0045(5)
C4 0.0157(6) 0.0136(6) 0.0154(6) 0.0036(5) -0.0012(5) 0.0027(5)
C14 0.0203(7) 0.0187(7) 0.0172(6) -0.0001(5) 0.0035(5) 0.0053(5)
C15 0.0315(8) 0.0232(7) 0.0194(7) -0.0029(6) 0.0032(6) 0.0020(6)
loop_
_atom_type_symbol
_atom_type_description
_atom_type_scat_dispersion_real
_atom_type_scat_dispersion_imag
_atom_type_scat_source
C C 0.0033 0.0016 'International Tables Vol C Tables 4.2.6.8 and 6.1.1.4'
H H 0.0000 0.0000 'International Tables Vol C Tables 4.2.6.8 and 6.1.1.4'
S S 0.1246 0.1234 'International Tables Vol C Tables 4.2.6.8 and 6.1.1.4'
loop_
_geom_angle_atom_site_label_1
_geom_angle_atom_site_label_2
_geom_angle_atom_site_label_3
_geom_angle
_geom_angle_site_symmetry_1
_geom_angle_site_symmetry_3
_geom_angle_publ_flag
C1 S1 C3 90.97(6) . 2_756 ?
C3 C2 C7 119.40(11) . . ?
C3 C2 C1 110.00(11) . . ?
C1 C2 C7 130.59(11) . . ?
C7 C6 C5 119.81(11) . . ?
C11 C6 C7 119.05(11) . . ?
C11 C6 C5 121.14(12) . . ?
C6 C7 C2 118.13(11) . . ?
C8 C7 C2 123.48(11) . . ?
C8 C7 C6 118.39(11) . . ?
C4 C5 C6 121.76(12) . . ?
C2 C3 S1 113.11(9) . 2_756 ?
C2 C3 C4 122.20(11) . . ?
C4 C3 S1 124.69(10) . 2_756 ?
C9 C8 C7 120.81(12) . . ?
C2 C1 S1 134.08(10) . . ?
C1 C1 S1 111.59(13) 2_756 . ?
C1 C1 C2 114.32(14) 2_756 . ?
C11 C10 C12 120.97(12) . . ?
C11 C10 C9 118.05(11) . . ?
C9 C10 C12 120.97(11) . . ?
C10 C11 C6 122.11(12) . . ?
C12 C13 C14 113.77(11) . . ?
C10 C12 C13 112.85(10) . . ?
C8 C9 C10 121.58(12) . . ?
C5 C4 C3 118.69(12) . . ?
C15 C14 C13 112.59(12) . . ?
loop_
_geom_bond_atom_site_label_1
_geom_bond_atom_site_label_2
_geom_bond_distance
_geom_bond_site_symmetry_2
_geom_bond_publ_flag
S1 C3 1.7420(12) 2_756 ?
S1 C1 1.7271(13) . ?
C2 C7 1.4363(17) . ?
C2 C3 1.3945(17) . ?
C2 C1 1.4267(17) . ?
C6 C7 1.4228(17) . ?
C6 C5 1.4253(18) . ?
C6 C11 1.4122(17) . ?
C7 C8 1.4076(17) . ?
C5 C4 1.3645(18) . ?
C3 C4 1.4104(17) . ?
C8 C9 1.3771(18) . ?
C1 C1 1.383(2) 2_756 ?
C10 C11 1.3767(18) . ?
C10 C12 1.5138(17) . ?
C10 C9 1.4088(18) . ?
C13 C12 1.5225(18) . ?
C13 C14 1.5248(17) . ?
C14 C15 1.5203(19) . ?
loop_
_refln_index_h
_refln_index_k
_refln_index_l
_refln_F_squared_meas
_refln_F_squared_sigma
_refln_scale_group_code
0 0 -2 407.081 17.4946 1
0 0 2 413.636 17.4992 3
0 0 -2 442.199 17.6093 3
0 0 3 1128.29 43.9163 1
0 0 -3 1123.02 43.7995 3
0 0 -3 1090.46 43.6613 4
0 0 3 1095.17 43.7527 3
0 0 -3 1007.7 43.5576 1
0 0 4 123.301 8.05654 1
0 0 4 124.55 7.86767 4
0 0 -4 130.16 7.70245 4
0 0 -4 132.719 7.84513 1
0 0 -4 141.11 8.15578 3
0 0 4 128.914 7.95812 3
0 0 -5 871.462 41.3371 4
0 0 -5 993.67 41.8537 1
0 0 5 1010.33 41.6726 4
0 0 5 1062.55 42.1284 1
0 0 -5 1079.72 41.9258 3
0 0 5 1021.55 41.9605 3
0 0 -6 4360.5 174.689 1
0 0 -6 4505.99 174.816 4
0 0 -6 4384.51 174.454 3
0 0 6 4575.49 174.912 1
0 0 6 4526.83 174.508 4
0 0 6 4360.4 174.675 3
0 0 7 47.0428 6.39514 4
0 0 7 69.8497 7.11132 3
0 0 -7 74.4037 7.38874 3
0 0 7 73.7915 7.42221 1
0 0 -7 64.2292 6.57411 4
0 0 7 71.5117 7.63603 2
0 0 -7 61.6758 6.79505 1
0 0 8 585.836 28.2751 1
0 0 -8 614.7 27.9517 3
0 0 8 640.596 28.5728 3
0 0 8 599.975 29.0267 2
0 0 8 601.576 27.8767 4
0 0 -8 530.869 27.6912 4
0 0 -8 584.701 27.9983 1
0 0 9 1.95883 4.92872 4
0 0 -9 0.65229 5.16943 3
0 0 -9 4.26874 4.92474 1
0 0 9 -1.72001 4.59036 2
0 0 -9 -0.75532 4.38279 4
0 0 -9 0.75771 5.58809 2
0 0 9 -3.6263 5.50563 1
0 0 -10 138.607 11.3524 4
0 0 10 116.172 11.3591 2
0 0 -10 121.649 11.2917 2
0 0 -10 131.186 10.7911 1
0 0 10 117.178 10.1749 4
0 0 10 115.186 10.8052 1
0 0 -10 122.787 10.6002 3
0 0 -11 10.4227 6.10895 1
0 0 -11 12.8549 7.40179 2
0 0 -11 14.0863 6.40621 3
0 0 11 19.5039 7.46099 1
0 0 -11 18.1544 6.2619 4
0 0 11 1.07662 6.14182 2
0 0 11 9.51901 6.20443 4
0 0 -11 10.663 4.97354 3
0 0 12 33.3857 8.56726 2
0 0 -12 20.3063 7.50281 3
0 0 -12 36.1629 8.48029 4
0 0 -12 37.927 8.74167 2
0 0 12 31.8759 7.7295 4
0 0 -12 42.0172 7.14071 3
0 0 -12 30.2532 7.52168 1
0 0 12 32.8295 7.94803 1
0 0 -13 489.266 26.8997 1
0 0 -13 470.89 27.6507 4
0 0 -13 461.856 25.9883 3
0 0 13 450.141 28.5017 2
0 0 -13 484.696 25.4059 3
0 0 13 512.441 26.4664 4
0 0 13 500.069 27.1538 1
0 0 -14 1193.37 54.0622 3
0 0 14 1147.82 57.4708 2
0 0 -14 1208.26 55.3452 1
0 0 -14 1270.07 57.0351 4
0 0 14 1122.83 54.6616 1
0 0 -14 1219.88 53.811 3
0 0 -15 247.232 18.0916 3
0 0 15 230.611 19.7991 2
0 0 -15 263.536 19.9531 4
0 0 -15 216.664 17.8924 1
0 0 -15 249.016 16.848 3
0 0 15 207.392 18.132 1
0 0 16 39.8849 11.5065 2
0 0 -16 31.1387 10.5583 4
0 0 -16 32.2918 8.85654 3
0 0 -16 39.9044 10.2745 1
0 0 -16 36.3478 10.4124 3
0 0 17 1.78206 11.2977 2
0 0 -17 3.16718 9.5435 4
0 0 -17 15.4667 8.67315 3
0 0 -17 17.0709 9.80649 1
0 0 -18 2.76529 10.2577 1
0 0 -18 5.05608 11.0178 4
0 0 -18 2.33269 8.60211 3
0 0 18 -1.90775 12.4716 2
0 0 -19 20.7789 9.74037 3
0 0 -19 50.0009 13.969 4
0 0 -19 27.4707 11.5624 1
0 0 19 16.1996 12.7671 2
0 1 -19 127.67 16.7414 5
0 1 -19 150.024 18.1244 4
0 1 -19 191.096 18.8283 1
0 1 -19 152.148 16.1871 3
0 -1 19 120.71 18.8018 2
0 1 -18 453.016 29.4861 4
0 1 -18 403.764 26.2309 3
0 1 -18 456.698 28.8683 1
0 1 -18 445.882 28.6591 5
0 -1 18 434.143 30.7127 2
0 1 -17 533.124 32.1064 4
0 1 -17 552.68 29.6074 3
0 -1 17 500.745 32.989 2
0 1 -17 541.535 31.1198 5
0 1 -17 449.842 30.0612 1
0 -1 16 4.77462 10.0205 2
0 1 -16 12.9227 9.37807 1
0 1 -16 33.9836 10.081 4
0 1 -16 13.0768 8.29435 3
0 1 -15 571.44 30.1096 4
0 1 -15 490.058 28.6417 1
0 -1 15 460.678 28.4908 1
0 1 -15 507.114 27.9402 3
0 -1 15 441.861 29.4895 2
0 1 -14 43.3544 9.73826 3
0 -1 14 48.7181 10.9737 1
0 -1 14 62.2641 11.4288 2
0 1 -14 53.5494 10.2247 1
0 -1 14 42.6892 9.54397 3
0 1 -14 53.5823 9.72451 4
0 -1 13 913.845 42.5228 1
0 -1 13 869.849 42.2862 3
0 -1 13 833.505 43.1993 2
0 1 -13 827.647 40.8417 3
0 1 -13 866.442 42.0076 4
0 1 -13 850.115 41.7215 1
0 1 -13 880.314 41.7239 2
0 -1 13 865.674 40.5156 4
0 -1 12 521.59 30.319 2
0 -1 12 604.857 28.9355 4
0 1 -12 553.902 29.4989 2
0 1 -12 502.9 28.9637 1
0 -1 12 575.164 30.3074 3
0 -1 12 614.827 30.4105 1
0 1 -12 611.228 30.1982 4
0 1 -12 561.689 29.0146 3
0 1 -11 673.45 33.1993 2
0 1 -11 609.826 32.8795 1
0 -1 11 711.312 32.404 4
0 -1 11 672.678 34.1525 2
0 1 -11 669.912 33.1034 4
0 -1 11 707.417 33.8789 1
0 1 -11 686.606 32.9747 3
0 -1 11 680.357 33.8378 3
0 1 -10 498.6 26.4297 4
0 -1 10 552.356 26.2871 4
0 1 -10 548.475 27.2162 2
0 -1 10 538.365 28.0272 2
0 1 -10 553.075 26.8101 3
0 1 -10 528.36 27.3877 1
0 -1 10 511.535 27.2213 3
0 -1 10 523.662 27.3705 1
0 -1 9 3218.54 127.848 4
0 1 -9 3282.89 128.79 2
0 1 -9 3190.15 128.418 4
0 1 -9 3094.63 128.853 1
0 -1 9 3304.12 129.492 3
0 1 -9 3211.66 128.381 3
0 -1 9 3008.66 129.251 2
0 -1 9 3244.71 129.255 1
0 1 -8 20.3558 5.80727 3
0 -1 8 24.4548 5.71902 3
0 -1 8 17.0837 5.00703 2
0 1 -8 12.1952 5.0133 1
0 1 -8 19.4306 4.73581 4
0 1 -8 18.5454 5.67805 2
0 -1 8 17.0157 4.92588 4
0 -1 8 14.4999 5.86691 1
0 -1 7 529.658 24.4409 1
0 1 -7 499.471 23.8372 3
0 1 -7 469.304 23.1698 4
0 -1 7 427.72 23.524 2
0 1 -7 490.262 23.9076 1
0 -1 7 502.873 23.1597 4
0 1 -7 522.457 24.041 2
0 -1 7 531.808 24.4172 3
0 1 -6 2094.44 89.4971 1
0 1 -6 2189.96 89.5434 2
0 1 -6 2251.76 89.593 3
0 -1 6 2311.26 90.0579 1
0 -1 6 2307.11 90.0214 3
0 1 -6 2147.04 89.0615 4
0 -1 6 2218.74 89.852 2
0 -1 6 2298.39 89.0378 4
0 1 -5 533.755 25.2296 1
0 1 -5 557.108 24.8821 4
0 1 -5 581.126 25.4584 3
0 -1 5 570.393 24.7072 4
0 -1 5 563.117 25.4032 3
0 1 -5 586.896 25.2281 2
0 -1 5 562.106 25.4716 1
0 -1 5 555.465 25.187 2
0 -1 4 9.92449 3.26017 2
0 1 -4 10.7282 3.95948 2
0 1 -4 9.18754 3.6292 1
0 -1 4 9.49149 3.42998 4
0 -1 4 11.923 3.65445 3
0 1 -4 9.40746 2.91364 4
0 1 -4 10.2005 4.19585 3
0 1 -4 8.28111 3.41185 5
0 -1 3 3963.17 154.748 2
0 1 -3 3959.91 155.236 5
0 -1 3 4074.19 154.843 4
0 1 -3 4094.34 154.873 2
0 -1 3 3864.55 155.202 3
0 1 -3 3877.43 154.73 4
0 1 -3 4034.81 155.19 3
0 1 -2 1098.24 47.3133 5
0 1 -2 1311 47.6635 4
0 1 -2 1268.5 47.1534 4
0 1 -2 1093.97 47.396 3
0 -1 2 985.17 47.0983 5
0 1 -2 1220.16 46.9392 2
0 -1 2 1329.18 47.0884 2
0 1 -1 4741.24 197.01 4
0 -1 1 5277.69 196.497 2
0 1 -1 5159.72 196.503 2
0 1 0 847.29 19.5894 2
0 -1 0 942.044 19.7248 1
0 -1 -1 1414.2 55.5266 1
0 -1 -1 1389.28 55.8135 3
0 1 1 1409.35 55.9903 2
0 1 1 1460.96 55.508 1
0 -1 -1 1401.47 55.9663 2
0 1 2 3.2302 1.81149 1
0 1 2 2.77934 2.39474 3
0 -1 -2 2.47032 2.28302 3
0 1 2 4.68441 2.75036 2
0 -1 -2 5.9835 2.13934 1
0 -1 -2 4.43351 3.24794 2
0 -1 -3 1294.67 54.785 2
0 -1 -3 1414.72 53.8416 1
0 1 3 1354.18 54.0074 3
0 -1 -3 1301.47 54.0118 1
0 -1 -3 1381.45 54.0372 3
0 -1 -4 2078.5 85.2883 1
0 1 4 2174.61 84.9658 3
0 1 4 2146.08 85.3802 1
0 -1 -4 2012.78 86.1397 2
0 -1 -4 2318.93 85.2606 3
0 -1 -5 124.779 8.48949 4
0 -1 -5 122.748 7.44397 3
0 1 5 122.811 8.06624 1
0 -1 -5 77.0692 8.77297 2
0 -1 -5 115.488 7.90341 1
0 1 6 1577.26 62.8912 1
0 -1 -6 1388.83 63.5225 2
0 1 6 1523.07 63.104 4
0 -1 -6 1640.28 62.4883 3
0 -1 -6 1551.42 62.797 1
0 -1 -6 1337 63.2367 4
0 -1 -6 1667.77 63.2252 3
0 -1 -7 99.3591 8.35343 3
0 -1 -7 79.6296 7.43682 1
0 -1 -7 80.2852 8.00779 4
0 1 7 69.9889 7.3227 4
0 1 7 84.2759 7.56775 1
0 -1 -7 71.6807 6.4883 3
0 -1 -8 54.6881 7.05727 4
0 -1 -8 53.0356 6.75806 1
0 -1 -8 42.0371 5.60277 3
0 -1 -8 45.6796 6.7525 3
0 1 8 50.7119 6.90295 1
0 1 8 43.1046 6.52756 4
0 1 9 240.156 15.2863 4
0 -1 -9 282.037 14.8533 3
0 1 9 255.733 15.4925 1
0 -1 -9 239.673 16.0954 4
0 -1 -9 250.659 15.2284 1
0 -1 -9 240.743 15.2343 3
0 -1 -10 149.816 10.6264 3
0 -1 -10 158.743 12.7201 4
0 1 10 141.438 11.6356 4
0 -1 -10 132.469 11.214 1
0 -1 -10 145.376 11.6324 3
0 1 10 145.639 11.7388 1
0 -1 -11 914.423 42.3859 1
0 -1 -11 892.768 41.892 3
0 1 11 971.354 42.7866 1
0 1 11 878.663 41.9002 4
0 -1 -11 933.591 43.9949 4
0 -1 -11 934.544 41.403 3
0 -1 -12 17.7918 6.09312 3
0 -1 -12 20.3425 6.92299 1
0 1 12 19.8142 7.37672 4
0 1 12 15.8244 7.51146 1
0 -1 -12 17.2305 7.69869 4
0 -1 -12 -0.85816 7.03085 3
0 1 13 611.803 30.7177 1
0 -1 -13 545.075 28.5407 3
0 -1 -13 597.755 30.4081 1
0 -1 -13 517.823 28.9767 3
0 -1 -13 595.879 32.2087 4
0 -1 -14 -0.90281 6.33318 3
0 1 14 -4.32991 8.21737 1
0 -1 -14 -1.351 8.06221 4
0 -1 -14 0.97087 8.1936 3
0 -1 -14 5.35885 7.61672 1
0 -1 -15 171.264 15.3789 3
0 -1 -15 187.67 16.9627 4
0 1 15 176.773 15.9435 1
0 -1 -15 176.062 15.8577 1
0 -1 -15 149.51 13.6974 3
0 -1 -16 193.731 15.3022 3
0 -1 -16 172.796 17.6514 4
0 1 16 167.934 16.8169 1
0 -1 -16 182.069 16.6794 1
0 -1 -16 168.127 16.1937 3
0 -1 -17 231.271 17.7776 3
0 -1 -17 249.003 21.548 4
0 -1 -17 190.764 18.4183 1
0 -1 -18 100.654 15.3607 4
0 -1 -18 61.5738 11.4329 3
0 -1 -18 77.6564 13.2705 1
0 1 18 59.672 15.272 2
0 2 -19 -3.12455 10.8881 1
0 -2 19 11.2182 12.2236 2
0 2 -19 -10.4974 11.8858 5
0 2 -19 -1.67197 11.0955 4
0 2 -19 -9.2799 9.54263 3
0 2 -18 134.009 16.0293 5
0 -2 18 77.3869 14.9864 2
0 2 -18 110.322 15.1809 4
0 2 -18 103.391 14.9727 1
0 2 -17 27.5497 10.4531 5
0 -2 17 29.6886 11.3825 3
0 2 -17 23.1285 10.2631 4
0 2 -17 28.557 10.647 1
0 -2 17 32.8856 12.3168 2
0 -2 16 252.791 20.1017 3
0 2 -16 247.728 19.2884 5
0 -2 16 208.383 19.9371 2
0 2 -16 263.889 19.5594 4
0 2 -16 215.475 18.9394 1
0 -2 15 152.406 15.8983 3
0 2 -15 150.736 14.8915 3
0 2 -15 166.163 15.329 5
0 2 -15 174.382 15.299 4
0 2 -15 156.283 15.2475 1
0 -2 15 124.587 15.2357 2
0 -2 14 41.4094 10.7333 1
0 2 -14 39.8938 9.6902 3
0 -2 14 61.6044 9.7521 4
0 2 -14 64.9483 10.0205 4
0 2 -14 65.4723 11.063 5
0 -2 14 28.569 9.43178 2
0 -2 14 46.9938 10.2522 3
0 2 -14 63.8467 10.8391 1
0 -2 13 13.0595 7.96225 3
0 -2 13 16.6634 7.86656 2
0 2 -13 23.285 8.32448 3
0 -2 13 24.0627 9.24326 1
0 -2 13 18.4938 7.22134 4
0 2 -13 12.2263 6.43627 4
0 2 -13 23.156 8.28736 2
0 2 -13 19.1452 7.87502 1
0 2 -13 8.76056 7.55686 5
0 2 -12 46.0333 8.22906 4
0 2 -12 38.5131 8.87958 3
0 -2 12 60.7886 9.68933 3
0 -2 12 54.3662 9.37659 2
0 -2 12 59.8517 10.1037 1
0 2 -12 52.4274 8.8176 1
0 2 -12 53.0264 9.08243 5
0 2 -12 40.9562 8.593 2
0 -2 12 52.0922 8.09225 4
0 2 -11 548.656 28.0142 2
0 2 -11 538.861 28.6312 1
0 -2 11 556.551 29.0676 1
0 2 -11 557.69 28.6382 5
0 -2 11 551.604 27.098 4
0 2 -11 527.863 27.6558 4
0 -2 11 557.702 28.9391 2
0 -2 11 532.706 28.8694 3
0 2 -11 511.092 27.6847 3
0 2 -10 122.847 10.9797 2
0 2 -10 107.17 10.8261 1
0 -2 10 120.823 10.0118 4
0 -2 10 135.75 11.4837 2
0 2 -10 127.72 11.3278 3
0 -2 10 104.7 11.0205 1
0 2 -10 133.223 10.6398 4
0 -2 10 137.064 11.8231 3
0 2 -10 134.439 11.4383 5
0 2 -9 399.669 20.5903 4
0 -2 9 374.511 20.9012 2
0 2 -9 323.587 20.5769 1
0 2 -9 427.451 21.5244 3
0 2 -9 368.908 20.3913 2
0 -2 9 395.486 21.6281 1
0 -2 9 415.015 20.2189 4
0 2 -9 382.799 21.161 5
0 -2 9 378.242 21.4432 3
0 2 -8 1526.57 63.4763 4
0 -2 8 1503.03 64.3811 1
0 2 -8 1543.04 63.466 2
0 2 -8 1530.61 64.3393 5
0 2 -8 1355.76 63.7882 1
0 -2 8 1484 63.7389 2
0 -2 8 1556.75 64.7063 3
0 2 -8 1533.98 63.9571 3
0 -2 8 1575.23 62.9204 4
0 2 -7 1807.09 72.2392 4
0 2 -7 1512.52 72.2949 1
0 -2 7 1807.12 72.5204 2
0 2 -7 1779.09 72.903 5
0 -2 7 1832.82 73.3094 1
0 2 -7 1750.22 72.7202 3
0 2 -7 1827.78 72.2017 2
0 -2 7 1720.59 73.0497 3
0 -2 7 1772.81 71.7072 4
0 2 -6 673.185 31.723 5
0 -2 6 717.208 30.8308 4
0 2 -6 695.776 30.9516 2
0 -2 6 740.22 31.2683 2
0 2 -6 746.923 31.9431 3
0 2 -6 635.078 31.4543 1
0 2 -6 695.58 30.9629 4
0 -2 6 692.285 31.9749 3
0 2 -5 143.021 8.84523 2
0 2 -5 148.611 9.98722 3
0 -2 5 127.879 9.31412 5
0 2 -5 135.364 10.2452 4
0 -2 5 135.248 8.83576 2
0 -2 5 132.407 9.50683 3
0 2 -5 136.822 9.55475 5
0 2 -5 130.174 8.53545 4
0 -2 4 169.607 9.33718 2
0 2 -4 166.626 10.451 4
0 2 -4 180.527 9.5659 4
0 2 -4 164.4 10.4647 3
0 -2 4 136.756 9.69078 3
0 2 -4 163.214 9.37028 2
0 -2 4 164.336 10.2666 5
0 -2 3 894.684 36.0503 4
0 2 -3 819.545 34.4612 2
0 2 -3 803.495 35.7296 3
0 2 -3 835.761 35.636 4
0 -2 3 867.239 34.6298 2
0 -2 3 815.637 35.8965 5
0 2 -2 11078.5 417.009 2
0 2 -2 10548.4 417.979 1
0 -2 2 10408.6 418.112 4
0 -2 2 11044 418.081 1
0 -2 2 10948.8 416.991 2
0 2 -2 10740.2 418.117 4
0 2 -1 246.059 12.4419 4
0 -2 1 249.263 11.3175 2
0 -2 1 268.338 12.2268 1
0 -2 1 233.289 11.6385 2
0 2 -1 253.863 12.0917 1
0 -2 1 223.949 12.2359 4
0 -2 0 556.288 21.6361 1
0 -2 0 526.676 21.3396 2
0 -2 0 520.489 22.2682 4
0 2 0 523.277 21.4275 1
0 -2 0 400.816 21.3822 3
0 2 0 464.663 21.1126 2
0 2 0 495.531 22.058 4
0 2 1 462.674 20.3649 2
0 -2 -1 464.676 20.3586 2
0 2 1 446.975 20.5753 3
0 2 1 466.173 19.977 1
0 2 1 447.985 20.9617 4
0 -2 -1 462.257 20.0451 1
0 -2 -1 476.157 20.621 3
0 -2 -2 17.5757 3.47154 1
0 -2 -2 18.346 3.64849 3
0 -2 -2 16.13 4.29112 2
0 2 2 18.0567 3.07625 1
0 2 2 23.0492 5.18507 4
0 2 2 10.8238 3.88822 2
0 2 2 15.2138 3.89635 3
0 -2 -3 44.3597 4.93322 3
0 2 3 50.3374 5.19952 3
0 -2 -3 42.6059 4.35934 1
0 2 3 43.0695 4.2727 1
0 -2 -3 49.2819 5.94155 2
0 2 3 43.6754 5.15758 2
0 2 4 336.138 15.8585 3
0 2 4 326.433 16.847 2
0 -2 -4 312.961 15.2191 1
0 -2 -4 316.722 15.7121 3
0 -2 -4 335.155 16.8538 2
0 -2 -5 553.672 25.2706 3
0 -2 -5 557.112 24.6676 1
0 -2 -5 577.107 26.3252 2
0 -2 -5 555.732 25.1064 1
0 2 5 530.826 26.3692 2
0 2 5 569.81 24.9924 3
0 -2 -6 722.219 31.1594 1
0 -2 -6 717.487 31.6704 3
0 -2 -6 730.409 31.7382 1
0 -2 -6 685.791 32.7676 2
0 2 6 742.376 31.4211 3
0 2 6 663.309 32.9264 2
0 2 7 826.592 39.3237 2
0 2 7 863.622 37.022 3
0 -2 -7 896.774 37.6009 3
0 -2 -7 908.907 39.1673 2
0 -2 -7 758.193 38.6557 4
0 -2 -7 844.781 37.5192 1
0 -2 -7 863.904 37.0505 1
0 2 8 668.957 32.0442 4
0 -2 -8 699.39 31.0102 1
0 2 8 647.26 33.0919 2
0 -2 -8 671.146 32.5913 2
0 -2 -8 707.598 32.0642 3
0 -2 -8 679.032 33.5715 4
0 -2 -8 706.686 31.2942 3
0 -2 -8 645.654 31.1524 1
0 -2 -9 12.2592 4.69131 3
0 -2 -9 8.51423 5.28022 1
0 -2 -9 11.3204 7.05436 2
0 -2 -9 11.7536 6.18547 3
0 2 9 8.21564 6.30719 2
0 -2 -9 6.13913 5.1031 1
0 -2 -9 20.5161 6.30285 4
0 2 9 10.8068 6.25627 4
0 2 10 114.647 11.7016 2
0 -2 -10 111.627 9.75573 3
0 -2 -10 103.48 10.4653 3
0 2 10 90.9796 10.4928 4
0 -2 -10 104.562 11.2896 4
0 -2 -10 113.755 11.3983 2
0 -2 -10 120.917 9.92878 1
0 -2 -10 115.151 10.3258 1
0 -2 -11 47.8478 8.1978 1
0 -2 -11 57.2856 9.99358 2
0 2 11 46.8174 8.48776 4
0 2 11 66.0017 9.93601 2
0 -2 -11 56.7415 8.0941 1
0 -2 -11 56.9106 9.66567 4
0 -2 -11 55.3252 7.70567 3
0 -2 -11 52.1015 9.14834 3
0 -2 -12 564.212 29.6201 1
0 -2 -12 605.471 29.0818 1
0 2 12 556.479 29.8498 4
0 -2 -12 581.986 32.0551 4
0 2 12 542.281 32.1905 2
0 -2 -12 605.305 30.097 3
0 -2 -12 570.124 28.8001 3
0 -2 -13 90.2906 11.144 1
0 -2 -13 130.314 13.6134 4
0 2 13 90.3249 13.2168 2
0 -2 -13 111.488 11.1466 1
0 -2 -13 107.031 12.3999 3
0 -2 -13 119.869 11.0293 3
0 -2 -14 395.714 23.6501 1
0 -2 -14 412.772 26.3221 4
0 -2 -14 391.408 23.7227 3
0 2 14 371.856 26.567 2
0 -2 -14 393.822 22.63 1
0 -2 -14 387.36 22.524 3
0 -2 -15 300.604 23.0108 4
0 -2 -15 334.301 20.3098 3
0 -2 -15 293.087 19.8228 1
0 -2 -15 293.091 20.9141 3
0 2 15 324.714 24.1386 2
0 -2 -15 331.213 21.5942 1
0 -2 -16 115.325 13.0879 1
0 -2 -16 112.68 13.6482 1
0 2 16 106.682 16.209 2
0 -2 -16 122.016 12.3692 3
0 -2 -16 116.256 15.8102 4
0 -2 -17 115.671 14.5111 1
0 -2 -17 109.501 12.561 3
0 -2 -17 75.8429 14.9913 4
0 -2 -18 101.794 12.9321 3
0 -2 -18 61.1852 13.0597 1
0 -2 -18 72.7572 15.2429 4
0 3 -18 210.99 19.3967 4
0 3 -18 205.133 19.3853 5
0 -3 18 164.79 19.2233 2
0 -3 18 209.662 20.689 3
0 3 -18 200.681 19.9512 1
0 3 -17 -11.9717 11.2318 1
0 -3 17 4.7578 9.88527 2
0 -3 17 -4.76695 10.9992 3
0 3 -17 -4.22633 10.0759 5
0 3 -17 9.70434 9.7253 4
0 -3 16 20.6632 9.94572 2
0 3 -16 5.39025 9.08228 5
0 -3 16 4.5462 9.9903 3
0 3 -16 11.5311 8.06342 4
0 3 -16 14.2439 9.8689 1
0 3 -15 93.6841 12.0068 4
0 -3 15 64.7316 12.34 3
0 -3 15 65.426 11.3612 2
0 3 -15 43.2063 11.2079 1
0 3 -15 101.37 12.983 5
0 3 -14 150.762 14.1696 4
0 3 -14 148.442 14.7502 5
0 3 -14 142.728 14.9231 1
0 -3 14 174.142 16.1551 3
0 3 -14 156.031 15.1631 3
0 -3 14 151.056 15.0786 2
0 3 -13 378.085 22.6404 5
0 -3 13 367.509 23.4555 1
0 3 -13 364.975 21.9335 4
0 3 -13 355.957 22.39 3
0 -3 13 373.686 20.9751 4
0 3 -13 338.699 22.4442 1
0 -3 13 332.492 23.1384 3
0 -3 13 353.566 22.6334 2
0 3 -13 315.925 21.3199 2
0 3 -12 5.5528 7.33673 2
0 3 -12 2.2501 7.1307 1
0 3 -12 6.48439 7.12066 5
0 3 -12 9.48012 5.9118 4
0 -3 12 3.42675 7.80131 1
0 -3 12 5.95181 7.3597 3
0 -3 12 7.39814 6.6447 2
0 -3 12 2.45602 6.0763 4
0 3 -12 -0.994 7.46275 3
0 -3 11 151.342 12.6012 2
0 -3 11 137.962 13.0879 1
0 3 -11 124.252 11.7893 2
0 3 -11 140.134 12.7532 3
0 -3 11 120.586 12.5564 3
0 3 -11 154.877 12.9958 5
0 3 -11 118.639 12.1461 1
0 3 -11 139.35 11.6383 4
0 3 -10 20.3811 7.41748 3
0 3 -10 33.1037 7.70953 1
0 3 -10 20.9576 6.69462 2
0 -3 10 28.4682 7.97005 1
0 3 -10 23.9765 6.15907 4
0 3 -10 22.6379 6.65817 5
0 -3 10 37.7719 6.78075 2
0 -3 10 39.0568 8.13057 3
0 -3 9 9.92816 6.4742 1
0 3 -9 9.48705 5.2429 4
0 3 -9 20.2053 6.57423 5
0 3 -9 27.4039 7.54672 3
0 3 -9 8.09682 5.94625 1
0 3 -9 12.6066 5.71328 2
0 -3 9 9.5584 6.07646 3
0 3 -9 22.2952 7.37003 4
0 -3 9 8.38945 5.37308 2
0 3 -8 66.2945 7.48861 2
0 3 -8 58.0577 8.44807 3
0 -3 8 71.6447 8.69395 3
0 3 -8 62.2095 7.04096 4
0 3 -8 61.4332 8.54135 4
0 -3 8 69.2784 7.3239 2
0 -3 7 897.556 41.2029 3
0 -3 7 838.651 39.2267 2
0 3 -7 910.701 39.5984 4
0 3 -7 910.722 40.5747 3
0 3 -7 946.193 40.8279 4
0 3 -7 899.606 39.2272 2
0 3 -6 207.311 12.0957 2
0 -3 6 228.031 13.7811 5
0 3 -6 204.195 13.3996 4
0 -3 6 189.202 13.3542 3
0 3 -6 222.05 12.5531 4
0 3 -6 218.06 13.806 3
0 -3 6 196.257 12.059 2
0 -3 5 1752.45 71.9979 2
0 3 -5 1769.89 71.8971 2
0 -3 5 1696.44 73.2586 1
0 3 -5 1734.02 72.3572 4
0 3 -5 1872.11 73.8287 3
0 -3 5 1820.27 74.1543 3
0 -3 5 1811.64 73.7284 5
0 3 -5 1811.16 73.4739 4
0 -3 4 145.136 9.10975 2
0 -3 4 161.345 11.0774 5
0 3 -4 176.904 11.1139 4
0 3 -4 150.358 10.3948 1
0 3 -4 163.895 9.48244 2
0 3 -4 129.961 10.5072 3
0 -3 4 156.759 10.7753 4
0 -3 4 166.285 10.7835 1
0 -3 3 2301.74 90.2182 2
0 -3 3 2188.85 92.0443 4
0 -3 3 2367.16 91.8558 1
0 3 -3 2369.2 90.3452 2
0 3 -3 2244.75 91.8649 4
0 3 -3 2145.08 91.6514 1
0 3 -2 2165.31 87.2967 4
0 -3 2 2262.85 85.631 2
0 3 -2 1925.76 86.6926 1
0 -3 2 2296.49 87.1475 1
0 -3 2 2058.48 87.3264 4
0 -3 2 2220.02 86.1154 2
0 3 -1 157.57 9.93963 1
0 3 -1 149.708 10.5778 4
0 -3 1 177.306 9.71639 2
0 -3 1 179.38 10.9277 4
0 -3 1 171.773 10.1802 1
0 -3 1 168.824 10.6351 3
0 3 0 993.89 44.0692 4
0 -3 0 911.84 44.039 4
0 -3 0 1046.99 43.0091 2
0 3 0 1070.44 43.4307 1
0 -3 0 1110.76 43.5424 1
0 -3 0 1041.98 44.0864 3
0 3 0 1028.83 43.0773 2
0 3 0 1098.63 44.0708 3
0 -3 -1 239.44 12.8767 2
0 3 1 238.136 12.9409 2
0 -3 -1 231.026 13.7991 4
0 -3 -1 254.11 12.8166 1
0 3 1 247.777 12.5948 1
0 3 1 250.132 13.3461 3
0 3 1 247.093 14.0524 4
0 -3 -1 224.406 13.1751 3
0 -3 -2 944.712 42.5214 4
0 3 2 971.853 41.7778 2
0 -3 -2 940.358 41.5964 3
0 3 2 984.706 40.7913 1
0 3 2 940.398 42.302 4
0 3 2 993.658 41.6339 3
0 -3 -2 973.827 41.4039 2
0 -3 -2 1045.54 41.0509 1
0 3 3 265.208 13.4063 1
0 -3 -3 242.031 14.0534 3
0 3 3 284.386 14.4524 3
0 -3 -3 268.136 13.4887 1
0 -3 -3 234.626 14.9173 4
0 3 3 271.346 15.0751 2
0 -3 -3 271.928 14.5647 2
0 3 3 273.793 15.4115 4
0 -3 -4 476.347 21.4981 1
0 3 4 472.218 21.57 1
0 -3 -4 473.982 22.4991 3
0 3 4 430.769 23.1854 4
0 3 4 475.92 22.2342 3
0 -3 -4 449.756 22.6863 2
0 3 4 480.264 23.321 2
0 -3 -5 242.038 12.9813 1
0 3 5 239.671 13.544 3
0 -3 -5 266.009 14.9679 2
0 -3 -5 218.211 13.4211 3
0 3 5 236.419 14.7473 2
0 -3 -6 846.101 39.0305 2
0 -3 -6 864.877 38.2534 3
0 -3 -6 822.691 37.7158 1
0 3 6 897.678 37.9152 3
0 3 6 856.045 39.9539 2
0 -3 -6 890.57 37.4701 1
0 3 7 38.7853 7.3799 2
0 3 7 53.2936 6.49363 3
0 -3 -7 54.4304 8.19056 2
0 -3 -7 56.6445 6.67681 3
0 -3 -7 48.9899 6.07414 1
0 -3 -7 46.9826 6.57686 1
0 -3 -8 480.181 24.9087 1
0 -3 -8 508.366 25.4672 3
0 3 8 519.263 27.7778 2
0 3 8 508.032 24.6374 3
0 -3 -8 520.562 24.6224 1
0 -3 -8 533.473 26.7451 2
0 -3 -9 2189.76 91.1046 1
0 3 9 2209.54 94.3574 2
0 -3 -9 2166.25 94.3078 4
0 -3 -9 2175.94 92.688 2
0 3 9 2239.56 90.3862 3
0 -3 -9 2196.43 90.3723 1
0 -3 -9 2282.96 91.4108 3
0 3 10 15.9345 7.00122 4
0 3 10 6.20648 7.87081 2
0 -3 -10 4.16788 5.4567 1
0 -3 -10 7.26424 7.5525 4
0 -3 -10 6.04937 7.87175 2
0 -3 -10 4.67741 5.29457 3
0 -3 -10 8.72626 6.85084 3
0 -3 -10 13.6643 6.31147 1
0 -3 -11 1650.39 72.1836 2
0 -3 -11 1692.45 70.5433 3
0 3 11 1587.1 74.0172 2
0 -3 -11 1568.45 73.7536 4
0 -3 -11 1753.49 71.4215 3
0 -3 -11 1597.93 69.4505 1
0 -3 -11 1645.35 70.5166 1
0 3 12 581.461 35.599 2
0 -3 -12 650.693 33.3973 3
0 -3 -12 652.326 31.9662 1
0 -3 -12 650.765 32.3525 3
0 -3 -12 711.118 33.3894 1
0 -3 -12 668.203 36.3916 4
0 -3 -13 270.987 17.9342 3
0 3 13 253.477 21.5123 2
0 -3 -13 309.706 22.174 4
0 -3 -13 290.374 18.0219 1
0 -3 -13 268.325 19.2514 3
0 -3 -13 276.723 18.6016 1
0 -3 -14 2210.99 91.2076 1
0 3 14 2055.88 95.3735 2
0 -3 -14 2170.18 91.2266 3
0 -3 -14 2198.01 95.2443 4
0 -3 -14 2069.41 89.5155 1
0 -3 -14 2103.69 90.0615 3
0 -3 -15 1109.54 51.7879 1
0 -3 -15 1151.1 52.4062 3
0 -3 -15 1241.37 58.174 4
0 3 15 1031.76 57.0566 2
0 -3 -15 1143.53 52.8946 1
0 -3 -16 1.79188 10.4985 4
0 -3 -16 -1.06179 8.41664 3
0 3 16 -3.88627 11.8061 2
0 -3 -16 5.04121 7.99235 1
0 -3 -16 23.3005 9.74398 1
0 -3 -17 48.5071 10.5276 3
0 3 17 47.3958 14.9326 2
0 -3 -17 48.5659 11.4004 1
0 -3 -17 34.111 13.3198 4
0 -4 18 76.827 14.6829 2
0 4 -18 81.499 13.2505 4
0 -4 18 116.2 17.3336 3
0 -4 17 -6.12331 10.5965 2
0 4 -17 -1.58893 10.7734 1
0 -4 17 -10.1646 11.3235 3
0 4 -17 16.0917 9.34482 4
0 4 -16 199.362 17.5088 4
0 4 -16 192.688 19.1005 1
0 -4 16 196.633 19.4134 3
0 -4 16 236.499 19.264 2
0 -4 15 259.605 21.4943 3
0 4 -15 218.031 19.8621 1
0 -4 15 263.621 20.0898 2
0 4 -15 303.57 19.9273 4
0 -4 14 213.649 18.3763 3
0 -4 14 184.164 16.1024 2
0 4 -14 150.787 16.4803 1
0 4 -14 172.304 15.0215 4
0 4 -13 41.6279 9.47703 2
0 -4 13 22.6124 7.90301 2
0 4 -13 42.7888 8.64144 4
0 4 -13 33.3785 10.0703 4
0 4 -13 33.7084 9.61086 1
0 -4 13 60.9011 11.1733 3
0 4 -12 594.007 32.1874 4
0 4 -12 594.396 33.3838 1
0 -4 12 641.857 32.9981 2
0 4 -12 708.703 32.7252 2
0 -4 12 661.332 34.6936 1
0 4 -12 671.551 33.8372 3
0 -4 12 597.256 34.1851 3
0 4 -12 638.019 33.6543 4
0 -4 11 543.362 30.7722 1
0 4 -11 593.851 30.6538 4
0 4 -11 525.953 30.3387 1
0 4 -11 620.515 29.8329 4
0 4 -11 568.191 28.8221 2
0 -4 11 548.67 31.3941 3
0 4 -11 572.461 30.4449 3
0 -4 11 559.575 29.2531 2
0 4 -10 1095.99 50.2083 4
0 -4 10 1075.41 51.3089 3
0 -4 10 1077.71 48.8418 2
0 4 -10 1116.34 48.4584 2
0 4 -10 1054.47 48.7763 4
0 4 -10 1117.08 50.0517 3
0 4 -9 4406.8 173.412 2
0 4 -9 4455.9 175.48 3
0 4 -9 4278.34 173.931 4
0 -4 9 4291.83 176.492 3
0 4 -9 4516.92 175.442 4
0 -4 9 4261.65 173.805 2
0 4 -8 1749.03 73.0131 4
0 4 -8 1827.45 74.4695 3
0 4 -8 1811.62 74.3549 4
0 4 -8 1693.65 72.0051 2
0 -4 8 1755.26 74.6048 5
0 -4 8 1709.62 72.3698 2
0 -4 8 1656.6 74.9021 3
0 -4 7 0.86566 5.65955 5
0 -4 7 2.89981 5.5552 3
0 4 -7 2.03107 4.07759 4
0 -4 7 2.99613 4.14867 2
0 4 -7 11.2575 6.37317 4
0 -4 7 -1.69495 5.94558 1
0 4 -7 -1.65596 6.14308 3
0 4 -7 1.1483 4.73481 2
0 4 -6 227.234 12.7164 2
0 -4 6 205.049 12.4902 2
0 -4 6 203.85 14.4944 5
0 -4 6 236.818 14.7361 1
0 -4 6 203.801 14.6435 3
0 4 -6 212.051 14.4417 1
0 4 -6 214.543 14.3462 3
0 4 -6 206.835 14.2696 4
0 4 -6 205.361 13.0195 4
0 -4 5 213.459 14.5208 4
0 -4 5 198.939 13.7267 1
0 4 -5 204.987 12.1667 2
0 4 -5 225.195 14.264 3
0 4 -5 208.051 13.9336 1
0 -4 5 209.682 14.307 5
0 4 -5 235.37 14.3479 4
0 -4 5 203.499 12.1602 2
0 -4 4 4695.48 178.694 4
0 4 -4 4158.19 177.746 1
0 -4 4 4448.17 175.687 2
0 4 -4 4588.02 177.947 4
0 -4 4 4597.23 177.944 1
0 4 -3 4122.85 160.184 4
0 -4 3 4040.25 160.672 4
0 -4 3 4003.29 158.529 2
0 -4 3 4017.58 157.757 2
0 4 -3 4001.24 159.909 1
0 -4 3 3995.32 159.77 1
0 -4 2 1034.03 44.0723 1
0 -4 2 1015.61 42.3194 2
0 -4 2 918.439 44.6153 3
0 -4 2 1013.07 44.9039 4
0 -4 2 1031.69 42.9647 2
0 4 -2 1037.93 44.1235 1
0 4 -2 1048.94 44.6678 4
0 4 -1 158.438 10.4579 1
0 -4 1 152.567 11.4549 4
0 -4 1 154.718 11.0072 3
0 -4 1 156.405 10.6485 1
0 4 -1 149.719 10.8207 3
0 4 -1 154.659 11.1823 4
0 -4 1 158.818 9.89702 2
0 -4 0 10.8204 4.43574 3
0 4 0 27.83 4.9463 2
0 -4 0 19.053 5.10003 1
0 4 0 18.4269 4.62884 1
0 4 0 15.0673 5.51708 4
0 -4 0 11.0897 5.12473 4
0 -4 0 17.8473 5.11241 2
0 4 0 17.0271 5.76464 3
0 4 1 6.62207 3.86988 1
0 4 1 4.73911 5.61085 4
0 -4 -1 7.74937 4.79212 4
0 4 1 5.51033 4.01802 2
0 -4 -1 4.46637 4.30357 1
0 -4 -1 0.50217 4.37347 2
0 -4 -1 2.65684 4.07323 3
0 4 1 -0.60156 4.98595 3
0 -4 -2 -2.45439 3.91025 1
0 4 2 8.46795 5.73477 4
0 -4 -2 0.81385 4.90066 4
0 4 2 -1.50167 3.88431 1
0 4 2 -1.20044 4.53074 3
0 4 2 0.61356 4.27567 2
0 -4 -2 -3.30446 4.08484 3
0 -4 -2 4.37787 4.70158 2
0 -4 -3 75.4307 7.89621 3
0 -4 -3 97.3657 7.57788 1
0 4 3 79.3761 9.02182 4
0 4 3 82.0839 8.32338 2
0 -4 -3 77.7376 8.70676 4
0 4 3 82.6282 7.00703 1
0 4 3 83.3542 8.08737 3
0 -4 -3 82.6842 8.14008 2
0 -4 -4 1259.85 52.2138 2
0 4 4 1177.5 50.5983 1
0 -4 -4 1267.5 51.0352 1
0 4 4 1205.93 52.8249 2
0 4 4 1251.5 53.3717 4
0 4 4 1239.35 51.7487 3
0 -4 -4 1190.2 52.0656 3
0 -4 -4 1049.6 52.9715 4
0 4 5 3231.15 132.37 4
0 -4 -5 3102.84 133.24 4
0 -4 -5 3237.43 131.568 3
0 -4 -5 3276.4 131.787 2
0 4 5 3316.94 130.113 1
0 -4 -5 3331.51 130.168 1
0 4 5 3376.32 131.049 3
0 4 5 3209.8 132.666 2
0 -4 -6 2330.12 97.6105 2
0 4 6 2349.49 98.8334 2
0 4 6 2376.33 98.3168 4
0 -4 -6 2423.42 95.851 1
0 -4 -6 2304.12 97.1555 3
0 4 6 2415.69 96.6667 3
0 -4 -7 327.978 17.3102 1
0 -4 -7 295.187 17.5169 1
0 4 7 340.092 18.1366 3
0 -4 -7 298.454 18.6693 2
0 -4 -7 327.438 18.4386 3
0 4 7 296.939 19.8886 2
0 -4 -8 5.51066 6.94252 2
0 -4 -8 9.68839 5.67547 3
0 4 8 7.91225 7.28551 2
0 -4 -8 8.07264 5.55175 1
0 -4 -8 15.8898 5.72982 1
0 4 8 8.40348 5.7858 3
0 4 9 24.6738 9.29276 2
0 -4 -9 22.483 6.46481 1
0 -4 -9 16.5134 6.46973 1
0 -4 -9 20.8083 8.0515 2
0 4 9 17.4644 6.46237 3
0 -4 -9 23.7167 6.79292 3
0 -4 -10 331.902 19.7793 3
0 -4 -10 327.071 21.3091 2
0 -4 -10 292.437 18.0807 1
0 -4 -10 364.531 19.6679 1
0 4 10 331.046 18.7394 3
0 4 10 277.678 21.4216 2
0 -4 -11 406.142 22.3064 1
0 -4 -11 421.345 23.1296 1
0 -4 -11 425.955 23.3872 3
0 4 11 381.214 26.0444 2
0 -4 -11 387.306 26.2625 4
0 4 12 130.363 15.5878 2
0 -4 -12 107.941 11.4799 1
0 -4 -12 100.402 10.8915 1
0 -4 -12 101.489 14.1728 4
0 -4 -12 108.639 13.3374 3
0 -4 -12 119.819 12.1411 3
0 -4 -13 236.574 16.8466 1
0 -4 -13 202.309 17.982 3
0 -4 -13 226.773 16.3982 1
0 -4 -13 249.489 21.0054 4
0 -4 -13 230.57 16.8847 3
0 4 13 214.285 20.45 2
0 -4 -14 115.289 15.9654 4
0 -4 -14 127.498 13.4575 1
0 4 14 115.453 16.5714 2
0 -4 -14 123.479 13.106 3
0 -4 -14 122.232 12.7638 1
0 -4 -15 367.078 27.8321 4
0 4 15 357.002 28.3228 2
0 -4 -15 371.619 23.8125 1
0 -4 -15 344.493 22.6906 1
0 -4 -15 453.415 24.6241 3
0 -4 -16 10.3198 10.239 1
0 -4 -16 1.93766 11.9815 4
0 4 16 18.344 13.1255 2
0 -4 -16 9.0117 8.65401 3
0 -5 17 19.986 12.754 3
0 5 -17 13.4719 9.21014 4
0 -5 17 5.90056 10.0827 2
0 -5 16 453.177 28.4564 2
0 -5 16 463.542 30.908 3
0 5 -16 408.325 29.305 1
0 5 -16 480.65 27.8497 4
0 -5 15 810.962 41.1094 2
0 5 -15 764.702 42.4246 1
0 5 -15 815.763 40.5211 4
0 -5 15 782.577 43.6687 3
0 5 -14 86.7485 11.5591 4
0 -5 14 71.4078 13.6866 3
0 5 -14 81.0664 13.6692 1
0 -5 14 81.4202 11.7744 2
0 5 -13 1335.37 59.0931 4
0 5 -13 1325.12 58.3394 2
0 -5 13 1300.23 62.2182 3
0 -5 13 1268.56 58.9961 2
0 5 -13 1261.8 61.0154 1
0 5 -12 774.469 40.0089 4
0 -5 12 792.923 41.7965 3
0 -5 12 822.415 38.9698 2
0 5 -12 826.494 38.235 2
0 5 -12 736.32 38.2693 4
0 -5 11 34.6099 9.64879 3
0 -5 11 43.4666 8.37095 2
0 5 -11 33.4399 7.84953 4
0 5 -11 53.6219 9.01741 2
0 5 -11 43.4749 10.6558 4
0 5 -10 789.68 37.5949 4
0 -5 10 721.005 35.0959 2
0 5 -10 727.797 35.6839 4
0 -5 10 692.328 38.2179 3
0 5 -10 766.679 37.4063 3
0 5 -10 726.346 34.7749 2
0 -5 9 1084.22 53.1819 3
0 -5 9 1162.17 52.519 5
0 5 -9 1105.02 49.3523 2
0 5 -9 1134.32 51.8502 4
0 -5 9 1134.46 52.2971 1
0 5 -9 1168.04 52.101 3
0 5 -9 1090.17 50.2536 4
0 -5 9 1143.18 49.7954 2
0 -5 8 -4.04466 7.58982 1
0 -5 8 7.15233 7.67424 3
0 5 -8 5.68195 5.26671 4
0 5 -8 8.42344 7.03848 1
0 5 -8 0.67324 5.28102 2
0 5 -8 -1.97404 7.36591 3
0 -5 8 1.37796 4.63936 2
0 -5 8 3.15126 7.17271 5
0 5 -8 2.88885 7.35151 4
0 5 -7 660.864 31.726 3
0 5 -7 546.855 30.8669 1
0 -5 7 652.972 31.7751 1
0 -5 7 622.674 28.8739 2
0 5 -7 613.968 31.0563 4
0 5 -7 604.215 29.7652 4
0 -5 7 635.1 31.9126 5
0 -5 7 560.838 31.8971 3
0 5 -7 624.634 28.9124 2
0 -5 6 192.775 15.6134 3
0 -5 6 220.69 15.2049 1
0 5 -6 229.452 15.7476 3
0 5 -6 188.138 15.0485 1
0 5 -6 246.861 16.0051 4
0 -5 6 224.7 16.2143 4
0 -5 6 209.879 12.8726 2
0 -5 6 225.715 15.6411 5
0 -5 5 226.218 14.836 1
0 5 -5 200.586 14.7271 1
0 -5 5 190.112 12.3456 2
0 5 -5 212.437 14.8393 4
0 -5 5 231.085 13.9612 2
0 -5 5 233.463 15.6229 4
0 5 -4 10.543 5.70749 1
0 -5 4 15.4896 5.62966 2
0 -5 4 12.2391 4.15687 2
0 5 -4 11.3593 6.34652 4
0 -5 4 12.8503 5.6916 4
0 -5 4 8.48185 5.80534 1
0 -5 3 1.40989 3.63167 2
0 5 -3 -0.7629 4.83706 1
0 -5 3 8.91189 5.03419 2
0 5 -3 10.3689 6.29102 4
0 -5 3 7.2767 5.27287 1
0 -5 3 9.00002 5.97465 4
0 5 -2 6.30864 6.34585 3
0 -5 2 2.84949 3.58555 2
0 -5 2 -2.77809 5.03022 1
0 -5 2 1.81537 5.00775 3
0 -5 2 0.53663 4.57033 2
0 -5 2 2.71132 6.04129 4
0 5 -2 2.88728 4.79012 1
0 5 -2 0.79106 5.69386 4
0 -5 1 10.0072 6.03784 4
0 -5 1 0.8797 4.95658 3
0 5 -1 3.17842 5.75588 4
0 5 -1 4.60739 5.49344 3
0 -5 1 -0.55 4.57966 2
0 5 -1 4.12449 4.82375 1
0 -5 1 3.32038 4.66008 1
0 5 0 447.407 24.2264 4
0 -5 0 444.291 24.6765 4
0 -5 0 465.934 22.6756 2
0 -5 0 453.995 24.3805 3
0 5 0 466.49 23.9041 3
0 -5 0 454.123 23.0152 1
0 5 0 463.581 23.1024 2
0 5 0 470.152 23.2248 1
0 5 1 338.84 19.1281 4
0 5 1 294.312 17.0274 1
0 -5 -1 311.682 17.3076 2
0 -5 -1 310.858 19.2053 4
0 -5 -1 309.863 18.5631 3
0 5 1 326.018 18.4459 3
0 -5 -1 313.789 17.3214 1
0 5 1 322.692 17.7608 2
0 5 2 204.607 13.574 3
0 -5 -2 196.724 13.6264 3
0 5 2 187.338 13.0871 2
0 -5 -2 195.803 12.4222 1
0 5 2 199.161 14.3853 4
0 -5 -2 187.555 14.2685 4
0 5 2 163.333 11.9102 1
0 -5 -2 198.946 12.997 2
0 5 3 135.702 11.0723 2
0 -5 -3 120.172 9.69348 1
0 -5 -3 133.435 11.285 3
0 5 3 131.457 10.6055 3
0 5 3 107.133 9.44179 1
0 5 3 139.288 12.215 4
0 -5 -3 148.943 11.1305 2
0 -5 -3 117.432 11.7 4
0 -5 -4 20.9513 7.37854 4
0 5 4 27.4365 5.62315 1
0 5 4 41.4926 8.67304 4
0 5 4 23.8192 6.68375 3
0 -5 -4 27.1935 6.83541 2
0 -5 -4 19.52 5.698 1
0 5 4 24.8687 6.80909 2
0 -5 -4 21.1547 6.12632 3
0 -5 -5 107.817 11.4533 4
0 -5 -5 103.636 10.2663 2
0 -5 -5 103.592 9.1249 1
0 5 5 115.092 10.1876 3
0 5 5 83.5951 10.3538 2
0 5 5 110.979 11.4284 4
0 5 5 101.602 8.95305 1
0 -5 -5 96.5241 9.90717 3
0 -5 -6 51.0883 8.65196 2
0 -5 -6 37.8967 6.65107 1
0 -5 -6 53.9855 9.50207 4
0 5 6 26.5419 8.08262 2
0 5 6 32.3898 6.37207 1
0 -5 -6 49.41 7.78019 3
0 5 6 42.4439 8.40669 4
0 5 6 52.841 8.18999 3
0 -5 -7 1399 60.9942 3
0 -5 -7 1336.95 58.7672 1
0 5 7 1346.62 62.4412 2
0 -5 -7 1305.13 63.2368 4
0 -5 -7 1318.57 59.2024 1
0 5 7 1503.33 60.2368 3
0 5 7 1477.62 62.1001 4
0 -5 -7 1376.18 60.8254 2
0 -5 -8 62.3829 8.08826 1
0 5 8 68.3589 9.0285 3
0 -5 -8 65.0327 9.15631 3
0 -5 -8 59.2107 8.309 1
0 -5 -8 52.1291 9.85225 2
0 5 8 62.8361 10.337 2
0 5 9 985.904 44.3246 3
0 -5 -9 943.105 45.3301 3
0 -5 -9 1022.42 46.6888 2
0 -5 -9 942.74 43.5583 1
0 -5 -9 970.103 44.3054 1
0 5 9 975.76 48.3177 2
0 -5 -10 421.201 22.3754 1
0 5 10 389.496 22.6042 3
0 -5 -10 417.996 23.9071 3
0 -5 -10 409.635 22.9086 1
0 5 10 378.215 26.1043 2
0 -5 -11 78.7884 10.5552 3
0 -5 -11 69.5098 9.92257 1
0 5 11 74.7729 10.1737 3
0 -5 -11 62.6025 9.23411 1
0 5 11 89.4501 13.6527 2
0 5 12 1.68493 10.1462 2
0 -5 -12 1.08554 7.86177 3
0 -5 -12 -4.87532 7.60731 1
0 -5 -12 -2.55257 7.04932 1
0 -5 -13 68.3073 10.6825 1
0 -5 -13 66.0883 11.1171 3
0 -5 -13 75.7205 11.3715 1
0 -5 -13 71.116 14.1552 4
0 5 13 48.6598 14.0705 2
0 -5 -14 -2.30464 8.69952 3
0 -5 -14 11.7439 8.3747 1
0 -5 -14 13.4012 12.325 4
0 5 14 -5.75664 12.4496 2
0 -5 -15 36.061 13.9453 4
0 -5 -15 38.947 10.2898 3
0 5 15 30.5026 13.8659 2
0 -5 -15 42.9909 9.9862 1
0 -6 16 199.378 18.4635 2
0 -6 16 210.133 22.3443 3
0 6 -16 248.739 19.3664 4
0 -6 15 7.20722 11.3242 3
0 -6 15 8.77425 9.18959 2
0 6 -15 -9.89098 11.5646 1
0 6 -15 6.18868 8.15299 4
0 -6 14 -1.73922 10.6583 3
0 6 -14 3.54882 7.67431 4
0 -6 14 -1.16807 8.19396 2
0 -6 13 3.35205 10.7052 3
0 -6 13 1.08325 7.69916 2
0 6 -13 4.51212 7.20551 4
0 6 -12 163.222 14.0886 4
0 -6 12 125.687 12.7331 2
0 6 -12 153.695 14.0323 2
0 -6 12 156.619 16.7371 3
0 6 -11 461.687 27.2066 4
0 6 -11 445.399 25.2142 4
0 -6 11 446.539 28.9161 3
0 6 -11 447.849 24.491 2
0 -6 11 438.777 24.3534 2
0 6 -11 428.652 27.3548 1
0 -6 10 783.489 36.6192 2
0 -6 10 791.055 40.3021 5
0 6 -10 765.2 36.3848 2
0 6 -10 821.99 39.6367 4
0 -6 10 750.762 40.9952 3
0 6 -10 765.351 37.6143 4
0 6 -10 715.33 39.2494 1
0 6 -9 210.202 15.4956 4
0 -6 9 213.612 17.9134 3
0 6 -9 205.597 16.9592 4
0 -6 9 201.981 16.9581 1
0 -6 9 215.191 14.0532 2
0 6 -9 220.219 14.7632 2
0 -6 9 214.963 17.6136 5
0 6 -9 210.775 17.2715 1
0 6 -8 53.6987 9.8007 1
0 -6 8 43.3233 9.67523 1
0 -6 8 43.5353 10.3917 3
0 6 -8 37.7659 9.34451 4
0 -6 8 28.7899 9.29406 5
0 6 -8 48.5661 7.96344 4
0 -6 8 37.4992 6.65858 2
0 6 -7 22.0982 8.04817 1
0 6 -7 22.4211 8.41803 3
0 -6 7 30.4609 7.65981 2
0 -6 7 19.8469 8.28059 1
0 6 -7 38.5726 8.91451 4
0 -6 7 18.2402 8.62461 3
0 -6 7 19.982 8.55597 5
0 -6 7 16.3647 5.56644 2
0 6 -6 350.537 22.6238 1
0 -6 6 381.454 20.218 2
0 -6 6 357.268 22.5775 1
0 6 -6 428.521 23.6622 3
0 -6 6 426.573 21.9038 2
0 -6 6 422.9 24.631 4
0 -6 6 430.877 24.6576 5
0 6 -6 376.142 22.8942 4
0 -6 5 338.519 20.8082 4
0 -6 5 291.793 17.3129 2
0 -6 5 293.224 18.753 1
0 6 -5 295.503 19.2834 4
0 6 -5 282.042 18.9227 1
0 -6 5 294.17 16.187 2
0 6 -4 524.671 28.4601 4
0 6 -4 531.22 28.1539 1
0 -6 4 585.518 29.9633 4
0 -6 4 491.09 25.2549 2
0 -6 4 569.203 26.6534 2
0 -6 4 569.336 28.1745 1
0 -6 3 372.135 20.2057 1
0 -6 3 304.902 17.1453 2
0 -6 3 298.872 20.5249 4
0 6 -3 347.112 20.682 4
0 6 -3 324.784 19.5664 1
0 -6 3 345.987 18.1149 2
0 6 -3 330.717 20.2961 3
0 -6 3 334.646 21.1188 3
0 -6 2 403.842 21.816 2
0 -6 2 479.561 24.4415 1
0 -6 2 465.871 22.7809 2
0 6 -2 452.191 24.337 1
0 6 -2 482.255 25.5669 4
0 6 -2 462.048 24.898 3
0 -6 2 478.26 26.2884 4
0 -6 2 438.701 26.0414 3
0 -6 1 110.191 11.6519 4
0 6 -1 117.364 10.8912 3
0 -6 1 104.523 9.37074 2
0 -6 1 88.6157 8.11502 2
0 6 -1 93.7564 10.9228 4
0 6 -1 86.2348 9.3658 1
0 -6 1 99.5631 10.8477 3
0 -6 1 71.3887 9.14153 1
0 -6 0 156.413 13.8099 4
0 6 0 140.984 13.2055 4
0 -6 0 149.158 13.0902 3
0 6 0 145.183 12.9728 3
0 -6 0 151.691 11.4296 2
0 6 0 143.783 11.6193 1
0 -6 0 146.626 11.5302 1
0 6 0 148.439 11.7067 2
0 -6 -1 9.73512 5.78958 2
0 6 1 14.6075 6.9003 4
0 -6 -1 9.60894 5.67185 1
0 -6 -1 21.7099 6.98375 3
0 -6 -1 16.5024 7.12127 4
0 6 1 19.3376 6.40386 1
0 6 1 23.3963 6.41964 2
0 6 1 7.97608 7.18995 3
0 -6 -2 84.9992 10.0802 3
0 6 2 68.1705 9.00534 2
0 6 2 86.6872 10.2505 3
0 6 2 87.102 10.7863 4
0 -6 -2 102.419 11.6755 4
0 -6 -2 67.0163 8.73236 2
0 6 2 84.1227 8.89789 1
0 -6 -2 72.3364 8.2998 1
0 -6 -3 153.745 11.2301 1
0 -6 -3 115.176 12.0576 3
0 -6 -3 140.19 14.1948 4
0 -6 -3 158.199 12.1719 2
0 6 3 139.624 13.1794 4
0 6 3 145.366 12.6716 2
0 6 3 143.873 12.6866 3
0 6 3 129.298 11.0274 1
0 6 4 711.91 34.8495 2
0 6 4 706.225 34.9692 4
0 -6 -4 669.045 34.5433 3
0 -6 -4 647.916 32.8999 2
0 -6 -4 710.876 37.0472 4
0 6 4 727.654 33.9126 3
0 -6 -4 673.752 32.3131 1
0 6 4 659.692 32.3327 1
0 6 5 -5.42205 7.50684 2
0 6 5 -6.17626 6.62282 3
0 6 5 -4.43079 5.3487 1
0 -6 -5 5.45795 7.76426 4
0 -6 -5 -1.73497 6.80422 2
0 -6 -5 -1.42973 5.69516 1
0 -6 -5 5.15176 6.3148 3
0 6 5 -6.5844 7.6479 4
0 6 6 58.0542 7.54849 1
0 -6 -6 54.1756 10.681 4
0 -6 -6 56.0422 8.01531 1
0 6 6 42.118 9.60014 2
0 6 6 48.4154 8.85927 3
0 -6 -6 44.1842 9.14534 2
0 -6 -6 36.6325 8.46338 3
0 -6 -7 7.47218 7.14602 3
0 6 7 8.8184 8.36863 2
0 -6 -7 9.80177 7.65724 2
0 -6 -7 13.4679 8.77528 4
0 -6 -7 11.2178 6.54905 1
0 6 7 11.922 7.46345 3
0 -6 -8 58.8019 8.49209 1
0 -6 -8 46.9323 9.38566 3
0 6 8 64.0757 9.92942 3
0 -6 -8 58.4038 8.64646 1
0 6 8 62.3783 11.9542 2
0 -6 -8 64.9285 10.9788 2
0 -6 -8 44.0426 11.3905 4
0 -6 -9 37.8701 8.53893 1
0 -6 -9 42.8643 8.30618 1
0 -6 -9 40.2913 9.6399 3
0 6 9 46.6505 11.2583 2
0 -6 -9 67.9337 12.8321 4
0 -6 -10 205.783 15.6494 1
0 -6 -10 226.044 15.6753 1
0 6 10 183.127 18.8513 2
0 -6 -10 255.958 18.1195 3
0 -6 -11 440.077 24.5508 1
0 6 11 437.15 29.4936 2
0 -6 -11 425.394 25.7483 3
0 -6 -11 417.784 23.9043 1
0 -6 -12 270.304 19.6474 1
0 6 12 309.196 25.4225 2
0 -6 -12 335.647 21.8084 3
0 -6 -12 310.47 19.5285 1
0 -6 -13 542.216 29.5004 3
0 -6 -13 434.617 26.934 1
0 6 13 498.399 33.3912 2
0 -6 -14 37.4758 11.4821 3
0 6 14 24.1776 13.7156 2
0 -7 15 326.865 26.7946 3
0 7 -15 304.56 21.5746 4
0 -7 15 262.381 20.7347 2
0 -7 14 28.336 9.40532 2
0 -7 14 20.9009 12.4661 3
0 7 -14 30.8372 9.73183 4
0 7 -13 135.456 16.5118 1
0 -7 13 118.071 17.4941 3
0 -7 13 128.755 12.9119 2
0 7 -13 107.96 13.1546 4
0 7 -12 118.161 12.8444 2
0 -7 12 137.035 17.667 3
0 -7 12 123.235 12.537 2
0 7 -12 111.423 13.0873 4
0 7 -12 112.812 15.5076 1
0 7 -11 -1.1151 6.95744 4
0 -7 11 14.4905 6.84352 2
0 -7 11 15.4628 11.4046 3
0 7 -11 8.86324 9.43995 1
0 7 -10 2.82212 9.43241 1
0 -7 10 3.35354 6.61099 2
0 -7 10 9.34768 8.96327 2
0 7 -10 -1.08563 6.98957 4
0 -7 10 3.32568 9.36702 3
0 7 -9 254.036 19.9333 1
0 -7 9 236.133 15.6279 2
0 -7 9 270.73 18.8586 2
0 7 -9 259.527 17.7553 4
0 -7 9 217.042 20.0245 3
0 7 -8 53.7043 10.9843 1
0 -7 8 52.9699 11.5812 5
0 -7 8 61.8143 12.0618 3
0 -7 8 70.3304 8.34461 2
0 7 -8 69.3405 11.6264 4
0 7 -8 79.5845 10.59 4
0 -7 8 64.9175 10.3703 2
0 -7 7 149.088 15.7959 5
0 7 -7 164.421 15.1194 1
0 -7 7 139.508 14.4078 1
0 -7 7 175.432 16.6024 4
0 7 -7 155.881 15.069 4
0 -7 7 148.331 13.2488 2
0 -7 7 151.017 11.5781 2
0 -7 6 55.92 10.6139 4
0 7 -6 61.7464 10.2014 1
0 -7 6 62.1585 7.74096 2
0 -7 6 59.4672 9.26104 2
0 -7 6 52.6836 9.91777 1
0 -7 6 47.9237 10.9842 5
0 7 -6 52.0657 10.8806 4
0 -7 5 48.8025 10.3902 4
0 7 -5 59.0331 10.3435 4
0 -7 5 52.575 9.85291 1
0 -7 5 44.2688 6.76505 2
0 -7 5 50.0437 8.45985 2
0 7 -5 35.6573 9.06004 1
0 7 -4 11.8812 8.39916 4
0 -7 4 10.5427 5.09347 2
0 -7 4 25.0992 8.29588 1
0 -7 4 14.0533 7.78036 4
0 7 -4 13.909 7.37582 1
0 -7 4 12.1319 6.61982 2
0 -7 4 19.1834 8.8374 3
0 -7 3 27.6241 7.0337 2
0 -7 3 24.1486 5.70947 2
0 7 -3 28.7849 8.45895 1
0 -7 3 21.7509 8.55266 4
0 -7 3 27.8554 7.6041 1
0 -7 3 34.6304 9.58215 3
0 7 -3 29.0573 9.22292 4
0 -7 2 209.439 17.4103 4
0 -7 2 200.263 13.553 2
0 -7 2 175.087 12.3619 2
0 -7 2 203.459 17.1358 3
0 7 -2 219.881 16.9787 4
0 -7 2 185.501 14.8814 1
0 7 -2 208.29 15.3756 1
0 -7 1 766.751 34.8073 2
0 7 -1 768.154 37.7126 4
0 -7 1 731.775 35.8748 1
0 -7 1 740.407 38.9562 4
0 -7 1 702.415 33.9147 2
0 7 -1 736.871 36.2826 1
0 -7 1 780.637 39.1252 3
0 7 0 451.228 24.5431 1
0 -7 0 432.831 26.4832 3
0 -7 0 432.53 27.0533 4
0 -7 0 423.114 23.0265 2
0 -7 0 444.028 24.1355 1
0 7 0 486.985 26.5716 4
0 7 1 529.991 27.0233 1
0 -7 -1 499.206 26.5008 1
0 -7 -1 473.85 28.5258 3
0 -7 -1 504.659 25.8818 2
0 -7 -1 473.519 29.2448 4
0 7 1 512.898 28.7393 4
0 7 1 524.465 27.0673 2
0 7 2 1343.91 60.1586 1
0 -7 -2 1406.38 64.7874 4
0 -7 -2 1387.92 59.8573 2
0 7 2 1416 61.3677 2
0 -7 -2 1403.94 60.2236 1
0 -7 -2 1312.79 62.7849 3
0 -7 -3 1158.84 50.1373 2
0 -7 -3 1100.48 54.4104 4
0 7 3 1115.88 51.4572 2
0 -7 -3 1124.6 53.0494 3
0 7 3 1078.99 49.9459 1
0 -7 -3 1106.05 49.7452 1
0 -7 -4 13.0068 7.08169 1
0 -7 -4 7.23526 7.82863 3
0 -7 -4 10.6347 8.73527 4
0 -7 -4 14.1306 7.75794 2
0 7 4 2.58013 6.3872 1
0 7 4 1.12731 7.59519 2
0 7 5 2286.11 97.1508 1
0 -7 -5 2283.63 102.921 4
0 -7 -5 2397.29 97.2681 1
0 7 5 2366.85 100.388 2
0 -7 -5 2299.94 100.365 3
0 -7 -5 2434.35 98.4089 2
0 -7 -6 241.728 15.8131 1
0 7 6 205.875 18.1236 2
0 -7 -6 227.288 17.4021 2
0 7 6 236.305 15.6483 1
0 -7 -6 224.417 20.0793 4
0 -7 -6 223.184 17.7861 3
0 -7 -7 115.317 11.7307 1
0 -7 -7 160.413 17.5165 4
0 7 7 136.03 12.085 1
0 -7 -7 138.151 14.1855 3
0 7 7 132.332 15.19 2
0 -7 -8 196.564 16.7169 3
0 -7 -8 162.135 18.4953 4
0 -7 -8 147.465 13.55 1
0 7 8 149.1 16.7761 2
0 -7 -8 174.362 13.8453 1
0 -7 -9 122.484 16.9928 4
0 -7 -9 124.397 14.4649 3
0 -7 -9 144.092 13.3722 1
0 -7 -9 145.595 12.8194 1
0 7 9 111.241 15.3564 2
0 7 10 95.3928 15.6349 2
0 -7 -10 95.0088 15.8685 4
0 -7 -10 109.616 13.6214 3
0 -7 -10 84.7357 11.4367 1
0 -7 -11 523.054 28.7605 1
0 7 11 545.625 34.5536 2
0 -7 -11 493.248 35.0244 4
0 -7 -11 571.949 31.6191 3
0 -7 -12 70.3746 12.9066 3
0 7 12 79.7431 16.1788 2
0 -7 -12 71.4785 16.5541 4
0 8 -13 561.967 33.0841 4
0 -8 13 622.513 32.0964 2
0 -8 13 650.824 39.5486 3
0 -8 12 1109.3 58.749 3
0 -8 12 1138.81 51.5057 2
0 8 -12 1135.31 53.5719 4
0 -8 11 458.623 32.185 3
0 8 -11 452.098 27.2272 4
0 -8 11 455.783 25.0355 2
0 8 -11 492.002 30.6332 1
0 8 -10 10.599 9.84457 1
0 -8 10 27.7829 12.7507 3
0 8 -10 20.2205 9.00215 4
0 -8 10 14.9176 7.30395 2
0 -8 9 59.3429 14.1273 3
0 8 -9 53.7832 10.539 4
0 8 -9 75.5964 13.2631 1
0 -8 9 52.0625 8.46803 2
0 -8 8 -3.63921 8.05428 2
0 8 -8 1.39699 8.99408 1
0 -8 8 -5.86264 6.2701 2
0 -8 7 2.56778 7.12817 2
0 8 -7 5.36298 8.83389 1
0 -8 7 10.5271 5.98099 2
0 -8 7 1.56903 10.1031 4
0 -8 6 -4.50247 9.58603 4
0 -8 6 -4.03445 6.81035 2
0 -8 6 2.04858 5.73747 2
0 8 -6 -6.45552 8.24665 1
0 -8 5 169.049 17.4928 3
0 8 -5 166.823 15.8503 1
0 -8 5 134.538 16.2068 4
0 -8 5 181.188 13.6021 2
0 -8 5 181.031 12.2283 2
0 -8 4 1525.04 73.497 3
0 8 -4 1628.08 71.2972 1
0 -8 4 1639.76 73.6708 4
0 -8 4 1505.03 70.2315 1
0 -8 4 1620.92 67.8535 2
0 -8 4 1617.8 67.0078 2
0 8 -3 236.844 17.6102 1
0 -8 3 231.671 17.6573 1
0 -8 3 218.885 14.2587 2
0 -8 3 227.246 19.6048 4
0 -8 3 237.76 20.1191 3
0 -8 3 211.756 15.1181 2
0 -8 2 -6.00447 9.12227 3
0 8 -2 7.83878 7.59608 1
0 -8 2 3.81165 6.66731 2
0 -8 2 10.3611 8.42326 1
0 -8 2 11.9701 9.40621 4
0 -8 2 9.78026 5.97982 2
0 8 -1 78.2627 10.8357 1
0 -8 1 101.472 13.3449 3
0 -8 1 68.3033 9.21266 2
0 -8 1 67.7147 12.3045 4
0 -8 1 64.434 9.89027 1
0 -8 1 60.6007 8.47313 2
0 -8 0 107.783 10.3956 2
0 8 0 87.8993 11.382 1
0 -8 0 85.7312 13.2393 4
0 -8 0 124.145 14.5536 3
0 -8 0 104.212 10.7333 2
0 -8 0 96.2717 11.2266 1
0 -8 -1 628.465 35.4065 3
0 -8 -1 619.378 31.8073 1
0 -8 -1 619.754 30.8994 2
0 8 1 614.094 32.1512 1
0 -8 -1 626.071 36.0775 4
0 8 2 3220.85 130.957 1
0 -8 -2 3030.65 133.859 3
0 -8 -2 3258.93 129.935 2
0 -8 -2 3182.16 130.436 1
0 8 2 3228.62 131.62 2
0 -8 -2 3154.83 135.902 4
0 -8 -3 135.515 12.9058 2
0 8 3 154.104 14.9281 2
0 -8 -3 134.22 16.8156 4
0 -8 -3 121.622 15.0421 3
0 8 3 133.937 13.0279 1
0 -8 -3 142.113 13.2011 1
0 -8 -4 174.263 18.3555 4
0 8 4 124.605 14.497 2
0 8 4 153.52 13.5897 1
0 -8 -4 147.61 14.0377 2
0 -8 -4 160.167 13.7576 1
0 -8 -4 168.723 16.3079 3
0 -8 -5 53.1501 11.9303 3
0 8 5 37.1503 8.90909 1
0 -8 -5 59.8793 10.562 2
0 -8 -5 58.5112 9.54661 1
0 8 5 33.7445 9.83823 2
0 -8 -5 28.5441 11.8771 4
0 -8 -6 120.747 11.9377 1
0 8 6 100.86 14.4259 2
0 8 6 91.9375 10.9824 1
0 -8 -6 86.6718 15.2327 4
0 -8 -6 82.6053 13.5694 3
0 8 7 59.3533 10.0087 1
0 -8 -7 43.9613 14.0396 4
0 -8 -7 66.0154 11.8706 3
0 -8 -7 54.4464 9.78652 1
0 8 7 90.8346 14.2915 2
0 -8 -8 12.4072 8.58537 1
0 -8 -8 1.98625 12.2903 4
0 8 8 13.955 10.8209 2
0 -8 -8 32.5428 10.3887 3
0 -8 -9 54.1672 12.0369 3
0 8 9 40.9735 13.4885 2
0 -8 -9 59.8332 15.1265 4
0 -8 -9 32.9328 9.18722 1
0 -9 10 128.888 19.2683 3
0 9 -10 151.078 15.7784 4
0 -9 9 283.281 25.1699 3
0 9 -9 268.177 22.5946 1
0 9 -9 288.791 20.9725 4
0 -9 8 167.206 12.8766 2
0 9 -8 199.979 18.7586 1
0 9 -7 416.055 28.1218 1
0 -9 7 405.417 22.0469 2
0 -9 6 2.05687 5.65718 2
0 -9 6 11.7185 10.7787 4
0 -9 6 11.092 11.9024 3
0 9 -6 7.05869 10.2889 1
0 -9 5 9.05461 11.383 3
0 -9 5 7.56539 5.83441 2
0 -9 5 1.64308 10.7432 4
0 9 -5 1.36481 9.57636 1
0 -9 4 23.6611 6.83197 2
0 -9 4 27.9691 11.5799 4
0 -9 4 32.0001 12.9885 3
0 9 -4 19.7946 10.2289 1
0 -9 3 40.1911 12.0871 4
0 -9 3 53.332 7.85873 2
0 9 -3 55.0976 11.4442 1
0 9 -2 9.95846 9.03379 1
0 -9 2 3.40965 10.0976 3
0 -9 2 24.981 6.94458 2
0 -9 2 13.5266 10.9847 4
0 -9 1 126.277 17.7026 4
0 9 -1 134.517 14.2296 1
0 -9 1 125.007 11.4405 2
0 -9 1 108.788 15.966 3
0 9 0 81.4824 12.041 1
0 -9 0 93.7864 15.7303 4
0 -9 0 93.7724 10.528 2
0 -9 0 98.6119 14.1825 3
0 -9 -1 14.5895 11.167 3
0 9 1 27.6831 9.89143 1
0 -9 -1 14.3775 11.4086 4
0 -9 -1 16.4661 7.24764 2
0 -9 -2 48.1267 12.6881 3
0 9 2 47.3517 10.4343 1
0 -9 -2 76.9178 14.5887 4
0 -9 -3 226.03 20.115 3
0 9 3 232.09 18.745 2
0 9 3 215.862 17.2746 1
0 -9 -3 181.839 21.0112 4
0 9 4 27.2031 10.626 2
0 9 4 35.3817 9.58173 1
0 -9 -4 19.261 12.631 4
0 -9 -4 17.4425 11.241 3
0 9 5 209.583 19.0939 2
0 -9 -5 200.27 21.9596 4
0 9 5 205.651 16.7263 1
0 -9 -5 187.872 19.3474 3
0 9 6 236.768 20.3996 2
0 -9 -6 187.889 19.3694 3
0 -9 -6 222.662 23.7152 4
0 9 6 205.649 16.5519 1
0 10 -5 264.454 21.4745 1
0 -10 5 196.516 21.5415 4
0 -10 4 170.86 19.7249 4
0 -10 4 181.283 20.9008 3
0 10 -4 172.144 18.1971 1
0 -10 3 21.3108 12.7746 3
0 -10 3 11.0963 12.3762 4
0 10 -3 15.3441 10.5468 1
0 -10 2 3.80281 12.6168 3
0 10 -2 2.71429 9.45754 1
0 -10 2 -3.75533 12.7312 4
0 10 -1 2.64291 10.0339 1
0 -10 1 9.53531 12.4688 4
0 -10 1 7.47215 12.8449 3
0 -10 0 181.943 20.0081 3
0 10 0 198.361 17.9499 1
0 -10 0 169.851 21.1018 4
1 -10 -2 87.3711 15.2187 3
1 -10 -2 75.2548 17.1543 4
-1 10 1 313.717 21.1417 1
1 -10 -1 359.204 26.1327 3
1 -10 -1 344.765 28.4932 4
-1 10 0 338.262 22.435 1
1 -10 0 344.569 27.0071 3
1 -10 0 396.044 29.7884 4
-1 10 -1 7.87086 9.19207 1
1 -10 1 18.4054 13.5763 4
1 -10 1 10.4177 11.185 3
1 -10 2 154.103 19.7216 4
1 -10 2 143.487 17.7599 3
-1 10 -2 120.837 14.3843 1
-1 10 -3 250.853 20.0737 1
1 -10 3 275.29 24.2091 3
1 -10 3 304.171 25.3082 4
1 -10 4 136.178 19.1127 4
-1 10 -4 99.3778 13.5161 1
1 -10 4 130.261 18.5711 3
1 -10 5 238.362 23.6827 4
1 -10 5 264.413 23.4316 3
-1 10 -5 220.531 19.5586 1
-1 10 -6 624.625 36.0335 1
1 -10 6 648.516 40.5803 4
1 -10 6 674.977 40.9463 3
1 -9 -7 343.899 24.0398 3
1 -9 -7 355.089 29.027 4
-1 9 7 294.754 22.3122 2
1 -9 -6 122.141 14.8523 3
-1 9 6 113.601 13.6245 2
1 -9 -6 127.251 18.5755 4
1 -9 -5 105.983 17.5044 4
-1 9 5 104.495 13.2672 2
1 -9 -5 102.274 14.5914 3
1 -9 -4 2.8374 9.20382 3
-1 9 4 -2.81364 7.95114 2
1 -9 -4 -7.99834 12.4634 4
-1 9 4 6.311 7.15371 1
1 -9 -3 1.44036 9.6276 3
1 -9 -3 -5.88545 12.4301 4
-1 9 3 -1.67392 7.94025 2
-1 9 3 0.83908 7.08142 1
1 -9 -2 27.8313 10.7345 3
1 -9 -2 31.7216 8.54686 1
-1 9 2 35.5279 8.53341 1
1 -9 -2 17.4399 11.8275 4
1 -9 -1 34.346 5.72405 2
1 -9 -1 41.8063 11.3679 3
1 -9 -1 51.8003 13.5401 4
1 -9 -1 35.8692 8.77712 1
-1 9 1 45.7622 9.13947 1
1 -9 0 105.792 8.64773 2
1 -9 0 162.921 13.6511 1
1 -9 0 197.821 19.8814 4
1 -9 0 161.534 16.4423 3
-1 9 0 132.27 12.7033 1
1 -9 1 226.664 12.1895 2
1 -9 1 267.762 22.9204 4
-1 9 -1 288.786 18.5285 1
1 -9 1 237.219 17.6213 1
1 -9 1 250.271 21.4086 3
-1 9 -2 170 14.9435 1
1 -9 2 166.825 17.9086 3
1 -9 2 200.64 19.7535 4
1 -9 2 149.619 14.4902 1
-1 9 -3 106.142 13.0604 1
1 -9 3 133.424 16.5268 3
1 -9 3 108.487 12.9094 1
1 -9 3 122.674 16.5653 4
1 -9 4 -1.6744 10.3525 3
-1 9 -4 11.717 8.84849 1
1 -9 4 8.91527 10.9301 4
1 -9 5 34.1566 12.6296 4
-1 9 -5 15.9013 9.15333 1
1 -9 5 8.64842 10.8921 3
-1 9 -6 210.979 18.3855 1
1 -9 6 186.074 20.7313 3
1 -9 7 775.712 43.7176 4
1 -9 7 691.645 41.6947 3
-1 9 -7 725.139 38.8965 1
-1 9 -8 218.731 19.6635 1
1 -9 8 225.906 22.5588 3
1 -9 9 191.681 20.9762 3
-1 9 -9 161.344 16.9842 4
-1 9 -9 154.344 17.3013 1
-1 9 -10 93.4288 13.9221 4
-1 9 -10 106.21 15.735 1
-1 9 -11 99.0643 14.1309 4
-1 8 10 278.953 23.1167 2
1 -8 -10 305.308 21.344 3
-1 8 9 68.282 13.4029 2
1 -8 -9 50.0843 11.243 3
1 -8 -8 19.1433 9.06515 3
-1 8 8 21.9327 10.2017 2
1 -8 -7 1.37307 5.52474 1
1 -8 -7 1.20402 8.27805 3
-1 8 7 3.58337 9.31887 2
-1 8 6 38.5758 9.62484 2
1 -8 -6 34.1317 6.38714 1
1 -8 -6 29.0433 9.66301 3
-1 8 6 27.2256 6.41179 1
1 -8 -6 43.0507 13.0972 4
1 -8 -6 22.9424 7.88565 2
-1 8 5 542.027 28.8554 2
1 -8 -5 539.229 33.6515 4
-1 8 5 560.437 26.0503 1
1 -8 -5 497.902 25.5389 1
1 -8 -5 545.554 30.3762 3
1 -8 -5 499.184 26.3896 2
1 -8 -4 242.973 21.3469 4
1 -8 -4 204.673 14.0836 2
-1 8 4 214.443 15.7252 2
1 -8 -4 221.116 14.3586 1
1 -8 -4 245.508 18.4213 3
-1 8 4 219.823 14.4214 1
1 -8 -3 402.35 21.2778 1
-1 8 3 372.491 21.984 2
1 -8 -3 391.431 20.3393 2
1 -8 -3 470.553 29.4 4
-1 8 3 389.843 21.3828 1
1 -8 -3 428.035 25.617 3
-1 8 2 59.6655 8.61758 1
1 -8 -2 51.5414 12.8782 4
-1 8 2 75.616 8.98308 2
1 -8 -2 69.7136 9.04626 1
1 -8 -2 78.7689 7.55793 2
1 -8 -2 73.8027 11.8475 3
1 -8 -1 20.7595 9.46268 3
1 -8 -1 34.2547 5.31194 2
-1 8 1 36.3594 7.66357 1
1 -8 -1 13.5474 9.88968 4
1 -8 -1 26.3204 7.24372 1
-1 8 0 201.894 14.05 1
1 -8 0 169.597 13.5709 1
1 -8 0 158.092 10.1859 2
1 -8 0 231.052 19.6342 4
1 -8 0 171.976 10.145 2
1 -8 0 165.135 16.4814 3
1 -8 1 -6.56118 10.0521 4
1 -8 1 -2.73162 8.36997 3
1 -8 1 2.25899 3.32552 2
-1 8 -1 -3.63155 6.81413 1
1 -8 1 2.57142 6.75782 1
1 -8 1 0.67563 3.51286 2
1 -8 2 43.4628 10.4198 3
1 -8 2 40.6968 8.17298 1
1 -8 2 30.1009 4.09308 2
1 -8 2 35.4328 4.21012 2
1 -8 2 19.3841 10.7957 4
-1 8 -2 36.2103 8.10832 1
1 -8 3 14.4375 10.5806 4
1 -8 3 14.8576 3.20735 2
1 -8 3 13.526 3.35957 2
1 -8 3 7.20753 8.69814 3
1 -8 3 20.1657 7.78563 1
-1 8 -3 19.0485 7.88281 1
1 -8 4 206.678 18.162 3
1 -8 4 180.792 9.09782 2
1 -8 4 178.806 15.3133 1
-1 8 -4 201.111 15.7292 1
1 -8 4 165.292 17.5357 4
1 -8 4 190.091 9.29401 2
1 -8 5 0.70402 3.00365 2
1 -8 5 -1.54692 9.1471 3
1 -8 5 1.61124 9.87401 4
-1 8 -5 -2.22076 7.47551 1
1 -8 5 -7.4868 8.47624 1
1 -8 5 2.37744 3.16714 2
-1 8 -6 689.315 35.0255 1
1 -8 6 620.647 37.2753 3
1 -8 6 758.151 39.5839 4
1 -8 6 640.447 27.5727 2
1 -8 6 628.043 34.5517 1
1 -8 6 671.393 28.1906 2
-1 8 -7 24.7801 9.79945 1
1 -8 7 22.7965 11.4463 4
1 -8 7 21.7635 10.7669 3
1 -8 7 33.2831 5.43171 2
1 -8 7 38.6096 4.87318 2
1 -8 8 43.4991 12.6381 3
-1 8 -8 68.2575 11.9313 1
1 -8 8 40.3305 5.39517 2
-1 8 -8 43.5809 9.7724 4
-1 8 -9 290.943 20.9246 4
-1 8 -9 260.207 21.1971 1
1 -8 9 276.126 14.7277 2
-1 8 -10 200.965 18.8071 1
-1 8 -10 206.743 17.8596 4
1 -8 10 184.691 12.103 2
-1 8 -11 300.961 21.2465 4
1 -8 11 251.137 15.6752 2
-1 8 -11 270.939 22.1663 1
-1 8 -12 153.45 15.5824 4
-1 8 -12 144.357 17.69 1
1 -8 12 122.97 18.7989 3
1 -8 13 160.142 20.5099 3
-1 8 -13 147.876 16.3364 4
1 -7 -12 18.7325 8.98082 3
1 -7 -12 18.4821 13.5521 4
-1 7 12 32.0108 12.9599 2
-1 7 11 138.319 17.0758 2
1 -7 -11 102.851 12.5621 3
1 -7 -11 98.9224 17.0066 4
-1 7 10 43.7439 11.9919 2
1 -7 -10 37.2807 9.53366 3
1 -7 -10 28.5799 12.9054 4
-1 7 9 8.07926 9.27779 2
1 -7 -9 23.8702 11.5559 4
1 -7 -9 16.6855 5.81003 1
-1 7 9 22.7104 8.30912 3
1 -7 -9 10.3171 7.9863 3
1 -7 -8 2.05741 7.17463 3
1 -7 -8 4.51035 7.37254 2
1 -7 -8 10.9305 5.10363 1
-1 7 8 8.67534 8.52555 2
1 -7 -8 8.59671 5.48769 1
-1 7 8 6.99045 7.57852 3
1 -7 -7 143.937 10.2158 1
1 -7 -7 133.388 10.5512 1
1 -7 -7 124.705 12.1204 2
1 -7 -7 125.482 12.8582 3
-1 7 7 132.597 13.9925 2
-1 7 7 148.235 12.7371 3
1 -7 -6 85.4872 10.4648 3
1 -7 -6 82.945 8.10193 1
-1 7 6 70.0245 10.2627 3
-1 7 6 79.5661 8.06701 1
1 -7 -6 73.152 9.57223 2
-1 7 6 60.8623 10.0433 2
1 -7 -5 9.32403 7.45655 3
1 -7 -5 0.6928 5.9263 2
-1 7 5 -2.79471 6.95182 2
1 -7 -5 -2.77046 4.90482 1
-1 7 5 -2.28514 5.09862 1
-1 7 5 -6.94833 7.36349 3
-1 7 4 59.1265 9.26078 2
-1 7 4 79.1513 8.05969 1
1 -7 -4 79.5034 10.7636 3
1 -7 -4 80.9547 8.4515 2
1 -7 -4 75.8558 7.78078 1
-1 7 4 69.3121 9.7916 3
1 -7 -3 1443.55 66.2606 3
-1 7 3 1584.6 65.3983 3
-1 7 3 1416.97 62.5504 1
1 -7 -3 1494.45 62.058 2
1 -7 -3 1517.11 62.5875 1
1 -7 -3 1613.44 70.6343 4
-1 7 3 1479.04 63.7322 2
-1 7 2 99.4836 9.64949 2
1 -7 -2 118.508 14.0795 4
-1 7 2 98.3886 9.32106 1
-1 7 2 132.437 12.353 3
1 -7 -2 116.768 9.5421 1
1 -7 -2 91.0363 11.44 3
1 -7 -2 116.04 8.45266 2
-1 7 1 1768.01 76.2668 1
1 -7 -1 1817.57 76.119 1
-1 7 1 1882.69 75.3918 2
1 -7 -1 1903.24 82.9025 4
1 -7 -1 1825.9 73.9346 2
1 -7 -1 1837.67 79.9251 3
-1 7 1 1850.29 78.3976 3
-1 7 0 3471.62 138.715 1
1 -7 0 3475.4 138.459 1
1 -7 0 3457.26 142.115 3
1 -7 0 3184.12 135.241 2
1 -7 0 3566.25 135.285 2
1 -7 0 3660.73 145.078 4
-1 7 0 3640.17 140.831 3
1 -7 1 1400.37 63.8303 4
-1 7 -1 1419.73 60.339 3
1 -7 1 1258.84 54.1878 2
1 -7 1 1356.84 54.1553 2
1 -7 1 1342.03 61.5232 3
-1 7 -1 1495.84 62.459 4
1 -7 1 1340.35 58.1101 1
-1 7 -1 1369.45 58.5191 1
-1 7 -2 16.0751 7.83474 3
-1 7 -2 18.2918 6.70175 1
1 -7 2 10.9435 7.42746 3
-1 7 -2 15.2987 9.87147 4
1 -7 2 21.9729 3.38505 2
1 -7 2 26.3012 6.98009 1
1 -7 2 15.4617 9.01079 4
1 -7 2 21.2848 3.40217 2
-1 7 -3 696.095 33.6364 3
-1 7 -3 643.135 32.0021 1
1 -7 3 677.6 35.9905 4
1 -7 3 659.073 32.0059 1
-1 7 -3 688.476 35.0412 4
1 -7 3 592.682 34.1564 3
1 -7 3 660.782 26.7841 2
1 -7 3 610.04 26.5034 2
1 -7 4 6.98645 7.95843 4
-1 7 -4 2.40997 8.67987 4
1 -7 4 3.91814 8.3492 3
1 -7 4 13.5122 8.70564 5
1 -7 4 11.421 2.91637 2
-1 7 -4 2.81814 6.15126 1
1 -7 4 8.4932 3.0934 2
1 -7 4 19.1702 7.64209 1
1 -7 5 786.811 39.8815 1
-1 7 -5 870.792 40.6487 1
1 -7 5 875.359 43.4278 5
1 -7 5 925.988 44.0543 3
1 -7 5 834.985 34.3367 2
1 -7 5 816.632 34.8259 2
1 -7 5 856.561 43.8434 4
1 -7 6 734.601 38.9145 3
1 -7 6 723.461 30.4131 2
1 -7 6 776.916 40.3029 4
1 -7 6 762.123 39.2116 5
1 -7 6 697.169 36.0064 1
1 -7 6 698.822 30.9448 2
-1 7 -6 726.114 36.3874 1
1 -7 7 77.0684 11.1174 1
1 -7 7 91.4597 13.4855 5
1 -7 7 74.9602 7.73692 2
1 -7 7 94.5946 13.2784 3
1 -7 7 94.7389 6.93334 2
-1 7 -7 104.077 12.1541 1
-1 7 -8 46.2395 10.107 1
-1 7 -8 41.5291 9.24117 4
1 -7 8 49.1393 10.2595 1
1 -7 8 42.9317 6.96294 2
1 -7 8 35.4261 5.50449 2
-1 7 -9 18.2434 7.84133 4
-1 7 -9 15.4758 9.23391 1
1 -7 9 6.72232 6.11139 2
1 -7 9 10.3924 5.07533 2
-1 7 -10 20.4977 9.84687 1
-1 7 -10 36.3384 8.98559 4
1 -7 10 33.3863 6.52312 2
-1 7 -11 10.8223 6.66834 2
-1 7 -11 14.3987 10.4933 1
1 -7 11 5.35842 10.2656 3
-1 7 -11 -1.28802 8.29333 4
1 -7 11 -0.71571 5.9877 2
1 -7 12 20.4128 12.6257 3
-1 7 -12 33.1846 9.72866 4
-1 7 -12 36.3262 11.1453 1
1 -7 12 22.527 7.28467 2
1 -7 13 538.794 34.5996 3
1 -7 13 492.262 27.2002 2
-1 7 -13 549.098 31.1858 4
-1 7 -13 537.697 32.8203 1
-1 7 -14 1173.32 54.079 4
1 -7 14 1100.93 57.7784 3
1 -7 14 1028.39 49.653 2
1 -7 15 475.892 33.9531 3
-1 7 -15 467.044 29.2506 4
1 -7 15 428.283 26.3896 2
-1 6 14 99.1253 17.0337 2
1 -6 -14 104.837 17.8298 4
-1 6 13 208.247 21.5365 2
1 -6 -13 239.883 22.7495 4
1 -6 -13 204.697 15.8504 3
-1 6 12 150.818 18.1954 2
1 -6 -12 188.724 20.0039 4
1 -6 -12 178.458 12.3284 1
1 -6 -12 196.447 14.7111 3
1 -6 -11 76.3296 7.87607 1
1 -6 -11 98.577 10.6593 3
1 -6 -11 104.41 15.9518 4
-1 6 11 71.8155 9.89476 3
1 -6 -11 71.3896 8.18402 1
-1 6 11 71.3632 13.0701 2
1 -6 -10 719.282 31.2026 1
-1 6 10 654.465 32.9198 3
1 -6 -10 680.592 31.5995 1
1 -6 -10 716.313 34.1536 3
-1 6 10 705.839 38.0195 2
1 -6 -10 709.833 40.3098 4
1 -6 -9 795.928 34.3324 1
1 -6 -9 774.618 34.8709 1
-1 6 9 780.997 40.4663 2
-1 6 9 813.648 36.7526 3
1 -6 -9 781.654 38.189 2
1 -6 -9 762.693 37.2164 3
1 -6 -9 764.729 42.757 4
1 -6 -8 232.537 12.7423 1
1 -6 -8 217.668 13.1765 1
1 -6 -8 205.707 15.0133 3
1 -6 -8 214.786 15.8299 2
1 -6 -8 232.186 19.4672 4
-1 6 8 218.734 17.4366 2
-1 6 8 240.919 15.1596 3
-1 6 7 642.533 30.3581 3
1 -6 -7 611.32 27.6868 1
1 -6 -7 606.264 30.4931 2
-1 6 7 652.77 32.8707 2
1 -6 -7 591.284 34.9236 4
1 -6 -7 629.074 28.3415 1
1 -6 -7 610.125 31.014 3
1 -6 -6 4.27506 6.07722 3
1 -6 -6 0.72428 5.82905 2
1 -6 -6 3.59786 4.40383 1
-1 6 6 0.95679 6.48821 2
-1 6 6 3.67609 5.76727 3
-1 6 5 347.92 17.7189 1
-1 6 5 348.212 19.8743 3
1 -6 -5 372.438 17.8509 1
1 -6 -5 361.111 20.6503 3
1 -6 -5 364.787 19.3124 2
-1 6 5 347.488 20.5887 2
1 -6 -4 1226.29 50.349 1
-1 6 4 1191.92 52.5168 2
-1 6 4 1156.07 50.1972 1
1 -6 -4 1216.21 51.118 2
-1 6 4 1228.31 52.6595 3
1 -6 -4 1211.91 53.5293 3
-1 6 3 917.737 39.8037 2
1 -6 -3 874.573 38.2755 1
-1 6 3 908.679 40.7274 3
1 -6 -3 900.898 38.3965 2
1 -6 -3 858.998 41.3169 3
-1 6 3 841.983 38.3039 1
-1 6 3 944.245 43.2881 4
1 -6 -2 2.60064 3.83663 2
-1 6 2 -1.71981 4.65891 2
-1 6 2 1.54823 6.10328 3
-1 6 2 -3.14622 7.25946 4
1 -6 -2 -1.03721 4.25578 1
1 -6 -2 -0.89518 5.626 3
-1 6 2 3.82364 4.23884 1
1 -6 -1 1055.28 47.151 3
1 -6 -1 997.583 42.1538 2
1 -6 -1 982.06 43.6751 1
-1 6 1 1030.06 43.2882 2
-1 6 1 1011.39 44.0784 1
-1 6 1 1089.99 46.2459 3
1 -6 -1 1029.12 49.333 4
-1 6 1 1013.98 47.6942 4
1 -6 0 519.302 25.7579 1
1 -6 0 548.366 23.4032 2
-1 6 0 552.408 27.7188 3
1 -6 0 531.467 28.4295 3
-1 6 0 537.537 26.0199 1
1 -6 0 551.861 30.5056 4
-1 6 0 545.234 29.1638 4
1 -6 1 196.533 9.24646 2
-1 6 -1 154.893 11.7909 1
-1 6 -1 171.026 14.5678 4
1 -6 1 178.901 9.28979 2
1 -6 1 183.497 15.297 4
1 -6 1 186.166 14.5022 3
-1 6 -1 189.894 13.9506 3
1 -6 1 167.06 11.8436 1
1 -6 2 1505.33 63.5548 1
-1 6 -2 1541.37 65.268 3
-1 6 -2 1536.8 66.4487 4
1 -6 2 1472.45 67.3748 4
-1 6 -2 1475.94 63.5341 1
1 -6 2 1500.82 59.3369 2
1 -6 2 1495.1 66.2672 3
1 -6 2 1496.13 59.2848 2
1 -6 3 299.913 20.099 4
1 -6 3 287.251 17.097 1
1 -6 3 283.921 12.8672 2
1 -6 3 269.1 12.5317 2
-1 6 -3 317.647 19.6404 4
1 -6 3 292.134 19.2903 3
-1 6 -3 304.534 17.3489 1
-1 6 -3 303.24 18.5304 3
-1 6 -4 512.986 27.314 3
1 -6 4 525.253 21.8635 2
-1 6 -4 536.535 28.4115 4
-1 6 -4 486.14 26.1256 1
1 -6 4 496.268 26.141 1
1 -6 4 503.66 21.3143 2
1 -6 4 468.903 27.9877 3
1 -6 4 504.783 29.053 4
1 -6 5 63.9249 4.91699 2
1 -6 5 55.3548 10.0708 3
1 -6 5 63.7736 8.90862 1
1 -6 5 70.5543 10.7695 5
1 -6 5 65.7609 10.6966 4
-1 6 -5 78.3793 10.2719 3
1 -6 5 68.6944 5.75625 2
-1 6 -5 77.6721 9.35577 1
-1 6 -5 80.1919 10.8837 4
1 -6 6 86.5295 10.4692 1
1 -6 6 86.3732 11.439 3
1 -6 6 80.91 7.25184 2
1 -6 6 98.6886 6.64004 2
1 -6 6 101.484 12.6416 4
-1 6 -6 114.862 11.2658 1
-1 6 -6 125.333 12.7042 4
-1 6 -6 85.06 10.9907 3
1 -6 6 80.5205 11.3762 5
1 -6 7 17.9213 4.3574 2
-1 6 -7 13.5672 6.95594 1
1 -6 7 17.5101 9.08143 5
-1 6 -7 18.6939 8.59024 4
1 -6 7 17.2013 7.70903 1
1 -6 8 -9.06818 8.27393 5
-1 6 -8 2.92839 4.56316 2
-1 6 -8 3.18775 6.16574 4
-1 6 -8 1.11673 7.07562 1
1 -6 8 2.99739 4.4401 2
-1 6 -8 -3.64914 8.80908 4
1 -6 8 -5.43151 7.62038 1
1 -6 9 188.179 17.679 5
1 -6 9 218.298 13.2148 2
-1 6 -9 222.135 16.5189 4
-1 6 -9 230.16 13.2783 2
-1 6 -9 208.403 17.7241 1
1 -6 9 201.232 17.0718 1
-1 6 -10 64.8724 8.0402 2
-1 6 -10 50.4569 9.58359 4
1 -6 10 47.1989 7.44074 2
1 -6 10 40.493 11.5294 3
-1 6 -10 58.2735 10.9309 1
1 -6 10 53.4938 10.9263 1
1 -6 11 168.268 12.2093 2
1 -6 11 156.344 17.3126 3
-1 6 -11 152.759 14.3202 4
-1 6 -11 135.591 15.4948 1
-1 6 -11 140.57 11.6436 2
-1 6 -12 297.658 22.0114 1
1 -6 12 297.766 23.117 3
-1 6 -12 283.999 20.178 4
1 -6 12 292.055 17.8452 2
-1 6 -12 255.481 17.208 2
-1 6 -13 22.7324 8.02376 2
-1 6 -13 22.3702 10.7606 1
-1 6 -13 22.0261 9.06111 4
1 -6 13 14.223 11.4702 3
1 -6 13 17.1938 7.45153 2
1 -6 14 40.8464 12.5768 3
1 -6 14 38.9566 9.26906 2
-1 6 -14 29.1706 8.82045 2
-1 6 -14 31.1874 10.2137 4
-1 6 -14 48.4733 12.2134 1
-1 6 -15 178.065 17.0182 4
1 -6 15 127.518 18.5146 3
1 -6 15 133.251 14.2081 2
-1 6 -16 75.037 13.3027 4
1 -6 16 70.3156 16.0323 3
1 -6 16 83.2588 12.5197 2
1 -5 -15 114.51 11.7817 3
1 -5 -15 146.607 19.1424 4
-1 5 15 120.056 17.4473 2
1 -5 -14 62.3418 9.3279 3
1 -5 -14 90.2214 16.227 4
-1 5 14 58.152 14.2663 2
1 -5 -13 45.4605 7.25235 1
-1 5 13 34.5064 12.0783 2
1 -5 -13 33.2626 7.91337 3
1 -5 -13 61.3458 13.6939 4
1 -5 -12 86.6307 13.9188 4
1 -5 -12 92.3802 8.78896 1
-1 5 12 94.6333 14.1166 2
1 -5 -12 85.2009 9.92285 3
1 -5 -12 96.3764 11.3154 3
1 -5 -12 92.2091 8.99058 1
1 -5 -11 267.715 15.6519 1
1 -5 -11 294.533 17.2033 3
-1 5 11 262.082 21.1461 2
1 -5 -11 280.324 15.4264 1
1 -5 -11 276.461 22.4855 4
-1 5 10 288.35 21.1706 2
-1 5 10 302.087 17.1679 3
1 -5 -10 300.144 16.4611 1
1 -5 -10 328.953 23.1507 4
1 -5 -10 319.934 16.1859 1
1 -5 -10 267.515 19.3462 2
1 -5 -10 319.082 17.9489 3
1 -5 -9 314.845 16.7723 1
1 -5 -9 336.356 16.5361 1
-1 5 9 314.586 21.4022 2
-1 5 9 324.688 17.8394 3
1 -5 -9 322.248 18.3045 3
1 -5 -9 332.228 23.1323 4
1 -5 -9 311.635 19.7456 2
1 -5 -8 404.612 19.3556 1
1 -5 -8 399.216 21.5946 3
1 -5 -8 420.437 20.0472 1
1 -5 -8 425.987 26.3681 4
-1 5 8 396.08 23.9522 2
1 -5 -8 416.909 22.729 2
-1 5 8 409.923 21.1612 3
1 -5 -7 960.894 40.8398 1
-1 5 7 988.925 42.3461 3
1 -5 -7 909.463 42.6811 3
1 -5 -7 973.191 40.3443 1
1 -5 -7 933.17 47.2089 4
-1 5 7 891.876 44.4956 2
1 -5 -7 971.536 43.4906 2
-1 5 7 1079.53 46.5121 4
-1 5 6 1.20967 4.74522 3
-1 5 6 2.56575 5.24251 2
1 -5 -6 4.78787 5.39395 2
1 -5 -6 6.2014 3.74952 1
-1 5 6 8.10074 7.28882 4
1 -5 -6 2.44125 6.21316 4
1 -5 -6 -2.04657 4.91132 3
1 -5 -6 4.31016 3.97143 1
-1 5 5 431.499 22.0484 3
1 -5 -5 443.541 20.183 1
1 -5 -5 448.59 22.202 2
-1 5 5 435.31 20.1777 1
1 -5 -5 462.703 22.7691 3
-1 5 5 433.592 23.0358 2
1 -5 -5 451.814 26.1323 4
1 -5 -4 22.4808 4.05971 1
1 -5 -4 23.4377 5.30962 2
-1 5 4 26.1688 4.19028 1
-1 5 4 23.6673 5.96923 3
-1 5 4 33.4618 6.04047 2
1 -5 -4 15.0941 4.95898 3
1 -5 -3 109.442 9.54067 3
-1 5 3 108.649 7.72319 1
1 -5 -3 109.914 8.20237 2
-1 5 3 123.789 9.27986 2
1 -5 -3 114.796 7.66354 1
-1 5 3 137.503 10.103 3
-1 5 2 543.426 25.7845 3
1 -5 -2 519.844 26.1644 3
1 -5 -2 528.937 23.8279 1
-1 5 2 511.985 24.2447 2
-1 5 2 527.55 23.9495 1
1 -5 -2 537.59 23.6192 2
1 -5 -1 1213.63 53.4815 3
-1 5 1 1241.8 52.9152 3
1 -5 -1 1250.02 51.1107 1
-1 5 1 1233.32 51.1425 1
1 -5 -1 1214.53 49.7751 2
-1 5 1 1233.91 50.5894 2
1 -5 0 3.70754 2.48284 2
1 -5 0 -0.77713 5.00377 3
-1 5 0 3.63725 2.95894 2
-1 5 0 0.88166 6.02073 4
1 -5 0 4.81092 4.18863 1
-1 5 0 -0.49364 3.57649 1
-1 5 0 6.12519 5.39463 3
-1 5 -1 119.05 11.431 4
-1 5 -1 103.908 8.27373 1
1 -5 1 118.635 8.60291 1
1 -5 1 104.964 9.89412 3
1 -5 1 88.7744 5.46234 2
1 -5 1 107.796 5.60085 2
-1 5 -1 116.792 9.86205 3
1 -5 1 82.3551 10.1414 4
-1 5 -2 1.2047 4.14158 1
1 -5 2 -1.73067 5.1171 3
-1 5 -2 0.74674 5.60489 3
1 -5 2 1.30873 1.68579 2
1 -5 2 2.29661 1.82334 2
-1 5 -2 0.90012 6.63855 4
1 -5 2 1.17173 4.39753 1
1 -5 2 -1.00461 5.48294 4
-1 5 -3 94.3304 10.5598 4
1 -5 3 73.7907 4.43221 2
1 -5 3 72.3465 9.21363 3
1 -5 3 65.0822 7.61279 1
-1 5 -3 84.349 9.52314 3
1 -5 3 82.498 9.55793 4
1 -5 3 90.3682 4.94495 2
-1 5 -3 86.5282 8.31126 1
-1 5 -4 335.446 20.712 4
-1 5 -4 339.37 19.2521 1
1 -5 4 330.904 18.9649 1
1 -5 4 340.752 15.3866 2
-1 5 -4 368.813 20.3814 3
1 -5 4 347.463 21.0568 4
1 -5 4 312.51 20.4193 3
1 -5 4 356.227 15.0259 2
-1 5 -5 135.952 11.6121 1
1 -5 5 166.096 9.24387 2
-1 5 -5 158.425 13.6049 4
1 -5 5 143.689 12.9945 5
1 -5 5 148.143 13.3875 4
1 -5 5 161.028 13.3543 3
1 -5 5 148.804 8.28767 2
-1 5 -5 171.667 13.3282 3
1 -5 5 149.44 12.1976 1
-1 5 -6 1175.38 54.4884 1
1 -5 6 1230.21 56.4045 3
1 -5 6 1284.87 56.28 5
-1 5 -6 1187.19 50.2663 2
1 -5 6 1249.55 50.3842 2
1 -5 6 1255.89 54.7324 1
-1 5 -6 1322.79 56.4558 4
-1 5 -7 495.603 26.5136 4
-1 5 -7 451.613 21.1177 2
1 -5 7 454.288 21.1134 2
-1 5 -7 477.513 24.7432 4
1 -5 7 471.172 26.291 5
-1 5 -7 403.393 24.4476 1
1 -5 7 440.355 24.9275 1
-1 5 -8 246.916 15.8701 4
1 -5 8 218.449 16.7637 5
1 -5 8 209.168 12.4778 2
-1 5 -8 212.061 15.6936 1
-1 5 -8 212.8 16.8663 4
1 -5 8 209.093 15.9143 1
-1 5 -8 194.96 12.1968 2
-1 5 -9 159.142 10.8136 2
-1 5 -9 142.792 12.7222 4
-1 5 -9 170.74 14.7913 3
-1 5 -9 168.559 15.1403 4
1 -5 9 146.06 13.9904 1
1 -5 9 142.001 10.7399 2
-1 5 -9 148.283 14.076 1
1 -5 9 154.62 15.3835 3
-1 5 -10 8.16454 7.79632 1
-1 5 -10 -4.83508 8.69996 4
1 -5 10 -1.40642 7.84094 3
1 -5 10 14.0665 8.7982 1
-1 5 -10 4.23722 5.90586 4
-1 5 -10 0.64975 5.30655 2
1 -5 10 -2.14159 5.47999 2
1 -5 11 90.0478 9.68177 2
1 -5 11 93.0989 12.8772 1
-1 5 -11 90.8053 9.52278 2
-1 5 -11 76.8452 10.6708 4
1 -5 11 75.5367 12.488 3
-1 5 -11 93.1807 12.5296 1
1 -5 12 318.847 19.2521 2
1 -5 12 336.406 23.7025 3
-1 5 -12 302.246 20.3684 4
-1 5 -12 296.059 18.5215 2
-1 5 -12 312.383 21.9419 1
1 -5 13 460.264 25.9262 2
-1 5 -13 470.348 27.8871 4
1 -5 13 434.546 29.5533 3
-1 5 -13 496.346 25.7901 2
1 -5 14 6.67045 7.85235 2
-1 5 -14 5.70206 8.02273 2
-1 5 -14 9.16896 7.81907 4
1 -5 14 -5.18478 10.1262 3
1 -5 15 347.746 28.1548 3
1 -5 15 416.294 25.4417 2
-1 5 -15 428.035 26.4774 4
1 -5 16 13.2261 12.9048 3
-1 5 -16 1.61268 10.9391 1
-1 5 -16 11.5695 9.8108 4
1 -5 16 7.89102 8.79657 2
1 -5 17 31.3728 14.1777 3
1 -5 17 43.8142 11.6221 2
-1 5 -17 30.3734 11.1493 4
1 -4 -16 12.9077 11.6927 4
-1 4 16 11.4754 11.9301 2
1 -4 -15 55.3265 8.84185 3
-1 4 15 52.0053 13.4631 2
1 -4 -15 55.0816 8.36729 1
1 -4 -15 49.1335 13.1049 4
-1 4 14 133.914 17.5253 2
1 -4 -14 171.323 18.2812 4
1 -4 -14 160.54 12.4055 1
1 -4 -14 157.008 12.3828 1
1 -4 -14 179.605 13.0623 3
-1 4 13 141.84 16.3859 2
1 -4 -13 140.301 11.0096 1
1 -4 -13 131.478 12.1515 3
1 -4 -13 111.554 15.2451 4
1 -4 -13 138.499 11.0723 1
1 -4 -13 151.141 11.7827 3
1 -4 -12 96.0317 9.4091 3
1 -4 -12 113.562 9.52647 1
-1 4 12 86.3825 13.1873 2
1 -4 -12 99.0715 10.7269 3
1 -4 -12 100.942 13.6166 4
1 -4 -12 90.6116 8.91473 1
-1 4 11 5.28436 8.2384 2
1 -4 -11 7.45132 6.70861 3
1 -4 -11 5.35402 4.72658 1
1 -4 -11 4.17863 7.68826 4
1 -4 -11 8.4812 5.46181 3
1 -4 -11 8.33553 5.18874 1
1 -4 -10 251.919 17.7691 2
1 -4 -10 269.638 15.5176 3
1 -4 -10 283.139 14.7573 1
-1 4 10 266.834 19.3877 2
1 -4 -10 277.667 15.1301 1
1 -4 -10 256.24 19.7768 4
1 -4 -9 688.57 29.409 1
1 -4 -9 714.54 32.881 2
-1 4 9 649.671 33.9014 2
1 -4 -9 628.534 28.6716 1
1 -4 -9 624.146 29.8959 3
-1 4 9 616.709 29.323 3
-1 4 9 680.143 33.7576 4
1 -4 -9 653.809 34.7448 4
-1 4 8 16.7335 6.9735 2
1 -4 -8 14.5295 4.55476 3
1 -4 -8 14.0876 4.33248 1
1 -4 -8 18.7779 4.21008 1
1 -4 -8 16.0385 6.6679 2
-1 4 8 17.4846 7.51868 4
-1 4 8 8.66413 4.31919 3
1 -4 -8 18.4169 7.93402 4
1 -4 -7 898.086 36.6375 1
-1 4 7 874.424 37.7831 3
-1 4 7 894 41.3801 4
1 -4 -7 890.859 38.2958 3
-1 4 7 803.509 40.3515 2
1 -4 -7 857.531 36.8207 1
1 -4 -7 820.005 42.0399 4
1 -4 -7 924.975 39.9629 2
-1 4 6 624.678 30.8214 2
-1 4 6 639.852 28.821 3
1 -4 -6 620.626 32.7089 4
-1 4 6 634.693 31.8214 4
1 -4 -6 675.515 27.3661 1
1 -4 -6 642.295 30.0981 2
1 -4 -6 633.752 27.6317 1
1 -4 -6 629.906 29.0487 3
1 -4 -5 220.528 15.7403 4
1 -4 -5 193.762 12.4272 3
1 -4 -5 227.894 11.3565 1
-1 4 5 226.448 15.4715 4
1 -4 -5 218.785 10.9887 1
1 -4 -5 237.012 13.3676 2
-1 4 5 239.43 14.0369 2
-1 4 5 218.674 12.6239 3
1 -4 -4 699.3 35.8551 4
1 -4 -4 768.084 32.8044 2
-1 4 4 683.263 34.8347 4
-1 4 4 726.972 32.7604 3
-1 4 4 786.802 33.6947 2
-1 4 4 752.434 30.882 1
1 -4 -4 747.736 33.0329 3
1 -4 -4 746.836 30.8702 1
-1 4 3 385.32 19.577 3
1 -4 -3 440.699 19.1455 2
1 -4 -3 372.413 22.0496 4
-1 4 3 384.011 17.7003 1
-1 4 3 444.273 19.6924 2
1 -4 -3 402.082 17.7074 1
1 -4 -3 369.26 19.5849 3
1 -4 -2 97.3314 6.52273 1
1 -4 -2 104.654 6.82254 2
-1 4 2 107.281 8.37165 3
-1 4 2 107.403 7.34423 2
-1 4 2 105.196 6.70691 1
1 -4 -2 109.997 8.57997 3
-1 4 1 15.3967 4.87586 3
1 -4 -1 21.672 4.85132 3
1 -4 -1 18.2547 3.68723 1
1 -4 -1 22.2023 3.16334 2
-1 4 1 19.0177 3.36569 2
-1 4 1 20.6748 3.6237 1
1 -4 0 974.97 42.6069 3
-1 4 0 972.792 42.2198 3
-1 4 0 976.149 39.1435 2
-1 4 0 939 40.6421 1
1 -4 0 981.518 38.8064 2
1 -4 0 995.933 40.7025 1
1 -4 1 140.936 10.5568 3
-1 4 -1 129.18 10.1026 3
-1 4 -1 139.586 8.93952 1
1 -4 1 131.807 8.71261 1
-1 4 -2 497.035 25.5571 3
1 -4 2 523.055 24.5304 1
-1 4 -2 552.569 26.8635 4
1 -4 2 521.419 26.0145 3
-1 4 -2 544.849 24.6241 1
-1 4 -3 -1.55431 5.96561 4
-1 4 -3 0.67059 5.44986 3
1 -4 3 -3.0665 5.01167 3
1 -4 3 0.68912 1.76783 2
1 -4 3 5.90118 5.67565 4
1 -4 3 0.55586 4.3826 1
1 -4 3 1.35815 1.62183 2
-1 4 -3 1.68477 3.91367 1
1 -4 4 76.1367 4.69066 2
-1 4 -4 78.4757 7.71879 1
-1 4 -4 59.391 4.61399 2
1 -4 4 82.9011 9.27957 4
1 -4 4 71.58 8.61166 3
1 -4 4 85.983 8.18195 1
-1 4 -4 83.7676 8.77454 3
-1 4 -4 85.5079 9.87521 4
-1 4 -5 51.9057 7.84255 4
-1 4 -5 30.0942 5.92573 1
1 -4 5 21.0564 6.20467 1
1 -4 5 31.4609 6.77981 3
1 -4 5 29.8654 3.85296 2
1 -4 5 42.1923 7.51851 5
-1 4 -5 31.7848 3.92371 2
-1 4 -6 943.434 41.5589 4
-1 4 -6 905.503 40.486 1
1 -4 6 917.469 40.5837 1
-1 4 -6 842.771 39.6919 4
-1 4 -6 834.156 36.6799 2
1 -4 6 935.864 41.8093 5
1 -4 6 863.737 36.9549 2
-1 4 -7 365.125 21.7197 1
-1 4 -7 406.476 19.3109 2
1 -4 7 405.654 19.3958 2
-1 4 -7 388.12 23.0531 4
1 -4 7 402.78 22.4796 1
-1 4 -7 416.065 21.949 4
-1 4 -8 169.657 11.1103 2
-1 4 -8 157.61 13.101 1
-1 4 -8 198.918 15.1828 4
-1 4 -8 158.306 12.7339 4
1 -4 8 220.601 15.0772 1
1 -4 8 182.583 11.4173 2
-1 4 -8 174.865 14.3627 3
-1 4 -9 28.8178 6.71465 4
1 -4 9 36.9406 6.30529 2
-1 4 -9 41.6379 8.89337 5
-1 4 -9 53.3743 9.34715 3
-1 4 -9 32.3573 7.88969 1
-1 4 -9 45.4309 9.4199 4
1 -4 9 40.6155 9.37719 3
-1 4 -9 41.3143 6.59953 2
1 -4 9 23.5628 7.59779 1
-1 4 -10 755.29 37.2355 3
1 -4 10 680.706 37.718 3
-1 4 -10 718.739 36.0658 4
-1 4 -10 765.714 38.2384 5
-1 4 -10 755.661 34.1554 2
1 -4 10 738.921 37.4029 1
1 -4 10 719.779 34.5674 2
-1 4 -10 756.523 37.6977 4
-1 4 -11 1613.14 69.1821 3
1 -4 11 1522.17 70.4779 3
-1 4 -11 1549.63 65.7166 2
-1 4 -11 1626.24 69.803 4
1 -4 11 1442.81 66.1823 2
-1 4 -11 1540.5 68.1163 4
-1 4 -11 1578.74 70.1673 5
-1 4 -12 2020.21 86.8443 4
1 -4 12 1983.77 89.0579 3
-1 4 -12 2054.42 84.4201 2
-1 4 -12 2047.88 88.6852 5
1 -4 12 1954.84 85.2631 2
1 -4 13 429.59 28.6957 3
1 -4 13 480.902 26.255 2
-1 4 -13 447.497 26.661 4
-1 4 -13 473.869 28.6848 5
-1 4 -13 429.774 24.709 2
1 -4 14 1274.41 61.5399 2
-1 4 -14 1449.1 63.4411 4
-1 4 -14 1368.75 60.5372 2
1 -4 14 1469.08 66.2741 3
-1 4 -14 1269.02 62.7911 1
-1 4 -14 1377.02 64.7166 5
1 -4 15 232.017 19.3676 2
1 -4 15 278.827 22.9836 3
-1 4 -15 238.174 20.9478 1
-1 4 -15 292.387 20.7851 4
-1 4 -15 286.372 22.3495 5
-1 4 -16 374.325 25.3902 1
-1 4 -16 310.754 22.8004 4
-1 4 -16 308.448 24.7377 5
1 -4 16 363.347 26.8233 3
1 -4 16 297.623 22.7538 2
-1 4 -17 653.551 40.6194 1
-1 4 -17 852.67 41.9698 4
1 -4 17 782.262 43.917 3
1 -4 17 717.878 40.6172 2
-1 4 -17 754.347 42.4925 5
1 -4 18 209.408 20.5414 2
-1 4 -18 215.303 20.9292 4
-1 4 -18 236.605 22.709 5
1 -4 18 260.776 23.9552 3
1 -3 -17 48.1152 13.1674 4
-1 3 17 37.0317 14.124 2
1 -3 -16 446.274 22.2851 3
1 -3 -16 362.865 22.4365 1
1 -3 -16 421.082 28.569 4
-1 3 16 329.47 27.8933 2
1 -3 -15 4.78047 9.77293 4
1 -3 -15 6.52418 6.21283 3
1 -3 -15 10.8818 6.54193 1
-1 3 15 18.8405 10.7713 2
1 -3 -15 12.8766 6.98677 1
1 -3 -14 216.436 14.7637 1
1 -3 -14 205.603 14.1719 1
1 -3 -14 207.307 14.653 3
-1 3 14 177.883 18.4611 2
1 -3 -14 220.137 13.9281 3
1 -3 -14 196.54 18.5197 4
1 -3 -13 -0.72882 5.56391 1
1 -3 -13 -1.30764 5.36557 1
1 -3 -13 -8.02145 6.45485 3
-1 3 13 1.46963 8.92837 2
1 -3 -13 0.64758 5.13244 3
1 -3 -13 2.81291 8.31669 4
-1 3 12 634.311 35.5175 2
1 -3 -12 625.816 30.7827 3
1 -3 -12 683.721 31.0178 1
1 -3 -12 646.199 35.5036 4
1 -3 -12 669.31 30.457 3
1 -3 -12 655.867 30.2836 1
1 -3 -11 578.483 27.5974 3
1 -3 -11 582.22 26.9755 3
1 -3 -11 618.771 31.0818 2
1 -3 -11 556.22 26.5891 1
1 -3 -11 587.981 27.2454 1
-1 3 11 578.122 29.9951 4
-1 3 11 560.783 31.5671 2
1 -3 -11 527.275 31.1599 4
1 -3 -10 446.42 22.2528 3
-1 3 10 435.661 24.5267 4
1 -3 -10 492.848 25.2868 2
1 -3 -10 459.486 21.7044 3
-1 3 10 407.878 25.304 2
1 -3 -10 439.959 21.2664 1
1 -3 -10 492.827 26.7714 4
1 -3 -10 426.351 21.6166 1
1 -3 -9 3158.47 124.999 1
1 -3 -9 3180.71 125.061 3
1 -3 -9 3131.42 129.846 4
1 -3 -9 3206.39 125.772 3
-1 3 9 3197.27 128.596 4
1 -3 -9 3170.19 128.275 2
-1 3 9 3094.86 129.37 2
1 -3 -9 3083.92 124.561 1
1 -3 -8 -2.55797 3.39142 1
1 -3 -8 -0.97114 5.74266 4
1 -3 -8 -0.43786 3.45246 3
1 -3 -8 2.30599 5.70267 2
1 -3 -8 4.13077 3.53366 1
-1 3 8 1.62019 3.5408 3
-1 3 8 10.1147 6.47027 4
-1 3 8 4.55009 5.38123 2
1 -3 -7 509.955 25.2274 2
1 -3 -7 467.055 22.0175 1
1 -3 -7 525.781 22.5212 1
-1 3 7 595.091 26.7758 4
-1 3 7 512.111 22.6367 3
1 -3 -7 480.967 22.7448 3
-1 3 7 490.627 25.7127 2
1 -3 -7 526.147 26.9081 4
-1 3 6 896.496 39.258 4
-1 3 6 860.646 38.4526 2
1 -3 -6 797.913 39.1616 4
1 -3 -6 800.673 34.7231 1
-1 3 6 873.766 35.6886 3
1 -3 -6 875.303 37.9058 2
1 -3 -6 873.443 35.0605 1
1 -3 -6 835.37 35.7718 3
-1 3 5 2.39008 4.10802 2
-1 3 5 6.21689 5.80313 4
1 -3 -5 -2.03106 2.27536 1
1 -3 -5 0.39728 2.26051 1
1 -3 -5 4.72014 4.6422 2
1 -3 -5 -0.71041 2.88668 3
1 -3 -5 -1.55213 4.37136 4
-1 3 5 1.66096 3.33865 3
1 -3 -4 3370.15 132.852 1
1 -3 -4 3389.59 135.159 2
-1 3 4 3491.64 137.103 4
1 -3 -4 3470.25 132.75 1
-1 3 4 3487.73 135.74 2
-1 3 4 3387.98 134.196 3
1 -3 -4 3481.68 134.436 3
1 -3 -4 3321.35 137.345 4
1 -3 -3 9995.82 390.954 4
-1 3 3 9873.13 387.939 3
-1 3 3 10379.6 390.568 4
1 -3 -3 10223.8 386.233 1
-1 3 3 9732.89 386.172 1
-1 3 3 10399.2 388.524 2
1 -3 -3 10145.6 388.128 2
1 -3 -3 9994.94 388.064 3
1 -3 -2 59.0205 3.83666 1
1 -3 -2 56.3812 6.95545 4
1 -3 -2 53.4086 5.31605 3
-1 3 2 54.0614 5.32754 3
-1 3 2 57.6234 3.77137 1
-1 3 2 60.7091 7.27108 4
1 -3 -2 48.7361 4.68292 2
-1 3 2 51.8495 4.70041 2
-1 3 1 726.037 30.805 3
1 -3 -1 705.306 30.8828 3
1 -3 -1 728.309 29.0311 2
-1 3 1 702.418 29.2435 1
1 -3 -1 643.855 32.4197 4
1 -3 -1 727.036 29.2316 1
-1 3 1 718.38 29.2328 2
-1 3 0 128.402 9.18331 3
-1 3 0 151.543 6.76361 2
1 -3 0 144.161 9.5079 3
1 -3 0 144.597 6.41813 2
-1 3 0 144.426 8.02389 1
1 -3 0 148.536 8.16857 1
1 -3 1 93.195 7.65978 3
-1 3 -1 93.7819 7.74727 3
1 -3 1 97.6576 6.72715 1
-1 3 -1 95.1752 6.56469 1
1 -3 2 10.5078 4.17421 1
-1 3 -2 5.07973 4.54204 3
1 -3 2 7.89881 4.45717 3
-1 3 -2 3.97709 3.53156 1
1 -3 2 12.3745 5.36965 5
-1 3 -3 970.969 41.7832 3
1 -3 3 965.255 42.1164 3
-1 3 -3 958.602 40.8512 1
1 -3 3 972.993 40.9865 1
-1 3 -3 944.74 37.8247 2
1 -3 3 963.89 37.9346 2
-1 3 -4 5082.54 189.761 1
1 -3 4 4986.49 189.833 1
1 -3 4 4980.54 186.864 2
-1 3 -4 5027.23 190.972 4
-1 3 -4 4895.52 186.72 2
-1 3 -5 6316.63 230.623 1
-1 3 -5 6428.19 231.673 4
1 -3 5 6244.33 227.84 2
-1 3 -5 6144.2 227.694 2
1 -3 5 6362.75 230.975 1
-1 3 -6 1275.1 55.4703 1
-1 3 -6 1249.34 55.1825 4
1 -3 6 1357.78 56.0354 1
-1 3 -6 1141.75 55.9461 5
1 -3 6 1307.39 53.212 2
-1 3 -6 1404.91 56.7573 4
-1 3 -6 1300.3 52.9814 2
-1 3 -7 123.38 10.1707 4
-1 3 -7 134.152 11.3065 3
-1 3 -7 116.106 8.67136 2
-1 3 -7 144.646 12.2766 4
-1 3 -7 109.294 10.7362 5
-1 3 -7 115.729 10.2973 1
1 -3 7 137.855 9.11209 2
1 -3 7 126.859 11.1345 1
-1 3 -8 134.905 12.6036 5
-1 3 -8 152.885 13.2602 4
-1 3 -8 150.805 12.7267 3
-1 3 -8 161.453 10.6797 2
-1 3 -8 143.103 11.4471 4
1 -3 8 148.4 12.5824 1
1 -3 8 178.14 13.5916 3
1 -3 8 157.386 10.8437 2
-1 3 -9 27.1232 7.58207 3
1 -3 9 2.18287 5.84975 3
1 -3 9 11.3989 5.18668 2
-1 3 -9 18.1834 5.68826 2
-1 3 -9 23.7189 5.63577 4
-1 3 -9 5.27777 6.37825 5
-1 3 -10 1517.78 64.094 4
-1 3 -10 1483.29 62.0338 2
1 -3 10 1429.72 65.399 3
1 -3 10 1392.03 62.656 2
-1 3 -10 1442.49 65.3234 5
-1 3 -10 1468.96 64.3891 3
1 -3 11 3174.66 136.053 2
1 -3 11 3401.87 135.908 4
1 -3 11 3302.28 139.125 3
-1 3 -11 3407.77 138.737 5
-1 3 -11 3441.11 137.36 4
-1 3 -11 3390.18 137.573 3
-1 3 -11 3340.46 135.074 2
1 -3 12 28.4755 9.36268 3
1 -3 12 25.5941 7.41903 2
-1 3 -12 24.5194 8.92025 3
-1 3 -12 18.8098 7.28483 4
1 -3 12 18.0662 8.3819 1
-1 3 -12 22.3148 7.45659 2
-1 3 -12 28.094 9.11648 5
-1 3 -12 22.396 8.58034 1
1 -3 12 18.6479 7.73667 4
1 -3 13 38.356 8.99803 2
-1 3 -13 35.6349 9.01382 4
1 -3 13 55.2271 11.7158 1
-1 3 -13 48.9233 10.4235 1
1 -3 13 47.5966 11.4888 3
-1 3 -13 36.3996 8.65316 2
-1 3 -13 47.3957 10.4094 5
1 -3 14 73.4449 12.997 3
-1 3 -14 74.3521 12.4036 5
-1 3 -14 73.1533 12.1647 1
1 -3 14 77.8669 11.8651 2
-1 3 -14 75.0747 11.3026 4
-1 3 -15 76.8697 13.1035 5
-1 3 -15 82.7204 12.1662 4
1 -3 15 89.0231 14.078 3
1 -3 15 91.8697 12.8342 2
-1 3 -15 70.3743 13.0473 1
1 -3 16 -3.39507 11.0974 3
-1 3 -16 -1.43714 8.65429 4
-1 3 -16 13.3602 10.6844 1
-1 3 -16 1.57991 10.3285 5
1 -3 16 -13.1535 9.83972 2
-1 3 -17 109.25 15.3762 1
1 -3 17 111.613 15.7336 2
-1 3 -17 125.48 16.984 5
1 -3 17 118.846 16.6923 3
-1 3 -17 147.737 16.1012 4
1 -3 18 25.8274 12.5693 3
-1 3 -18 24.0701 13.0367 5
1 -3 18 50.6014 13.6286 2
-1 3 -18 31.0305 10.9861 4
1 -2 -18 339.295 22.2847 1
-1 2 18 309.337 27.3555 2
1 -2 -18 375.157 27.4267 4
1 -2 -17 10.1236 6.3775 3
1 -2 -17 16.4887 10.7076 4
1 -2 -17 17.4669 7.87808 1
1 -2 -17 9.13333 8.38122 1
-1 2 17 11.2293 11.4791 2
-1 2 16 117.583 16.555 2
1 -2 -16 164.104 12.4386 3
1 -2 -16 144.098 16.8829 4
1 -2 -16 171.681 14.3632 1
1 -2 -15 33.1377 7.86393 3
1 -2 -15 29.0996 9.95861 4
1 -2 -15 35.7764 7.00074 3
-1 2 15 34.3443 11.0942 2
1 -2 -15 43.1028 8.44356 1
-1 2 14 311.752 22.9502 2
1 -2 -14 323.2 18.9303 1
1 -2 -14 304.796 21.8521 4
1 -2 -14 300.988 18.0673 3
1 -2 -14 300.924 17.3091 3
1 -2 -13 1696.83 69.1509 3
1 -2 -13 1680.52 69.8896 1
1 -2 -13 1567.17 73.5013 4
-1 2 13 1664.24 70.1057 1
1 -2 -13 1603.89 68.3658 3
-1 2 13 1651.56 74.7564 2
1 -2 -12 3879.76 155.442 4
1 -2 -12 3781.14 150.505 3
-1 2 12 3734.07 152.783 4
1 -2 -12 3799.4 151.174 1
-1 2 12 3715.64 155.787 2
-1 2 12 3690.93 151.25 1
1 -2 -12 3864.27 150.084 3
1 -2 -11 187.959 12.203 3
1 -2 -11 196.335 12.6593 1
-1 2 11 210.26 13.2369 1
-1 2 11 178.477 13.624 4
1 -2 -11 200.272 15.305 2
1 -2 -11 177.197 11.4841 3
1 -2 -11 183.513 14.972 4
-1 2 11 186.34 15.5872 2
-1 2 10 146.085 10.5677 1
-1 2 10 148.318 13.3125 2
1 -2 -10 155.627 13.0806 4
1 -2 -10 154.696 10.6111 1
1 -2 -10 150.629 9.58386 3
-1 2 10 161.911 12.4573 4
1 -2 -10 160.494 13.3009 2
1 -2 -10 158.563 10.6384 3
-1 2 9 615.857 28.8979 4
1 -2 -9 611.121 29.2831 2
1 -2 -9 575.991 26.5174 1
1 -2 -9 557.879 29.4149 4
1 -2 -9 575.531 25.8777 3
1 -2 -9 568.565 26.3836 3
-1 2 9 607.799 26.9096 1
-1 2 9 554.265 29.6854 2
1 -2 -8 559.005 27.2912 2
1 -2 -8 523.081 24.4105 3
1 -2 -8 564.481 24.6631 1
-1 2 8 577.93 27.0303 4
1 -2 -8 495.048 27.1408 4
1 -2 -8 546.489 24.0868 3
-1 2 8 563.162 27.9074 2
-1 2 8 546.203 24.7179 1
1 -2 -7 1204.78 50.2597 3
1 -2 -7 1278.83 50.709 1
1 -2 -7 1240.93 50.7374 3
-1 2 7 1228.45 53.9682 2
-1 2 7 1314.59 53.6775 4
1 -2 -7 1234.82 53.9461 4
-1 2 7 1227.29 50.7482 1
1 -2 -7 1240.81 53.3007 2
-1 2 6 1268.76 54.9136 2
-1 2 6 1336.74 54.9575 4
1 -2 -6 1222.13 54.9866 4
1 -2 -6 1280.03 54.5286 2
1 -2 -6 1331.23 51.9685 1
1 -2 -6 1284.38 51.8837 3
1 -2 -5 3.18129 2.06749 1
1 -2 -5 0.9671 2.0429 1
1 -2 -5 0.21529 2.10205 3
-1 2 5 6.00675 4.89372 4
1 -2 -5 2.38347 4.23545 4
1 -2 -5 1.96993 4.26896 2
-1 2 5 3.08845 2.4364 3
-1 2 5 5.47641 4.08747 2
1 -2 -4 121.36 6.0606 1
1 -2 -4 139.742 6.16698 1
1 -2 -4 130.749 9.2951 4
-1 2 4 130.91 9.58005 4
-1 2 4 142.601 8.97023 2
1 -2 -4 147.013 9.05822 2
1 -2 -4 133.165 6.84401 3
-1 2 4 126.756 6.82173 3
1 -2 -3 230.047 11.5578 2
1 -2 -3 229.652 10.3624 3
1 -2 -3 208.326 12.5349 4
-1 2 3 243.189 12.9909 4
-1 2 3 225.37 11.705 2
-1 2 3 215.747 10.283 3
1 -2 -2 1200.61 47.1311 3
1 -2 -2 1227.57 49.4207 4
1 -2 -2 1208.68 47.3896 2
-1 2 2 1150.82 46.931 3
-1 2 2 1155.13 48.9677 4
-1 2 2 1149.65 47.4767 2
1 -2 -1 228.002 11.2605 3
1 -2 -1 239.788 10.0321 1
-1 2 1 231.887 11.2121 3
-1 2 1 217.259 12.705 4
1 -2 -1 196.062 12.2869 4
1 -2 -1 232.353 10.52 2
-1 2 1 246.659 10.6154 2
-1 2 1 242.518 9.94987 1
-1 2 0 537.823 21.2092 1
-1 2 0 437.342 23.0883 4
1 -2 0 502.084 22.2497 3
-1 2 0 510.841 22.2467 3
1 -2 0 489.678 23.3168 4
1 -2 0 533.422 21.3304 1
1 -2 1 444.9 20.3277 5
-1 2 -1 397.316 19.4725 3
1 -2 1 432.939 19.653 3
-1 2 -1 449.31 18.747 1
1 -2 1 431.861 18.9277 1
1 -2 1 400.266 20.1284 4
1 -2 2 1388.95 61.9761 3
-1 2 -2 1390.41 61.9748 3
-1 2 -2 1622.44 59.3716 2
1 -2 2 1412.51 62.4028 5
1 -2 2 1528.12 59.5754 2
-1 2 -2 1470.85 61.2131 1
1 -2 2 1564.55 61.521 1
-1 2 -3 178.123 11.4786 3
1 -2 3 191.817 11.048 1
-1 2 -3 178.219 10.7191 1
1 -2 3 150.225 10.7081 3
-1 2 -3 197.635 9.07798 2
1 -2 3 204.174 9.40961 2
1 -2 4 12.1 3.24051 2
-1 2 -4 16.9852 4.68017 1
1 -2 4 12.7381 4.89417 1
-1 2 -4 12.2595 3.34779 2
1 -2 5 776.891 32.3048 2
-1 2 -5 735.011 33.7816 1
-1 2 -5 801.096 32.1807 2
1 -2 5 791.228 34.0792 1
1 -2 6 225.275 12.0887 2
-1 2 -6 209.799 11.7204 2
1 -2 6 201.368 13.2743 1
-1 2 -6 163.245 12.7231 5
-1 2 -6 193.209 13.2331 3
-1 2 -6 203.841 12.9583 4
1 -2 7 282.765 17.7811 3
1 -2 7 300.72 16.2592 2
-1 2 -7 293.653 18.0025 5
1 -2 7 294.003 16.4428 4
-1 2 -7 282.296 16.5233 4
-1 2 -7 299.545 15.9382 2
-1 2 -7 328.15 18.0263 3
-1 2 -8 1562.78 65.8077 3
1 -2 8 1640.08 66.9728 3
1 -2 8 1682.18 64.8306 4
-1 2 -8 1554.26 63.9701 2
1 -2 8 1537.19 64.513 2
-1 2 -8 1454.39 66.2218 5
1 -2 9 204.902 15.2041 3
-1 2 -9 216.341 15.6306 5
-1 2 -9 207.018 14.0496 4
1 -2 9 183.904 13.6881 2
-1 2 -9 212.069 14.9123 3
-1 2 -9 197.031 13.334 2
1 -2 9 221.961 13.8021 4
-1 2 -10 1447.39 62.482 3
-1 2 -10 1322.94 62.0378 1
-1 2 -10 1461.39 61.0566 2
-1 2 -10 1455.61 62.2828 4
1 -2 10 1448.91 62.9741 1
1 -2 10 1426.09 63.7289 3
1 -2 10 1398.24 61.1388 4
1 -2 10 1383.86 61.7762 2
-1 2 -10 1421.4 63.6021 5
-1 2 -11 -0.8287 6.32702 2
-1 2 -11 2.01819 5.44808 4
1 -2 11 9.6132 7.42795 3
1 -2 11 4.31033 6.08799 4
-1 2 -11 7.04695 7.72833 3
-1 2 -11 1.05408 6.51599 1
1 -2 11 2.15122 6.97883 1
-1 2 -11 1.15771 7.33605 5
1 -2 11 1.97094 5.82819 2
1 -2 12 4.37272 6.58278 2
1 -2 12 4.63936 6.80222 4
-1 2 -12 -6.21319 8.54334 5
-1 2 -12 -1.06734 8.01093 3
-1 2 -12 -2.19102 6.2334 4
-1 2 -12 5.43212 7.06326 2
-1 2 -12 -2.26714 7.06556 1
1 -2 12 6.46471 8.3232 3
1 -2 12 2.3156 8.33298 1
1 -2 13 2.4076 7.24891 2
-1 2 -13 -1.32636 7.77002 5
-1 2 -13 -1.12851 8.94359 3
-1 2 -13 5.88448 7.27597 2
1 -2 13 6.88735 8.65704 3
1 -2 13 -4.96404 9.04283 1
-1 2 -13 -5.91258 7.37067 4
-1 2 -13 -4.85282 7.99089 1
1 -2 14 18.4239 8.79004 2
-1 2 -14 29.6181 10.3883 5
1 -2 14 20.4896 9.90437 3
-1 2 -14 34.1882 9.337 4
-1 2 -14 29.7705 9.59879 1
1 -2 15 207.155 18.6499 2
-1 2 -15 244.392 19.7603 5
-1 2 -15 230.495 19.1221 1
-1 2 -15 227.452 18.5964 4
1 -2 15 227.148 20.0832 3
1 -2 16 99.0923 14.1415 2
-1 2 -16 78.2799 12.7789 4
-1 2 -16 97.012 14.1243 1
-1 2 -16 92.5983 14.0985 5
-1 2 -17 84.9467 14.1078 1
-1 2 -17 85.5873 14.5862 5
1 -2 17 101.478 15.2709 2
-1 2 -17 110.493 14.3776 3
-1 2 -17 85.5784 14.0198 4
1 -2 18 3.55433 10.7121 2
-1 2 -18 17.1939 11.4191 5
-1 2 -18 11.1233 10.8603 1
-1 2 -18 13.6151 10.7938 4
-1 2 -18 17.403 9.91368 3
1 -1 -18 191.644 19.6131 4
1 -1 -18 179.266 14.2557 3
1 -1 -18 187.007 16.9619 1
1 -1 -17 115.786 12.9295 1
-1 1 17 114.776 14.1663 1
1 -1 -17 117.178 14.9741 4
1 -1 -17 95.7479 10.9171 3
1 -1 -16 8.54282 9.52614 4
1 -1 -16 11.4086 7.60223 3
1 -1 -16 15.4599 8.34537 1
1 -1 -16 9.19275 6.39024 3
-1 1 16 10.8124 9.21725 1
1 -1 -15 5.71892 5.46324 3
-1 1 15 1.0137 7.65626 1
1 -1 -15 10.7869 6.82483 3
1 -1 -15 11.6207 7.87414 1
1 -1 -15 5.31386 8.4211 4
1 -1 -14 109.597 10.843 3
1 -1 -14 128.61 10.3767 3
1 -1 -14 126.764 13.7132 4
-1 1 14 132.214 12.6846 1
1 -1 -14 122.435 11.9803 1
-1 1 13 6.70999 7.71418 2
1 -1 -13 16.0412 6.27504 3
1 -1 -13 -3.39901 7.57553 4
-1 1 13 1.74448 6.69811 1
1 -1 -13 4.97417 5.93237 1
-1 1 13 6.15952 6.68253 4
1 -1 -13 4.85796 4.74134 3
1 -1 -12 86.2331 10.5295 4
-1 1 12 76.3053 10.8938 2
1 -1 -12 70.5399 8.23312 3
1 -1 -12 71.0121 8.52975 1
-1 1 12 71.2203 9.08814 4
1 -1 -12 83.1891 11.1199 2
-1 1 12 81.4 9.31483 1
1 -1 -12 84.1985 7.70847 3
-1 1 11 1400.21 61.4057 1
1 -1 -11 1533.84 63.9316 2
-1 1 11 1429.84 61.928 4
1 -1 -11 1453.84 63.6674 4
-1 1 11 1342.76 64.1997 2
1 -1 -11 1460.86 61.3631 1
1 -1 -11 1449.02 59.773 3
1 -1 -11 1487.15 60.4683 3
1 -1 -10 355.103 18.4344 1
1 -1 -10 359.679 20.2936 4
-1 1 10 314.749 20.4742 2
-1 1 10 353.97 18.741 1
1 -1 -10 358.911 20.5016 2
-1 1 10 341.337 18.9425 4
1 -1 -10 341.379 17.0325 3
1 -1 -10 344.263 17.6473 3
-1 1 9 363.587 18.9926 1
1 -1 -9 376.555 18.0685 3
1 -1 -9 387.633 18.9377 1
-1 1 9 361.038 19.3614 4
1 -1 -9 390.244 20.9693 2
-1 1 9 366.596 21.3004 2
1 -1 -9 366.607 17.5386 3
1 -1 -9 365.212 20.4135 4
1 -1 -8 1.83316 3.49134 3
-1 1 8 -1.62466 4.66855 2
1 -1 -8 -1.43233 5.40638 2
1 -1 -8 4.06232 4.22058 4
-1 1 8 5.88347 4.10054 1
-1 1 8 2.83637 4.28259 4
1 -1 -8 -1.84021 3.55139 1
1 -1 -8 3.15778 2.98573 3
1 -1 -7 124.646 9.61061 2
1 -1 -7 121.474 7.14368 3
1 -1 -7 108.559 8.8143 4
1 -1 -7 104.878 7.30224 1
1 -1 -7 105.434 6.46294 3
-1 1 7 118.753 8.74737 4
-1 1 7 115.921 7.94746 1
-1 1 7 89.6784 8.81413 2
1 -1 -6 191.372 9.71948 3
1 -1 -6 213.365 10.5035 1
1 -1 -6 196.995 9.44054 3
-1 1 6 196.809 12.3017 2
1 -1 -6 190.929 12.3507 2
-1 1 6 218.447 10.9209 1
1 -1 -6 190.183 11.7216 4
-1 1 6 196.259 11.7523 4
-1 1 5 2295.45 94.0161 1
-1 1 5 2435.9 95.4335 4
1 -1 -5 2368.35 95.8642 2
-1 1 5 2387.12 96.1451 2
1 -1 -5 2427.86 93.8295 1
1 -1 -5 2439.85 92.9626 3
1 -1 -5 2380.06 93.121 3
1 -1 -5 2366.1 95.5462 4
1 -1 -4 402.194 16.8995 1
-1 1 4 371.04 18.7552 2
-1 1 4 422.5 17.1145 1
-1 1 4 428.169 18.757 4
1 -1 -4 401.53 18.9729 2
1 -1 -4 364.857 18.4699 4
-1 1 3 2299.8 91.2192 4
1 -1 -3 2241.34 91.3364 2
1 -1 -3 2207.32 91.222 4
-1 1 3 2353.63 89.524 1
1 -1 -3 2353.9 89.4665 1
-1 1 3 2232.8 91.3829 2
1 -1 -2 415.009 18.8028 4
1 -1 -2 475.531 18.974 2
-1 1 2 376.187 18.3832 2
-1 1 2 454.436 18.8921 4
-1 1 1 2303.05 87.5202 3
1 -1 -1 2287.1 87.5732 3
1 -1 -1 2328.72 88.18 5
1 -1 -1 2119.09 88.0023 2
-1 1 1 2270.96 87.1884 1
1 -1 -1 2165.27 88.5687 4
-1 1 1 2253.09 88.1122 2
-1 1 1 2224.42 88.5656 4
-1 1 0 286.979 12.6096 3
-1 1 0 292.337 13.2618 4
1 -1 0 272.511 12.6349 3
1 -1 0 304.151 13.087 5
-1 1 0 277.004 12.13 2
-1 1 0 265.866 12.7943 5
1 -1 0 244.223 12.8635 4
-1 1 0 275.138 12.1382 1
-1 1 0 286.44 12.6104 2
1 -1 1 3710.66 174.825 4
1 -1 1 4774.96 174.596 1
-1 1 -1 4569.88 174.51 1
1 -1 1 4107.02 174.728 3
-1 1 -1 4176.03 175.054 5
-1 1 -1 4658.08 175.24 4
-1 1 -1 4786.13 174.118 2
-1 1 -1 4792.38 175.036 3
1 -1 1 4704.97 174.207 2
-1 1 -2 1736.87 68.3289 1
-1 1 -2 1744.6 68.8428 3
-1 1 -2 1901.05 67.7827 2
1 -1 2 1582.37 68.5916 3
1 -1 2 1808.47 68.5292 1
1 -1 2 1797.21 67.8557 2
-1 1 -3 1777.74 76.0434 1
1 -1 3 1898.91 76.2464 1
1 -1 3 1833.43 75.7056 4
-1 1 -3 2007.54 75.3695 2
1 -1 3 1934.34 75.6755 2
1 -1 4 1487.59 59.9173 2
-1 1 -4 1451.07 59.4385 2
-1 1 -5 184.311 11.1948 2
1 -1 5 188.412 11.3764 2
1 -1 6 45.0589 6.06476 2
-1 1 -6 41.337 7.03418 3
1 -1 6 42.4101 6.48239 3
-1 1 -6 29.4447 5.54482 2
-1 1 -7 40.6901 7.04694 3
1 -1 7 32.1468 6.00375 2
-1 1 -7 34.4376 6.54313 1
-1 1 -7 22.8229 5.89459 2
1 -1 7 32.2533 6.72809 3
1 -1 8 103.741 9.49008 2
1 -1 8 77.5699 9.08081 3
-1 1 -8 81.5006 8.03648 4
-1 1 -8 83.8406 9.57146 3
-1 1 -8 74.7991 8.70008 1
1 -1 8 99.8175 9.90878 1
-1 1 -8 88.3786 8.67423 2
1 -1 9 1347.15 58.0064 3
1 -1 9 1299.46 57.1336 1
-1 1 -9 1295.38 56.9109 1
1 -1 9 1292.03 55.6448 4
-1 1 -9 1351.95 57.1164 3
-1 1 -9 1301.54 56.0884 2
-1 1 -9 1165.4 55.8821 4
1 -1 9 1311.84 57.06 2
-1 1 -10 66.1161 9.81145 3
-1 1 -10 55.2591 8.89369 1
1 -1 10 64.9716 9.56937 3
1 -1 10 75.4672 9.76405 1
-1 1 -10 64.8125 8.42117 4
1 -1 10 58.9378 8.12451 4
1 -1 10 63.9632 8.93442 2
-1 1 -10 50.5821 8.58622 2
1 -1 11 910.494 42.6115 1
-1 1 -11 898.69 42.0461 3
-1 1 -11 850.781 40.9604 2
-1 1 -11 849.481 41.5666 4
-1 1 -11 813.594 41.8368 1
1 -1 11 911.271 41.2022 4
1 -1 11 906.691 42.8486 2
1 -1 11 905.164 43.3392 3
1 -1 12 411.571 24.0899 1
-1 1 -12 398.706 23.6844 3
-1 1 -12 335.627 22.014 2
-1 1 -12 399.289 23.147 4
1 -1 12 456.661 23.0942 4
1 -1 12 347.714 23.3656 2
-1 1 -12 359.495 23.0859 1
1 -1 13 397.838 26.4128 2
-1 1 -13 445.034 26.4112 3
1 -1 13 489.962 27.35 1
-1 1 -13 428.274 26.131 1
-1 1 -13 452.037 26.0911 2
-1 1 -13 452.05 26.3623 4
1 -1 14 221.391 18.523 2
1 -1 14 239.843 18.7382 1
-1 1 -14 186.291 17.3122 1
-1 1 -14 207.077 16.6606 3
-1 1 -14 235.932 18.0992 4
1 -1 15 83.9315 13.188 2
-1 1 -15 61.5418 11.5704 4
-1 1 -15 61.7545 10.7135 3
-1 1 -15 64.5315 12.4571 1
-1 1 -16 15.4682 9.57658 4
1 -1 16 11.5073 10.4304 2
-1 1 -16 9.9397 10.2347 1
-1 1 -16 19.241 9.01534 3
-1 1 -17 56.8629 12.9122 1
-1 1 -17 48.2644 12.1722 4
1 -1 17 31.7078 12.3927 2
-1 1 -17 41.909 11.3283 3
1 -1 18 77.0925 15.4329 2
-1 1 -18 57.0535 14.5085 4
-1 1 -18 50.1328 13.4564 1
-1 1 -18 48.3374 12.1376 3
1 0 -19 7.78876 9.86098 1
1 0 -19 11.3243 10.8192 4
1 0 -18 11.1409 9.65984 1
-1 0 18 1.8853 12.1383 2
1 0 -18 -1.18552 9.25152 5
1 0 -18 9.12506 9.94442 4
1 0 -18 8.13998 7.05944 3
-1 0 17 196.052 20.3175 2
1 0 -17 221.103 17.8487 1
1 0 -17 202.37 18.7043 4
1 0 -17 172.613 14.5074 3
1 0 -16 295.597 19.3859 3
1 0 -16 298.525 20.8906 1
1 0 -16 322.888 18.7899 3
-1 0 16 306.643 23.8205 2
1 0 -16 350.232 23.1098 4
-1 0 16 283.815 21.0306 1
1 0 -15 75.006 11.267 4
1 0 -15 60.4326 9.51946 3
1 0 -15 89.5874 10.9193 1
1 0 -15 61.9876 8.65179 3
-1 0 15 82.2279 11.6775 1
1 0 -14 1021.78 46.8107 1
-1 0 14 1009.82 46.0296 4
-1 0 14 998.856 46.8846 1
1 0 -14 996.074 44.8986 3
1 0 -14 1024.86 48.2498 4
1 0 -14 972.992 44.3542 3
-1 0 13 1.86714 7.0178 1
1 0 -13 3.59655 6.10893 1
1 0 -13 22.1934 6.86888 3
-1 0 13 11.6252 6.4555 4
1 0 -13 8.29034 6.88742 4
1 0 -13 13.5357 5.69502 3
1 0 -12 159.619 12.5253 1
1 0 -12 174.07 13.4626 4
1 0 -12 163.019 11.8055 3
-1 0 12 159.683 12.4393 4
-1 0 12 160.824 12.9022 1
1 0 -11 37.7174 6.28897 3
1 0 -11 33.1523 6.59702 1
-1 0 11 29.2573 6.51628 4
-1 0 11 29.922 6.76591 1
1 0 -11 35.5934 7.13503 4
1 0 -10 110.825 8.94141 3
-1 0 10 113.13 10.0273 1
-1 0 10 116.005 9.22262 3
1 0 -10 113.522 9.55534 1
1 0 -10 109.649 9.75921 4
-1 0 10 111.899 9.18488 4
-1 0 9 568.564 26.7719 4
1 0 -9 556.443 25.8628 3
1 0 -9 555.305 26.9139 1
-1 0 9 605.828 27.5451 1
1 0 -9 577.323 27.6631 4
-1 0 9 576.649 26.4454 3
1 0 -8 483.895 22.469 3
-1 0 8 505.005 22.8978 3
-1 0 8 502.196 23.8332 1
1 0 -8 497.09 23.5938 1
1 0 -8 486.223 23.8699 4
-1 0 8 504.408 23.3442 4
1 0 -7 345.358 16.5113 1
1 0 -7 316.073 15.2545 3
1 0 -7 321.757 16.4484 4
-1 0 7 321.942 15.625 3
-1 0 7 303.971 15.9714 4
-1 0 7 321.48 16.4242 1
1 0 -6 29.1729 4.36789 1
1 0 -6 23.6019 3.68487 3
-1 0 6 27.163 3.81805 3
-1 0 6 33.625 4.43664 4
1 0 -6 28.1754 4.3009 4
-1 0 6 32.2878 4.72016 1
-1 0 5 2.30866 2.48003 3
-1 0 5 1.1348 2.94254 4
1 0 -5 3.5244 2.59125 3
-1 0 5 4.10956 3.33088 1
1 0 -5 0.31838 2.68834 4
1 0 -5 2.71445 3.01698 1
-1 0 4 141.782 7.86089 1
1 0 -4 122.892 8.88603 2
-1 0 4 131.261 6.82296 3
1 0 -4 134.85 7.3574 4
-1 0 4 123.593 7.20585 4
1 0 -4 149.278 7.9154 1
1 0 -4 138.655 6.67329 3
-1 0 3 347.812 14.7009 3
1 0 -3 346.601 15.0007 4
1 0 -3 356.006 15.6628 1
-1 0 3 351.606 15.7459 1
1 0 -3 354.86 14.5833 3
1 0 -3 333.878 16.7357 2
-1 0 3 369.309 15.0156 4
1 0 -2 727.763 28.0413 4
1 0 -2 670.209 29.7233 2
-1 0 2 705.742 27.9394 4
1 0 -2 720.608 28.985 1
-1 0 2 691.631 28.1335 3
1 0 -2 696.937 28.0901 3
-1 0 2 719.929 28.9246 1
-1 0 1 633.522 25.2852 1
1 0 -1 529.325 25.7342 2
-1 0 1 640.401 24.7582 3
1 0 -1 564.745 25.0859 1
1 0 -1 649.471 24.8106 3
1 0 0 42.8678 3.77813 3
-1 0 0 43.3507 4.92534 2
-1 0 0 45.2359 3.04538 4
1 0 0 44.3293 3.73455 1
1 0 0 49.791 4.66624 2
1 0 0 44.3312 3.04156 4
-1 0 0 42.0041 4.0367 1
-1 0 0 44.7746 3.63693 3
-1 0 -1 -2.47106 3.89834 2
1 0 1 -1.62492 3.27666 2
1 0 1 -0.24378 2.92938 3
1 0 1 -3.33389 2.21298 1
1 0 1 1.28593 2.23696 4
-1 0 -1 1.27476 2.4958 3
-1 0 -1 1.85535 1.97499 4
-1 0 -2 17962.7 743.765 4
1 0 2 21506.6 744.128 4
-1 0 -2 21191 745.072 2
1 0 2 17156 744.588 2
1 0 3 6638.24 228.11 4
1 0 3 6609.83 229.237 2
-1 0 -3 6884.47 229.098 2
-1 0 -4 63.2134 6.83266 2
1 0 4 70.6963 6.83464 2
1 0 4 66.7696 6.12112 4
-1 0 -4 65.1599 5.88745 4
-1 0 -5 268.069 15.12 3
-1 0 -5 223.149 14.0087 1
1 0 5 272.98 14.963 2
-1 0 -5 241.942 13.5869 3
1 0 5 266.888 13.9861 4
-1 0 -5 264.217 14.8418 2
-1 0 -6 1322.26 55.3283 1
-1 0 -6 1481.14 56.1088 3
-1 0 -6 1375.33 55.404 2
1 0 6 1405.48 55.5487 1
1 0 6 1213.63 55.1696 2
-1 0 -6 1085.07 53.8892 3
-1 0 -7 0.64022 3.99098 3
-1 0 -7 1.46032 6.21828 3
1 0 7 2.33631 4.93472 2
1 0 7 1.4225 5.27696 1
-1 0 -7 2.88168 4.63808 1
-1 0 -7 1.98766 5.46342 2
-1 0 -8 4576 190.384 3
-1 0 -8 4744.83 191.166 2
-1 0 -8 5159.72 191.838 3
1 0 8 4765.27 192.112 2
1 0 8 4934.08 191.483 1
-1 0 -8 4750.11 191.268 1
-1 0 -9 285.921 17.873 3
1 0 9 284.099 18.1621 2
-1 0 -9 257.829 17.1153 1
1 0 9 261.492 17.3498 1
-1 0 -9 281.981 17.4837 2
-1 0 -9 276.482 16.5509 3
-1 0 -10 405.695 22.8839 3
-1 0 -10 381.642 21.7223 3
-1 0 -10 383.826 22.7098 1
-1 0 -10 385.083 22.324 4
1 0 10 408.184 22.7662 1
-1 0 -10 396.945 22.6712 2
1 0 10 386.143 23.3256 2
-1 0 -11 951.659 45.1976 3
-1 0 -11 936.798 44.9897 2
-1 0 -11 961.59 45.5843 1
-1 0 -11 993.326 44.8553 3
1 0 11 949.644 46.7441 2
1 0 11 990.33 45.8044 1
1 0 11 971.849 44.4439 4
-1 0 -11 980.536 45.8704 4
1 0 12 98.9864 11.1113 4
1 0 12 101.979 12.0434 1
1 0 12 93.882 12.369 2
-1 0 -12 80.0366 11.2511 1
-1 0 -12 82.385 10.3837 3
-1 0 -12 114.302 12.5738 3
-1 0 -12 104.83 11.6943 4
-1 0 -12 106.952 12.0425 2
1 0 13 302.5 22.741 2
-1 0 -13 358.431 22.6645 3
-1 0 -13 371.991 23.1956 4
1 0 13 371.205 22.8628 1
-1 0 -13 326.281 21.1933 3
-1 0 -13 335.005 22.2407 1
-1 0 -14 277.93 21.1426 4
-1 0 -14 311.337 21.2809 1
1 0 14 275.169 21.7823 2
1 0 14 304.249 21.474 1
-1 0 -14 283.209 19.7764 3
1 0 15 497.097 32.254 2
-1 0 -15 574.327 32.3008 4
-1 0 -15 499.523 29.6343 3
-1 0 -15 571.307 31.6459 1
-1 0 -16 577.731 34.0654 4
1 0 16 573.812 35.0518 2
-1 0 -16 544.701 31.4781 3
-1 0 -16 540.22 32.3702 1
1 0 17 276.386 25.0745 2
-1 0 -17 303.825 23.5775 1
-1 0 -17 322.168 24.5605 4
-1 0 -17 295.797 22.2749 3
1 0 18 15.8832 13.1764 2
-1 0 -18 -1.84606 11.0193 4
-1 0 -18 7.02886 10.2463 3
-1 0 -18 7.70213 11.2954 1
1 1 -19 174.987 18.1036 1
1 1 -19 216.633 19.6239 4
1 1 -19 185.436 16.0622 3
-1 -1 19 140.258 19.1504 2
1 1 -18 88.3233 14.3408 1
1 1 -18 91.6633 12.6459 5
-1 -1 18 77.1162 15.2473 2
1 1 -18 85.2897 13.5591 4
1 1 -18 102.754 12.0833 3
1 1 -17 60.9839 11.7013 1
1 1 -17 44.3699 9.02833 3
-1 -1 17 49.9603 13.453 2
1 1 -17 59.4344 11.4795 4
1 1 -17 56.6669 10.5388 5
1 1 -16 -0.90259 7.65248 3
-1 -1 16 -6.44929 10.1334 2
1 1 -16 4.12189 7.64533 5
1 1 -16 -2.40073 8.36546 1
1 1 -16 -7.54776 8.70816 4
-1 -1 15 201.078 16.1071 3
1 1 -15 203.237 15.6536 5
1 1 -15 180.9 15.072 3
1 1 -15 211.664 16.854 4
1 1 -15 221.292 17.2307 1
-1 -1 15 196.672 16.9884 1
-1 -1 15 255.934 19.8164 2
-1 -1 14 1.39596 8.77375 2
1 1 -14 8.44827 7.31062 1
1 1 -14 -1.61567 6.97167 3
1 1 -14 6.4151 6.93703 4
-1 -1 14 1.93811 7.18985 3
-1 -1 14 -1.08177 7.93103 1
-1 -1 14 4.27634 6.77884 4
1 1 -14 0.9024 6.3726 5
1 1 -13 1280.42 55.9124 3
-1 -1 13 1279.09 57.203 3
1 1 -13 1390.09 58.2319 4
-1 -1 13 1213.72 59.6075 2
1 1 -13 1309.78 57.7832 1
-1 -1 13 1262.49 55.9969 4
1 1 -13 1368.3 56.9001 5
-1 -1 13 1199.47 57.4968 1
1 1 -12 931.343 41.8816 3
-1 -1 12 963.681 42.0443 4
-1 -1 12 950.282 43.0671 3
1 1 -12 924.85 43.3416 1
-1 -1 12 921.488 45.445 2
1 1 -12 963.075 44.3647 2
1 1 -12 922.034 42.2036 5
-1 -1 12 914.201 43.4984 1
1 1 -12 900.211 43.0352 4
1 1 -11 767.102 34.3692 3
-1 -1 11 785.085 35.3891 3
1 1 -11 756.242 34.5825 5
-1 -1 11 724.358 37.2146 2
1 1 -11 735.693 35.2101 4
1 1 -11 726.268 35.5922 1
-1 -1 11 759.415 36.036 1
1 1 -11 727.722 36.4273 2
-1 -1 11 750.874 34.2101 4
1 1 -10 289.085 15.6776 3
1 1 -10 257.415 17.1403 2
-1 -1 10 276.815 15.9837 3
1 1 -10 260.216 15.5688 4
1 1 -10 256.753 15.166 5
1 1 -10 271.353 16.4484 1
-1 -1 10 279.006 15.2762 4
-1 -1 10 259.755 16.4482 1
-1 -1 10 252.09 17.2767 2
-1 -1 9 -0.70799 5.1945 1
-1 -1 9 3.50162 4.57002 2
1 1 -9 1.60599 4.31285 3
1 1 -9 8.407 4.88671 1
-1 -1 9 5.61085 4.0687 4
1 1 -9 6.3803 3.9269 5
1 1 -9 9.88305 4.21552 4
1 1 -9 7.15867 5.90469 2
-1 -1 9 9.28073 4.75402 3
1 1 -8 17.7769 5.31971 1
-1 -1 8 18.5305 4.92856 3
1 1 -8 28.7205 4.63593 5
1 1 -8 21.6369 4.33549 4
-1 -1 8 18.4822 5.55682 1
-1 -1 8 27.7185 4.8421 4
1 1 -8 15.781 4.70155 3
-1 -1 8 14.0891 5.25445 2
1 1 -8 21.6733 6.09359 2
-1 -1 7 791.452 35.1281 3
-1 -1 7 814.804 36.1251 1
1 1 -7 801.19 36.6045 2
-1 -1 7 793.27 34.2779 4
1 1 -7 796.707 34.5945 4
1 1 -7 845.129 34.9779 3
-1 -1 7 778.605 36.6112 2
1 1 -7 802.687 35.9336 1
1 1 -7 863.503 34.5808 5
-1 -1 6 929.502 36.6943 3
1 1 -6 859.405 35.5971 5
1 1 -6 859.369 35.6717 4
-1 -1 6 880.863 37.2985 1
-1 -1 6 862.354 35.4796 4
1 1 -6 885.902 36.1891 3
1 1 -6 874.122 37.2851 1
-1 -1 5 1908.83 74.283 3
-1 -1 5 1876.13 75.0104 1
1 1 -5 1888.29 75.0328 1
1 1 -5 1869.42 73.9276 3
-1 -1 5 1721.08 75.3408 2
-1 -1 5 1912.57 73.0982 4
1 1 -5 1772.69 73.1628 4
-1 -1 4 4910.17 188.386 3
-1 -1 4 4758.31 188.989 1
-1 -1 4 4871.27 187.002 4
1 1 -4 4839.67 187.011 4
-1 -1 4 4953.29 187.415 5
1 1 -4 4852.34 188.105 3
1 1 -4 4554.49 188.835 1
1 1 -3 3733.6 143.17 4
1 1 -3 3708.69 142.873 4
1 1 -3 3672.53 145.222 1
1 1 -3 3658.96 144.331 3
-1 -1 3 3636.78 145.119 1
-1 -1 3 3760.33 144.624 3
-1 -1 2 2223.06 84.1293 1
1 1 -2 2220.73 83.4379 3
-1 -1 2 2107.93 83.4835 3
1 1 -1 9202.57 324.567 3
-1 -1 1 9231.08 324.736 3
1 1 0 381.954 16.0264 4
-1 -1 0 394.876 16.2144 4
-1 -1 0 371.043 17.3147 3
1 1 0 372.697 17.4129 3
1 1 1 22018.6 848.071 4
-1 -1 -1 22216 848.383 4
1 1 1 21976.2 849.118 3
1 1 2 29312.8 1088.03 4
-1 -1 -2 27240.3 1088.25 4
-1 -1 -3 2146.58 85.433 1
-1 -1 -3 2165.65 85.3517 4
1 1 3 2089.02 84.8342 4
-1 -1 -4 2061.18 79.5926 4
1 1 4 2001.64 79.0517 4
-1 -1 -4 2000.62 79.9485 1
-1 -1 -4 2233.49 79.7081 1
-1 -1 -5 225.199 12.2564 1
-1 -1 -5 218.267 12.1862 3
1 1 5 203.88 11.9816 4
-1 -1 -5 160.511 11.4651 4
1 1 5 142.842 12.3653 3
-1 -1 -5 212.803 12.635 1
1 1 6 343 18.3466 4
-1 -1 -6 327.784 18.7308 4
-1 -1 -6 362.854 18.7502 1
-1 -1 -6 361.686 18.9811 3
-1 -1 -6 402.761 19.8153 1
-1 -1 -7 1285.71 53.2734 1
-1 -1 -7 1192.58 53.8368 1
-1 -1 -7 1302.37 54.542 3
1 1 7 1264.69 53.1736 4
-1 -1 -7 1169.57 53.2321 3
-1 -1 -8 109.189 10.0363 1
1 1 8 77.7198 8.77321 4
-1 -1 -8 94.3225 9.99244 3
-1 -1 -8 86.8831 8.91747 1
-1 -1 -8 84.5411 8.53966 3
1 1 9 4.34598 6.31408 2
-1 -1 -9 7.20308 6.07172 1
-1 -1 -9 10.9031 6.98311 3
-1 -1 -9 13.1055 5.99237 1
-1 -1 -9 9.71214 5.45993 3
-1 -1 -10 13.6321 7.27724 3
1 1 10 5.94187 6.63729 2
-1 -1 -10 17.5431 6.83403 1
-1 -1 -10 10.7732 6.41502 1
-1 -1 -10 6.99623 5.64401 3
-1 -1 -11 120.192 11.0926 3
1 1 11 104.829 12.4539 2
-1 -1 -11 107.605 11.8115 1
-1 -1 -11 97.7342 11.9281 3
-1 -1 -11 93.6206 10.5974 1
-1 -1 -11 108.951 12.4785 2
1 1 12 168.376 17.0183 2
-1 -1 -12 225.097 16.8004 1
-1 -1 -12 210.18 15.7126 1
-1 -1 -12 218.213 17.1672 3
-1 -1 -12 209.213 15.6258 3
-1 -1 -13 107.04 12.6407 1
-1 -1 -13 118.257 13.8962 3
-1 -1 -13 89.3616 11.5051 1
1 1 13 92.3881 13.974 2
-1 -1 -13 117.671 13.2501 4
-1 -1 -13 98.5479 12.0343 3
1 1 14 9.75811 9.64035 2
-1 -1 -14 17.7879 9.50511 1
-1 -1 -14 16.3346 8.5224 1
-1 -1 -14 22.1156 8.9823 4
-1 -1 -14 20.4817 8.268 3
1 1 15 188.264 19.3082 2
-1 -1 -15 170.071 16.8592 1
-1 -1 -15 191.31 18.2397 4
-1 -1 -15 166.247 16.1092 3
1 1 16 301.5 25.7208 2
-1 -1 -16 307.321 23.9427 4
-1 -1 -16 324.278 23.5241 1
-1 -1 -16 306.027 21.9382 3
-1 -1 -17 243.158 21.2788 1
-1 -1 -17 235.682 22.3668 4
1 1 17 254.83 23.7688 2
-1 -1 -17 243.606 20.102 3
1 1 18 6.27259 13.3545 2
-1 -1 -18 -3.81034 11.4726 4
-1 -1 -18 -7.62148 11.441 1
-1 -1 -18 -1.40067 10.1442 3
1 2 -18 99.1119 15.1658 1
-1 -2 18 127.099 15.1203 3
1 2 -18 108.629 14.7797 4
-1 -2 18 89.8943 16.1594 2
1 2 -18 100.827 12.7122 5
1 2 -17 49.3962 10.2132 5
1 2 -17 63.0338 12.3286 1
-1 -2 17 45.3718 11.6766 3
1 2 -17 54.7995 11.5644 4
-1 -2 17 37.2435 12.3336 2
1 2 -16 1311.52 60.1911 3
1 2 -16 1301.3 62.2556 1
-1 -2 16 1382.34 62.1568 3
1 2 -16 1378.83 60.8275 5
1 2 -16 1376.52 62.0195 4
-1 -2 16 1349.9 64.6741 2
1 2 -15 156.979 13.6593 4
1 2 -15 126.672 13.7478 1
1 2 -15 123.038 12.4342 5
-1 -2 15 117.227 12.1202 4
-1 -2 15 103.884 13.3709 3
-1 -2 15 119.824 14.4996 1
1 2 -15 148.34 13.3291 3
-1 -2 15 117.315 14.5594 2
1 2 -14 34.7434 9.13546 1
1 2 -14 45.1688 8.66028 5
1 2 -14 46.6593 9.36149 3
-1 -2 14 34.8426 8.15092 4
-1 -2 14 31.6471 8.75327 3
-1 -2 14 28.9905 9.45707 2
1 2 -14 30.9312 7.85963 4
-1 -2 14 29.1308 9.65685 1
1 2 -13 41.1259 7.85262 5
1 2 -13 38.0135 8.86725 1
-1 -2 13 47.9776 10.0394 1
1 2 -13 41.6407 8.34338 3
-1 -2 13 27.6259 8.24629 3
1 2 -13 32.2639 7.54032 4
-1 -2 13 41.9813 7.7924 4
-1 -2 13 49.6477 10.1481 2
1 2 -12 56.8322 9.43883 1
-1 -2 12 53.6959 9.70141 1
-1 -2 12 38.8251 8.32711 3
-1 -2 12 50.9029 7.73112 4
1 2 -12 56.3325 9.8035 2
-1 -2 12 60.7292 9.73104 2
1 2 -12 48.1281 7.63588 4
1 2 -12 42.6607 7.7917 5
1 2 -12 53.9621 8.38223 3
1 2 -11 643.374 33.0145 1
1 2 -11 611.034 31.0931 4
1 2 -11 701.378 31.9431 3
-1 -2 11 649.678 32.4433 3
-1 -2 11 632.613 33.8178 2
-1 -2 11 719.242 31.2182 4
-1 -2 11 665.241 33.2808 1
1 2 -11 671.726 33.409 2
1 2 -11 676.818 31.6348 5
1 2 -10 593.142 28.9544 3
1 2 -10 649.004 30.8955 2
-1 -2 10 594.236 29.8054 3
-1 -2 10 581.81 30.7733 2
1 2 -10 623.326 28.9451 5
1 2 -10 590.875 30.3168 1
1 2 -10 615.3 28.6757 4
-1 -2 10 591.28 27.9634 4
-1 -2 10 621.676 30.5686 1
1 2 -9 1021.63 44.7209 3
-1 -2 9 1013.51 45.3704 3
-1 -2 9 992.38 45.8852 1
-1 -2 9 1042.08 43.5677 4
1 2 -9 1010.74 43.9537 4
1 2 -9 1104.36 46.4577 2
-1 -2 9 980.719 46.2232 2
1 2 -9 1006.51 45.9525 1
1 2 -8 1323.91 54.8123 3
-1 -2 8 1336.65 56.519 2
1 2 -8 1241.29 55.6621 1
-1 -2 8 1313.83 53.4278 4
1 2 -8 1265.43 55.8255 2
-1 -2 8 1249.04 55.7 1
1 2 -8 1313.45 53.7169 4
-1 -2 8 1270.95 55.1639 3
-1 -2 7 1542.01 66.5957 2
-1 -2 7 1620.55 65.9802 3
-1 -2 7 1622.36 66.4611 1
1 2 -7 1560.33 66.3593 2
1 2 -7 1510.39 66.1498 1
1 2 -7 1586.94 64.1347 4
1 2 -7 1603.85 65.3607 3
1 2 -6 244.518 12.7715 4
-1 -2 6 270.285 15.1635 1
-1 -2 6 255.784 14.8903 2
1 2 -6 284.813 13.9691 4
-1 -2 6 256.153 13.6587 5
-1 -2 6 261.999 14.6946 3
1 2 -6 246.921 14.857 1
1 2 -6 259.007 15.1846 2
1 2 -6 257.048 14.2269 3
-1 -2 5 513.71 24.4633 3
-1 -2 5 556.384 23.7794 5
-1 -2 5 517.36 24.9295 1
1 2 -5 506.483 24.7906 2
-1 -2 5 504.449 24.8223 2
1 2 -5 502.486 23.0207 4
1 2 -5 518.509 25.0386 1
1 2 -5 550.621 22.7481 4
1 2 -5 535.454 24.3067 3
1 2 -4 26.1379 3.24681 4
1 2 -4 33.5557 5.01827 3
-1 -2 4 29.9735 4.60228 3
1 2 -4 40.9835 5.98585 2
1 2 -4 34.3186 4.90314 1
-1 -2 4 27.8549 4.72456 2
1 2 -4 27.7836 3.99533 4
-1 -2 4 31.1517 5.72145 1
-1 -2 3 80.575 6.89657 3
1 2 -3 92.6204 7.38601 3
1 2 -3 80.7909 7.24968 1
-1 -2 3 85.5333 7.02697 2
1 2 -3 87.6618 5.75283 4
-1 -2 3 90.3029 5.86124 4
1 2 -3 104.874 7.92292 2
-1 -2 2 767.101 34.3086 2
-1 -2 2 782.133 31.6037 4
1 2 -2 788.372 31.3203 4
-1 -2 2 719.491 33.1164 2
1 2 -2 772.615 32.9472 3
-1 -2 2 711.262 32.8998 3
-1 -2 1 14.2285 3.31086 4
-1 -2 1 15.6247 3.9856 3
1 2 -1 18.4936 4.73001 3
-1 -2 1 20.0067 5.95894 2
1 2 -1 9.9186 3.12599 4
1 2 0 596.527 28.1424 2
1 2 0 619.595 26.0078 4
1 2 0 616.301 27.3911 3
-1 -2 0 608.057 26.3046 4
-1 -2 0 614.938 28.1495 2
-1 -2 -1 71.7814 6.57765 1
1 2 1 51.2772 6.76279 2
-1 -2 -1 77.2973 7.83372 2
-1 -2 -1 76.4273 6.1007 4
1 2 1 73.5609 5.87323 4
1 2 2 139.492 9.27325 1
-1 -2 -2 139.127 9.41911 1
1 2 2 134.245 8.75877 4
-1 -2 -2 154.033 9.22931 4
-1 -2 -2 149.669 10.4012 2
1 2 2 100.862 9.63937 2
-1 -2 -3 0.54809 3.65328 3
-1 -2 -3 6.09987 5.62856 2
1 2 3 9.04063 4.79369 2
-1 -2 -3 13.2115 4.61265 4
1 2 3 6.83857 4.22901 4
1 2 3 17.7941 4.47614 1
-1 -2 -3 14.1103 4.82754 1
1 2 4 1841.78 81.9313 2
1 2 4 2024.39 79.7969 1
-1 -2 -4 2041.31 80.0241 1
-1 -2 -4 2018.85 80.3866 4
1 2 4 2054.66 79.7028 4
-1 -2 -4 1994.76 81.0514 2
-1 -2 -4 2032.18 80.3001 3
-1 -2 -5 10.7169 6.11428 2
-1 -2 -5 1.29133 3.89259 3
-1 -2 -5 5.58862 4.32194 4
-1 -2 -5 2.35784 4.60264 1
1 2 5 9.69395 4.83801 4
1 2 5 5.81795 4.89136 3
1 2 6 1744.95 74.5085 4
-1 -2 -6 1870.28 75.0938 1
-1 -2 -6 1666.17 75.5113 4
-1 -2 -6 1736.27 76.0566 2
1 2 6 1918.54 74.8974 3
-1 -2 -6 1804.86 75.923 1
-1 -2 -6 1904.92 75.5732 3
1 2 7 343.057 18.0456 3
-1 -2 -7 313.587 17.9822 1
-1 -2 -7 312.283 18.7161 1
-1 -2 -7 346.32 18.7249 3
1 2 7 329.867 18.0458 4
-1 -2 -7 314.83 18.7784 4
-1 -2 -7 267.218 18.8626 2
-1 -2 -8 369.323 23.4404 2
-1 -2 -8 436.495 23.749 1
-1 -2 -8 467.692 23.2782 3
-1 -2 -8 414.071 23.4971 4
-1 -2 -8 456.895 22.9277 1
1 2 8 399.413 22.226 4
-1 -2 -9 20.3822 7.69022 3
-1 -2 -9 23.6373 6.42468 3
-1 -2 -9 7.72489 7.28752 2
-1 -2 -9 32.1146 7.56278 1
1 2 9 24.7995 7.14316 4
-1 -2 -9 12.9308 6.31777 1
-1 -2 -10 95.001 10.9004 1
1 2 10 61.6063 9.39661 4
-1 -2 -10 87.0147 11.3957 3
-1 -2 -10 77.2071 9.67878 1
-1 -2 -10 109.261 10.7417 3
-1 -2 -11 171.604 15.0791 3
-1 -2 -11 158.548 13.5911 1
-1 -2 -11 170.661 14.5176 1
-1 -2 -11 145.845 13.1487 3
-1 -2 -12 92.6836 12.8425 3
-1 -2 -12 63.108 9.93798 1
-1 -2 -12 76.1278 11.3625 1
-1 -2 -12 94.5588 10.8631 3
-1 -2 -13 244.442 18.2171 1
-1 -2 -13 290.74 19.5675 3
-1 -2 -13 260.41 19.74 1
-1 -2 -14 453.488 29.1838 4
-1 -2 -14 442.837 26.6147 1
-1 -2 -14 487.354 27.2534 3
-1 -2 -14 446.422 27.769 1
-1 -2 -15 218.89 19.1553 1
-1 -2 -15 249.861 18.7173 3
-1 -2 -15 246.437 21.2425 4
-1 -2 -16 43.5866 12.0149 1
-1 -2 -16 32.0181 10.2614 3
-1 -2 -16 46.1084 12.8524 4
-1 -2 -17 119.686 15.9699 1
-1 -2 -17 86.5293 16.2286 4
-1 -2 -17 86.8255 13.3734 3
-1 -3 18 57.8648 13.2037 3
1 3 -18 45.599 11.4767 4
1 3 -18 44.5621 13.3378 1
-1 -3 18 51.3487 13.4244 2
-1 -3 17 18.1784 10.524 3
1 3 -17 18.5938 9.01081 4
-1 -3 17 25.0712 11.199 2
1 3 -17 20.5994 11.2592 1
1 3 -16 1.14 7.67494 4
-1 -3 16 -1.34568 9.43993 3
-1 -3 16 1.56949 9.45088 2
1 3 -16 -2.8058 9.37713 1
1 3 -15 114.33 12.9746 3
-1 -3 15 104.205 13.9196 2
-1 -3 15 83.2402 12.9668 3
1 3 -15 101.519 11.5615 4
1 3 -15 106.733 13.799 1
1 3 -14 154.152 15.4287 1
1 3 -14 151.205 14.4539 3
-1 -3 14 190.151 16.5056 3
1 3 -14 185.518 14.0751 4
-1 -3 14 162.163 15.8381 2
-1 -3 13 160.07 15.5789 1
-1 -3 13 162.902 14.7024 3
1 3 -13 152.942 12.5649 4
1 3 -13 159.858 13.8749 3
-1 -3 13 143.826 14.7622 2
1 3 -13 154.037 14.8374 1
1 3 -12 196.914 15.0761 3
1 3 -12 204.626 15.8124 2
1 3 -12 218.904 16.1533 4
-1 -3 12 199.526 16.1839 2
-1 -3 12 178.85 15.59 1
1 3 -12 199.054 13.9081 4
-1 -3 12 199.125 15.6899 3
1 3 -12 212.657 16.551 1
1 3 -11 1.66948 6.41203 3
1 3 -11 12.699 6.86955 1
-1 -3 11 12.427 7.59559 1
1 3 -11 6.74685 6.94108 2
1 3 -11 5.18398 6.85146 4
-1 -3 11 6.43519 7.12083 2
1 3 -11 2.13925 4.94183 4
-1 -3 11 9.0627 6.53708 3
1 3 -10 18.9961 6.86669 3
-1 -3 10 25.4081 6.97623 3
-1 -3 10 21.2749 7.3752 1
1 3 -10 6.26835 6.40322 2
-1 -3 10 17.7202 6.75899 2
1 3 -10 23.8775 7.26263 4
1 3 -10 19.8801 7.36493 1
1 3 -10 19.2362 5.10482 4
1 3 -9 42.5218 7.13237 4
-1 -3 9 54.7604 8.13592 3
1 3 -9 42.4304 8.11168 2
1 3 -9 48.7777 6.18359 4
-1 -3 9 37.9093 7.94925 1
-1 -3 9 44.1179 7.41749 2
1 3 -9 49.2567 7.85983 1
1 3 -9 44.2234 7.37205 3
1 3 -8 19.1839 6.39935 3
1 3 -8 29.5903 6.40009 1
-1 -3 8 30.5608 6.4674 3
1 3 -8 21.5296 4.48798 4
1 3 -8 21.5463 6.75315 2
-1 -3 8 28.5007 6.96552 1
-1 -3 8 18.1567 5.70087 2
1 3 -8 16.4151 5.58037 4
-1 -3 7 585.851 27.6188 3
-1 -3 7 515.552 27.0489 1
-1 -3 7 525.763 25.9737 5
1 3 -7 533.301 26.9239 2
-1 -3 7 554.2 27.2491 2
1 3 -7 530.372 25.5686 4
1 3 -7 547.876 27.5264 1
1 3 -7 566.578 24.9147 4
1 3 -7 539.015 26.5473 3
-1 -3 6 1219.42 55.1945 3
-1 -3 6 1308.19 55.5765 1
-1 -3 6 1254.82 55.1429 2
1 3 -6 1287.88 53.5249 4
-1 -3 6 1362.46 54.6978 5
1 3 -6 1191.63 55.2643 1
1 3 -6 1300.68 52.8594 4
1 3 -6 1306.68 55.1437 2
1 3 -6 1315.98 54.8889 3
-1 -3 5 3438.69 137.12 3
1 3 -5 3093.63 136.638 1
1 3 -5 3488.87 136.736 2
1 3 -5 3425 134.334 4
-1 -3 5 3488.39 136.897 2
1 3 -5 3560.94 135.054 4
1 3 -5 3395.39 136.401 3
-1 -3 4 -0.6682 4.59403 3
-1 -3 4 -0.60801 3.7898 2
1 3 -4 4.72024 4.84192 3
1 3 -4 1.21358 3.76818 4
-1 -3 4 0.88713 3.44219 4
-1 -3 3 1219.48 52.2856 3
-1 -3 3 1190.22 51.8336 2
1 3 -3 1184.33 50.2205 4
-1 -3 3 1231.61 52.8002 2
-1 -3 3 1300.95 50.7916 4
1 3 -3 1206.82 51.74 3
1 3 -2 -2.82672 4.45754 3
-1 -3 2 -1.27256 4.12818 3
-1 -3 2 4.63368 5.71233 2
1 3 -2 0.39133 3.63187 4
-1 -3 2 5.81549 4.36511 2
-1 -3 2 3.44339 3.64939 4
1 3 -1 83.9163 7.89379 3
1 3 -1 84.3574 7.95397 1
-1 -3 1 82.6504 8.84664 2
-1 -3 1 85.7107 8.0226 1
1 3 -1 93.2668 7.09977 4
-1 -3 1 92.2469 7.14298 4
1 3 0 703.194 34.875 2
-1 -3 0 800.797 34.5565 1
-1 -3 0 767.489 34.8793 2
1 3 0 794.919 33.2508 4
1 3 0 674.848 33.881 1
-1 -3 0 840.919 33.9725 4
-1 -3 -1 773.091 33.1929 1
1 3 1 758.811 32.1668 4
1 3 1 763.355 33.1341 1
1 3 1 664.801 33.5247 2
-1 -3 -1 711.772 32.3533 4
-1 -3 -1 680.987 33.1862 2
-1 -3 -2 11.9925 4.76461 3
-1 -3 -2 16.3604 5.13495 1
1 3 2 10.7798 5.06155 2
-1 -3 -2 17.8031 5.95807 2
1 3 2 16.3012 4.76055 4
-1 -3 -2 15.7838 4.76585 4
1 3 2 10.2524 4.34597 1
-1 -3 -3 27.7082 5.61052 3
-1 -3 -3 22.2809 5.22757 1
1 3 3 24.0566 6.16536 2
-1 -3 -3 31.6087 6.86608 2
-1 -3 -3 34.3913 5.98111 4
1 3 3 26.168 5.60932 4
1 3 3 19.112 4.81451 1
1 3 3 33.5152 6.21076 3
1 3 4 146.463 10.5099 4
1 3 4 135.242 10.0275 1
-1 -3 -4 122.79 10.265 1
-1 -3 -4 121.172 10.3979 3
-1 -3 -4 148.61 11.8815 2
1 3 4 151.99 10.9081 3
-1 -3 -4 142.316 10.8595 4
1 3 4 153.75 12.2603 2
-1 -3 -5 -1.62374 6.05849 2
1 3 5 0.6866 5.18291 4
1 3 5 0.97918 5.51559 2
-1 -3 -5 3.34151 4.70559 4
-1 -3 -5 -1.53118 4.35631 3
1 3 5 -0.6697 4.54096 1
1 3 5 2.77354 4.95931 3
-1 -3 -5 4.65602 4.87628 1
-1 -3 -6 14.6268 5.27633 3
-1 -3 -6 4.32349 6.49371 2
1 3 6 1.06657 5.88792 2
1 3 6 -0.73826 5.48136 4
-1 -3 -6 6.44959 5.69907 4
1 3 6 7.92693 5.53601 3
-1 -3 -6 5.66909 5.32322 1
1 3 7 121.56 11.0265 4
-1 -3 -7 135.6 12.5441 2
-1 -3 -7 142.923 11.2582 1
1 3 7 141.005 13.3792 2
-1 -3 -7 128.486 12.1133 4
-1 -3 -7 153.479 11.8483 3
1 3 7 144.966 11.3444 3
-1 -3 -7 115.429 11.4417 1
-1 -3 -8 434.293 22.8289 1
1 3 8 409.286 22.2961 3
1 3 8 391.38 22.3977 4
-1 -3 -8 436.51 24.2544 2
1 3 8 402.629 25.0358 2
-1 -3 -8 395.453 23.8644 4
-1 -3 -8 410.574 22.9999 3
-1 -3 -8 409.686 23.2445 1
-1 -3 -9 293.867 18.6849 3
-1 -3 -9 279.009 18.5465 1
-1 -3 -9 336.115 18.6643 1
-1 -3 -9 309.865 20.3257 4
1 3 9 287.616 17.6276 3
1 3 9 272.747 20.7065 2
-1 -3 -9 264.459 19.0355 2
1 3 9 269.127 17.8231 4
-1 -3 -10 205.903 16.6661 1
-1 -3 -10 250.945 16.8569 1
-1 -3 -10 256.882 18.4611 2
-1 -3 -10 252.174 18.6493 4
1 3 10 259.823 19.9547 2
-1 -3 -10 233.354 16.9653 3
-1 -3 -11 421.117 25.052 3
-1 -3 -11 384.226 23.4876 3
-1 -3 -11 400.931 23.1332 1
-1 -3 -11 368.888 25.0218 4
-1 -3 -11 384.199 23.8447 1
1 3 11 419.079 27.152 2
-1 -3 -12 16.7913 7.9873 3
1 3 12 13.2611 10.9414 2
-1 -3 -12 15.2871 7.59431 1
-1 -3 -12 29.4548 9.07204 1
-1 -3 -13 4.6825 6.85802 3
1 3 13 -7.05524 10.4298 2
-1 -3 -13 4.97659 8.31633 1
-1 -3 -13 2.14025 8.07816 1
-1 -3 -14 1.22157 7.86391 3
1 3 14 -1.87708 10.5732 2
-1 -3 -14 3.91305 8.9061 1
1 3 15 212.909 22.1523 2
-1 -3 -15 237.911 18.8231 3
-1 -3 -15 203.139 18.9824 1
1 3 16 181.495 21.9858 2
-1 -3 -16 187.59 18.3778 1
-1 -3 -16 174.373 16.8879 3
-1 -3 -17 1133.63 55.7215 1
-1 -3 -17 1161.13 59.6605 4
1 3 17 1097.67 60.9163 2
-1 -3 -17 1122.37 54.6903 3
-1 -4 18 712.086 39.3052 2
-1 -4 18 614.12 37.3203 3
1 4 -18 602.387 34.6523 4
1 4 -17 243.634 18.9519 4
-1 -4 17 246.717 21.2511 3
-1 -4 17 174.646 19.7297 2
1 4 -17 228.402 21.0331 1
-1 -4 16 250.414 21.1743 3
1 4 -16 229.69 20.4617 1
-1 -4 16 230.03 20.821 2
1 4 -16 234.074 17.6655 4
-1 -4 15 22.6537 10.5908 3
1 4 -15 29.4555 8.20586 4
1 4 -15 3.39151 9.61205 4
1 4 -15 27.4286 10.3508 1
-1 -4 15 14.5409 9.53384 2
1 4 -14 50.295 8.74987 4
-1 -4 14 59.1935 11.666 3
1 4 -14 52.2578 11.5 1
-1 -4 14 54.2398 11.2384 2
1 4 -14 37.1559 10.323 4
1 4 -13 30.7723 7.14992 4
1 4 -13 34.8951 9.49921 3
-1 -4 13 10.2691 8.60924 3
1 4 -13 35.7186 9.46218 4
1 4 -13 57.5345 11.0062 1
-1 -4 13 40.3998 9.87672 2
1 4 -12 34.5404 9.07205 3
-1 -4 12 22.0341 8.5862 3
-1 -4 12 39.6923 10.6472 1
-1 -4 12 16.4177 8.17598 2
1 4 -12 26.7267 6.78042 4
1 4 -12 24.9914 8.45022 4
1 4 -12 19.874 8.76805 1
-1 -4 11 308.083 21.2521 3
1 4 -11 327.491 20.496 2
-1 -4 11 306.419 21.2523 1
-1 -4 11 304.527 20.5341 2
1 4 -11 362.899 19.1228 4
1 4 -11 299.98 21.1325 1
1 4 -11 346.244 20.2187 4
1 4 -11 360.542 20.9736 3
1 4 -10 26.7341 8.00553 1
-1 -4 10 20.9552 7.97665 3
1 4 -10 12.8399 7.02889 4
1 4 -10 19.1794 5.48515 4
1 4 -10 31.7348 8.26494 2
1 4 -10 21.8623 8.06798 3
-1 -4 10 28.1623 7.71818 2
-1 -4 10 8.58261 7.41759 1
1 4 -9 63.725 8.95283 3
-1 -4 9 45.282 8.68694 1
-1 -4 9 59.6927 9.0283 3
1 4 -9 37.9488 8.55558 1
1 4 -9 29.4232 5.64531 4
1 4 -9 49.1277 8.39402 2
-1 -4 9 27.0411 6.90834 2
1 4 -9 50.9715 7.98844 4
-1 -4 9 50.3945 7.96481 5
1 4 -8 172.565 11.2332 4
-1 -4 8 140.797 12.9495 3
1 4 -8 141.71 13.1111 1
-1 -4 8 196.42 13.3132 5
1 4 -8 165.858 13.2283 2
-1 -4 8 195.731 13.5146 2
-1 -4 8 160.029 13.5601 1
1 4 -8 177.085 12.4192 4
1 4 -8 177.474 13.4419 3
1 4 -7 108.246 10.6861 3
-1 -4 7 111.447 11.0964 3
1 4 -7 113.194 8.74844 4
-1 -4 7 137.597 11.0155 2
1 4 -7 135.499 11.23 2
1 4 -7 114.071 9.85779 4
1 4 -7 129.068 11.8761 1
-1 -4 7 146.564 11.3961 5
-1 -4 6 312.397 18.9288 3
1 4 -6 327.171 18.0288 2
1 4 -6 316.433 16.8143 4
-1 -4 6 273.73 17.1647 2
1 4 -6 306.962 18.0785 3
1 4 -6 297.502 15.6602 4
-1 -4 5 296.442 18.2071 2
-1 -4 5 284.324 17.5992 3
-1 -4 5 262.879 16.2449 2
1 4 -5 286.057 17.0103 3
-1 -4 5 295.747 16.2113 4
1 4 -5 264.243 15.3665 4
-1 -4 4 764.541 37.8286 3
-1 -4 4 813.702 37.9955 2
-1 -4 4 826.777 36.9147 2
1 4 -4 822.602 35.7981 4
-1 -4 4 840.555 36.338 4
1 4 -4 780.678 36.9775 3
-1 -4 4 791.142 37.6017 1
1 4 -3 53.4349 8.03099 3
-1 -4 3 55.963 7.41561 3
-1 -4 3 54.0387 8.46627 2
1 4 -3 61.1531 8.04089 1
-1 -4 3 68.7917 7.24881 4
-1 -4 3 57.2668 7.155 2
1 4 -3 78.2794 7.31405 4
-1 -4 3 68.3466 8.06993 1
-1 -4 2 1446.28 62.5958 2
1 4 -2 1503.99 61.667 4
1 4 -2 1447.17 63.0755 1
-1 -4 2 1517.9 62.2189 4
-1 -4 2 1522.72 63.3964 1
1 4 -2 1499.6 63.1212 3
-1 -4 2 1486.14 63.4461 2
-1 -4 2 1431.05 63.4884 3
1 4 -1 3018.18 129.62 1
1 4 -1 3167.56 128.406 4
-1 -4 1 3267.23 129.218 4
-1 -4 1 3398.12 130.114 1
-1 -4 1 3300.84 130.201 2
1 4 0 724.417 35.074 2
1 4 0 757.35 33.3725 4
1 4 0 725.939 34.1284 1
-1 -4 0 714.867 33.6611 4
-1 -4 0 758.625 34.2898 1
-1 -4 0 716.578 34.3813 2
1 4 1 26.0374 5.98455 1
-1 -4 -1 26.7531 6.85873 2
1 4 1 22.9726 5.71984 4
-1 -4 -1 40.4896 6.88018 1
1 4 1 24.9256 6.51178 2
-1 -4 -1 38.6095 6.54554 4
1 4 2 713.669 33.0148 4
1 4 2 742.12 33.5966 1
-1 -4 -2 730.939 33.8706 4
-1 -4 -2 759.755 33.6689 1
1 4 2 693.05 33.5323 3
-1 -4 -2 693.202 33.9777 2
-1 -4 -2 657.05 34.0517 3
1 4 2 718.247 34.838 2
-1 -4 -3 54.6037 7.71702 3
-1 -4 -3 51.8189 8.47163 2
1 4 3 45.3776 7.55415 3
1 4 3 38.8118 7.72569 2
-1 -4 -3 34.7784 6.88145 1
1 4 3 46.1526 7.32062 4
-1 -4 -3 41.4636 7.15623 4
1 4 3 51.292 7.04118 1
1 4 4 562.196 27.2278 4
-1 -4 -4 514.849 27.8052 4
-1 -4 -4 537.334 26.9001 1
-1 -4 -4 539.897 28.005 2
1 4 4 548.12 27.2453 3
-1 -4 -4 540.843 27.7857 3
1 4 4 556.101 29.0318 2
1 4 4 513.374 26.6117 1
-1 -4 -5 150.319 13.0367 2
1 4 5 153.687 13.5311 2
1 4 5 159.034 12.365 4
-1 -4 -5 170.623 12.1807 1
-1 -4 -5 144.971 12.6821 4
1 4 5 168.809 11.9724 1
1 4 5 132.674 11.8935 3
-1 -4 -5 155.038 12.557 3
1 4 6 565.639 28.3261 1
-1 -4 -6 583.86 29.6093 3
1 4 6 600.585 29.3484 4
-1 -4 -6 567.9 30.2708 4
-1 -4 -6 516.437 29.1781 2
-1 -4 -6 585.1 28.5289 1
1 4 6 571.029 28.638 3
1 4 6 543.101 30.7664 2
-1 -4 -7 506.801 26.1016 1
-1 -4 -7 485.702 28.0547 4
-1 -4 -7 472.675 27.3018 2
1 4 7 490.199 26.3743 4
1 4 7 499.251 26.115 3
1 4 7 510.359 29.1132 2
-1 -4 -7 535.313 27.5225 3
1 4 8 1395.04 60.7668 4
-1 -4 -8 1346.26 61.6335 2
-1 -4 -8 1391.83 63.2487 4
-1 -4 -8 1363.37 61.1997 1
1 4 8 1441.49 60.5057 3
1 4 8 1279.84 63.2127 2
-1 -4 -8 1407.84 61.7743 3
-1 -4 -8 1348.71 60.0836 1
-1 -4 -9 217.556 17.0881 1
-1 -4 -9 253.71 17.228 1
1 4 9 243.744 19.9494 2
-1 -4 -9 248.456 19.2637 4
-1 -4 -9 284.982 18.5926 3
1 4 9 270.194 17.4682 3
-1 -4 -10 531.367 28.4836 1
1 4 10 569.385 28.4846 3
-1 -4 -10 550.588 31.7335 4
-1 -4 -10 520.386 29.4342 3
-1 -4 -10 510.271 28.9604 1
1 4 10 481.756 31.5388 2
-1 -4 -11 295.772 19.8524 1
1 4 11 239.759 21.1976 2
-1 -4 -11 254.252 18.4604 1
-1 -4 -11 265.788 21.2594 4
-1 -4 -11 269.8 19.525 3
-1 -4 -12 409.824 25.4542 1
-1 -4 -12 399.949 24.5499 1
-1 -4 -12 453.561 28.1905 4
1 4 12 370.223 28.2596 2
-1 -4 -12 397.752 25.0294 3
-1 -4 -13 831.978 41.3012 1
-1 -4 -13 799.395 43.9586 4
1 4 13 753.573 44.7067 2
-1 -4 -13 790.712 40.9797 3
1 4 14 422.661 31.6668 2
-1 -4 -14 430.345 27.0625 3
-1 -4 -14 416.605 26.7707 1
-1 -4 -15 659.16 36.2106 1
1 4 15 584.259 39.5775 2
-1 -4 -15 648.43 35.6295 3
-1 -4 -16 1329.3 64.5707 1
1 4 16 1359.58 70.5784 2
-1 -4 -16 1446.01 65.2184 3
-1 -5 17 99.31 16.5324 3
1 5 -17 108.918 12.9743 4
1 5 -16 -4.37956 7.78102 4
-1 -5 16 -8.12899 10.867 3
1 5 -16 6.46738 10.7286 1
-1 -5 16 10.7454 10.0349 2
-1 -5 15 3.12415 10.0695 3
1 5 -15 31.0479 8.63045 4
-1 -5 15 1.44179 9.43999 2
1 5 -15 17.0941 11.1969 1
-1 -5 14 598.383 33.5247 2
-1 -5 14 637.782 35.2022 3
1 5 -14 611.524 32.6165 4
1 5 -14 602.272 30.931 4
1 5 -14 524.33 33.7927 1
-1 -5 13 721.141 39.239 3
1 5 -13 730.917 36.7443 4
-1 -5 13 712.145 37.8035 2
1 5 -13 738.024 35.4214 4
1 5 -13 697.746 38.8784 1
-1 -5 12 35.983 10.3922 3
1 5 -12 27.2171 10.3395 1
1 5 -12 56.8245 9.66039 4
-1 -5 12 43.9109 9.73091 2
1 5 -12 42.561 7.82475 4
1 5 -11 228.574 15.723 4
-1 -5 11 237.545 19.262 3
1 5 -11 229.937 18.6091 1
1 5 -11 262.036 18.2982 2
1 5 -11 280.673 17.9001 4
-1 -5 11 278.24 18.5531 2
1 5 -10 1277.8 56.3882 4
-1 -5 10 1125.98 58.3107 3
-1 -5 10 1237.87 58.7589 1
-1 -5 10 1329.93 57.8859 5
1 5 -10 1296.93 59.0776 1
1 5 -10 1203.56 54.8814 4
1 5 -10 1328.66 57.2849 2
-1 -5 10 1320.71 57.7981 2
1 5 -10 1368 58.1573 3
-1 -5 9 117.605 11.7197 2
1 5 -9 110.925 12.2648 3
-1 -5 9 97.5439 12.2383 3
1 5 -9 145.102 10.6628 4
-1 -5 9 138.302 12.6825 5
1 5 -9 121.098 12.2295 2
1 5 -9 114.795 11.4162 4
-1 -5 8 1669.91 77.5825 3
-1 -5 8 1855.41 76.7805 5
1 5 -8 1838.42 75.8825 2
-1 -5 8 1751.66 75.8982 2
1 5 -8 1793.95 74.7986 4
1 5 -8 1710.54 73.68 4
1 5 -8 1834.46 76.6578 3
-1 -5 7 5719.6 231.957 3
-1 -5 7 6164.81 230.908 5
1 5 -7 5941.25 228.836 4
-1 -5 7 5677.53 229.72 2
1 5 -7 5542.3 227.5 4
1 5 -7 5861.15 230.392 3
1 5 -6 56.1932 9.46941 3
-1 -5 6 66.4248 9.58423 3
-1 -5 6 56.0886 10.1032 2
-1 -5 6 71.5059 9.74631 1
-1 -5 6 61.7863 8.43724 2
1 5 -6 73.671 8.39121 4
-1 -5 5 126.198 11.579 1
1 5 -5 109.86 10.7223 3
-1 -5 5 104.483 11.2453 2
1 5 -5 83.3828 10.5563 1
-1 -5 5 120.414 11.6718 3
1 5 -5 107.878 9.93281 4
-1 -5 5 104.73 9.90388 4
-1 -5 5 85.3065 9.18739 2
-1 -5 4 18.9964 6.08041 4
-1 -5 4 17.8779 6.53547 3
-1 -5 4 13.1015 5.41346 2
1 5 -4 22.0441 6.57932 1
1 5 -4 22.9636 7.45102 3
1 5 -4 22.0577 6.08875 4
-1 -5 4 15.6155 6.43714 1
-1 -5 4 10.8188 7.10361 2
1 5 -3 20.8788 7.28202 3
-1 -5 3 21.6383 7.07753 3
1 5 -3 10.1599 6.35334 1
-1 -5 3 22.7675 7.88421 2
-1 -5 3 17.7379 5.63812 2
1 5 -3 22.8036 6.11451 4
-1 -5 3 21.3782 6.32215 4
-1 -5 3 26.8137 7.1614 1
-1 -5 2 1469.01 63.0178 2
-1 -5 2 1494.68 63.2341 4
1 5 -2 1483.91 62.4214 4
1 5 -2 1336.81 63.4799 1
-1 -5 2 1535.25 63.9882 1
1 5 -2 1459.72 63.549 3
-1 -5 2 1503.25 63.8714 2
1 5 -1 1390.58 61.9965 1
-1 -5 1 1420.33 61.7283 4
-1 -5 1 1478.52 62.2576 1
1 5 -1 1490.06 61.1048 4
-1 -5 1 1358.04 61.7738 2
-1 -5 0 84.3365 10.2045 2
1 5 0 75.9853 9.77574 2
-1 -5 0 71.3934 9.04504 4
-1 -5 0 86.1159 9.39618 1
1 5 0 88.5409 9.19406 4
1 5 0 93.078 9.53672 1
1 5 1 -1.7063 5.406 1
1 5 1 -4.28249 6.46565 3
-1 -5 -1 -3.00554 5.86934 3
-1 -5 -1 -1.75108 6.60937 2
1 5 1 -5.01711 5.82285 2
-1 -5 -1 1.63804 5.89509 1
1 5 1 0.76562 5.5451 4
-1 -5 -1 -0.91886 5.63139 4
1 5 2 160.312 12.9233 3
-1 -5 -2 154.582 12.8863 3
-1 -5 -2 133.565 12.5033 2
1 5 2 123.261 12.4197 2
-1 -5 -2 166.074 13.2152 4
-1 -5 -2 128.242 11.5578 1
1 5 2 147.377 12.0746 4
1 5 2 137.064 11.7203 1
-1 -5 -3 127.848 12.1349 2
1 5 3 115.42 12.0037 2
1 5 3 131.503 11.4319 4
-1 -5 -3 98.3082 11.0187 4
1 5 3 131.491 11.9975 3
1 5 3 102.423 10.3712 1
-1 -5 -3 107.158 10.9375 1
-1 -5 -3 102.336 11.1045 3
-1 -5 -4 4.84078 7.55475 2
-1 -5 -4 9.42142 6.52667 3
1 5 4 1.17882 6.97222 2
-1 -5 -4 5.00463 5.96761 1
1 5 4 -4.45302 6.94987 4
-1 -5 -4 5.45679 6.27343 4
1 5 4 10.3279 6.23487 1
1 5 4 0.9028 6.62021 3
-1 -5 -5 -4.03252 7.6959 2
-1 -5 -5 -3.22655 6.30055 3
1 5 5 -1.24866 7.38354 2
-1 -5 -5 -0.85189 6.05418 1
-1 -5 -5 3.50718 6.78361 4
1 5 5 1.8879 6.96164 4
1 5 5 0.8728 5.70575 1
1 5 5 -3.72571 6.6194 3
1 5 6 972.819 45.1184 1
-1 -5 -6 995.151 47.2381 3
-1 -5 -6 944.575 47.4484 4
-1 -5 -6 1032.33 45.6469 1
-1 -5 -6 948.522 46.5589 2
1 5 6 1057.06 46.1385 3
1 5 6 925.881 47.895 2
1 5 6 984.288 45.9329 4
1 5 7 1400.47 62.5406 1
-1 -5 -7 1409.45 62.8584 1
-1 -5 -7 1341.09 65.3346 4
1 5 7 1505.01 63.4944 3
-1 -5 -7 1494.32 64.8224 2
-1 -5 -7 1475.91 64.758 3
1 5 7 1393.65 66.0491 2
-1 -5 -8 167.729 14.8017 3
1 5 8 147.088 16.0909 2
-1 -5 -8 126.408 12.7793 1
-1 -5 -8 188.429 16.6884 4
-1 -5 -8 141.177 13.8636 1
-1 -5 -9 36.9699 9.50279 3
-1 -5 -9 41.1814 9.38464 1
-1 -5 -9 42.0275 9.55731 1
1 5 9 44.2204 11.9028 2
-1 -5 -9 57.5024 11.0853 4
-1 -5 -10 11.4732 8.40235 3
-1 -5 -10 8.15203 8.24651 1
-1 -5 -10 -4.69041 8.4453 1
1 5 10 20.1616 11.0707 2
-1 -5 -10 17.7128 9.87294 4
-1 -5 -11 52.8753 10.2236 1
-1 -5 -11 72.2141 12.1277 3
1 5 11 78.5149 14.5429 2
-1 -5 -11 57.7391 12.5873 4
-1 -5 -11 51.0147 10.6875 1
-1 -5 -12 -1.35271 8.8453 3
1 5 12 -7.57335 11.8029 2
-1 -5 -12 -19.6626 11.7752 4
-1 -5 -12 11.287 9.78618 1
-1 -5 -13 197.667 18.5145 1
1 5 13 238.218 23.6958 2
-1 -5 -13 238.639 19.6604 3
-1 -5 -13 232.974 22.2315 4
-1 -5 -14 76.8108 13.346 3
1 5 14 84.5518 17.3129 2
-1 -5 -14 84.6857 16.5568 4
-1 -5 -14 91.9848 14.0301 1
-1 -6 16 411.767 30.4805 3
1 6 -16 436.819 25.8111 4
-1 -6 16 432.134 28.7056 2
-1 -6 15 49.968 13.935 3
1 6 -15 53.8783 10.1784 4
-1 -6 15 48.7039 12.2484 2
-1 -6 14 130.366 17.12 3
1 6 -14 157.542 13.8986 4
1 6 -14 147.293 16.8257 1
-1 -6 14 138.116 15.4079 2
-1 -6 13 345.284 25.6228 3
1 6 -13 346.26 20.6292 4
1 6 -13 292.938 23.9758 1
1 6 -13 310.392 21.9694 4
-1 -6 13 347.086 22.7539 2
1 6 -12 257.412 21.0156 1
-1 -6 12 246.175 21.3727 3
1 6 -12 308.812 18.0015 4
-1 -6 12 244.212 19.028 2
1 6 -12 245.478 18.6219 4
-1 -6 11 465.848 28.9245 3
1 6 -11 430.113 24.0328 4
1 6 -11 432.351 25.4437 4
-1 -6 11 477.081 26.692 2
-1 -6 11 450.971 26.8962 5
-1 -6 10 876.226 42.8992 5
-1 -6 10 856.067 44.7484 3
1 6 -10 836.505 39.8359 4
-1 -6 10 925.005 42.5123 2
1 6 -10 832.752 40.8399 4
-1 -6 9 28.0876 9.03196 3
1 6 -9 12.6296 5.98481 4
-1 -6 9 31.1956 10.6729 2
-1 -6 9 29.9671 8.9105 5
-1 -6 9 40.5986 8.35617 2
1 6 -9 41.7909 9.01585 4
-1 -6 8 19.2963 8.33398 5
1 6 -8 7.93159 7.41812 4
-1 -6 8 11.525 8.95529 2
-1 -6 8 19.4095 6.77869 2
-1 -6 8 9.59836 8.34301 3
1 6 -8 6.8409 5.17437 4
-1 -6 8 15.5382 8.50677 1
-1 -6 7 17.4557 8.9108 3
-1 -6 7 43.5708 9.91107 1
-1 -6 7 22.1248 9.39936 2
-1 -6 7 48.1164 9.54876 5
-1 -6 7 26.0156 7.13681 2
1 6 -7 13.3764 8.374 1
1 6 -7 35.1934 8.21585 4
-1 -6 6 115.082 10.8981 2
-1 -6 6 91.8769 12.2616 1
-1 -6 6 108.648 13.0387 3
-1 -6 6 75.3174 12.0156 2
1 6 -6 91.611 11.6683 1
1 6 -6 102.965 10.9045 4
-1 -6 6 110.394 11.5485 4
1 6 -5 95.0128 11.8064 3
-1 -6 5 96.8726 11.7853 1
-1 -6 5 111.291 12.5637 3
-1 -6 5 117.042 12.6782 2
1 6 -5 95.5322 11.5738 1
-1 -6 5 88.253 10.0104 2
1 6 -5 119.758 11.4242 4
-1 -6 5 116.016 11.4393 4
-1 -6 4 377.604 24.4385 3
-1 -6 4 419.076 23.8475 1
1 6 -4 404.083 22.2371 4
-1 -6 4 389.155 22.9035 4
1 6 -4 374.596 23.5015 1
1 6 -4 407.568 23.467 3
-1 -6 4 386.495 22.0699 2
-1 -6 4 409.395 23.5226 2
1 6 -3 360.651 21.4128 4
1 6 -3 373.734 22.9005 1
-1 -6 3 417.697 22.9742 4
1 6 -3 395.511 22.7993 3
-1 -6 3 317.193 20.9243 2
-1 -6 3 412.719 22.99 2
-1 -6 3 427.97 23.4446 1
-1 -6 2 101.706 11.1149 4
1 6 -2 116.268 11.8353 1
-1 -6 2 132.369 12.2153 2
-1 -6 2 114.519 11.0349 2
-1 -6 2 94.7809 11.3214 1
1 6 -2 108.103 11.0607 4
1 6 -1 159.324 13.5728 1
-1 -6 1 190.055 14.5785 2
-1 -6 1 159.783 12.9 2
-1 -6 1 171.711 14.0007 1
-1 -6 1 157.353 13.6959 4
1 6 -1 146.163 12.6662 4
1 6 0 7.97763 6.42514 1
-1 -6 0 15.3105 7.30989 1
-1 -6 0 7.45192 6.75054 4
-1 -6 0 5.74473 7.47463 2
-1 -6 0 -1.19483 7.0047 3
1 6 0 5.29823 6.51804 4
1 6 0 4.96418 7.01567 3
1 6 0 14.4731 7.60642 2
1 6 1 3.96935 7.61894 3
-1 -6 -1 9.73892 7.59957 2
-1 -6 -1 2.3837 7.17863 3
1 6 1 -4.58854 7.61348 2
-1 -6 -1 4.69959 6.80881 1
-1 -6 -1 4.44401 6.69194 4
1 6 1 6.33786 7.25081 4
1 6 1 7.87663 6.81717 1
1 6 2 182.627 14.9161 3
-1 -6 -2 162.902 14.313 2
-1 -6 -2 169.638 13.893 1
1 6 2 170.479 15.4493 2
1 6 2 180.26 14.0272 1
1 6 2 174.556 14.1086 4
-1 -6 -2 190.818 15.5479 4
-1 -6 -2 163.801 14.7198 3
-1 -6 -3 68.6993 10.7363 2
-1 -6 -3 77.1778 11.0054 3
1 6 3 85.8069 11.8425 2
-1 -6 -3 93.2892 10.592 1
-1 -6 -3 81.7666 11.0844 4
1 6 3 80.1091 10.5373 4
1 6 3 67.4014 9.55208 1
1 6 4 284.673 19.1629 4
1 6 4 289.79 18.7519 1
-1 -6 -4 275.049 20.4305 4
-1 -6 -4 318.181 20.532 2
-1 -6 -4 299.838 18.9769 1
-1 -6 -4 295.006 20.3461 3
1 6 4 269.044 20.5068 2
-1 -6 -5 23.8773 8.17691 1
-1 -6 -5 26.3838 9.14635 2
1 6 5 25.594 8.00502 1
1 6 5 16.637 9.43798 2
-1 -6 -5 18.7215 8.73831 3
-1 -6 -5 18.9065 9.32276 4
-1 -6 -6 667.786 34.9303 4
-1 -6 -6 615.697 31.4752 1
-1 -6 -6 599.66 33.1317 3
1 6 6 569.439 34.097 2
1 6 6 557.88 30.6602 1
-1 -6 -7 79.7377 12.1852 3
1 6 7 64.447 12.4229 2
-1 -6 -7 73.5388 10.8017 1
-1 -6 -7 90.8048 13.0807 4
1 6 7 65.8903 9.98942 1
-1 -6 -8 161.126 15.6158 3
1 6 8 135.471 16.4597 2
-1 -6 -8 125.426 13.2485 1
-1 -6 -8 122.005 15.5558 4
-1 -6 -9 196.98 17.6036 3
-1 -6 -9 216.693 17.642 1
1 6 9 172.645 19.0984 2
-1 -6 -9 185.612 16.09 1
-1 -6 -9 174.725 18.7411 4
-1 -6 -10 317.994 22.1703 1
-1 -6 -10 338.046 25.99 4
1 6 10 333.568 25.7366 2
-1 -6 -10 310.69 23.0059 3
1 6 11 254.383 24.2243 2
-1 -6 -11 221.37 22.6753 4
-1 -6 -11 257.282 20.1297 1
-1 -6 -11 303.95 21.9531 3
-1 -6 -12 440.717 31.4732 4
1 6 12 361.392 29.9882 2
-1 -6 -12 434.572 27.2121 1
-1 -6 -12 467.103 28.5448 3
1 6 13 52.2316 14.7243 2
-1 -6 -13 22.4295 11.2746 1
-1 -6 -13 40.704 11.9081 3
-1 -6 -13 40.9876 15.1802 4
-1 -7 14 102.959 17.1222 3
1 7 -14 128.533 13.1561 4
-1 -7 14 126.909 15.3809 2
-1 -7 13 80.4348 14.9032 3
1 7 -13 41.2713 9.3573 4
-1 -7 13 70.5344 11.8828 2
-1 -7 12 19.1562 12.4722 3
1 7 -12 14.476 7.51713 4
-1 -7 12 19.4976 9.06386 2
-1 -7 11 -1.69913 11.193 3
1 7 -11 -0.93459 6.77097 4
1 7 -11 -9.57725 10.5587 4
-1 -7 11 -9.26548 8.2856 2
-1 -7 10 16.5691 8.18357 2
-1 -7 10 26.3754 11.5139 3
1 7 -10 21.7299 9.45239 4
1 7 -10 22.4609 10.4639 1
1 7 -10 19.0686 7.12675 4
-1 -7 9 1072.74 53.0383 2
-1 -7 9 1084.72 55.1534 3
1 7 -9 1133.17 51.3767 4
-1 -7 9 1132.54 53.5909 5
-1 -7 9 1143.11 51.4129 2
1 7 -9 1090.54 54.0783 1
1 7 -9 1079.19 49.7132 4
-1 -7 8 146.678 16.3836 3
-1 -7 8 142.964 14.993 5
-1 -7 8 141.756 15.6361 2
1 7 -8 128 13.5046 4
1 7 -8 128.393 11.7858 4
-1 -7 8 140.092 13.2069 2
1 7 -8 126.066 15.0004 1
-1 -7 7 266.978 17.7342 2
-1 -7 7 251.534 20.5199 3
-1 -7 7 254.786 19.552 2
1 7 -7 235.707 17.7058 4
-1 -7 7 278.019 20.3789 5
1 7 -7 241.626 19.3085 1
1 7 -6 -1.92999 7.99468 4
-1 -7 6 -3.04254 9.24199 3
-1 -7 6 2.25491 9.60129 2
1 7 -6 -2.63096 8.06158 1
-1 -7 6 4.67344 8.35626 4
-1 -7 6 4.79749 6.50575 2
-1 -7 5 -1.49285 8.74546 3
-1 -7 5 -3.27755 8.7473 2
-1 -7 5 0.93865 6.54139 2
1 7 -5 4.82528 7.84302 4
-1 -7 5 5.69375 7.6667 4
1 7 -5 1.27395 8.32827 1
-1 -7 4 60.9452 11.0489 1
-1 -7 4 59.3166 11.1198 2
1 7 -4 64.3267 10.7588 1
-1 -7 4 46.4812 8.61915 2
1 7 -4 31.8845 9.27314 4
-1 -7 4 51.8099 9.82243 4
-1 -7 3 113.393 13.1468 1
1 7 -3 102.387 12.432 1
-1 -7 3 103.361 12.5073 2
-1 -7 3 109.124 11.3886 2
1 7 -3 109.71 12.4876 4
-1 -7 3 115.186 12.4149 4
1 7 -2 291.581 18.8984 4
1 7 -2 263.225 19.2084 1
-1 -7 2 273.526 19.5916 4
-1 -7 2 264.408 18.7963 2
-1 -7 2 297.124 19.7302 1
-1 -7 2 229.693 17.4018 2
1 7 -1 276.277 19.1986 1
1 7 -1 279.787 18.6965 4
-1 -7 1 274.59 19.4913 4
-1 -7 1 246.09 17.6711 2
-1 -7 1 266.193 18.9074 2
-1 -7 1 266.193 18.9906 1
-1 -7 1 278.62 20.4662 3
-1 -7 0 220.093 17.5047 2
1 7 0 249.195 17.7409 4
-1 -7 0 237.714 18.5549 4
1 7 0 245.469 17.8204 1
-1 -7 0 228.779 17.5441 1
-1 -7 0 248.834 19.2768 3
1 7 1 314.193 22.5231 2
-1 -7 -1 356.168 22.2447 1
-1 -7 -1 357.922 22.2531 2
-1 -7 -1 360.592 23.4208 4
1 7 1 371.888 22.4912 1
1 7 1 314.334 21.6031 4
-1 -7 -1 363.838 23.9637 3
-1 -7 -2 71.365 11.4876 2
-1 -7 -2 54.2078 11.2874 3
1 7 2 86.4118 11.6497 1
1 7 2 89.0759 12.4523 2
-1 -7 -2 70.564 12.3145 4
-1 -7 -2 89.3348 11.6872 1
-1 -7 -3 179.395 16.5677 2
-1 -7 -3 174.605 16.4674 3
1 7 3 163.105 16.361 2
-1 -7 -3 182.417 15.0795 1
-1 -7 -3 153.957 16.387 4
1 7 3 178.609 14.9931 1
1 7 4 15.8407 10.4372 2
-1 -7 -4 2.08545 7.70121 1
-1 -7 -4 11.7958 8.80884 4
-1 -7 -4 9.85389 8.56202 3
1 7 4 19.7772 8.71746 1
-1 -7 -5 12.8311 8.98802 3
1 7 5 15.0702 10.3141 2
-1 -7 -5 18.9085 8.22599 1
-1 -7 -5 13.9187 9.33956 4
1 7 5 29.6412 8.63936 1
-1 -7 -6 1.45087 9.41474 3
-1 -7 -6 4.24605 8.15091 1
1 7 6 9.48795 11.3117 2
1 7 6 9.93417 8.56795 1
-1 -7 -6 3.23762 9.83668 4
1 7 7 269.933 22.9186 2
1 7 7 248.651 18.8849 1
-1 -7 -7 264.751 22.5948 4
-1 -7 -8 111.299 15.3631 3
1 7 8 79.7178 14.7339 2
-1 -7 -8 114.177 16.3177 4
-1 -7 -9 21.4575 10.644 3
1 7 9 16.3219 12.2396 2
-1 -7 -9 28.5441 11.2288 1
-1 -7 -9 22.4286 13.053 4
-1 -7 -10 12.4707 11.2463 3
1 7 10 39.9628 13.8036 2
-1 -7 -10 23.4798 13.196 4
-1 -7 -10 14.3573 10.1584 1
-1 -7 -11 49.0583 12.6778 3
1 7 11 41.6754 15.0945 2
-1 -7 -11 67.4665 15.7164 4
-1 -7 -11 40.9918 11.8978 1
-1 -8 12 142.891 18.7618 3
1 8 -12 129.047 13.6576 4
-1 -8 12 150.459 15.4199 2
-1 -8 11 87.1119 16.3643 3
-1 -8 11 103.107 12.8684 2
1 8 -11 67.9212 10.4493 4
-1 -8 10 464.927 32.2436 3
1 8 -10 491.521 26.369 4
-1 -8 10 470.666 27.213 2
1 8 -10 423.291 30.1131 1
1 8 -9 96.5302 14.6856 1
-1 -8 9 99.7237 16.0398 3
1 8 -9 99.4204 11.4587 4
-1 -8 9 102.572 13.1399 2
-1 -8 8 25.0228 12.0617 3
1 8 -8 29.1695 10.8017 1
1 8 -8 13.696 7.71764 4
-1 -8 8 25.5617 8.94529 2
-1 -8 7 66.6428 12.8246 2
-1 -8 7 37.0196 12.8368 3
1 8 -7 58.0897 12.3195 1
-1 -8 7 45.7469 9.48171 2
-1 -8 6 42.2255 11.8055 2
-1 -8 6 52.0765 13.2202 3
1 8 -6 33.2849 11.3662 1
-1 -8 6 50.65 11.2834 4
-1 -8 6 49.8984 9.36379 2
-1 -8 5 147.419 15.6472 2
1 8 -5 144.94 15.6903 1
-1 -8 5 155.121 17.658 3
-1 -8 5 152.56 13.5895 2
-1 -8 5 153.508 15.6208 4
1 8 -4 21.9602 10.1343 1
-1 -8 4 2.22602 9.86406 2
-1 -8 4 11.9584 7.49573 2
-1 -8 4 17.2815 9.15275 4
1 8 -3 42.8247 10.778 1
-1 -8 3 39.8093 10.8317 2
-1 -8 3 42.191 9.24668 2
-1 -8 3 40.4896 10.9218 4
-1 -8 2 142.738 15.1659 2
-1 -8 2 158.363 17.3548 3
1 8 -2 155.723 15.3776 1
-1 -8 2 138.509 15.5374 4
-1 -8 2 130.564 13.318 2
1 8 -1 80.8517 12.4036 1
-1 -8 1 67.591 11.8316 2
-1 -8 1 95.1958 14.2951 3
-1 -8 1 82.1548 10.8957 2
-1 -8 1 65.3372 12.5592 4
-1 -8 0 148.869 14.7006 2
-1 -8 0 118.451 15.3298 3
-1 -8 0 132.099 15.7504 4
-1 -8 0 128.71 13.1525 2
1 8 0 116.024 13.9734 1
-1 -8 -1 324.785 23.9908 4
1 8 1 346.206 22.9012 1
-1 -8 -1 342.632 24.8376 3
1 8 2 437.056 27.9176 2
1 8 2 461.092 26.817 1
-1 -8 -2 395.248 27.6818 4
-1 -8 -2 438.892 28.8327 3
-1 -8 -3 203.654 19.3255 3
1 8 3 217.743 19.3571 2
-1 -8 -3 200.364 19.4024 4
1 8 3 210.428 17.6026 1
1 8 4 2898.72 121.635 2
-1 -8 -4 2743.48 121.412 3
1 8 4 2882.03 118.619 1
-1 -8 -4 2748.33 121.97 4
1 8 5 444.539 27.701 1
-1 -8 -5 470.035 31.7282 4
-1 -8 -5 532.135 31.614 3
1 8 5 473.679 30.842 2
-1 -8 -6 177.177 20.0934 4
-1 -8 -6 200.119 19.8672 3
1 8 6 203.963 20.5234 2
1 8 6 213.225 17.328 1
-1 -8 -7 655.456 41.7595 4
1 8 7 733.566 38.0056 1
-1 -8 -7 800.746 42.0382 3
1 8 7 715.577 41.7591 2
-1 -8 -8 103.405 15.526 3
1 8 8 122.639 18.2287 2
-1 -8 -8 106.459 17.2355 4
-1 -9 8 88.9618 12.1665 2
-1 -9 8 65.8261 16.2363 3
1 9 -8 70.7032 11.0427 4
-1 -9 7 59.1668 14.856 3
-1 -9 7 90.9722 11.7872 2
1 9 -6 18.8689 11.7519 1
-1 -9 6 38.9932 14.2214 3
-1 -9 6 12.6899 8.44911 2
-1 -9 6 10.5127 10.4162 4
1 9 -5 105.761 15.1046 1
-1 -9 5 121.603 13.281 2
-1 -9 5 134.957 16.0521 4
1 9 -4 -13.4766 10.6441 1
-1 -9 4 2.99497 10.0121 4
-1 -9 4 -6.27656 7.62606 2
-1 -9 3 349.161 22.083 2
-1 -9 3 312.635 26.1251 3
-1 -9 3 377.079 25.6381 4
1 9 -3 332.336 24.7963 1
-1 -9 2 621.531 37.6565 3
1 9 -2 672.541 35.6955 1
-1 -9 2 599.582 35.442 4
-1 -9 2 554.562 32.0771 2
-1 -9 1 169.383 20.4295 3
1 9 -1 222.213 19.3097 1
-1 -9 1 186.283 16.4036 2
-1 -9 1 209.387 20.1472 4
-1 -9 0 88.4778 15.8658 3
-1 -9 0 69.7531 11.55 2
-1 -9 0 72.6096 13.9947 4
1 9 0 87.252 13.6126 1
-1 -9 -1 48.3414 14.2659 3
-1 -9 -1 31.9491 12.7787 4
-1 -9 -1 39.1872 10.6571 2
1 9 1 36.8717 11.0875 1
-1 -9 -2 59.0236 13.8996 3
-1 -9 -2 51.9358 12.9453 4
1 9 2 24.2924 11.2455 1
1 9 3 541.766 32.7532 1
-1 -9 -3 582.471 36.5942 4
1 9 3 594.111 34.9496 2
-1 -9 -3 581.006 36.0375 3
1 9 4 476.509 31.0365 2
-1 -9 -4 478.734 31.9356 3
1 9 4 435.506 28.1304 1
-1 -9 -4 423.654 30.9487 4
2 -10 -2 188.623 19.3445 3
2 -10 -1 93.4499 15.3314 3
2 -10 -1 90.5677 18.2969 4
2 -10 0 -3.25837 11.2812 3
2 -10 0 -13.1499 13.8894 4
2 -10 1 20.0551 12.3445 3
2 -10 1 15.2287 13.8012 4
-2 10 -2 134.538 13.8689 1
2 -10 2 153.138 19.154 3
2 -10 2 167.343 20.9691 4
-2 10 -3 11.6429 8.69469 1
2 -10 3 14.1643 13.0636 3
2 -10 3 4.26333 12.3755 4
2 -10 4 357.58 28.391 4
2 -10 4 299.259 25.3658 3
-2 10 -4 293.766 21.4511 1
2 -10 5 717.355 42.1418 3
-2 10 -5 666.219 36.9576 1
2 -10 5 788.454 45.0715 4
-2 10 -6 93.6942 13.9629 1
2 -10 6 93.0091 17.114 3
2 -10 6 100.388 18.4057 4
2 -9 -7 776.229 45.7155 4
2 -9 -7 696.811 37.68 3
2 -9 -6 189.473 16.8434 3
2 -9 -6 158.16 20.6481 4
2 -9 -5 63.8621 12.1028 3
2 -9 -4 23.5309 10.2925 3
2 -9 -3 2.67328 9.25284 3
2 -9 -2 131.409 15.1518 3
-2 9 2 109.545 10.1522 1
-2 9 1 184.76 13.2918 1
2 -9 -1 203.798 18.5031 3
2 -9 0 221.13 19.7618 3
2 -9 0 195.988 14.7015 1
-2 9 0 218.736 14.8347 1
2 -9 0 208.135 21.7757 4
2 -9 1 386.658 26.8235 3
2 -9 1 427.249 30.0487 4
-2 9 -1 386.455 22.0235 1
2 -9 1 371.886 22.2903 1
2 -9 2 299.646 23.2791 3
-2 9 -2 301.912 19.2465 1
2 -9 2 276.637 19.1225 1
2 -9 2 327.597 25.6674 4
2 -9 3 15.8849 8.83623 1
2 -9 3 4.79422 10.4573 3
-2 9 -3 12.7005 8.36969 1
2 -9 3 15.4455 12.725 4
2 -9 4 166.701 15.7774 1
2 -9 4 185.339 18.4846 3
-2 9 -4 180.505 15.37 1
2 -9 4 155.096 19.1697 4
2 -9 5 1.71511 10.4199 3
-2 9 -5 -3.33736 8.58648 1
2 -9 5 -3.94302 11.4401 4
2 -9 6 338.704 26.602 3
-2 9 -6 336.689 23.0648 1
2 -9 7 127.94 17.766 3
-2 9 -7 127.75 14.8603 1
-2 9 -8 299.524 22.952 1
2 -9 8 295.273 25.9639 3
-2 9 -8 352.864 24.9477 4
-2 9 -9 211.406 19.7157 4
2 -9 9 198.174 22.2462 3
-2 9 -9 227.305 20.3248 1
2 -9 10 31.127 13.7048 3
-2 9 -10 38.0779 12.4663 4
-2 9 -10 13.4763 11.1539 1
2 -8 -10 469.624 32.3136 4
-2 8 10 371.53 26.7889 2
-2 8 9 -1.21245 9.50992 2
2 -8 -9 -3.94216 7.52434 3
2 -8 -9 -4.0424 12.8069 4
-2 8 8 85.5569 12.3106 2
2 -8 -8 106.812 12.2934 3
2 -8 -8 112.461 18.0129 4
2 -8 -7 40.5544 13.509 4
-2 8 7 24.4406 8.62606 2
2 -8 -7 33.4858 9.45008 3
-2 8 6 70.4025 10.152 3
-2 8 6 50.7154 9.25242 2
2 -8 -6 52.6261 10.2985 3
2 -8 -6 75.7596 15.1833 4
2 -8 -5 294.045 19.4049 3
2 -8 -5 275.42 23.0821 4
-2 8 5 265.563 17.8641 3
-2 8 5 224.411 16.1929 2
-2 8 4 150.666 13.4342 3
-2 8 4 138.671 10.8643 2
2 -8 -4 145.45 13.8899 3
2 -8 -4 112.086 8.20565 1
2 -8 -4 161.358 17.9792 4
-2 8 4 131.502 8.41905 1
2 -8 -3 337.518 21.6455 3
-2 8 3 323.26 16.1465 1
2 -8 -3 305.368 15.1811 2
2 -8 -3 294.62 16.0077 1
-2 8 3 404.961 21.6935 3
-2 8 3 311.476 16.1524 2
2 -8 -2 27.5726 5.76427 1
2 -8 -2 33.2549 9.95622 3
2 -8 -2 14.1156 2.94769 2
-2 8 2 19.8674 5.56017 1
2 -8 -1 78.1023 8.34027 1
-2 8 1 44.2753 7.20569 1
2 -8 -1 62.3598 11.0147 3
2 -8 0 116.26 10.3094 1
-2 8 0 105.988 10.1089 1
2 -8 0 101.306 13.1197 3
2 -8 1 9.11516 6.67077 1
2 -8 1 5.26406 8.27322 3
-2 8 -1 2.25252 5.95392 1
2 -8 2 27.3988 7.91779 1
2 -8 2 19.1701 9.5761 3
2 -8 2 10.4415 10.2264 4
-2 8 -2 21.9851 7.16291 1
2 -8 3 837.436 43.4425 3
2 -8 3 810.971 44.7354 4
2 -8 3 807.17 39.3314 1
-2 8 -3 838.719 39.0527 1
2 -8 4 187.771 15.4828 1
2 -8 4 169.875 17.6924 3
-2 8 -4 194.589 15.0917 1
2 -8 4 208.458 19.7196 4
2 -8 5 23.2955 10.7691 3
2 -8 5 42.779 9.49117 1
-2 8 -5 43.4176 9.36855 1
2 -8 5 32.0211 11.8873 4
2 -8 6 232.625 20.6367 3
2 -8 6 229.151 18.2335 1
-2 8 -6 244.527 18.2008 1
2 -8 6 261.933 22.4717 4
2 -8 7 17.0336 10.8086 3
-2 8 -7 14.2844 9.00489 1
2 -8 8 99.7067 16.1354 3
-2 8 -8 91.4093 13.1417 1
-2 8 -8 83.5888 12.7424 4
2 -8 9 313.792 25.3028 3
-2 8 -9 304.861 22.6848 4
-2 8 -9 295.804 22.5354 1
2 -8 10 265.134 24.2505 3
-2 8 -10 301.234 23.2747 1
-2 8 -10 313.628 23.1953 4
2 -8 11 90.6081 17.2527 3
-2 8 -11 84.2874 13.8331 4
-2 8 -11 91.7917 14.4724 1
-2 8 -12 350.948 25.0731 4
-2 8 -12 336.539 25.8243 1
-2 8 -13 113.95 15.7252 4
-2 7 12 -1.5225 10.3235 2
2 -7 -12 -3.99862 12.7698 4
-2 7 11 14.0736 10.8244 2
2 -7 -11 23.1846 13.1175 4
-2 7 10 99.7548 13.7441 2
2 -7 -10 89.8677 10.2127 3
2 -7 -9 354.678 20.0226 3
2 -7 -9 360.399 26.9352 4
2 -7 -9 327.011 20.9503 2
-2 7 9 309.93 22.5511 2
2 -7 -8 301.15 18.3929 3
2 -7 -8 297.229 18.6209 2
-2 7 8 303.773 20.5053 2
2 -7 -8 317.952 24.1705 4
-2 7 8 255.52 16.8875 3
-2 7 7 103.679 11.7715 2
2 -7 -7 116.031 11.4618 3
2 -7 -7 119.63 15.8692 4
2 -7 -7 126.307 11.2367 2
-2 7 7 108.906 10.5979 3
-2 7 6 110.923 10.7563 3
2 -7 -6 95.3309 10.7739 3
-2 7 6 137.153 11.9504 2
2 -7 -6 93.184 9.45395 2
2 -7 -6 115.216 15.2224 4
-2 7 5 -2.22146 6.47289 3
2 -7 -5 1.6205 2.36391 1
2 -7 -5 1.97151 2.52916 1
-2 7 5 2.94334 6.18211 2
2 -7 -5 0.56778 4.98433 2
2 -7 -5 1.8346 6.60231 3
2 -7 -5 13.1234 10.1394 4
-2 7 4 28.5228 7.68437 3
2 -7 -4 30.4732 4.05117 1
-2 7 4 17.1533 6.07553 2
2 -7 -4 27.3674 7.84187 3
2 -7 -4 24.5096 5.18071 2
2 -7 -4 11.2954 9.41361 4
-2 7 4 25.5073 3.95972 1
2 -7 -3 336.375 20.7979 3
-2 7 3 341.587 16.1775 1
2 -7 -3 340.434 16.2295 2
2 -7 -3 350.616 16.2672 1
2 -7 -3 347.153 24.7535 4
-2 7 3 337.251 19.776 3
-2 7 3 321.864 17.145 2
2 -7 -2 580.067 30.1268 3
2 -7 -2 596.439 34.2829 4
2 -7 -2 589.888 25.7369 1
2 -7 -2 523.032 23.7319 2
-2 7 2 616.334 29.4161 3
-2 7 2 588.487 25.6769 1
-2 7 2 574.214 24.6261 2
-2 7 1 35.4328 8.34201 3
2 -7 -1 36.4264 5.97715 1
-2 7 1 37.7387 5.9836 1
2 -7 -1 31.2782 8.29166 3
-2 7 0 0.90031 7.17178 3
2 -7 0 2.96513 5.24915 1
2 -7 0 5.44534 7.17321 3
-2 7 0 -3.51585 4.73874 1
2 -7 1 405.422 24.7475 3
2 -7 1 427.44 21.4838 1
-2 7 -1 374.876 20.7544 1
-2 7 -1 427.528 23.6109 3
2 -7 2 337.873 23.4744 3
2 -7 2 418.968 25.7933 5
-2 7 -2 370.187 22.9511 3
2 -7 2 410.146 21.3813 1
-2 7 -2 396.259 20.9988 1
2 -7 3 821.705 42.4473 3
2 -7 3 830.009 43.3501 5
-2 7 -3 820.359 38.9383 1
2 -7 3 859.531 39.3334 1
-2 7 -3 859.062 41.0402 3
2 -7 4 229.923 18.5778 3
2 -7 4 225.014 18.7145 5
2 -7 4 218.507 15.9119 1
2 -7 4 206.853 18.4895 4
-2 7 -4 198.385 15.1142 1
2 -7 5 16.8039 8.30935 3
2 -7 5 16.3379 8.10361 1
2 -7 5 22.3973 10.56 4
2 -7 5 22.9055 10.1975 5
-2 7 -5 16.1903 7.0994 1
2 -7 6 19.1976 9.06181 3
2 -7 6 8.27719 7.50757 1
2 -7 6 5.08657 9.84952 4
-2 7 -6 15.4586 7.47809 1
2 -7 7 473.307 30.7154 3
2 -7 7 486.232 28.2301 1
-2 7 -7 493.074 28.9311 4
-2 7 -7 561.567 29.0693 1
-2 7 -8 851.602 41.8805 1
2 -7 8 740.453 43.6836 3
2 -7 8 855.518 41.994 1
-2 7 -8 862.977 42.8069 4
-2 7 -9 149.739 15.6645 1
2 -7 9 169.698 17.3349 3
2 -7 9 95.4756 7.226 2
2 -7 9 101.456 6.94312 2
-2 7 -9 134.191 14.1974 4
-2 7 -10 55.436 5.98743 2
-2 7 -10 71.4258 12.2168 1
2 -7 10 51.0132 6.06284 2
2 -7 10 48.4556 13.3303 3
-2 7 -10 70.3512 11.6343 4
-2 7 -11 136.051 15.6706 4
-2 7 -11 156.881 16.087 1
2 -7 11 102.628 9.09669 2
2 -7 12 56.5385 8.0432 2
-2 7 -12 88.6211 13.7939 1
-2 7 -12 67.0714 11.709 4
-2 7 -13 146.667 17.7697 1
2 -7 13 121.124 11.5199 2
-2 7 -13 167.338 17.1182 4
2 -7 14 179.196 21.475 3
-2 7 -14 183.865 18.3459 4
-2 6 13 244.885 22.2531 2
2 -6 -13 282.877 24.7326 4
2 -6 -12 873.829 47.5101 4
-2 6 12 847.425 44.8686 2
-2 6 11 106.987 14.1846 2
2 -6 -11 92.3548 9.07412 3
2 -6 -11 74.3805 14.4913 4
2 -6 -10 156.473 11.4872 3
-2 6 10 163.322 15.8418 2
-2 6 10 159.059 11.1652 3
2 -6 -10 164.415 17.3174 4
-2 6 9 46.7345 9.93021 2
2 -6 -9 52.9144 9.65317 2
2 -6 -9 55.3211 7.56973 3
2 -6 -9 43.1154 11.575 4
-2 6 9 45.2935 6.8853 3
-2 6 8 16.4282 8.01199 2
2 -6 -8 -0.66806 5.40486 3
2 -6 -8 9.67536 7.19723 2
2 -6 -8 3.08478 9.37161 4
-2 6 8 1.10932 5.13034 3
-2 6 7 31.9897 8.38868 2
2 -6 -7 31.5595 6.5901 3
2 -6 -7 42.9533 7.61296 2
2 -6 -7 34.361 9.92472 4
-2 6 7 30.527 6.10462 3
-2 6 6 68.3455 7.56967 3
-2 6 6 70.5052 9.21022 2
2 -6 -6 70.0078 8.25881 3
2 -6 -6 58.0865 11.7955 4
2 -6 -6 65.9322 8.03641 2
-2 6 5 682.857 32.4134 2
2 -6 -5 676.464 32.7486 3
2 -6 -5 689.406 31.2801 2
2 -6 -5 712.708 37.8965 4
-2 6 5 705.364 31.8066 3
-2 6 4 118.654 9.78852 3
-2 6 4 118.115 9.03401 2
2 -6 -4 109.475 10.2469 3
2 -6 -4 110.987 8.30584 2
-2 6 4 123.233 13.7278 4
2 -6 -4 94.9892 5.50176 1
2 -6 -4 126.85 13.9178 4
-2 6 3 3.32905 5.43805 3
-2 6 3 2.37593 4.18955 2
2 -6 -3 0.2621 2.74311 1
2 -6 -3 7.11722 5.54813 3
2 -6 -3 0.37225 3.57047 2
2 -6 -3 2.74167 7.4819 4
-2 6 3 12.3832 8.73618 4
-2 6 3 3.23236 2.7737 1
2 -6 -2 625.648 31.3478 3
2 -6 -2 626.644 26.9569 2
-2 6 2 617.957 27.5404 1
2 -6 -2 637.05 27.6939 1
-2 6 2 771.533 35.1572 4
2 -6 -2 663.091 35.6393 4
-2 6 2 646.857 27.6725 2
-2 6 2 699.167 31.1078 3
-2 6 1 1373.9 47.6606 1
2 -6 -1 1460.97 52.7456 3
-2 6 1 1518.1 55.5543 4
2 -6 -1 1471.62 48.0887 1
2 -6 -1 1454.93 57.0196 4
-2 6 1 1503.07 51.5473 3
-2 6 0 120.197 11.1217 3
2 -6 0 109.644 8.63364 1
2 -6 0 110 10.8291 3
-2 6 0 114.485 8.67438 1
-2 6 0 116.172 13.1044 4
2 -6 0 129.072 13.8315 4
2 -6 1 5026.2 206.273 3
2 -6 1 5565.5 208.554 5
-2 6 -1 5062.87 202.699 1
2 -6 1 5138.11 202.873 1
-2 6 -1 5179.56 205.161 3
2 -6 2 3290.57 132.974 3
2 -6 2 3186.53 129.461 1
2 -6 2 3351.17 134.29 5
-2 6 -2 3184.69 129.385 1
-2 6 -2 3211.29 131.382 3
2 -6 3 430.917 25.06 5
2 -6 3 349.628 23.0655 3
2 -6 3 398.852 21.2282 1
-2 6 -3 398.073 21.0901 1
-2 6 -3 394.142 22.6166 3
-2 6 -4 856.486 41.0831 3
-2 6 -4 870.601 39.8164 1
2 -6 4 868.253 43.2794 5
2 -6 4 865.943 42.7643 3
2 -6 4 843.429 39.8295 1
-2 6 -5 454.92 24.6837 1
2 -6 5 477.219 27.6015 3
2 -6 5 424.986 24.5081 1
2 -6 5 475.911 27.7458 5
-2 6 -5 483.508 27.4456 4
-2 6 -5 443.189 25.7702 3
-2 6 -6 5.68121 6.6423 1
-2 6 -6 -4.34194 7.90956 3
2 -6 6 -2.67286 7.9025 3
-2 6 -6 2.49967 8.7676 4
2 -6 6 0.9639 7.27602 1
-2 6 -7 335.427 20.0011 1
2 -6 7 395.982 23.7977 3
-2 6 -7 357.541 21.0425 4
2 -6 7 368.002 20.6745 1
-2 6 -8 320.672 20.4759 1
2 -6 8 325.956 22.7127 3
-2 6 -8 322.738 20.8012 4
-2 6 -8 299.905 13.9735 2
2 -6 8 269.061 14.1484 2
2 -6 8 303.513 20.3022 1
2 -6 9 15.5922 8.80895 1
2 -6 9 18.2416 4.91138 2
-2 6 -9 9.4874 8.22646 1
2 -6 9 1.57624 9.16187 3
-2 6 -9 24.9719 9.05821 4
-2 6 -9 11.5486 4.50664 2
-2 6 -10 114.025 14.24 1
2 -6 10 154.984 16.3796 3
-2 6 -10 94.6691 8.94677 2
-2 6 -10 147.645 14.2206 4
2 -6 10 141.048 9.93987 2
2 -6 11 43.601 7.63552 2
-2 6 -11 68.6047 12.1071 1
-2 6 -11 54.867 7.46861 2
2 -6 12 47.6287 8.7659 2
-2 6 -12 46.9423 11.8866 1
-2 6 -12 61.3063 8.51824 2
2 -6 13 3.62429 7.1086 2
-2 6 -13 11.9935 10.7915 1
2 -6 13 -1.92608 11.4955 3
-2 6 -13 5.83392 9.09245 4
2 -6 14 7.1171 8.22219 2
-2 6 -14 3.14846 10.2911 1
2 -6 14 -4.02938 12.6617 3
-2 6 -14 -4.56967 9.17231 4
2 -6 15 768.931 44.181 3
-2 6 -15 743.178 39.6511 4
2 -6 15 632.655 35.9078 2
2 -6 16 225.001 19.8001 2
2 -6 16 272.336 26.3106 3
-2 6 -16 305.755 23.6547 4
-2 5 15 294.793 24.5974 2
2 -5 -15 223.914 22.9403 4
-2 5 14 1.6607 11.5729 2
2 -5 -14 -3.51594 11.0484 4
-2 5 13 20.0776 10.457 2
2 -5 -13 41.9991 12.5855 4
-2 5 12 72.8723 12.8792 2
2 -5 -12 82.7227 7.25959 3
2 -5 -12 57.5617 12.6829 4
2 -5 -11 251.267 14.0616 3
-2 5 11 249.567 19.7749 2
2 -5 -11 263.543 21.2932 4
2 -5 -11 248.632 13.6833 3
2 -5 -10 291.78 15.2992 3
-2 5 10 245.129 19.8597 2
2 -5 -10 313.414 15.9715 3
2 -5 -10 300.304 19.3387 2
2 -5 -10 304.038 22.3547 4
2 -5 -9 260.118 13.7749 3
2 -5 -9 235.333 16.7636 2
-2 5 9 239.647 13.1714 3
2 -5 -9 263.188 19.9937 4
-2 5 9 267.178 18.0723 2
2 -5 -8 1846.55 74.9913 3
2 -5 -8 1859.08 77.7089 2
-2 5 8 1775.9 78.9189 2
2 -5 -8 1752.3 81.7176 4
-2 5 8 1898.85 74.4542 3
2 -5 -7 628.485 30.4441 3
2 -5 -7 710.726 32.618 2
-2 5 7 754.151 35.7895 4
2 -5 -7 678.039 36.4964 4
-2 5 7 713.785 33.9624 2
-2 5 7 706.233 30.2666 3
-2 5 6 45.3962 7.27347 2
2 -5 -6 60.291 6.4981 3
-2 5 6 52.047 9.69378 4
2 -5 -6 44.9473 6.98268 2
2 -5 -6 54.587 9.71052 4
-2 5 6 44.2901 5.78692 3
-2 5 5 29.488 5.13293 3
-2 5 5 30.5588 6.01926 2
2 -5 -5 33.6366 5.71421 3
-2 5 5 37.9239 8.82276 4
2 -5 -5 45.6697 6.41447 2
2 -5 -5 34.9602 8.27967 4
-2 5 4 81.1415 7.50912 2
-2 5 4 78.6493 7.32584 3
2 -5 -4 89.907 7.68359 3
2 -5 -4 68.8428 6.7923 2
-2 5 4 66.7359 10.2563 4
2 -5 -4 94.348 10.9919 4
2 -5 -3 163.029 11.2823 3
2 -5 -3 158.723 9.33399 2
-2 5 3 145.173 7.05533 1
2 -5 -3 196.366 14.9983 4
-2 5 3 170.47 9.96431 2
-2 5 3 197.429 14.5525 4
-2 5 3 169.141 10.8404 3
2 -5 -3 159.847 7.29133 1
2 -5 -2 961.962 41.1637 3
2 -5 -2 957.221 37.8192 2
-2 5 2 900.54 37.277 1
-2 5 2 1035.93 44.3162 4
2 -5 -2 943.58 44.8238 4
2 -5 -2 868.667 37.3667 1
-2 5 2 912.246 40.2834 3
-2 5 2 921.35 38.1209 2
2 -5 -1 768.863 34.2168 3
2 -5 -1 696.305 29.2626 2
-2 5 1 826.548 36.9019 4
2 -5 -1 730.048 36.9066 4
-2 5 1 723.118 30.6513 1
2 -5 -1 756.341 30.9255 1
-2 5 1 715.895 29.5911 2
-2 5 1 732.832 33.2935 3
2 -5 0 228.504 15.0611 3
2 -5 0 226.946 16.9819 4
-2 5 0 272.454 17.4449 4
2 -5 0 257.2 13.004 1
-2 5 0 225.108 12.5933 1
-2 5 0 237.559 14.8567 3
-2 5 -1 77.7613 8.75542 3
2 -5 1 85.0807 9.19714 3
2 -5 1 98.828 7.68641 1
2 -5 1 85.0881 10.2809 5
2 -5 1 66.8961 9.81229 4
-2 5 -1 91.6212 11.0042 4
-2 5 -1 65.3323 6.51798 1
-2 5 -2 452.232 23.6768 3
-2 5 -2 433.186 21.7916 1
2 -5 2 467.041 24.5536 3
2 -5 2 470.73 25.5403 5
-2 5 -2 446.958 25.2557 4
2 -5 2 419.234 25.4935 4
2 -5 2 443.425 22.0616 1
-2 5 -3 115.924 9.74786 1
-2 5 -3 137.903 11.7858 3
2 -5 3 141.033 12.1827 3
2 -5 3 129.662 10.4369 1
2 -5 3 158.816 13.4129 5
-2 5 -4 714.431 34.3694 3
2 -5 4 670.106 35.2071 3
-2 5 -4 686.884 32.924 1
2 -5 4 702.319 33.0953 1
2 -5 4 746.245 36.2067 5
-2 5 -5 463.495 26.0803 3
2 -5 5 483.461 27.0357 3
-2 5 -5 433.677 24.4103 1
2 -5 5 493.187 27.2832 5
2 -5 5 501.994 25.2201 1
-2 5 -6 469.499 25.8323 3
2 -5 6 478.566 26.9051 3
2 -5 6 430.708 19.2477 2
-2 5 -6 478.362 24.7505 1
-2 5 -6 440.65 18.8366 2
2 -5 6 459.99 24.7501 1
-2 5 -7 225.591 16.9513 3
-2 5 -7 199.334 15.0236 1
2 -5 7 180.932 16.459 3
2 -5 7 193.547 15.5279 1
-2 5 -7 211.71 10.7588 2
-2 5 -7 234.57 17.2149 4
2 -5 7 204.597 11.1619 2
-2 5 -8 220.573 11.8405 2
-2 5 -8 223.124 16.152 1
-2 5 -8 226.661 17.3407 3
2 -5 8 179.267 16.346 3
-2 5 -8 248.123 18.1391 4
2 -5 8 193.383 11.8825 2
-2 5 -8 228.582 16.2538 4
2 -5 8 200.799 16.1571 1
2 -5 9 30.0429 5.93113 2
2 -5 9 37.918 10.3475 3
-2 5 -9 30.9689 8.31729 4
-2 5 -9 21.6418 5.33317 2
2 -5 9 30.8192 8.91556 1
-2 5 -9 16.844 7.89087 1
2 -5 10 -1.36893 5.39689 2
-2 5 -10 -1.20449 7.05634 4
-2 5 -10 -2.40639 7.24549 1
-2 5 -10 -0.5759 5.03439 2
2 -5 10 -6.10977 9.32839 1
-2 5 -11 -5.06032 7.61801 4
2 -5 11 5.54569 6.3111 2
-2 5 -11 1.28141 7.85291 1
-2 5 -11 2.62663 6.04799 2
2 -5 12 108.384 11.6509 2
-2 5 -12 146.019 11.871 2
-2 5 -12 119.892 13.6233 4
-2 5 -12 176.649 17.8501 5
-2 5 -12 140.123 15.3097 1
2 -5 13 65.9413 10.4018 2
2 -5 13 88.7297 14.7611 3
-2 5 -13 59.6436 13.0062 5
-2 5 -13 84.8944 13.6584 1
-2 5 -13 51.9686 10.862 4
-2 5 -13 46.2197 9.06682 2
2 -5 14 444.649 31.701 3
-2 5 -14 490.123 30.0948 1
-2 5 -14 430.052 25.3899 2
-2 5 -14 482.847 31.9294 5
-2 5 -14 538.021 30.5303 4
2 -5 14 473.317 27.3655 2
-2 5 -15 363.151 27.7421 5
-2 5 -15 365.21 26.2039 1
2 -5 15 402.746 29.3641 3
-2 5 -15 381.366 25.6039 4
2 -5 15 317.962 23.2393 2
2 -5 16 5.36215 9.59245 2
-2 5 -16 6.46429 10.0775 4
2 -5 16 12.3207 13.3251 3
-2 5 -16 11.4608 12.9548 5
2 -5 17 8.6554 9.98918 2
-2 5 -17 11.8269 10.5344 4
2 -5 17 -2.13192 13.1797 3
-2 4 16 -9.13745 12.304 2
2 -4 -16 3.50091 11.4438 4
-2 4 15 30.8805 12.6434 2
2 -4 -15 36.7022 12.5881 4
2 -4 -14 377.07 26.7143 4
-2 4 14 381.687 26.8651 2
-2 4 13 114.492 15.0419 2
2 -4 -13 117.119 15.3231 4
2 -4 -13 109.724 7.47456 1
2 -4 -13 87.9292 7.24722 1
2 -4 -13 110.491 7.41987 3
-2 4 12 133.481 14.8822 2
2 -4 -12 129.821 8.47452 3
2 -4 -12 120.578 14.8575 4
2 -4 -12 119.567 7.67568 1
2 -4 -12 128.391 7.7233 1
2 -4 -12 153.222 8.30898 3
-2 4 11 10.0897 7.86239 2
2 -4 -11 3.55598 2.84016 1
2 -4 -11 5.7275 3.42861 3
2 -4 -11 5.57528 3.84721 3
2 -4 -11 4.01149 8.40487 4
2 -4 -11 1.29547 2.55154 1
2 -4 -10 18.5712 2.23176 1
2 -4 -10 29.8253 4.16269 3
2 -4 -10 21.9264 4.32771 3
2 -4 -10 19.9818 2.18662 1
2 -4 -10 23.9411 8.52087 4
-2 4 10 23.8313 8.49948 4
2 -4 -10 26.2976 8.31744 2
-2 4 10 20.7265 7.79337 2
-2 4 9 198.633 15.5439 4
2 -4 -9 184.601 10.1405 3
-2 4 9 182.388 14.9084 2
2 -4 -9 189.56 14.1644 2
2 -4 -9 182.221 15.3081 4
2 -4 -9 183.995 9.87182 3
-2 4 8 8.41716 5.78322 2
2 -4 -8 7.13968 3.2134 3
-2 4 8 0.94525 7.01478 4
2 -4 -8 -1.13183 6.5699 4
2 -4 -8 -0.78368 5.985 2
2 -4 -7 909.374 39.0117 3
-2 4 7 1000.57 44.3571 4
2 -4 -7 972.448 42.3983 2
-2 4 7 1008.9 43.5899 2
2 -4 -7 937.036 45.1664 4
-2 4 7 935.785 38.6595 3
2 -4 -6 765.044 33.4831 3
2 -4 -6 782.183 35.8497 2
-2 4 6 866.139 38.604 4
2 -4 -6 866.191 39.7511 4
-2 4 6 826.597 36.8905 2
-2 4 6 786.364 33.1938 3
2 -4 -5 651.56 28.9526 3
-2 4 5 702.521 33.1407 4
2 -4 -5 685.47 30.5472 2
2 -4 -5 700.588 34.0663 4
-2 4 5 666.742 31.0729 2
-2 4 5 667.143 28.614 3
2 -4 -4 744.915 32.5256 3
-2 4 4 774.88 36.0939 4
2 -4 -4 781.812 33.0493 2
2 -4 -4 757.085 37.0612 4
-2 4 4 777.669 33.5075 2
-2 4 4 716.272 31.9619 3
2 -4 -3 123.644 8.4285 3
-2 4 3 115.142 10.787 4
-2 4 3 114.941 7.89632 2
2 -4 -3 118.359 10.9311 4
2 -4 -3 117.108 7.7815 2
-2 4 3 107.601 7.73269 3
-2 4 2 1203.27 48.4015 3
2 -4 -2 1220.34 49.0081 3
2 -4 -2 1136.9 45.5592 1
2 -4 -2 1212.76 47.0848 2
2 -4 -2 1203.52 52.4313 4
-2 4 2 1274.75 51.8371 4
-2 4 2 1076.42 45.3877 1
-2 4 2 1213.84 47.2533 2
2 -4 -1 735.699 34.2159 3
-2 4 1 801.708 36.8672 4
-2 4 1 771.051 31.5454 2
2 -4 -1 749.186 36.9029 4
2 -4 -1 772.409 31.8819 1
-2 4 1 774.742 31.6667 1
2 -4 -1 765.946 31.5511 2
-2 4 1 797.359 34.0736 3
-2 4 0 734.545 32.8551 3
2 -4 0 777.392 31.3304 1
-2 4 0 753.017 30.993 1
2 -4 0 731.135 33.4747 3
2 -4 0 828.96 35.5411 5
-2 4 0 794.656 35.4951 4
2 -4 0 768.244 35.7933 4
-2 4 0 715.334 29.0499 2
-2 4 0 686.769 29.2965 2
2 -4 1 280.06 14.0768 1
-2 4 -1 254.681 15.1195 3
2 -4 1 262.487 15.6573 3
-2 4 -1 248.763 13.4096 1
2 -4 1 252.773 16.9683 4
-2 4 -1 253.734 16.8172 4
2 -4 1 275.68 16.9893 5
-2 4 -2 309.116 17.7112 3
2 -4 2 276.46 17.5123 3
-2 4 -2 290.811 15.9311 1
-2 4 -2 325.855 19.0704 4
2 -4 2 299.983 18.7705 4
2 -4 2 346.913 19.4345 5
2 -4 2 327.228 16.5709 1
-2 4 -3 172.449 12.781 3
2 -4 3 177.376 12.9318 3
-2 4 -3 173.47 11.4226 1
2 -4 3 192.105 13.9172 5
-2 4 -3 174.332 13.3665 4
2 -4 3 139.995 12.8774 4
2 -4 3 183.959 11.8781 1
-2 4 -4 30.2578 7.16302 3
2 -4 4 22.0831 2.96067 2
2 -4 4 28.6875 6.72112 3
2 -4 4 22.7825 7.30244 5
-2 4 -4 23.5937 2.47514 2
-2 4 -4 37.0918 8.22349 4
-2 4 -4 17.4265 5.22337 1
2 -4 4 22.1434 6.19106 1
2 -4 5 -0.91917 3.0196 2
-2 4 -5 0.85864 6.51816 3
2 -4 5 -4.01975 6.3673 3
-2 4 -5 -0.70723 2.48067 2
-2 4 -5 3.7707 5.07717 1
2 -4 5 0.77218 5.52271 1
2 -4 6 161.197 12.4953 1
-2 4 -6 158.179 13.2164 3
2 -4 6 148.461 13.3659 3
-2 4 -6 132.419 8.29058 2
2 -4 6 135.797 8.93014 2
-2 4 -6 135.44 11.4562 1
2 -4 7 228.573 16.2036 1
-2 4 -7 259.181 17.3887 3
-2 4 -7 209.153 15.8154 1
2 -4 7 245.17 17.808 3
-2 4 -7 248.675 12.953 2
2 -4 7 245.757 13.4449 2
2 -4 8 573.304 28.4102 1
-2 4 -8 510.841 28.0068 3
2 -4 8 497.452 29.1697 3
-2 4 -8 495.244 27.4147 1
2 -4 8 475.884 24.1044 2
-2 4 -8 514.965 23.7769 2
2 -4 9 429.931 25.19 1
-2 4 -9 488.912 27.5118 5
-2 4 -9 405.088 21.0446 2
-2 4 -9 455.038 26.2108 4
2 -4 9 432.139 22.0391 2
-2 4 -9 404.905 24.7537 1
-2 4 -10 303.975 20.7792 1
2 -4 10 335.941 21.6923 1
-2 4 -10 327.673 22.4696 5
-2 4 -10 346.436 18.2529 2
-2 4 -10 365.854 22.6554 4
2 -4 10 264.909 18.0463 2
-2 4 -10 319.075 20.5175 4
2 -4 11 35.7801 8.05554 2
2 -4 11 31.5806 9.75663 1
-2 4 -11 29.5287 9.85627 5
-2 4 -11 19.4639 7.65897 4
-2 4 -11 31.7461 7.0978 2
-2 4 -11 21.0999 8.94246 1
2 -4 12 179.301 14.7857 2
-2 4 -12 197.081 18.2403 5
2 -4 12 243.142 19.5434 3
-2 4 -12 143.769 15.6915 1
-2 4 -12 230.042 17.3255 4
-2 4 -12 187.825 13.9382 2
2 -4 13 140.016 14.168 2
2 -4 13 158.944 18.171 3
-2 4 -13 156.349 16.1751 1
-2 4 -13 154.777 13.6463 2
-2 4 -13 216.083 17.494 4
-2 4 -13 208.612 18.6729 5
2 -4 14 25.6295 9.17825 2
-2 4 -14 15.3678 11.1773 5
2 -4 14 -3.59366 10.5418 3
-2 4 -14 23.122 9.53584 4
2 -4 15 138.487 15.1954 2
2 -4 15 135.472 18.4549 3
-2 4 -15 164.791 16.684 4
-2 4 -15 142.695 17.8755 5
2 -4 16 276.182 22.8059 2
-2 4 -16 312.229 25.9123 5
2 -4 16 350.936 27.3571 3
-2 4 -16 327.872 24.1563 4
2 -4 17 131.35 16.6218 2
2 -4 17 183.196 21.4329 3
-2 4 -17 185.415 19.2176 4
2 -3 -17 397.983 28.6308 4
-2 3 17 389.011 29.3316 2
-2 3 16 128.261 17.4465 2
2 -3 -16 142.736 17.3846 4
-2 3 15 166.659 18.4876 2
2 -3 -15 211.789 19.0248 4
2 -3 -15 188.639 12.5346 1
2 -3 -14 32.5763 4.37392 3
2 -3 -14 49.6627 11.2053 4
2 -3 -14 30.9115 5.85664 1
2 -3 -14 33.9066 5.81227 1
-2 3 14 43.3879 11.637 2
2 -3 -13 7.84952 3.20025 3
2 -3 -13 13.1904 4.49503 1
2 -3 -13 4.91344 3.46827 3
2 -3 -13 11.9853 8.64586 4
2 -3 -13 10.6385 4.44919 1
-2 3 13 12.9115 9.52522 2
2 -3 -12 524.754 22.6009 3
2 -3 -12 532.849 23.9432 1
2 -3 -12 579.18 31.3477 4
-2 3 12 553.3 31.3144 2
2 -3 -12 530.514 22.4615 3
2 -3 -12 543.112 24.2092 1
2 -3 -11 32.5774 3.36276 3
2 -3 -11 38.5897 4.63289 1
2 -3 -11 28.6418 3.56048 3
2 -3 -11 28.504 8.51745 2
-2 3 11 27.5965 8.02673 4
2 -3 -11 25.9255 4.33004 1
2 -3 -11 38.4939 9.17806 4
-2 3 11 30.4054 8.83406 2
2 -3 -10 282.852 12.8516 3
-2 3 10 304.008 18.9061 4
2 -3 -10 316.6 19.1883 2
2 -3 -10 288.166 19.8215 4
-2 3 10 326.495 20.3818 2
2 -3 -10 281.527 13.7188 1
2 -3 -10 333.614 14.1443 1
2 -3 -10 291.981 12.7471 3
2 -3 -9 3.91092 1.80108 3
2 -3 -9 4.2941 1.84661 3
-2 3 9 0.85459 6.26637 4
2 -3 -9 4.44267 2.44703 1
2 -3 -9 -2.02321 6.09299 4
2 -3 -9 3.71863 2.60553 1
2 -3 -9 -0.86162 6.43099 2
-2 3 9 -2.0198 6.13677 2
2 -3 -8 18.1317 2.01257 3
-2 3 8 29.796 7.39599 4
2 -3 -8 15.0234 2.04239 3
2 -3 -8 24.5335 2.10192 1
2 -3 -8 14.8919 6.38027 2
2 -3 -8 17.9026 6.7359 4
2 -3 -8 18.0374 2.1743 1
-2 3 8 24.502 6.49039 2
-2 3 7 39.6784 7.57543 4
2 -3 -7 50.1431 7.20177 2
2 -3 -7 51.3243 7.86854 4
-2 3 7 42.8163 7.24849 2
2 -3 -6 170.075 8.29755 3
2 -3 -6 201.766 12.6361 2
2 -3 -6 213.269 14.1742 4
-2 3 6 208.847 13.0329 2
-2 3 6 221.318 13.7736 4
2 -3 -5 167.306 8.48973 3
2 -3 -5 194.009 11.7705 2
-2 3 5 188.285 11.9747 2
2 -3 -5 201.625 13.5152 4
-2 3 5 176.989 8.22872 3
-2 3 5 183.891 12.7305 4
2 -3 -4 163.699 8.52535 3
2 -3 -4 170.796 10.4901 2
-2 3 4 182.64 12.2979 4
-2 3 4 162.006 10.4658 2
2 -3 -4 166.408 12.0999 4
-2 3 4 160.264 8.11651 3
2 -3 -3 425.804 19.8524 3
-2 3 3 441.781 20.8658 2
-2 3 3 464.151 22.9475 4
2 -3 -3 455.852 23.359 4
2 -3 -3 463.293 20.8942 2
-2 3 3 453.588 19.5273 3
-2 3 2 232.092 9.77624 1
2 -3 -2 241.25 12.2591 3
2 -3 -2 234.122 11.9729 2
-2 3 2 229.03 9.8227 1
-2 3 2 243.396 12.0882 2
-2 3 2 222.412 14.2019 4
2 -3 -2 225.365 14.546 4
-2 3 2 240.322 11.8667 3
-2 3 1 5449.62 211.589 3
2 -3 -1 5406.45 211.994 3
-2 3 1 5337.84 209.997 1
2 -3 -1 5370.44 210.614 2
2 -3 -1 5624.03 213.678 5
-2 3 1 5508.43 214.219 4
2 -3 -1 5533.51 214.674 4
-2 3 1 5460.62 210.584 2
-2 3 0 86.7996 5.937 2
-2 3 0 79.2173 4.99007 2
2 -3 0 76.5956 5.80031 1
-2 3 0 78.9661 6.95579 3
2 -3 0 69.9433 6.98114 3
2 -3 0 92.8961 8.3786 5
-2 3 0 71.1412 5.40599 1
-2 3 0 100.961 9.22533 4
2 -3 0 73.034 8.19745 4
-2 3 -1 3.93133 2.947 1
-2 3 -1 9.59406 2.85816 2
-2 3 -1 5.74989 4.87703 3
2 -3 1 7.67074 4.33472 3
2 -3 1 11.404 5.24096 5
-2 3 -1 6.88629 2.14562 2
-2 3 -1 6.99749 5.6657 4
2 -3 1 2.2402 4.8525 4
2 -3 1 12.6681 4.06372 1
-2 3 -2 198.668 12.1513 3
2 -3 2 167.267 11.8372 3
2 -3 2 162.031 10.7028 1
-2 3 -2 184.164 10.8312 1
-2 3 -2 177.258 12.602 4
2 -3 2 173.403 12.6905 4
2 -3 2 178.636 12.6927 5
-2 3 -2 177.809 8.77342 2
-2 3 -2 168.032 8.52756 2
-2 3 -3 241.668 14.8122 3
2 -3 3 256.347 15.293 3
2 -3 3 243.757 14.124 1
-2 3 -3 189.517 14.4999 5
-2 3 -3 265.892 14.0085 1
-2 3 -3 259.486 15.7092 4
-2 3 -3 222.367 11.0742 2
2 -3 3 225.889 11.6031 2
-2 3 -4 195.48 13.6374 3
2 -3 4 175.398 13.6731 3
2 -3 4 194.69 13.1183 1
-2 3 -4 198.328 12.793 4
-2 3 -4 203.898 14.6853 5
-2 3 -4 207.432 12.99 1
-2 3 -4 197.826 10.0578 2
-2 3 -4 186 13.8909 4
2 -3 4 189.925 10.6978 2
-2 3 -5 11.3719 6.44036 5
2 -3 5 3.64397 3.95497 2
-2 3 -5 20.3259 5.88682 1
-2 3 -5 14.4739 6.64469 3
2 -3 5 9.2541 5.83245 3
2 -3 5 9.6528 5.29508 1
-2 3 -5 3.00692 4.42553 4
-2 3 -5 24.5853 7.20055 4
-2 3 -5 17.5847 3.56387 2
-2 3 -6 372.713 21.7238 3
2 -3 6 375.82 21.3259 1
2 -3 6 380.767 22.4892 3
-2 3 -6 365.093 20.7828 1
-2 3 -6 381.634 18.2745 2
-2 3 -6 387.504 22.3801 4
2 -3 6 384.08 19.1186 2
2 -3 7 1418.65 60.5168 1
2 -3 7 1357.73 61.4611 3
-2 3 -7 1341.39 59.8764 1
-2 3 -7 1342.3 56.8488 2
2 -3 7 1360.7 57.8212 2
-2 3 -7 1417.7 60.631 3
2 -3 8 327.706 20.1193 1
-2 3 -8 277.567 19.0995 1
-2 3 -8 317.741 17.1031 2
2 -3 8 337.867 18.1347 2
-2 3 -9 7.33325 6.85193 1
-2 3 -9 11.1798 7.2113 5
2 -3 9 9.62488 7.60327 1
2 -3 9 4.76834 5.23909 2
-2 3 -9 1.30154 5.21497 2
-2 3 -10 332.745 21.5087 3
2 -3 10 336.23 21.4291 1
-2 3 -10 316.651 21.8698 5
-2 3 -10 306.816 20.5572 1
-2 3 -10 303.516 17.949 2
2 -3 10 298.355 19.0849 2
2 -3 11 5.97829 7.39531 2
2 -3 11 1.46019 9.10409 3
-2 3 -11 12.6845 8.48978 5
-2 3 -11 4.78428 6.48406 2
2 -3 11 4.93292 9.25873 1
2 -3 12 1200.24 57.8199 3
-2 3 -12 1176.27 55.4383 4
2 -3 12 1057.17 53.6361 2
-2 3 -12 1292.76 58.2789 5
-2 3 -12 1207.52 52.8399 2
2 -3 13 3498.88 154.715 3
-2 3 -13 3968.43 155.814 5
-2 3 -13 3786.75 153.184 4
-2 3 -13 3786.77 149.882 2
2 -3 13 3450.48 151.613 2
2 -3 14 308.42 23.7795 3
-2 3 -14 277.591 21.027 4
-2 3 -14 277.868 22.8319 5
2 -3 14 298.388 21.4406 2
-2 3 -15 514.988 31.519 5
2 -3 15 419.121 30.07 3
2 -3 15 420.241 27.7112 2
-2 3 -15 431.601 28.6563 1
-2 3 -15 434.187 28.1066 4
-2 3 -16 672.842 39.3084 1
-2 3 -16 696.527 39.2379 4
-2 3 -16 743.832 41.6954 5
2 -3 16 708.277 39.2895 2
2 -3 17 97.0914 15.6529 2
-2 3 -17 138.719 18.4316 5
-2 3 -17 97.5898 14.9736 4
2 -3 18 85.834 16.0036 2
-2 3 -18 105.425 15.8603 4
-2 3 -18 77.6645 15.3135 3
2 -2 -17 74.2819 13.661 4
-2 2 17 73.8006 15.1881 2
2 -2 -16 20.062 10.7044 4
2 -2 -16 9.1628 6.31463 1
-2 2 16 15.5875 11.0724 2
-2 2 15 106.449 11.2262 1
2 -2 -15 88.8899 13.2482 4
2 -2 -15 113.703 7.48528 3
2 -2 -15 115.651 10.529 1
-2 2 15 126.28 15.778 2
2 -2 -14 376.624 17.2586 3
2 -2 -14 423.232 25.1567 4
-2 2 14 390.359 20.9972 1
-2 2 14 392.37 25.8893 2
2 -2 -14 359.752 16.943 3
2 -2 -14 403.582 20.4004 1
2 -2 -13 6.13407 2.99731 3
2 -2 -13 8.73892 3.2405 3
-2 2 13 10.5412 5.86046 1
-2 2 13 19.3067 7.60933 4
2 -2 -13 8.1985 7.66018 4
2 -2 -13 -4.22725 4.84091 1
-2 2 13 7.02759 8.39098 2
2 -2 -12 38.4697 3.64167 3
2 -2 -12 36.9693 3.92109 3
-2 2 12 45.8982 8.47552 4
2 -2 -12 42.3949 8.74403 4
2 -2 -12 38.1173 6.00259 1
-2 2 12 58.4461 10.6607 2
-2 2 12 35.6737 6.71143 1
2 -2 -11 232.496 10.4202 3
-2 2 11 241.122 13.5659 1
-2 2 11 250.376 17.9666 2
-2 2 11 260.716 15.8064 4
2 -2 -11 276.867 17.9394 2
2 -2 -11 263.887 17.4151 4
2 -2 -11 220.996 10.3348 3
2 -2 -11 249.903 13.3651 1
-2 2 10 4101.53 162.092 1
-2 2 10 4097.68 164.567 4
2 -2 -10 4092.16 166.138 2
2 -2 -10 3934.41 165.892 4
-2 2 10 4053.72 167.272 2
2 -2 -10 4298.84 161.919 1
-2 2 9 7.77159 3.8398 1
2 -2 -9 9.50933 6.71425 2
2 -2 -9 4.21702 5.08641 4
2 -2 -9 7.75202 3.18246 1
-2 2 9 4.20683 5.14764 4
-2 2 9 11.8348 6.20454 2
-2 2 8 1757.05 70.5834 1
-2 2 8 1810.95 75.4645 2
2 -2 -8 1793.87 74.6568 2
-2 2 8 1735.73 73.7294 4
2 -2 -8 1701.38 74.3046 4
2 -2 -8 1798.25 70.3415 1
-2 2 7 1889.54 80.6437 2
2 -2 -7 1940.98 80.2107 2
-2 2 7 2006.73 79.8577 4
2 -2 -7 1870.78 80.0902 4
2 -2 -7 1946.85 75.9389 1
-2 2 7 1914.59 76.2019 1
2 -2 -6 823.911 36.4464 2
-2 2 6 800.38 35.9087 4
-2 2 6 812.228 36.638 2
2 -2 -6 795.676 32.2498 1
2 -2 -6 773.169 36.1948 4
-2 2 6 811.834 32.4416 1
2 -2 -5 178.861 11.6281 2
2 -2 -5 174.506 7.89448 1
-2 2 5 168.84 11.1684 4
-2 2 5 186.416 11.719 2
2 -2 -5 164.996 11.4517 4
-2 2 5 179.257 8.02552 1
-2 2 4 4411.16 176.476 2
-2 2 4 4512.31 172.848 1
2 -2 -4 4513.18 176.519 2
2 -2 -4 4450.32 177.002 4
-2 2 4 4489.5 176.503 4
2 -2 -4 4474.17 172.812 1
-2 2 3 977.951 38.7001 3
2 -2 -3 1001.5 41.5261 2
-2 2 3 970.151 41.4154 2
2 -2 -3 1020.04 42.3957 4
2 -2 -3 1024.1 40.8717 5
-2 2 3 975.093 41.7798 4
-2 2 3 995.224 38.5713 1
-2 2 3 926.102 38.6794 1
-2 2 2 5341.16 206.442 1
-2 2 2 5495.1 207.002 3
-2 2 2 5411.75 208.466 2
2 -2 -2 5188.56 207.15 3
-2 2 2 5221.86 206.573 1
2 -2 -2 5355.2 208.415 2
-2 2 2 5365.29 209.246 4
2 -2 -2 5288.64 209.542 4
2 -2 -2 5573.52 208.53 5
-2 2 1 2595.32 101.628 3
-2 2 1 2532.67 101.042 1
2 -2 -1 2554.02 101.82 3
-2 2 1 2740.06 103.557 4
2 -2 -1 2535.31 103.412 4
-2 2 1 2585.22 101.868 2
-2 2 1 2540.08 100.835 1
2 -2 -1 2625.07 102.729 5
-2 2 0 373.873 18.0908 2
-2 2 0 370.769 17.3381 1
-2 2 0 353.605 17.8319 3
2 -2 0 393.766 18.2991 3
-2 2 0 364.537 18.9241 4
-2 2 0 397.59 17.1694 1
-2 2 0 378.285 17.332 2
2 -2 0 395.867 19.3436 4
-2 2 -1 663.114 28.5159 2
-2 2 -1 684.474 29.924 3
2 -2 1 645.543 30.2094 3
-2 2 -1 667.969 30.6778 5
-2 2 -1 680.064 30.6585 4
2 -2 1 706.757 31.0917 4
-2 2 -1 695.678 29.3009 1
-2 2 -1 649.251 28.9382 2
2 -2 2 195.274 11.0437 2
-2 2 -2 185.416 12.1137 3
2 -2 2 197.712 12.3316 3
-2 2 -2 200.725 12.7889 5
-2 2 -2 182.328 11.4552 4
-2 2 -2 186.271 12.3056 4
2 -2 2 198.851 11.6256 1
-2 2 -2 203.584 10.807 2
-2 2 -2 196.326 11.427 1
-2 2 -3 419.259 21.4336 3
2 -2 3 413.712 21.5888 3
-2 2 -3 430.691 22.2209 5
-2 2 -3 414.211 20.4958 4
-2 2 -3 414.683 21.4125 4
2 -2 3 410.004 20.7184 1
-2 2 -3 416.567 19.3034 2
-2 2 -3 420.149 20.7795 1
2 -2 3 405.626 19.8335 2
-2 2 -4 412.938 21.1121 3
2 -2 4 360.823 20.8467 3
2 -2 4 417.922 20.6242 1
-2 2 -4 361.042 19.6819 4
-2 2 -4 332.404 20.6374 5
-2 2 -4 424.004 21.2934 4
-2 2 -4 417.931 18.867 2
-2 2 -4 379.984 20.0267 1
2 -2 4 380.94 19.2731 2
-2 2 -5 -4.85682 4.24534 2
2 -2 5 -0.5882 4.23343 2
2 -2 5 1.44266 5.44495 1
-2 2 -5 9.22048 5.83292 3
2 -2 5 1.74257 5.47575 3
-2 2 -5 0.72539 4.88363 1
-2 2 -5 0.81369 6.24593 4
-2 2 -5 0.68837 4.18197 4
-2 2 -5 -0.86272 5.28695 5
2 -2 6 2852.97 116.232 1
-2 2 -6 2822.73 116.402 3
2 -2 6 2793.41 117.381 3
-2 2 -6 2884.66 115.861 4
-2 2 -6 2843.56 114.062 2
-2 2 -6 2880.73 116.265 1
2 -2 6 2854.22 115.057 2
-2 2 -7 2850.67 122.116 4
2 -2 7 3117.18 121.828 4
-2 2 -7 3082.93 120.943 2
-2 2 -7 2846.93 122.548 1
2 -2 7 3071.19 121.889 2
2 -2 7 3047.15 123.092 1
2 -2 8 553.197 26.7176 4
-2 2 -8 510.709 27.3053 4
2 -2 8 503.182 27.7687 1
-2 2 -8 522.378 26.0589 2
-2 2 -8 542.232 27.961 1
2 -2 8 521.739 26.9732 2
2 -2 9 25.6077 6.68008 2
2 -2 9 24.0912 7.72775 1
-2 2 -9 18.8109 8.66059 3
2 -2 9 22.8122 6.61374 4
-2 2 -9 20.8581 6.65072 2
-2 2 -10 1130.11 51.9055 3
2 -2 10 1167.37 53.7075 3
-2 2 -10 1093.91 49.5863 2
2 -2 10 1068.99 50.7842 2
2 -2 11 171.889 15.1059 2
-2 2 -11 148.437 15.3669 3
-2 2 -11 189.673 14.3749 2
2 -2 11 219.296 17.8519 3
-2 2 -12 317.19 19.9231 2
2 -2 12 295.721 20.8433 2
-2 2 -13 471.659 28.2075 1
2 -2 13 452.43 28.0685 2
-2 2 -14 -5.74924 9.2525 1
2 -2 14 1.42676 8.96674 2
-2 2 -14 7.15439 8.46093 4
-2 2 -14 -1.34499 8.45283 3
-2 2 -15 53.0163 12.3732 1
2 -2 15 81.3758 13.6416 2
-2 2 -15 76.617 14.1387 5
-2 2 -15 71.2854 12.4484 4
-2 2 -15 78.0823 12.3961 3
-2 2 -16 111.353 14.9428 4
2 -2 16 57.5027 13.5185 2
-2 2 -16 74.8454 14.9446 5
-2 2 -16 82.1291 13.3659 3
-2 2 -16 85.9779 14.4339 1
2 -2 17 38.572 13.2518 2
-2 2 -17 41.9243 13.8892 5
-2 2 -17 36.6931 11.6144 4
-2 2 -17 43.7703 11.3591 3
-2 2 -17 43.2741 13.01 1
2 -2 18 -3.72913 11.7183 2
-2 2 -18 -5.57213 10.983 4
-2 2 -18 4.89446 10.084 3
2 -1 -18 39.5038 12.0064 4
-2 1 18 19.2417 13.7251 2
2 -1 -17 536.631 31.2515 4
-2 1 17 495.314 33.4724 2
2 -1 -17 526.009 28.1154 1
-2 1 16 268.951 19.1622 1
2 -1 -16 304.605 21.4718 4
2 -1 -16 294.117 18.7514 1
-2 1 16 279.774 23.3349 2
2 -1 -15 3.61988 8.12462 4
-2 1 15 2.72454 7.48958 1
2 -1 -15 13.3665 7.08366 1
-2 1 15 1.60131 9.11233 2
2 -1 -15 1.1899 3.91129 3
2 -1 -14 305.946 15.6046 3
-2 1 14 347.327 19.9719 1
-2 1 14 318.281 19.5565 4
2 -1 -14 337.02 21.2762 4
-2 1 14 337.523 23.6425 2
2 -1 -14 311.551 15.5003 3
2 -1 -14 356.901 19.3422 1
-2 1 13 11.642 6.64907 1
2 -1 -13 7.65897 3.52326 3
-2 1 13 8.71036 6.53953 4
2 -1 -13 14.4425 7.66205 4
2 -1 -13 17.3154 6.44915 1
-2 1 13 2.77642 8.58816 2
2 -1 -13 9.06044 3.63603 3
-2 1 12 1332.52 57.2259 4
2 -1 -12 1259 58.7134 4
-2 1 12 1389.89 61.8152 2
2 -1 -12 1286.17 53.1914 3
2 -1 -12 1400.46 56.9084 1
-2 1 12 1379.16 57.1593 1
2 -1 -12 1323.55 53.2987 3
2 -1 -11 2032.99 84.4266 2
2 -1 -11 1919.29 82.9806 4
-2 1 11 2018.7 85.6331 2
-2 1 11 1964.75 81.3594 4
2 -1 -11 1883.17 77.4342 3
2 -1 -11 2016.78 80.8579 1
-2 1 11 2029.02 81.2878 1
2 -1 -11 2019.73 77.5966 3
-2 1 10 951.976 41.8213 4
2 -1 -10 990.559 44.7729 2
2 -1 -10 950.652 43.339 4
-2 1 10 979.166 45.5238 2
-2 1 10 1038.84 41.9204 1
2 -1 -10 902.347 37.9987 3
2 -1 -10 1010.93 41.4338 1
2 -1 -10 959.067 38.0968 3
2 -1 -9 33.7367 2.35768 3
-2 1 9 31.604 5.41343 1
2 -1 -9 29.8212 7.65899 2
-2 1 9 37.2088 5.90987 4
2 -1 -9 37.2226 6.13841 4
2 -1 -9 26.3319 4.73833 1
-2 1 9 42.9574 7.70658 2
2 -1 -9 25.9172 2.33135 3
2 -1 -8 139.446 11.52 2
-2 1 8 137.765 8.89112 1
-2 1 8 113.515 9.11939 4
2 -1 -8 126.814 9.59272 4
2 -1 -8 147.196 8.8213 1
-2 1 8 121.902 10.9275 2
2 -1 -7 10.9343 3.27932 1
-2 1 7 11.6603 4.29309 4
2 -1 -7 17.7069 6.0758 2
2 -1 -7 9.21134 3.93297 4
-2 1 7 16.7108 5.14788 2
-2 1 7 18.7584 4.06042 1
-2 1 6 438.57 19.3146 1
2 -1 -6 413.604 21.7983 2
-2 1 6 429.94 20.2428 4
2 -1 -6 412.116 20.3157 4
-2 1 6 398.17 21.9354 2
2 -1 -6 447.334 19.2837 1
-2 1 5 1916.43 75.1976 1
2 -1 -5 1944.56 77.9641 2
2 -1 -5 1842.23 73.6517 5
-2 1 5 1850.76 77.9311 2
2 -1 -5 1904.48 76.3631 4
2 -1 -5 1900.86 75.1431 1
-2 1 5 1997.18 76.0823 4
2 -1 -4 52.3441 4.58662 1
2 -1 -4 58.8185 6.94684 2
-2 1 4 67.2514 5.63756 4
-2 1 4 60.5912 6.38782 2
2 -1 -4 56.4181 5.46727 4
-2 1 4 54.074 4.61365 1
2 -1 -3 1435.68 60.002 2
-2 1 3 1430.97 57.0089 3
-2 1 3 1464.92 60.067 2
-2 1 3 1461.28 58.4029 4
2 -1 -3 1437.98 58.6784 4
2 -1 -3 1427.76 57.9019 1
-2 1 3 1460.6 57.9158 1
-2 1 3 1467.75 56.7359 3
-2 1 2 44.4258 5.56981 2
-2 1 2 49.3735 4.35328 1
-2 1 2 47.5516 4.46029 3
2 -1 -2 43.964 5.69069 2
-2 1 2 49.5006 4.66977 4
2 -1 -2 52.6883 5.05071 4
2 -1 -2 53.5111 4.45402 1
-2 1 2 48.7125 3.7887 3
-2 1 1 228.068 13.3663 2
-2 1 1 219.793 11.5377 3
2 -1 -1 217.781 11.2072 1
-2 1 1 224.911 10.9645 3
-2 1 1 212.565 12.1207 2
-2 1 1 227.913 11.2512 1
-2 1 1 236.198 11.717 4
2 -1 -1 220.44 11.6979 4
-2 1 1 213.74 11.36 5
-2 1 0 103.415 7.53483 3
-2 1 0 110.235 7.54717 5
-2 1 0 107.626 6.91728 1
-2 1 0 102.718 7.33598 4
-2 1 0 97.3946 7.26307 2
-2 1 0 107.287 6.85976 3
-2 1 0 99.7262 8.14103 2
-2 1 -1 65.4319 6.2277 3
2 -1 1 54.2347 6.26557 2
-2 1 -1 61.478 6.35572 2
-2 1 -1 62.4598 5.89547 1
-2 1 -1 67.4996 5.31294 4
-2 1 -1 62.8474 5.59967 1
-2 1 -1 62.7658 5.72621 4
-2 1 -1 57.0323 5.37058 3
-2 1 -2 227.892 13.5442 3
-2 1 -2 221.771 12.032 4
-2 1 -2 230.794 13.1656 1
-2 1 -2 198.623 12.1089 1
-2 1 -2 247.339 13.1137 4
-2 1 -2 215.845 12.4666 3
-2 1 -2 236.675 12.8634 2
2 -1 2 212.445 12.7811 2
-2 1 -3 48.9282 6.50151 2
2 -1 3 48.9667 6.36861 2
-2 1 -3 48.8454 7.3986 3
-2 1 -3 49.8988 5.55035 4
-2 1 -3 47.5005 6.01805 1
2 -1 3 51.5231 5.88876 4
-2 1 -3 43.9263 6.15198 1
-2 1 -3 35.5785 5.17842 3
2 -1 4 290.518 15.6031 4
-2 1 -4 300.707 16.2252 1
-2 1 -4 322.014 17.6101 3
-2 1 -4 271.587 16.4038 1
-2 1 -4 290.79 15.746 4
-2 1 -4 291.763 15.9899 2
2 -1 4 285.896 16.5288 2
-2 1 -5 487.281 24.3961 1
-2 1 -5 466.473 24.7247 3
2 -1 5 461.561 23.2075 4
-2 1 -5 487.413 23.542 4
-2 1 -5 463.587 23.4327 2
2 -1 5 485.942 24.2498 2
-2 1 -6 5.89039 5.55185 2
-2 1 -6 6.56258 5.40643 1
2 -1 6 0.79683 4.97025 2
2 -1 6 8.31503 5.09866 4
-2 1 -6 2.84999 4.13871 4
2 -1 6 9.63284 6.33176 1
-2 1 -7 165.618 12.2634 4
2 -1 7 144.48 12.4171 1
-2 1 -7 168.406 12.556 2
2 -1 7 180.884 13.1874 2
2 -1 7 173.536 12.06 4
2 -1 8 610.77 29.6075 4
-2 1 -8 605.316 30.4992 4
-2 1 -8 627.375 30.3967 2
2 -1 8 582.797 30.8187 2
2 -1 9 43.9758 8.55424 2
-2 1 -9 58.9402 9.69502 3
2 -1 9 43.34 7.97629 4
-2 1 -9 45.3481 7.55977 4
-2 1 -9 44.6704 7.72569 3
-2 1 -9 35.1429 7.89215 2
-2 1 -10 584.357 30.618 3
2 -1 10 607.078 29.1345 4
-2 1 -10 575.891 29.2451 2
-2 1 -10 590.098 30.1 3
2 -1 10 555.781 30.6158 2
-2 1 -10 524.232 30.0153 1
-2 1 -10 466.285 28.4726 4
-2 1 -11 1298.48 59.6834 3
2 -1 11 1351.83 58.054 4
-2 1 -11 1323.1 58.4407 2
-2 1 -11 1201.44 59.1988 1
2 -1 11 1316.01 59.9562 1
2 -1 11 1282.08 60.262 2
-2 1 -11 1314.14 59.2354 3
-2 1 -12 487.536 27.2002 2
-2 1 -12 432.703 27.619 1
2 -1 12 473.535 27.9899 1
2 -1 12 430.818 27.8719 2
-2 1 -12 498.973 27.6094 3
2 -1 13 69.3255 12.2752 2
-2 1 -13 71.4786 11.8171 1
-2 1 -13 73.3027 11.1526 3
2 -1 14 15.4583 9.87575 2
-2 1 -14 -2.90203 9.63099 1
-2 1 -14 8.02297 8.87575 3
2 -1 15 -3.31847 9.99249 2
-2 1 -15 -9.15153 10.4154 1
-2 1 -15 1.41217 8.80336 3
-2 1 -16 4.78373 10.1111 1
2 -1 16 5.30409 10.9351 2
-2 1 -16 11.869 9.94086 4
-2 1 -16 20.8151 10.5058 3
-2 1 -17 133.176 17.4555 1
2 -1 17 90.0027 16.1867 2
-2 1 -17 147.639 18.0635 4
-2 1 -17 135.565 16.2816 3
2 -1 18 21.8523 12.9424 2
-2 1 -18 52.4514 14.6288 4
-2 1 -18 24.4377 12.0023 3
2 0 -18 25.405 10.4882 4
2 0 -18 31.0723 9.92301 1
-2 0 17 44.1197 11.4852 1
2 0 -17 58.9167 11.3774 4
2 0 -17 58.3455 10.5896 1
-2 0 16 68.5184 11.2468 1
2 0 -16 58.5396 10.7851 4
2 0 -16 70.6549 10.6362 1
2 0 -16 63.6446 7.18732 3
2 0 -16 66.5275 8.23796 5
2 0 -15 276.461 16.3575 5
2 0 -15 322.451 20.3618 4
-2 0 15 308.279 18.4804 4
2 0 -15 272.591 15.2149 3
2 0 -15 293.672 19.1445 1
-2 0 15 306.985 19.8945 1
2 0 -15 270.174 15.4621 3
2 0 -14 154.148 10.8528 5
-2 0 14 157.59 12.8564 4
2 0 -14 157.796 13.6335 4
-2 0 14 154.467 13.9782 1
2 0 -14 173.875 13.5588 1
2 0 -14 159.411 10.223 3
2 0 -14 153.724 10.4379 3
2 0 -13 -0.90534 6.35173 4
2 0 -13 -0.43869 4.04155 3
-2 0 13 5.8123 5.75877 4
-2 0 13 7.05063 7.02125 1
2 0 -13 3.67699 4.37342 5
2 0 -13 1.67472 5.95168 1
2 0 -13 3.88616 3.82333 3
2 0 -12 310.373 16.1042 5
-2 0 12 313.981 17.8074 4
-2 0 12 311.293 18.8167 1
2 0 -12 335.143 19.2524 4
2 0 -12 319.921 18.6752 1
2 0 -12 339.553 15.9525 3
-2 0 11 1.74533 4.06557 3
2 0 -11 2.50293 3.7417 3
-2 0 11 -2.22628 5.91225 1
2 0 -11 3.83954 3.41402 5
-2 0 11 3.57841 4.82406 4
2 0 -11 7.25933 8.38704 2
2 0 -11 0.73133 5.02901 4
2 0 -11 12.9316 5.48522 1
-2 0 11 -5.86027 7.54562 2
2 0 -10 189.407 14.4551 2
-2 0 10 173.413 10.2609 3
-2 0 10 204.695 11.7396 4
2 0 -10 179.981 12.0323 4
-2 0 10 173.007 12.204 1
2 0 -10 156.508 9.51035 5
-2 0 10 178.468 14.3586 2
2 0 -10 189.417 12.3231 1
2 0 -10 194.573 9.83688 3
-2 0 9 902.17 39.1998 1
-2 0 9 925.96 37.0641 3
2 0 -9 987.198 42.108 2
-2 0 9 819.135 41.507 2
2 0 -9 791.571 35.7985 5
2 0 -9 899.723 38.8389 4
-2 0 9 905.76 38.0335 4
2 0 -9 925.671 39.244 1
2 0 -9 919.132 36.3865 3
-2 0 8 1143.48 50.0722 2
-2 0 8 1091.21 45.0888 3
2 0 -8 1086.56 49.3578 2
-2 0 8 1141.07 47.4057 1
-2 0 8 1104.19 45.9848 4
2 0 -8 1071.85 46.477 4
2 0 -8 1117.52 47.2066 1
2 0 -8 1118.15 44.5367 3
-2 0 7 63.5608 4.86947 3
-2 0 7 56.0052 5.22049 4
-2 0 7 62.6336 6.37877 1
2 0 -7 70.42 6.5308 1
2 0 -7 56.2025 7.60677 2
2 0 -7 60.8961 5.70535 4
-2 0 7 58.357 7.68326 2
2 0 -7 64.6455 4.36738 3
-2 0 6 340.044 15.354 3
-2 0 6 338.97 17.175 1
2 0 -6 377.794 19.6537 2
-2 0 6 338.825 15.6322 4
-2 0 6 327.967 19.0335 2
2 0 -6 347.594 16.0433 4
2 0 -6 364.631 17.2839 1
2 0 -6 348.511 15.0183 3
-2 0 5 73.2215 5.14533 3
2 0 -5 82.1594 6.59778 1
-2 0 5 78.3267 5.0629 4
2 0 -5 81.2115 5.37709 4
-2 0 5 77.7613 7.84303 2
2 0 -5 82.0301 8.65129 2
2 0 -5 85.812 4.99962 3
-2 0 5 79.7629 6.57375 1
2 0 -4 129.752 8.41909 1
-2 0 4 128.973 6.37382 4
2 0 -4 115.639 6.62416 4
-2 0 4 112.15 9.10644 2
2 0 -4 122.186 9.83936 2
-2 0 4 135.614 8.45993 1
2 0 -4 131.466 6.87678 3
-2 0 4 124.654 6.99898 3
-2 0 3 651.346 31.6359 2
-2 0 3 719.379 28.0842 4
2 0 -3 723.045 30.5613 1
2 0 -3 651.908 31.5282 2
-2 0 3 698.462 30.3382 1
2 0 -3 689.49 28.2249 4
2 0 -3 717.98 29.1527 3
-2 0 3 705.132 29.262 3
2 0 -2 407.771 18.5774 1
-2 0 2 375.555 18.2955 1
2 0 -2 367.775 17.381 3
-2 0 2 361.492 17.2861 3
-2 0 2 388.651 16.2935 4
-2 0 2 407.988 16.1148 4
-2 0 2 404.632 19.8298 2
-2 0 1 2622.98 105.974 2
-2 0 1 2516.07 104.935 2
-2 0 1 2589.04 101.764 4
-2 0 1 2598.53 103.841 1
-2 0 1 2692.75 102.186 4
2 0 -1 2667.96 103.196 3
-2 0 1 2542.79 103.106 3
2 0 -1 2642.24 103.977 1
2 0 0 243.028 13.4717 1
-2 0 0 252.769 13.7108 1
-2 0 0 251.736 11.8834 4
-2 0 0 275.418 12.5746 4
2 0 0 256.893 13.126 3
-2 0 0 250.659 13.1183 3
-2 0 0 260.074 15.3461 2
2 0 1 985.901 46.6163 2
2 0 1 1070.56 45.5508 1
2 0 1 1126.67 44.2377 4
-2 0 -1 1095.78 45.7779 1
-2 0 -1 1083 44.1397 4
2 0 1 1103.85 45.3386 3
-2 0 -1 1066.25 45.4793 3
-2 0 -1 1088.99 46.9428 2
-2 0 -2 416.103 19.2699 4
-2 0 -2 441.047 20.7609 1
2 0 2 406.995 20.2997 1
-2 0 -2 441.925 20.6468 3
-2 0 -2 413.811 21.3557 2
2 0 2 436.294 19.4844 4
2 0 2 375.085 21.2534 2
-2 0 -3 110.311 9.35005 1
-2 0 -3 108.942 9.61565 2
-2 0 -3 120.853 10.5536 3
2 0 3 117.611 8.27618 4
-2 0 -3 118.863 8.18858 4
-2 0 -3 123.073 9.10831 3
-2 0 -3 126.759 9.92631 1
2 0 3 127.79 10.2842 2
-2 0 -4 17.9072 5.82296 2
2 0 4 27.4976 6.20894 2
-2 0 -4 23.8643 7.16649 3
2 0 4 18.2583 4.74338 4
-2 0 -4 18.9521 4.70292 4
-2 0 -4 18.9717 5.47053 1
-2 0 -4 22.7144 5.52079 1
-2 0 -4 16.3622 4.82974 3
2 0 5 432.359 20.7586 4
-2 0 -5 405.83 20.6586 4
-2 0 -5 408.092 21.9306 2
2 0 5 399.337 22.6025 2
2 0 6 316.949 16.6911 4
-2 0 -6 270.84 16.4248 4
-2 0 -6 294.133 17.6862 2
2 0 6 275.149 18.0654 2
-2 0 -7 2.43082 6.42231 2
2 0 7 6.07995 6.82285 2
2 0 7 6.26369 5.22458 4
-2 0 -7 -0.77599 4.19001 4
-2 0 -8 610.546 31.6833 1
-2 0 -8 648.404 32.1512 3
-2 0 -8 604.57 30.2973 1
2 0 8 626.603 29.8496 4
-2 0 -8 561.027 29.9997 4
-2 0 -8 590.379 30.6697 2
-2 0 -8 600 31.0655 3
2 0 8 669.621 33.1115 2
-2 0 -9 35.1706 8.21052 2
2 0 9 36.8328 8.58019 2
-2 0 -9 30.4956 8.88715 3
2 0 9 25.0024 6.84331 4
-2 0 -9 41.4208 7.48875 4
-2 0 -9 22.9058 7.35752 1
-2 0 -9 34.8415 7.26218 3
-2 0 -9 23.9746 7.63606 1
2 0 10 52.561 10.131 2
-2 0 -10 65.9726 11.3182 3
2 0 10 72.1699 9.49277 4
-2 0 -10 51.3145 9.29846 4
-2 0 -10 71.6959 9.81647 1
-2 0 -10 50.2949 9.29573 1
-2 0 -10 61.759 9.22433 3
-2 0 -10 82.8591 10.7436 2
2 0 11 23.4353 9.26944 2
2 0 11 27.1755 7.71822 4
-2 0 -11 29.2277 10.5571 3
-2 0 -11 38.9234 8.54885 4
-2 0 -11 17.8158 8.01929 1
-2 0 -11 17.5015 8.11043 1
-2 0 -11 22.7181 7.82118 3
-2 0 -11 39.9764 9.63033 2
-2 0 -12 269.525 18.9176 1
2 0 12 227.369 19.8917 2
-2 0 -12 256.118 18.9204 4
-2 0 -12 258.183 18.4287 3
-2 0 -12 246.986 19.528 1
-2 0 -13 398.911 25.6918 1
2 0 13 424.029 27.1902 2
-2 0 -13 352.989 24.0541 3
-2 0 -14 620.662 35.1781 1
2 0 14 590.758 35.948 2
-2 0 -14 598.318 33.7736 3
2 0 15 243.512 22.892 2
-2 0 -15 242.328 21.3752 1
-2 0 -15 296.765 21.5182 3
2 0 16 199.2 21.8081 2
-2 0 -16 232.113 21.6343 1
-2 0 -16 263.962 21.1981 3
2 0 17 60.3505 15.542 2
-2 0 -17 41.799 13.5317 1
-2 0 -17 86.3756 14.0484 3
2 1 -18 68.7302 11.6914 4
2 1 -18 90.1686 12.5738 1
-2 -1 18 56.7869 15.3397 2
2 1 -17 136.149 14.4229 4
2 1 -17 150.576 15.3619 1
2 1 -17 128.825 11.0426 3
-2 -1 17 128.879 16.601 2
2 1 -16 109.309 12.6405 4
-2 -1 16 112.437 11.8309 4
2 1 -16 109.71 13.153 1
-2 -1 16 148.577 17.1693 2
2 1 -15 0.62411 5.57274 3
-2 -1 15 4.77852 6.47498 4
-2 -1 15 1.11178 8.5829 1
-2 -1 15 6.24491 6.9971 3
2 1 -15 2.92954 7.33152 4
2 1 -15 5.36967 7.43612 1
-2 -1 15 22.1713 9.70677 2
-2 -1 14 480.94 23.8999 3
-2 -1 14 466.465 28.6593 2
2 1 -14 427.899 24.176 4
-2 -1 14 454.774 25.9285 1
2 1 -14 458.875 25.5119 1
-2 -1 14 467.955 23.6362 4
2 1 -14 413.227 22.1009 3
2 1 -13 123.236 9.46245 3
-2 -1 13 81.9262 11.1331 1
-2 -1 13 110.586 10.0567 4
2 1 -13 132.913 11.8578 1
-2 -1 13 115.553 10.3803 3
2 1 -13 121.183 10.9046 4
-2 -1 12 242.508 15.2538 3
-2 -1 12 268.96 15.0363 4
2 1 -12 256.406 15.7881 4
-2 -1 12 249.303 17.348 1
2 1 -12 264.695 16.9226 1
2 1 -12 259.291 14.4627 3
-2 -1 11 518.505 24.7605 3
-2 -1 11 514.913 23.9071 4
2 1 -11 500.742 24.5614 4
-2 -1 11 488.046 26.1517 1
2 1 -11 492.483 26.018 1
2 1 -11 506.621 23.5542 3
-2 -1 10 274.608 15.202 3
-2 -1 10 255.162 14.191 4
2 1 -10 279.857 15.0232 4
-2 -1 10 249.87 16.3827 1
2 1 -10 285.307 16.8676 1
2 1 -10 279.952 14.3762 3
2 1 -9 73.3429 6.55959 3
-2 -1 9 76.3682 7.08711 3
-2 -1 9 70.4285 6.18353 4
2 1 -9 64.0872 7.76149 1
2 1 -9 70.0177 6.33625 4
-2 -1 9 68.0406 8.27164 1
2 1 -8 11.9719 3.9694 3
-2 -1 8 13.4732 4.48611 3
2 1 -8 12.2 5.27718 1
2 1 -8 16.1862 3.80374 4
-2 -1 8 8.10385 5.25817 1
-2 -1 8 6.97052 3.20328 4
-2 -1 7 657.6 29.1185 3
-2 -1 7 634.275 30.4917 1
-2 -1 7 666.525 27.4481 4
2 1 -7 681.829 27.8106 4
2 1 -7 646.426 30.5296 1
2 1 -7 647.49 28.5442 3
-2 -1 6 275.473 15.0255 1
-2 -1 6 273.661 13.5562 3
-2 -1 6 246.398 11.2592 4
2 1 -6 245.526 11.4254 4
2 1 -6 257.525 14.661 1
2 1 -6 267.116 13.0604 3
-2 -1 5 129.731 8.57452 3
2 1 -5 130.479 9.62163 1
2 1 -5 139.441 8.37059 3
-2 -1 5 154.019 10.2226 1
2 1 -4 37.4981 4.79669 3
-2 -1 4 47.8655 5.05377 3
2 1 -4 37.6708 5.58076 1
-2 -1 4 28.6792 5.22956 1
2 1 -3 24.7979 4.32404 3
-2 -1 3 26.9504 4.37099 3
2 1 -3 30.1356 5.21602 1
-2 -1 3 20.9554 4.94185 1
2 1 -2 97.3131 8.01552 1
-2 -1 2 104.584 8.28941 1
2 1 -2 90.367 7.33537 3
-2 -1 2 107.155 7.55597 3
2 1 -1 348.141 14.4183 4
2 1 -1 355.446 17.9397 1
-2 -1 1 347.1 14.5067 4
-2 -1 1 312.045 17.4933 1
2 1 -1 349.59 17.0538 3
-2 -1 1 334.7 17.0163 3
2 1 0 1481.55 58.4213 4
2 1 0 1454.72 61.283 1
-2 -1 0 1607.14 58.8157 4
-2 -1 0 1513.47 61.5016 1
2 1 0 1443.61 60.6665 3
-2 -1 0 1486.63 60.8237 3
2 1 1 157.816 12.3387 2
-2 -1 -1 180.602 9.67206 4
2 1 1 169.366 9.32214 4
-2 -1 -1 185.586 11.795 1
2 1 1 177.408 11.4269 3
-2 -1 -1 177.553 11.0784 3
-2 -1 -1 187.728 12.8567 2
2 1 1 181.004 11.3782 1
2 1 2 131.343 10.8413 2
2 1 2 138.534 10.0266 1
2 1 2 137.508 8.51207 4
-2 -1 -2 124.264 9.98565 1
2 1 2 144.065 9.94752 3
-2 -1 -2 127.913 9.68343 3
-2 -1 -2 155.487 11.6119 2
-2 -1 -2 134.316 8.61084 4
-2 -1 -3 4454.1 173.233 4
2 1 3 4348.57 172.693 4
2 1 3 4482.2 174.168 3
-2 -1 -3 4495.1 174.751 3
-2 -1 -3 4504.39 175.452 2
2 1 3 4113.23 175.98 2
2 1 4 8262.42 324.049 4
-2 -1 -4 8398.35 324.811 4
2 1 4 8600.75 325.432 3
-2 -1 -4 8407.99 326.492 2
2 1 4 7966.59 327.244 2
2 1 5 4970.8 195.081 4
-2 -1 -5 4868.35 195.8 4
-2 -1 -5 4996.55 197.138 2
2 1 5 5022.97 198.752 2
-2 -1 -6 1241.65 52.4822 1
2 1 6 1162.06 51.0896 4
-2 -1 -6 1205.87 52.2042 4
-2 -1 -6 1153.83 53.213 1
-2 -1 -6 1180.67 52.9516 2
2 1 6 1187.68 54.4945 2
-2 -1 -7 70.4781 10.0154 2
-2 -1 -7 82.3171 10.3431 1
2 1 7 76.9612 10.2563 2
-2 -1 -7 76.1981 10.6719 3
2 1 7 72.3654 8.40357 4
-2 -1 -7 72.2233 8.69369 4
-2 -1 -7 67.8393 8.89402 1
-2 -1 -7 68.2152 9.47522 3
-2 -1 -8 35.3194 8.09189 2
2 1 8 58.1952 9.55445 2
-2 -1 -8 46.0576 9.78745 3
2 1 8 53.4112 7.67224 4
-2 -1 -8 38.8269 7.50733 4
-2 -1 -8 40.2796 7.84599 1
-2 -1 -8 53.6524 9.17618 1
-2 -1 -8 39.3866 7.62778 3
-2 -1 -9 940.532 45.852 4
-2 -1 -9 956.203 46.5734 1
-2 -1 -9 989.695 47.031 3
-2 -1 -9 976.379 45.4396 1
2 1 9 990.987 44.6616 4
-2 -1 -9 956.513 45.8942 2
-2 -1 -9 983.231 46.291 3
2 1 9 1027.52 48.8466 2
-2 -1 -10 1361.29 64.2519 1
-2 -1 -10 1401.89 63.1507 1
-2 -1 -10 1563.36 65.3828 3
-2 -1 -10 1392.39 63.9814 4
-2 -1 -10 1363.39 63.3532 2
2 1 10 1495.24 62.7192 4
-2 -1 -10 1413.37 63.8304 3
2 1 10 1400.51 66.3714 2
2 1 11 60.9154 11.8741 2
-2 -1 -11 77.0597 10.7413 4
-2 -1 -11 57.312 10.062 1
-2 -1 -11 71.8937 11.1012 1
-2 -1 -11 52.0593 9.63641 3
2 1 12 183.198 19.2092 2
-2 -1 -12 242.014 18.8924 1
-2 -1 -12 215.021 17.5827 1
-2 -1 -12 230.231 18.169 4
-2 -1 -12 192.435 16.9253 3
2 1 13 177.933 19.3489 2
-2 -1 -13 234.213 18.773 4
-2 -1 -13 183.421 17.7192 1
-2 -1 -13 221.579 18.1189 3
2 1 14 1.834 10.6428 2
-2 -1 -14 -6.01417 9.97765 1
-2 -1 -14 8.00979 10.1509 4
-2 -1 -14 12.4778 9.40127 3
2 1 15 92.8092 16.9062 2
-2 -1 -15 78.7113 13.9425 1
-2 -1 -15 78.4523 12.9767 3
2 1 16 116.766 19.1424 2
-2 -1 -16 153.447 18.3002 1
-2 -1 -16 150.493 16.6695 3
2 1 17 312.28 29.0893 2
-2 -1 -17 378.831 26.5504 3
2 2 -18 20.4032 11.0136 1
2 2 -18 48.7956 10.8351 4
-2 -2 18 24.4595 12.4529 2
-2 -2 17 352.291 22.9057 3
2 2 -17 379.195 23.2872 4
-2 -2 17 390.942 28.5367 2
2 2 -17 385.86 25.6875 1
-2 -2 16 302.747 19.8965 3
2 2 -16 268.191 18.9718 4
-2 -2 16 337.849 24.192 2
2 2 -16 293.067 21.2344 1
2 2 -15 2.97086 6.49414 3
-2 -2 15 7.70945 8.31737 3
-2 -2 15 -3.7323 6.38718 4
2 2 -15 7.17446 7.36112 4
2 2 -15 11.9506 8.49452 1
-2 -2 15 6.30965 9.15453 2
-2 -2 14 698.344 34.0269 3
-2 -2 14 639.027 37.0283 2
-2 -2 14 625.282 31.6088 4
-2 -2 14 733.922 36.2308 1
2 2 -14 726.288 35.7505 1
2 2 -14 685.428 32.9394 4
2 2 -14 695.122 32.4228 3
-2 -2 13 218.313 17.3848 1
-2 -2 13 219.565 15.7204 3
-2 -2 13 215.695 13.9214 4
2 2 -13 264.129 15.3145 4
2 2 -13 240.405 17.3731 1
-2 -2 13 195.159 17.8871 2
2 2 -13 238.77 14.8076 3
2 2 -12 67.4368 8.50098 3
-2 -2 12 82.9244 9.46735 3
2 2 -12 81.7324 8.35007 4
-2 -2 12 67.3391 7.50221 4
2 2 -12 84.7015 10.7409 1
-2 -2 12 96.8229 11.9148 2
-2 -2 12 54.662 9.81793 1
-2 -2 11 748.124 36.4484 3
-2 -2 11 790.973 38.0188 1
-2 -2 11 760.227 39.3623 2
2 2 -11 769.868 37.7594 1
2 2 -11 826.359 34.9415 4
2 2 -11 760.674 35.0862 3
-2 -2 10 1079.79 46.2711 3
-2 -2 10 1026.66 47.2435 1
2 2 -10 1033.16 48.1787 2
2 2 -10 1097.88 44.1564 4
-2 -2 10 1006.89 48.8564 2
2 2 -10 940.107 46.7813 1
2 2 -10 1034.19 44.9244 3
-2 -2 9 525.484 26.7298 3
-2 -2 9 515.494 27.8315 1
-2 -2 9 542.399 29.3396 2
2 2 -9 520.99 28.7064 2
2 2 -9 579.513 25.4143 4
2 2 -9 538.809 27.9567 1
2 2 -9 586.48 26.3104 3
2 2 -9 567.959 24.7176 4
-2 -2 8 551.093 26.2518 3
-2 -2 8 522.831 27.09 1
2 2 -8 558.978 28.4707 2
2 2 -8 557.459 23.4843 4
-2 -2 8 491.687 27.9562 2
2 2 -8 538.758 23.8555 4
2 2 -8 523.88 27.1244 1
2 2 -8 542.709 25.3718 3
2 2 -7 24.3868 5.20617 3
-2 -2 7 22.6486 6.41204 1
-2 -2 7 37.1048 5.99523 3
2 2 -7 44.0974 7.07593 1
2 2 -7 28.7005 7.28368 2
2 2 -7 43.0163 3.60317 4
-2 -2 7 32.5403 7.05404 2
2 2 -7 27.4598 3.741 4
-2 -2 6 594.763 28.8372 1
-2 -2 6 582.714 27.7037 3
2 2 -6 595.729 28.8846 1
-2 -2 6 553.891 29.3715 2
2 2 -6 624.451 24.1141 4
2 2 -6 565.141 29.4028 2
2 2 -6 590.059 24.273 4
2 2 -6 559.572 26.9887 3
-2 -2 6 588.348 25.7812 5
2 2 -5 909.2 42.7451 2
2 2 -5 932.472 42.2652 1
2 2 -5 992.466 40.9253 3
-2 -2 5 983.829 42.4995 1
-2 -2 5 894.823 42.9914 2
-2 -2 5 959.066 41.441 3
-2 -2 4 551.258 27.7922 2
2 2 -4 555.359 27.1796 1
-2 -2 4 558.936 27.1487 1
2 2 -4 562.816 25.8575 3
-2 -2 4 573.629 26.5019 3
-2 -2 3 4256.77 172.149 2
-2 -2 3 3839.19 170.38 2
2 2 -3 4364.05 170.262 1
-2 -2 3 4411.81 170.19 1
2 2 -3 4467.73 168.954 3
-2 -2 3 4304.18 169.443 3
-2 -2 2 1312.32 60.33 2
2 2 -2 1383.22 58.9745 1
-2 -2 2 1401.85 54.6429 4
-2 -2 2 1444.87 58.9664 1
2 2 -2 1380.78 54.2499 4
2 2 -2 1383.33 57.7369 3
-2 -2 2 1361.93 58.2494 3
2 2 -1 307.401 17.9636 1
-2 -2 1 339.515 15.0076 4
-2 -2 1 342.555 18.1429 1
2 2 -1 322.312 17.328 3
2 2 -1 340.616 14.5805 4
-2 -2 1 319.301 17.5409 3
2 2 0 361.504 16.5188 4
-2 -2 0 377.927 17.0384 4
2 2 0 388.418 19.3045 3
2 2 0 368.159 19.7983 1
-2 -2 0 352.568 19.0535 3
2 2 1 679.296 28.9014 4
-2 -2 -1 666.501 29.411 4
2 2 1 730.663 31.5868 3
-2 -2 -1 631.468 31.1598 3
2 2 2 230.609 12.6024 4
-2 -2 -2 238.692 13.219 4
2 2 2 238.967 14.5778 3
-2 -2 -2 234.839 14.5394 3
2 2 3 7273.12 294.145 4
-2 -2 -3 7787.17 295.343 4
2 2 3 7754.57 296.157 3
2 2 4 4438.93 176.855 4
-2 -2 -4 4498.99 178.798 1
-2 -2 -4 4540.72 178.286 4
2 2 5 64.4366 7.57294 4
2 2 5 59.9372 8.18936 1
-2 -2 -5 68.4437 7.94249 4
-2 -2 -5 59.9226 8.31618 1
-2 -2 -6 161.831 12.5975 1
2 2 6 157.014 11.4167 4
-2 -2 -6 158.885 12.3471 4
-2 -2 -6 151.57 13.1295 1
-2 -2 -6 128.205 12.4769 3
2 2 7 83.5104 8.87206 4
-2 -2 -7 69.1066 9.31724 4
-2 -2 -7 64.4253 9.31929 1
2 2 7 58.3173 9.51823 3
-2 -2 -7 68.0576 10.1039 1
-2 -2 -7 65.3182 8.8266 3
2 2 8 226.625 15.2172 4
-2 -2 -8 246.792 16.7513 1
-2 -2 -8 215.801 16.1717 4
-2 -2 -8 250.729 17.6603 1
-2 -2 -8 207.144 16.1588 3
-2 -2 -9 10.8018 9.37668 3
2 2 9 6.19383 6.38777 4
-2 -2 -9 18.3617 8.06581 4
-2 -2 -9 6.09448 7.14281 1
-2 -2 -9 34.9546 8.90317 1
-2 -2 -9 11.1265 7.71787 3
-2 -2 -10 16.523 9.04453 1
-2 -2 -10 8.7175 7.77619 4
-2 -2 -10 8.57024 7.32934 1
-2 -2 -10 16.4229 7.74039 3
2 2 11 16.6107 10.3699 2
-2 -2 -11 21.3411 9.49698 1
-2 -2 -11 14.8066 8.81877 4
-2 -2 -11 10.1688 8.64491 1
-2 -2 -11 14.8075 8.20873 3
-2 -2 -12 20.9388 10.0458 1
2 2 12 31.7055 11.305 2
-2 -2 -12 23.1698 9.67338 4
-2 -2 -12 41.414 9.99663 3
2 2 13 123.094 16.9318 2
-2 -2 -13 121.205 15.1508 4
-2 -2 -13 130.227 15.5629 1
-2 -2 -13 127.269 14.2683 3
2 2 14 202.98 21.264 2
-2 -2 -14 174.51 18.515 4
-2 -2 -14 200.329 19.1118 1
-2 -2 -14 197.988 18.1132 3
2 2 15 35.3292 14.1435 2
-2 -2 -15 33.6386 12.3158 4
-2 -2 -15 28.6375 12.139 1
-2 -2 -15 30.9279 11.0576 3
2 2 16 50.2168 15.8647 2
-2 -2 -16 32.9497 13.1204 1
-2 -2 -16 16.9141 12.2607 4
-2 -2 -16 41.3482 12.143 3
-2 -3 17 40.859 11.1291 3
2 3 -17 15.7409 10.4286 1
2 3 -17 23.8027 8.41311 4
-2 -3 16 70.4375 11.8353 3
2 3 -16 80.1427 10.5499 4
2 3 -16 74.2953 13.3096 1
-2 -3 16 67.0586 13.5169 2
2 3 -15 164.3 13.1863 4
2 3 -15 150.516 13.6974 3
-2 -3 15 138.658 14.9276 3
2 3 -15 195.274 17.168 1
-2 -3 15 132.985 16.357 2
-2 -3 14 463.629 26.8308 3
2 3 -14 476.527 24.3775 4
-2 -3 14 447.188 28.7276 2
2 3 -14 479.586 25.5632 4
2 3 -14 464.749 28.0134 1
2 3 -14 476.527 25.4907 3
2 3 -13 212.002 13.6695 4
-2 -3 13 203.556 15.9901 3
2 3 -13 207.69 16.9319 1
2 3 -13 202.04 14.6482 4
-2 -3 13 193.272 17.2999 2
2 3 -13 206.744 15.0361 3
2 3 -12 55.048 8.75159 3
-2 -3 12 49.2582 9.41434 3
2 3 -12 46.92 9.67705 1
2 3 -12 44.9822 6.5908 4
-2 -3 12 34.2325 9.39243 2
2 3 -12 39.3635 7.09451 4
-2 -3 12 43.7899 10.1243 1
2 3 -11 8.37924 6.44699 3
-2 -3 11 9.57126 7.28193 3
2 3 -11 9.90797 4.46713 4
-2 -3 11 13.8246 7.90414 1
-2 -3 11 16.0524 7.90142 2
2 3 -11 19.8131 5.99551 4
2 3 -11 14.1948 7.87363 1
2 3 -10 11.0639 6.41991 3
-2 -3 10 0.91366 6.23833 3
-2 -3 10 -2.32954 6.95091 2
2 3 -10 -1.04141 6.38197 1
-2 -3 10 4.03336 7.16594 1
2 3 -10 3.23587 8.002 2
2 3 -10 -3.97732 3.97579 4
2 3 -10 2.62839 4.7857 4
-2 -3 9 360.121 21.2387 3
-2 -3 9 384.978 22.3185 1
2 3 -9 353.469 22.4839 2
2 3 -9 379.492 17.7179 4
-2 -3 9 372.27 22.917 2
2 3 -9 385.482 18.5453 4
2 3 -9 374.754 22.1945 1
2 3 -9 400.714 20.774 3
-2 -3 8 493.56 25.6851 3
2 3 -8 471.972 21.2999 4
-2 -3 8 503.057 26.4572 1
-2 -3 8 475.381 26.7737 2
2 3 -8 508.587 26.9287 2
2 3 -8 499.325 22.0394 4
-2 -3 8 485.065 23.16 5
2 3 -8 462.259 26.0642 1
2 3 -8 499.699 24.6548 3
-2 -3 7 613.104 30.5479 3
-2 -3 7 603.529 31.1483 1
2 3 -7 642.219 26.3151 4
-2 -3 7 668.123 32.3402 2
-2 -3 7 628.747 28.537 5
2 3 -7 619.851 26.72 4
2 3 -7 591.315 31.2024 1
2 3 -7 662.696 31.8666 2
2 3 -7 601.894 29.5884 3
-2 -3 6 1004.94 46.1775 3
2 3 -6 1040.55 47.2008 2
2 3 -6 1076.87 41.7474 4
-2 -3 6 1022.5 47.6012 2
2 3 -6 999.525 41.9644 4
2 3 -6 1073.91 47.4197 1
2 3 -6 1038.74 45.4679 3
-2 -3 6 1035.35 47.124 1
-2 -3 5 658.883 32.6507 2
-2 -3 5 621.618 31.0063 2
2 3 -5 611.009 25.2348 4
2 3 -5 598.394 25.3945 4
2 3 -5 573.957 30.2593 1
2 3 -5 622.805 29.1877 3
-2 -3 5 686.071 31.1088 1
-2 -3 5 604.455 29.8042 3
2 3 -4 99.5499 8.89086 3
-2 -3 4 74.5264 8.43299 3
2 3 -4 84.6907 9.01614 1
-2 -3 4 79.5038 10.7235 2
2 3 -4 88.9937 5.31013 4
-2 -3 4 83.1196 9.17444 2
-2 -3 4 76.5733 8.85737 1
-2 -3 3 563.205 28.8208 2
-2 -3 3 518.569 27.4112 2
2 3 -3 542.418 22.5811 4
2 3 -3 533.117 27.0582 1
-2 -3 3 532.651 23.1415 4
-2 -3 3 533.324 26.9317 1
2 3 -3 519.896 25.858 3
-2 -3 3 512.937 26.5215 3
-2 -3 2 146.869 13.2282 2
-2 -3 2 147.071 11.8475 2
2 3 -2 143.656 8.05832 4
2 3 -2 133.48 11.4834 1
-2 -3 2 144.916 8.56709 4
2 3 -2 155.994 11.0416 3
-2 -3 2 140.954 11.201 3
2 3 -1 10.9189 5.44362 3
-2 -3 1 7.84899 5.09998 3
-2 -3 1 5.68217 7.03151 2
-2 -3 1 4.49473 3.38123 4
2 3 -1 9.27604 3.38654 4
2 3 0 21.9121 6.32376 3
-2 -3 0 28.0499 6.37791 3
-2 -3 0 19.737 7.75117 2
2 3 0 29.9879 7.47435 2
2 3 0 32.0713 4.54521 4
-2 -3 0 29.9721 4.81167 4
2 3 1 424.494 24.8768 2
2 3 1 437.972 20.8546 4
-2 -3 -1 443.531 21.5457 4
2 3 1 485.711 23.4359 3
-2 -3 -1 411.978 23.162 3
-2 -3 -1 444.746 24.8035 2
-2 -3 -2 119.832 10.7489 3
-2 -3 -2 132.676 12.6992 2
-2 -3 -2 140.045 11.5293 1
2 3 2 128.443 12.3669 2
2 3 2 118.807 9.14373 4
-2 -3 -2 144.92 10.152 4
2 3 2 164.941 11.8044 3
2 3 3 885.996 41.4748 1
-2 -3 -3 924.904 40.7742 4
-2 -3 -3 900.544 41.5244 1
2 3 3 924.219 39.5536 4
-2 -3 -3 860.555 42.7433 2
2 3 3 892.942 44.0984 2
-2 -3 -4 146.461 12.1857 1
-2 -3 -4 139.059 13.0447 2
2 3 4 134.41 13.4776 2
-2 -3 -4 128.478 11.0439 4
2 3 4 116.09 9.68699 4
2 3 4 148.027 11.9449 1
-2 -3 -5 11.6173 6.63865 1
-2 -3 -5 18.2119 8.62301 2
2 3 5 7.67805 6.99243 2
2 3 5 4.10209 5.05394 4
-2 -3 -5 9.84412 5.58869 4
2 3 5 9.93195 5.95703 1
-2 -3 -6 178.637 14.0779 1
-2 -3 -6 169.248 15.0103 2
2 3 6 178.671 15.9973 2
-2 -3 -6 177.432 13.858 4
2 3 6 153.284 12.3209 4
2 3 6 177.345 14.1027 3
-2 -3 -6 169.429 13.9274 3
2 3 6 182.188 13.7336 1
-2 -3 -7 225.295 17.2757 1
2 3 7 224.999 18.894 2
2 3 7 210.244 14.8953 4
-2 -3 -7 224.738 16.6163 1
-2 -3 -7 239.426 16.8537 4
-2 -3 -7 214.113 17.5067 2
2 3 7 254.826 16.5134 3
-2 -3 -7 214.297 16.3998 3
2 3 8 436.835 24.5472 4
-2 -3 -8 479.147 26.274 1
-2 -3 -8 461.622 27.2645 1
2 3 8 453.289 25.5625 3
-2 -3 -8 474.412 26.8026 3
-2 -3 -8 481.017 27.0225 4
-2 -3 -9 228.245 18.146 1
-2 -3 -9 237.863 18.2347 4
-2 -3 -9 202.137 16.6219 3
-2 -3 -9 201.189 16.4917 1
-2 -3 -10 380.705 23.9227 1
-2 -3 -10 376.847 24.7069 4
-2 -3 -10 394.684 24.6397 3
-2 -3 -10 386.672 25.066 1
-2 -3 -11 102.362 13.0613 3
-2 -3 -11 90.3518 13.172 1
-2 -3 -11 93.2183 13.3493 4
-2 -3 -12 57.3537 11.3993 3
-2 -3 -12 51.9794 12.0375 1
-2 -3 -12 32.6357 10.6128 4
-2 -3 -13 14.1925 9.69282 3
-2 -3 -13 -5.9846 10.0749 1
-2 -3 -13 8.26586 10.3918 4
-2 -3 -14 29.4335 11.0291 3
-2 -3 -14 38.6631 12.507 4
-2 -3 -14 60.576 13.609 1
-2 -3 -15 111.215 15.4598 3
-2 -3 -15 104.337 16.5856 4
-2 -3 -15 149.468 17.8079 1
-2 -4 17 203.563 19.1672 3
-2 -4 17 198.286 20.6589 2
-2 -4 16 318.975 23.3637 3
2 4 -16 323.281 19.8866 4
-2 -4 16 322.82 25.4541 2
2 4 -16 339.121 24.7713 1
-2 -4 15 90.4851 13.3916 3
2 4 -15 93.5803 13.8132 1
2 4 -15 88.5101 9.99619 4
-2 -4 15 97.2897 14.4898 2
-2 -4 14 16.5473 9.66308 3
2 4 -14 -2.76854 9.04969 1
2 4 -14 -6.56498 5.75173 4
-2 -4 14 -6.03533 9.93837 2
2 4 -13 11.3139 8.17927 3
-2 -4 13 12.2762 8.56271 3
2 4 -13 11.9652 9.33337 1
2 4 -13 10.4537 5.79468 4
2 4 -13 2.99703 6.18879 4
-2 -4 13 14.2619 9.04374 2
2 4 -12 141.602 13.08 3
-2 -4 12 119.173 13.2718 3
2 4 -12 115.01 13.6395 1
2 4 -12 110.788 9.40233 4
2 4 -12 110.516 10.5544 4
-2 -4 12 145.374 15.0464 2
2 4 -11 114.937 12.0155 3
-2 -4 11 96.6506 12.7039 3
2 4 -11 121.706 13.4727 1
2 4 -11 114.15 8.74152 4
-2 -4 11 131.456 13.8197 2
2 4 -11 110.801 9.8475 4
-2 -4 10 272.368 18.3062 3
-2 -4 10 239.803 18.1488 1
2 4 -10 237.303 13.4655 4
-2 -4 10 272.303 18.9799 2
2 4 -10 248.304 14.2104 4
2 4 -10 230.815 18.0756 1
2 4 -10 249.666 16.8299 3
2 4 -9 41.9525 8.41633 3
-2 -4 9 32.9952 6.97508 5
-2 -4 9 48.4682 9.04456 3
-2 -4 9 47.7894 9.87374 1
2 4 -9 36.4965 8.82126 1
2 4 -9 34.3897 9.30136 2
2 4 -9 35.2362 5.06969 4
-2 -4 9 41.7176 9.00762 2
2 4 -9 31.5024 5.58159 4
2 4 -8 37.7282 8.03798 3
-2 -4 8 13.6001 7.54142 1
-2 -4 8 32.923 8.12413 3
-2 -4 8 28.7538 6.68733 5
2 4 -8 25.7433 8.93561 2
2 4 -8 17.7718 4.09141 4
2 4 -8 15.4336 7.68892 1
-2 -4 8 32.16 8.13546 2
2 4 -8 30.272 5.08644 4
2 4 -7 37.1247 7.70144 3
-2 -4 7 42.7418 9.26514 1
-2 -4 7 30.9662 7.63092 3
2 4 -7 32.0916 7.49063 1
-2 -4 7 33.1492 6.91032 5
2 4 -7 37.6773 4.61823 4
-2 -4 7 54.21 9.00174 2
2 4 -7 36.4545 5.10191 4
-2 -4 6 116.924 13.0092 2
2 4 -6 125.309 11.2281 3
-2 -4 6 113.717 11.4653 3
2 4 -6 131.572 12.2337 1
2 4 -6 131.52 7.9477 4
2 4 -6 123.067 8.24754 4
-2 -4 6 135.368 12.516 2
-2 -4 6 120.784 12.1219 1
-2 -4 5 1080.77 50.2601 2
2 4 -5 1088.08 44.0095 4
-2 -4 5 1030.5 48.8869 2
2 4 -5 1024.06 48.7996 1
2 4 -5 1079.24 47.5977 3
-2 -4 5 1023.44 48.6469 1
-2 -4 5 1066.9 48.8845 3
-2 -4 4 529.132 28.6996 2
2 4 -4 557.535 24.289 4
2 4 -4 530.519 28.5558 1
-2 -4 4 574.548 25.0795 4
2 4 -4 562.64 27.7321 3
-2 -4 4 491.659 28.1176 3
-2 -4 4 535.525 29.8135 2
-2 -4 3 730.157 38.6107 2
2 4 -3 844.499 34.848 4
-2 -4 3 827.812 35.5163 4
2 4 -3 818.201 37.9554 3
-2 -4 3 795.824 39.0129 3
-2 -4 3 840.395 40.4633 2
-2 -4 2 473.095 26.8826 2
2 4 -2 511.022 23.0057 4
-2 -4 2 519.739 23.8372 4
2 4 -2 480.323 25.6766 3
-2 -4 2 472.517 26.4025 3
-2 -4 2 526.32 27.9158 2
-2 -4 1 155.983 12.9655 3
-2 -4 1 142.695 13.616 2
-2 -4 1 159.69 13.2287 2
2 4 -1 158.571 10.1698 4
-2 -4 1 169.413 11.0045 4
2 4 -1 170.743 12.7057 3
2 4 0 132.665 11.8332 3
-2 -4 0 118.847 11.6201 3
-2 -4 0 119.157 12.4972 2
2 4 0 135.276 13.2856 2
-2 -4 0 145.725 10.6084 4
2 4 0 133.117 9.53875 4
-2 -4 0 156.975 12.3724 1
2 4 0 139.872 12.0783 1
-2 -4 -1 1.98326 5.64235 3
-2 -4 -1 -9.36906 8.12157 2
2 4 1 1.2003 6.69167 2
-2 -4 -1 3.59674 6.63152 1
2 4 1 0.5844 4.81874 4
-2 -4 -1 -2.81601 4.84022 4
2 4 1 -3.82288 5.80623 1
2 4 1 1.71826 6.06639 3
-2 -4 -2 123.737 12.7555 2
-2 -4 -2 122.504 11.2395 1
2 4 2 106.545 12.4068 2
2 4 2 118.121 9.64856 4
-2 -4 -2 129.233 10.666 4
2 4 2 123.164 11.3695 1
2 4 2 107.469 10.8538 3
-2 -4 -3 24.7707 9.35572 2
-2 -4 -3 24.0662 7.73104 1
2 4 3 12.8633 8.24052 2
2 4 3 15.6494 6.05646 4
-2 -4 -3 12.8401 6.11691 4
2 4 3 15.5504 6.52774 1
2 4 4 384.107 22.4146 1
2 4 4 395.787 20.8611 4
-2 -4 -4 394.363 22.3782 4
-2 -4 -4 361.897 22.2919 1
-2 -4 -4 369.954 23.5989 2
2 4 4 416.739 25.6003 2
-2 -4 -5 65.7156 9.51169 3
-2 -4 -5 64.6935 10.8088 2
-2 -4 -5 57.0071 9.61398 1
2 4 5 59.9097 11.5744 2
2 4 5 60.5989 8.4205 4
-2 -4 -5 77.3432 9.67904 4
2 4 5 46.3348 8.81919 1
2 4 5 34.4816 9.16742 3
-2 -4 -6 163.84 14.5528 3
-2 -4 -6 139.543 14.417 2
2 4 6 191.854 16.9648 2
-2 -4 -6 196.871 14.9102 1
2 4 6 152.971 12.8197 4
2 4 6 148.779 13.4702 1
-2 -4 -6 177.98 14.7149 4
2 4 6 152.552 13.8703 3
-2 -4 -7 105.48 12.0189 3
-2 -4 -7 102.872 12.022 1
2 4 7 92.9069 13.4376 2
2 4 7 71.5126 9.99007 4
-2 -4 -7 89.0923 11.5543 4
-2 -4 -8 9.93472 8.19014 1
-2 -4 -8 1.27643 7.33604 3
-2 -4 -8 -1.31759 8.14469 1
2 4 8 4.95526 9.85778 2
-2 -4 -8 2.63096 7.56042 4
-2 -4 -9 29.8546 9.43289 1
-2 -4 -9 25.1876 8.85573 3
2 4 9 36.3293 11.7742 2
-2 -4 -9 21.1275 9.33338 4
-2 -4 -9 24.4234 10.2351 1
-2 -4 -10 5.49613 8.99747 3
2 4 10 10.9155 10.4674 2
-2 -4 -10 39.26 11.2382 1
-2 -4 -10 7.49514 8.87928 4
-2 -4 -11 82.5249 12.825 3
2 4 11 105.366 16.3784 2
-2 -4 -11 122.831 15.8217 4
-2 -4 -11 123.313 15.31 1
2 4 12 342.334 27.3231 2
-2 -4 -12 326.618 24.7316 1
-2 -4 -12 300.718 24.6668 4
-2 -4 -13 107.561 14.8339 3
2 4 13 126.896 18.582 2
-2 -4 -13 124.498 16.2521 1
-2 -4 -13 123.146 17.0009 4
-2 -4 -14 198.704 20.2728 1
-2 -4 -14 213.645 20.238 3
2 4 14 219.526 24.5844 2
-2 -4 -14 201.1 21.3134 4
-2 -5 16 348.398 25.8126 3
-2 -5 16 344.625 26.0587 2
-2 -5 15 321.065 24.0792 3
2 5 -15 286.945 23.7039 1
-2 -5 15 297.398 24.022 2
-2 -5 14 195.82 18.5622 3
2 5 -14 174.498 18.2526 1
2 5 -14 183.435 13.2826 4
-2 -5 14 234.123 19.6574 2
-2 -5 13 25.2598 10.7311 3
2 5 -13 17.6087 10.6455 1
2 5 -13 11.2482 5.4138 4
-2 -5 13 24.722 9.59898 2
-2 -5 12 87.1277 13.6633 3
2 5 -12 119.258 14.4415 1
2 5 -12 81.6218 8.4642 4
-2 -5 12 83.0121 12.6085 2
-2 -5 11 32.9215 10.2689 3
2 5 -11 30.1877 10.23 1
2 5 -11 24.4613 6.72118 4
2 5 -11 19.5784 5.31906 4
-2 -5 11 47.6011 10.4197 2
-2 -5 10 67.4518 11.2011 3
-2 -5 10 56.7876 9.51877 5
2 5 -10 68.4808 7.32974 4
-2 -5 10 63.2269 10.8502 2
2 5 -10 59.4171 7.72853 4
2 5 -10 65.1805 11.5856 1
-2 -5 9 18.7204 8.89103 3
-2 -5 9 13.5163 7.45577 5
2 5 -9 15.765 5.06678 4
-2 -5 9 14.6049 7.85935 2
2 5 -9 15.4943 8.95924 1
2 5 -9 18.5718 5.84728 4
-2 -5 8 -5.86412 7.06735 2
2 5 -8 1.96515 8.06752 3
-2 -5 8 17.6368 8.57167 1
-2 -5 8 24.4911 8.87232 3
2 5 -8 11.3079 8.64223 1
2 5 -8 4.82051 4.15018 4
-2 -5 8 6.32149 6.86064 5
2 5 -8 9.83899 5.09855 4
2 5 -7 87.358 10.9569 3
-2 -5 7 83.9279 11.8618 1
-2 -5 7 97.084 12.0587 3
2 5 -7 97.5463 11.8924 1
-2 -5 7 76.2337 13.0528 2
2 5 -7 87.9293 7.3914 4
-2 -5 7 87.256 11.0101 2
2 5 -7 88.5269 7.94795 4
-2 -5 6 173.668 15.5812 3
-2 -5 6 208.119 17.4366 2
2 5 -6 194.726 11.2311 4
2 5 -6 194.071 11.814 4
2 5 -6 224.302 16.8702 1
-2 -5 6 161.973 14.726 2
2 5 -6 220.845 15.6125 3
-2 -5 5 2049.7 92.1252 3
-2 -5 5 2076.15 91.5875 2
2 5 -5 2160.51 87.0366 4
-2 -5 5 2228.93 88.2023 4
2 5 -5 2244.35 90.9957 3
-2 -5 5 2093.64 92.9406 2
2 5 -4 64.2407 9.73816 3
-2 -5 4 60.2949 9.97781 3
-2 -5 4 71.3937 12.1448 2
2 5 -4 88.7061 7.7788 4
-2 -5 4 68.7168 9.69492 2
-2 -5 4 79.7137 8.12894 4
2 5 -3 95.2012 11.0641 3
-2 -5 3 70.4097 10.5844 3
-2 -5 3 70.4235 11.6622 2
-2 -5 3 97.9121 11.3102 2
2 5 -3 77.1217 7.77591 4
-2 -5 3 84.533 10.9601 1
-2 -5 3 91.3779 8.70122 4
2 5 -2 92.6122 10.3914 3
2 5 -2 66.0458 10.0362 1
-2 -5 2 59.7874 9.68579 3
-2 -5 2 52.1447 10.8527 2
-2 -5 2 66.9958 9.78883 2
-2 -5 2 79.9505 10.3868 1
2 5 -2 77.4655 7.65058 4
-2 -5 2 68.0116 8.0147 4
-2 -5 1 236.644 18.645 2
-2 -5 1 264.992 18.3322 2
2 5 -1 210.412 17.0095 1
-2 -5 1 254.707 15.8747 4
-2 -5 1 290.665 18.4328 1
2 5 -1 258.586 17.5842 3
2 5 -1 262.324 14.9509 4
-2 -5 1 253.354 18.281 3
2 5 0 844.511 44.7022 2
2 5 0 894.384 39.9697 4
2 5 0 898.649 43.335 1
-2 -5 0 910.536 41.3594 4
-2 -5 0 863.171 42.6584 1
2 5 0 977.366 43.0571 3
-2 -5 0 916.094 44.0834 2
-2 -5 0 860.12 43.5714 3
2 5 1 2798.8 122.463 2
2 5 1 2805.43 120.193 1
2 5 1 2946.34 117.619 4
-2 -5 -1 2879.05 118.864 4
-2 -5 -1 2959.08 120.136 1
2 5 1 2944.84 119.871 3
-2 -5 -1 2964.85 121.321 2
-2 -5 -2 83.8797 12.1556 2
2 5 2 79.7078 9.4747 4
2 5 2 94.7507 12.9541 2
-2 -5 -2 75.5636 10.7385 1
-2 -5 -2 88.4432 10.2868 4
2 5 2 93.3527 10.8035 1
-2 -5 -3 28.1662 10.3161 2
2 5 3 34.6075 9.55994 2
-2 -5 -3 32.0586 8.63655 1
2 5 3 27.1946 7.04649 4
-2 -5 -3 26.3493 7.5089 4
2 5 3 25.0996 8.07401 1
-2 -5 -4 95.2488 12.0197 3
-2 -5 -4 94.6564 11.5147 1
2 5 4 86.7154 13.1498 2
2 5 4 101.172 10.5241 4
-2 -5 -4 87.7535 10.7647 4
2 5 4 81.3447 10.9294 1
-2 -5 -5 7.76059 7.58092 3
-2 -5 -5 7.53522 7.75128 1
2 5 5 18.7886 9.84301 2
2 5 5 3.55979 6.79797 4
-2 -5 -5 -3.55237 7.5065 4
2 5 5 12.2683 7.61898 1
2 5 6 270.101 18.8872 1
-2 -5 -6 243.66 19.2303 4
-2 -5 -6 239.277 18.4388 1
-2 -5 -6 301.682 20.5902 3
2 5 6 287.088 22.4499 2
-2 -5 -7 24.8802 9.25659 3
-2 -5 -7 14.8392 8.82853 1
2 5 7 13.7184 10.4333 2
2 5 7 8.12347 7.94423 1
-2 -5 -7 15.0595 8.76251 4
-2 -5 -8 635.569 35.4014 4
-2 -5 -8 611.544 35.1522 1
-2 -5 -8 617.291 35.0056 3
2 5 8 607.27 37.2929 2
-2 -5 -9 972.164 49.6529 1
-2 -5 -9 1049.14 50.5655 3
-2 -5 -9 1062.91 51.4214 4
2 5 9 908.196 51.974 2
2 5 10 280.239 25.2022 2
-2 -5 -10 304.768 23.2364 1
-2 -5 -10 274.186 23.0509 4
-2 -5 -10 329.828 23.3529 3
-2 -5 -11 71.2776 13.4765 1
-2 -5 -11 59.1526 13.1823 3
2 5 11 53.031 15.2369 2
-2 -5 -11 67.9562 13.809 4
-2 -5 -12 277.372 22.3514 3
2 5 12 210.789 24.1875 2
-2 -5 -12 265.297 22.1866 1
-2 -5 -12 255.068 23.3232 4
-2 -5 -13 39.1638 12.7121 3
2 5 13 17.7574 13.8802 2
-2 -5 -13 50.6002 13.8083 1
-2 -5 -13 11.551 12.3464 4
-2 -6 14 68.2794 14.0348 3
-2 -6 14 104.078 15.496 2
-2 -6 13 12.6988 10.6962 3
2 6 -13 14.7734 5.59375 4
2 6 -13 17.6653 11.9925 1
-2 -6 13 -1.48418 9.71301 2
-2 -6 12 716.491 39.5419 3
2 6 -12 690.331 32.5214 4
-2 -6 12 767.752 38.8962 2
2 6 -12 649.88 38.7853 1
-2 -6 11 557.277 29.2908 5
-2 -6 11 495.21 30.8839 3
2 6 -11 493.702 24.6592 4
-2 -6 11 538.732 30.5058 2
2 6 -11 448.503 30.4993 1
-2 -6 10 234.952 19.5263 3
2 6 -10 237.134 20.1376 1
-2 -6 10 225.562 17.6142 5
2 6 -10 218.44 13.7475 4
-2 -6 10 207.282 17.695 2
-2 -6 9 247.659 19.3133 2
-2 -6 9 236.156 20.505 3
2 6 -9 271.553 20.8825 1
2 6 -9 262.231 15.1583 4
2 6 -9 263.613 16.0991 4
-2 -6 9 276.094 19.335 5
-2 -6 8 2066.37 92.1269 3
-2 -6 8 2170.53 90.0154 5
2 6 -8 2060.56 85.417 4
-2 -6 8 2160.44 91.1367 2
2 6 -8 2139.56 86.0785 4
2 6 -8 1956.54 91.1143 1
-2 -6 7 187.05 17.5817 3
2 6 -7 190.252 12.3141 4
2 6 -7 214.377 13.4422 4
-2 -6 7 167.226 15.3949 2
-2 -6 6 1754.75 80.6539 3
2 6 -6 1876.3 75.1989 4
-2 -6 6 1753.7 79.2899 2
-2 -6 5 1501.92 69.3912 3
-2 -6 5 1419.64 67.4982 2
2 6 -5 1557.43 63.7289 4
-2 -6 5 1537.93 65.0267 4
2 6 -4 134.907 14.6773 1
-2 -6 4 130.85 14.1983 3
-2 -6 4 155.992 16.4797 2
-2 -6 4 140.491 13.6516 2
2 6 -4 120.031 10.5837 4
-2 -6 4 166.824 12.5634 4
2 6 -3 11.3603 7.95345 1
-2 -6 3 9.50132 8.54956 3
-2 -6 3 30.4424 11.1021 2
-2 -6 3 5.84853 7.37346 2
2 6 -3 29.2651 7.03659 4
-2 -6 3 11.0776 6.98236 4
-2 -6 3 11.8956 8.68672 1
2 6 -2 205.077 16.6718 1
-2 -6 2 178.486 16.7604 3
-2 -6 2 195.133 17.4916 2
2 6 -2 198.784 14.0127 4
-2 -6 2 195.926 16.5762 2
-2 -6 2 230.11 15.4398 4
-2 -6 2 233.641 17.5371 1
2 6 -1 12.2703 8.44588 1
-2 -6 1 14.813 9.45548 3
-2 -6 1 7.42866 10.0208 2
-2 -6 1 8.39829 7.61264 2
-2 -6 1 4.6095 8.04093 1
2 6 -1 10.4359 5.95198 4
-2 -6 1 15.9641 6.93762 4
2 6 0 453.027 26.8249 1
2 6 0 447.349 24.1033 4
-2 -6 0 470.766 25.5038 4
-2 -6 0 434.574 26.2286 1
-2 -6 0 467.718 28.0741 2
2 6 1 67.6227 12.7647 2
-2 -6 -1 71.1778 11.2763 1
2 6 1 56.6192 8.97519 4
-2 -6 -1 70.6492 10.3227 4
2 6 1 71.5134 11.0268 1
2 6 2 10.806 9.65538 2
-2 -6 -2 18.1072 8.95856 1
2 6 2 29.1117 7.97702 4
-2 -6 -2 25.7306 8.04143 4
2 6 2 16.9442 8.30272 1
-2 -6 -3 64.3668 11.3714 3
2 6 3 57.3763 11.7596 2
2 6 3 70.1443 9.96909 4
-2 -6 -3 55.8733 10.4148 4
2 6 3 46.0449 10.1482 1
-2 -6 -4 72.8066 12.3093 3
-2 -6 -4 103.419 12.9229 4
2 6 4 110.657 13.3194 1
-2 -6 -5 133 14.95 3
2 6 5 104.051 15.483 2
-2 -6 -5 108.825 14.0501 4
2 6 5 95.6624 12.5176 1
-2 -6 -6 105.047 13.9989 3
2 6 6 61.9927 14.3653 2
2 6 6 59.4921 10.8965 1
-2 -6 -6 104.615 13.7903 4
-2 -6 -7 56.9674 12.1267 3
2 6 7 64.5914 13.9268 2
2 6 7 50.3421 10.7272 1
-2 -6 -7 48.9574 11.5383 4
-2 -6 -8 146.895 16.72 3
2 6 8 144.089 18.6511 2
-2 -6 -8 154.449 17.9817 4
-2 -6 -9 288.265 23.1225 3
2 6 9 269.747 25.1396 2
-2 -6 -9 297.969 24.3993 4
-2 -6 -9 334.854 24.2569 1
-2 -6 -10 106.053 15.909 3
2 6 10 118.585 18.43 2
-2 -6 -10 115.442 16.2613 1
-2 -6 -10 132.447 17.9085 4
-2 -6 -11 -10.1559 11.4789 3
-2 -6 -11 -11.0731 11.5988 1
2 6 11 8.66432 13.7262 2
-2 -6 -11 -3.80216 11.9499 4
-2 -7 12 91.7546 16.1545 3
-2 -7 12 118.07 15.1557 2
-2 -7 11 22.0623 12.2202 3
-2 -7 11 2.82113 9.29842 2
-2 -7 10 210.39 20.5052 3
-2 -7 10 209.061 18.5271 5
2 7 -10 217.002 14.122 4
-2 -7 10 197.279 18.0248 2
2 7 -9 216.47 13.8433 4
-2 -7 9 190.253 20.2798 3
-2 -7 9 203.922 18.5266 5
-2 -7 9 210.668 18.1297 2
-2 -7 8 54.1659 12.2783 3
-2 -7 8 61.1098 11.7742 5
2 7 -8 78.0235 8.57489 4
-2 -7 8 92.3732 12.6946 2
-2 -7 7 203.915 19.3495 3
-2 -7 7 180.484 16.7084 2
2 7 -7 186.981 12.9837 4
2 7 -6 -4.46358 9.42854 1
-2 -7 6 1.60345 9.91201 3
-2 -7 6 6.25119 8.71407 2
2 7 -6 12.9073 6.32191 4
-2 -7 6 -0.98482 8.19889 4
2 7 -5 -4.36987 9.4525 1
-2 -7 5 9.5153 9.96934 3
-2 -7 5 19.7922 9.12568 2
2 7 -5 6.96104 6.70697 4
-2 -7 5 1.92686 7.31716 4
2 7 -4 5.71647 9.75913 1
-2 -7 4 -3.14794 9.56342 3
-2 -7 4 3.70228 7.56444 2
2 7 -4 6.31053 6.53697 4
-2 -7 4 5.94168 7.21755 4
2 7 -3 207.773 18.5934 1
-2 -7 3 221.895 19.7191 3
-2 -7 3 241.408 18.266 2
2 7 -3 201.455 15.2872 4
-2 -7 3 247.151 17.1785 4
2 7 -2 92.5436 13.1865 1
-2 -7 2 80.9006 13.4901 3
-2 -7 2 65.9584 11.4207 2
2 7 -2 78.9085 10.1998 4
-2 -7 2 89.9326 11.8464 4
-2 -7 1 493.401 28.333 2
2 7 -1 464.82 25.4846 4
2 7 -1 498.491 28.9327 1
-2 -7 1 479.148 27.0381 4
-2 -7 1 412.55 28.7898 3
-2 -7 0 72.859 12.1709 2
2 7 0 93.9485 11.5785 4
-2 -7 0 98.6084 12.3957 4
2 7 0 93.0721 13.1148 1
2 7 1 187.258 15.4584 4
-2 -7 -1 176.37 16.6836 4
2 7 1 207.641 17.562 1
-2 -7 -2 -4.71086 10.0355 3
2 7 2 20.2589 11.6914 2
-2 -7 -2 23.3246 9.61977 4
2 7 2 6.67165 9.24308 1
-2 -7 -3 27.0144 10.8378 3
2 7 3 29.5146 13.5233 2
-2 -7 -3 29.9992 10.5324 4
2 7 3 34.6187 10.0618 1
-2 -7 -4 129.083 16.0289 3
2 7 4 143.253 18.1054 2
-2 -7 -4 100.65 14.4457 4
2 7 4 131.866 14.5655 1
-2 -7 -5 11.489 10.9751 3
2 7 5 -1.84598 11.317 2
2 7 5 4.01055 9.38336 1
-2 -7 -5 19.7529 10.4513 4
-2 -7 -6 150.704 17.7781 3
2 7 6 125.577 18.2033 2
2 7 6 102.145 14.2151 1
-2 -7 -6 123.198 16.6495 4
-2 -7 -7 214.871 20.8826 3
2 7 7 250.969 23.6629 2
2 7 7 229.268 19.1753 1
-2 -7 -7 210.883 21.2682 4
-2 -7 -8 83.3964 15.0477 3
2 7 8 54.8367 15.051 2
-2 -7 -8 76.5525 15.2729 4
-2 -7 -9 -1.76918 11.7395 3
2 7 9 -10.5287 13.8697 2
-2 -7 -9 -1.86967 11.9415 4
-2 -7 -9 8.15205 11.9525 1
-2 -8 9 1.85999 11.2001 3
-2 -8 9 -1.37982 9.48645 2
-2 -8 8 9.26214 12.3901 3
2 8 -8 11.7078 6.72118 4
-2 -8 8 13.5352 9.4431 2
-2 -8 7 179.845 20.226 3
2 8 -7 172.701 13.3042 4
-2 -8 7 175.544 16.9954 2
2 8 -6 146.178 17.651 1
-2 -8 6 158.03 18.6671 3
-2 -8 6 156.351 15.7418 2
-2 -8 6 167.553 15.6041 4
2 8 -5 20.7352 11.1827 1
-2 -8 5 28.809 12.6904 3
-2 -8 5 35.1673 10.7586 2
-2 -8 5 40.5815 10.1751 4
2 8 -4 29.7354 11.7404 1
-2 -8 4 24.9808 11.901 3
-2 -8 4 37.8371 10.4099 2
-2 -8 4 31.1654 10.161 4
2 8 -3 4.61266 9.82054 1
-2 -8 3 3.54138 10.9446 3
-2 -8 3 -5.30866 9.8462 2
-2 -8 3 8.41915 8.92314 4
2 8 -2 10.5872 10.5398 1
-2 -8 2 -14.1057 12.1223 3
-2 -8 2 -2.69568 9.1388 2
-2 -8 2 15.0003 10.0586 4
-2 -8 1 8.23938 9.71188 2
-2 -8 1 6.54223 10.0588 4
2 8 -1 31.3473 10.9568 1
-2 -8 0 42.1884 11.3943 2
-2 -8 0 52.6073 11.9691 4
2 8 0 42.7983 11.3389 1
-2 -8 -1 146.048 18.2261 3
-2 -8 -1 154.461 16.8048 2
-2 -8 -1 140.549 16.3789 4
2 8 1 181.463 17.29 1
-2 -8 -2 113.111 16.0564 3
-2 -8 -2 79.3279 13.8039 4
2 8 2 95.923 14.1585 1
-2 -8 -3 219.059 21.3506 3
2 8 3 251.24 23.3847 2
-2 -8 -3 220.856 20.2352 4
2 8 3 224.092 19.9841 1
-2 -8 -4 233.939 22.4934 3
2 8 4 269.536 24.2962 2
-2 -8 -4 229.796 21.6776 4
2 8 4 253.812 21.2667 1
-2 -8 -5 36.4918 12.3193 3
2 8 5 45.2019 15.1973 2
2 8 5 14.4334 11.0578 1
-2 -8 -5 13.4901 11.1459 4
3 -9 -5 528.649 30.1608 3
3 -9 -5 599.352 37.9563 4
3 -9 -4 277.856 20.4759 3
3 -9 -4 304.372 26.6098 4
3 -9 -3 36.7414 10.8262 3
3 -9 -3 27.2134 14.5465 4
3 -9 -2 452.367 28.1916 3
3 -9 -2 484.713 33.6479 4
3 -9 -1 315.605 23.2041 3
3 -9 -1 355.334 28.2948 4
3 -9 0 173.382 17.8645 3
3 -9 0 197.126 21.87 4
3 -9 1 232.577 20.3564 3
3 -9 1 251.115 23.8795 4
3 -9 2 33.8554 11.0804 3
-3 9 -2 28.9185 7.70628 1
3 -9 2 49.3557 14.7637 4
3 -9 3 168.296 17.9022 3
-3 9 -3 150.383 13.7208 1
3 -9 4 449.147 29.8432 3
-3 9 -4 415.555 24.2628 1
3 -9 5 -5.21543 11.3654 3
-3 9 -5 -2.086 8.30931 1
3 -9 6 822.259 46.3356 3
-3 9 -6 848.223 41.8357 1
3 -9 7 271.665 24.0925 3
-3 9 -7 217.476 20.7098 4
-3 9 -7 241.655 19.3973 1
3 -9 8 298.429 25.8441 3
-3 9 -8 236.843 22.268 4
-3 9 -8 288.557 21.9028 1
3 -8 -8 177.148 20.7948 4
3 -8 -7 21.3213 11.5959 4
3 -8 -6 165.057 13.4387 3
3 -8 -6 178.162 19.9568 4
3 -8 -5 433.889 24.6768 3
3 -8 -5 470.228 31.5834 4
3 -8 -4 232.778 17.2798 3
3 -8 -4 253.942 22.6868 4
-3 8 3 128.462 12.4719 3
3 -8 -3 109.439 12.8825 3
3 -8 -3 158.048 18.9798 4
-3 8 2 193.567 14.9415 3
3 -8 -2 206.367 16.1839 3
-3 8 2 153.763 8.25272 1
3 -8 -2 197.611 19.3817 4
-3 8 1 4.69708 7.96481 3
-3 8 1 -1.5258 4.35292 1
3 -8 -1 1.18045 8.65443 3
3 -8 -1 5.37186 4.10075 1
3 -8 -1 18.5733 12.5047 4
-3 8 0 46.8057 6.58446 1
3 -8 0 60.9828 11.1649 3
3 -8 0 55.0678 7.14911 1
3 -8 0 76.3064 14.2799 4
3 -8 1 153.65 11.4582 1
3 -8 1 122.155 14.8675 3
-3 8 -1 147.167 11.2134 1
3 -8 1 178.735 19.0267 4
3 -8 2 57.3359 8.46076 1
3 -8 2 73.1517 12.6377 3
-3 8 -2 60.3776 8.66681 1
3 -8 2 60.8812 13.8075 4
3 -8 3 433.109 24.8672 1
3 -8 3 452.344 29.6134 3
-3 8 -3 473.873 24.9833 1
3 -8 4 10.6495 10.1098 3
-3 8 -4 9.94992 7.37129 1
3 -8 4 15.3835 11.8979 4
3 -8 4 22.2627 8.65775 1
3 -8 5 198.041 19.5683 3
-3 8 -5 239.071 16.955 1
3 -8 5 194.613 16.6341 1
3 -8 6 4.39886 8.62643 1
3 -8 6 1.67593 10.1827 3
-3 8 -6 5.42106 8.41489 1
3 -8 7 -1.75669 11.3092 3
-3 8 -7 7.02155 8.58009 1
-3 8 -8 -5.01637 9.30377 1
3 -8 8 7.39826 10.9367 3
-3 8 -9 145.755 16.4957 1
3 -8 9 141.319 18.5245 3
-3 8 -9 142.044 16.8992 4
-3 8 -10 177.198 18.4001 1
3 -8 10 151.938 20.1805 3
-3 8 -10 181.759 18.5437 4
-3 8 -11 417.578 28.9483 1
3 -8 11 448.917 33.0094 3
-3 8 -11 427.631 29.1181 4
-3 7 11 74.7407 13.0485 2
3 -7 -11 81.8321 15.8972 4
3 -7 -10 583.724 35.2093 4
-3 7 10 461.072 29.3017 2
-3 7 9 162.707 15.6325 2
3 -7 -9 149.622 18.4225 4
3 -7 -8 355.469 26.3054 4
-3 7 8 315.038 20.6663 2
-3 7 7 162.993 13.6318 2
3 -7 -7 153.453 11.2336 3
3 -7 -7 187.726 18.7463 4
-3 7 6 110.374 9.31734 3
-3 7 6 86.6846 9.80039 2
3 -7 -6 103.092 9.98409 3
3 -7 -6 105.01 15.6022 4
-3 7 5 3.6518 5.89762 3
-3 7 5 1.80874 5.48908 2
3 -7 -5 5.28521 6.16621 3
3 -7 -5 -1.96002 4.3196 2
3 -7 -5 1.67743 10.0104 4
-3 7 4 23.4612 7.16364 3
-3 7 4 16.4753 5.60334 2
3 -7 -4 18.0822 7.11056 3
3 -7 -4 24.0645 4.48398 2
3 -7 -4 33.4467 11.3695 4
-3 7 3 161.19 12.0879 3
3 -7 -3 140.269 12.0037 3
3 -7 -3 141.775 16.3351 4
-3 7 3 109.986 7.80753 2
3 -7 -2 195.614 17.2625 5
3 -7 -2 190.814 14.2242 3
-3 7 2 150.239 7.55208 1
3 -7 -2 227.033 18.9522 4
-3 7 2 179.614 13.9183 3
3 -7 -1 344.278 21.0586 3
3 -7 -1 354.173 23.3637 5
3 -7 -1 321.607 15.8677 1
-3 7 1 317.568 15.5899 1
3 -7 -1 375.148 25.4128 4
-3 7 1 347.884 20.0818 3
3 -7 0 348.032 21.6186 3
3 -7 0 328.906 17.2126 1
3 -7 0 339.652 23.5674 5
3 -7 0 381.134 25.8329 4
-3 7 0 326.744 16.9635 1
-3 7 0 346.426 20.757 3
-3 7 -1 97.5554 11.4975 3
3 -7 1 138.091 13.2272 3
3 -7 1 101.179 14.0345 5
3 -7 1 89.6623 9.04896 1
-3 7 -1 97.9408 8.8709 1
3 -7 1 120.644 15.1263 4
3 -7 2 346.803 19.2658 1
3 -7 2 325.395 22.4473 3
3 -7 2 316.544 23.5109 5
3 -7 2 319.765 24.4691 4
-3 7 -2 348.482 18.8059 1
-3 7 -2 367.184 22.2016 3
3 -7 3 75.6069 9.30001 1
3 -7 3 73.175 12.1836 3
3 -7 3 55.2854 12.6325 4
-3 7 -3 66.3986 8.84355 1
-3 7 -4 330.573 19.5901 1
3 -7 4 301.081 19.5434 1
3 -7 4 331.017 23.18 3
3 -7 4 336.03 24.9276 4
-3 7 -5 70.662 10.2052 1
3 -7 5 56.1686 9.93834 1
3 -7 5 63.0161 12.38 3
-3 7 -6 279.967 19.3906 1
3 -7 6 318.732 20.3345 1
3 -7 6 270.106 22.1871 3
-3 7 -7 103.17 12.1949 1
3 -7 7 81.6114 11.926 1
3 -7 7 91.8872 15.0045 3
-3 7 -8 44.1599 10.6882 1
3 -7 8 39.8343 12.5703 3
-3 7 -9 63.8187 12.1831 1
3 -7 9 51.069 13.5553 3
-3 7 -10 95.157 14.4289 1
3 -7 10 93.9627 16.2222 3
-3 7 -11 2.87852 10.3634 1
3 -7 11 20.1296 12.8604 3
-3 7 -11 6.35299 9.04241 4
-3 7 -12 201.809 19.4985 1
3 -7 12 199.837 22.0585 3
-3 7 -12 202.58 19.9599 4
3 -7 13 262.659 25.2029 3
-3 7 -13 195.104 19.5913 4
-3 6 12 92.2197 14.2543 2
3 -6 -12 106.226 16.1175 4
-3 6 11 92.7647 13.5609 2
3 -6 -11 92.165 15.5784 4
-3 6 10 251.642 19.4297 2
3 -6 -10 257.137 21.7892 4
-3 6 9 3.24989 7.94212 2
3 -6 -9 5.3625 7.84585 2
3 -6 -9 -3.18704 9.76586 4
-3 6 8 28.1103 8.23891 2
3 -6 -8 29.7814 4.61265 3
3 -6 -8 35.6226 8.43618 2
3 -6 -8 40.252 10.5713 4
-3 6 8 34.6042 4.54232 3
3 -6 -7 258.57 14.2641 3
3 -6 -7 255.255 16.4856 2
3 -6 -7 308.416 22.3725 4
-3 6 7 283.633 17.7905 2
-3 6 7 289.561 13.8301 3
3 -6 -6 350.802 18.6123 3
3 -6 -6 389.765 19.863 2
3 -6 -6 440.964 26.821 4
-3 6 6 368.77 20.7448 2
-3 6 6 377.08 18.0591 3
-3 6 5 84.0143 8.01898 3
-3 6 5 78.4713 8.61006 2
3 -6 -5 89.0816 8.46473 3
3 -6 -5 80.4033 7.82953 2
3 -6 -5 96.1945 13.5015 4
-3 6 4 96.1009 8.33775 2
-3 6 4 106.551 8.96157 3
3 -6 -4 101.367 9.38617 3
3 -6 -4 98.4053 8.07095 2
3 -6 -4 112.911 13.7379 4
-3 6 3 28.3941 4.97904 2
-3 6 3 26.9219 6.42957 3
3 -6 -3 24.9398 6.99825 3
3 -6 -3 21.9099 8.97258 5
3 -6 -3 35.853 4.81501 2
3 -6 -3 24.6534 10.3664 4
-3 6 2 0.49661 1.44747 1
-3 6 2 1.88299 3.23238 2
-3 6 2 -3.94588 5.65021 3
3 -6 -2 6.43655 6.37629 3
-3 6 2 0.60067 3.94893 2
3 -6 -2 -1.11734 7.52232 5
-3 6 2 -1.26266 1.5135 1
3 -6 -2 -7.15744 8.54256 4
3 -6 -1 445.782 24.1441 3
3 -6 -1 471.477 26.4009 5
3 -6 -1 488.64 28.3624 4
-3 6 1 394.012 19.0344 1
-3 6 1 478.39 23.3276 3
-3 6 0 25.7225 7.59086 3
3 -6 0 20.8791 7.37807 3
3 -6 0 38.2223 5.63494 1
-3 6 0 29.4539 5.07767 1
3 -6 0 44.2418 10.775 4
3 -6 0 25.8964 8.33963 5
-3 6 -1 1.68682 6.54533 3
3 -6 1 3.07179 6.9917 3
3 -6 1 -1.21167 7.92129 5
3 -6 1 4.26889 8.41451 4
3 -6 1 0.577 5.19157 1
-3 6 -1 3.16146 4.5672 1
-3 6 -2 277.054 18.1026 3
-3 6 -2 267.904 15.6375 1
3 -6 2 262.085 18.8041 3
3 -6 2 283.592 16.1738 1
3 -6 2 255.276 19.4361 5
3 -6 2 263.499 20.6068 4
-3 6 -3 1869.45 79.052 3
-3 6 -3 1793.47 76.4276 1
3 -6 3 1857.53 80.5796 3
3 -6 3 1813.18 76.8777 1
3 -6 3 1889.76 81.5362 5
3 -6 3 1816.54 82.7336 4
-3 6 -4 1965.55 84.1051 3
-3 6 -4 1910.52 81.8383 1
3 -6 4 1865.72 85.1388 3
3 -6 4 1909.29 82.0473 1
3 -6 4 2095.34 86.9941 5
3 -6 4 2059.45 88.7342 4
-3 6 -5 240.464 18.8541 3
3 -6 5 285.616 20.5849 3
-3 6 -5 256.951 17.1169 1
3 -6 5 249.021 17.1727 1
3 -6 6 50.5004 11.1359 3
-3 6 -6 46.2624 8.79439 1
-3 6 -6 42.4315 9.50916 4
3 -6 6 33.6355 9.42289 1
3 -6 7 16.517 9.01332 1
3 -6 7 13.79 10.0352 3
-3 6 -7 11.7572 7.669 1
-3 6 -7 21.9078 8.18817 4
3 -6 8 1.03013 3.39952 2
3 -6 8 -4.87455 10.2119 3
-3 6 -8 11.5153 8.28809 1
3 -6 8 2.3635 8.61124 1
-3 6 -8 1.75349 2.93383 2
3 -6 9 929.307 43.7748 3
-3 6 -9 850.128 39.49 1
-3 6 -9 746.034 31.0815 2
3 -6 9 653.497 31.5032 2
3 -6 10 1144.81 54.8141 3
-3 6 -10 1180.26 51.6507 1
-3 6 -10 1004.61 43.112 2
3 -6 10 968.754 43.9167 2
3 -6 11 6.68822 5.97457 2
-3 6 -11 6.98176 9.92693 1
3 -6 11 7.61645 12.0673 3
3 -6 12 16.2516 6.93958 2
3 -6 12 -1.9921 11.8911 3
-3 6 -12 -4.43196 9.43929 1
3 -6 13 9.64789 7.37821 2
3 -6 13 14.5625 13.1866 3
-3 6 -13 18.6668 10.8469 1
-3 6 -13 1.60847 9.5187 4
-3 6 -14 21.7392 11.2085 4
-3 5 14 173.333 19.2766 2
3 -5 -14 171.374 19.5971 4
3 -5 -13 468.964 32.8644 4
-3 5 13 592.452 33.2307 2
-3 5 12 275.351 21.0901 2
3 -5 -12 215.88 20.7922 4
-3 5 11 206.917 18.1313 2
3 -5 -11 227.9 19.495 4
3 -5 -10 587.76 34.6055 4
-3 5 10 615.216 32.8335 2
3 -5 -9 350.156 20.9833 2
3 -5 -9 313.058 23.2938 4
-3 5 9 359.494 21.9001 2
3 -5 -8 141.638 12.406 2
3 -5 -8 134.132 14.658 4
-3 5 8 132.289 12.6346 2
3 -5 -7 1.14543 2.23077 3
3 -5 -7 -2.99438 6.02378 2
-3 5 7 7.39084 8.10471 4
3 -5 -7 1.3032 7.56194 4
-3 5 7 -0.38052 1.86546 3
-3 5 7 6.95615 6.17942 2
3 -5 -6 234.219 11.9045 3
3 -5 -6 248.051 14.8213 2
-3 5 6 226.469 17.6107 4
3 -5 -6 232.5 18.2726 4
-3 5 6 294.387 16.0941 2
-3 5 6 225.949 11.2891 3
3 -5 -5 386.879 19.5306 3
3 -5 -5 464.546 21.531 2
-3 5 5 416.546 24.7351 4
3 -5 -5 419.048 25.6294 4
-3 5 5 446.994 22.0149 2
-3 5 5 416.877 19.0094 3
-3 5 4 3.23988 4.0051 3
3 -5 -4 2.51705 4.56556 3
3 -5 -4 -0.52413 4.58197 2
-3 5 4 2.0725 7.31725 4
3 -5 -4 4.94825 7.51566 4
-3 5 4 0.57177 4.41353 2
3 -5 -3 439.842 21.5987 3
3 -5 -3 430.071 20.408 2
-3 5 3 435.999 25.217 4
-3 5 3 427.456 20.6367 2
3 -5 -3 481.498 26.959 4
3 -5 -3 439.986 24.514 5
-3 5 3 407.678 20.5839 3
3 -5 -2 431.956 19.6144 3
3 -5 -2 439.669 22.3147 5
-3 5 2 454.585 23.3019 4
-3 5 2 396.029 16.6731 2
3 -5 -2 400.061 23.1027 4
-3 5 2 414.203 18.5997 3
-3 5 1 14.8462 5.5994 3
-3 5 1 10.8218 4.12535 2
3 -5 -1 9.7207 5.46086 3
3 -5 -1 10.8365 7.36046 5
-3 5 1 7.40478 3.1034 1
-3 5 1 10.6239 8.07317 4
3 -5 -1 19.4911 7.72716 4
-3 5 1 10.3161 3.11416 2
-3 5 1 6.83009 3.01693 1
-3 5 0 2015.91 81.2554 3
-3 5 0 2026.93 78.4835 1
3 -5 0 1897.21 81.9941 3
-3 5 0 1934.34 76.3496 2
3 -5 0 2171.28 84.4072 5
-3 5 0 2150.71 84.8395 4
3 -5 0 2063.21 85.7981 4
-3 5 0 1840.52 76.6197 2
-3 5 -1 2090.07 85.4804 3
3 -5 1 1970.32 86.2785 3
-3 5 -1 2031.72 83.0633 1
3 -5 1 2115.21 87.9028 5
-3 5 -1 2202.57 88.4564 4
3 -5 1 1982.11 83.3162 1
3 -5 1 2077.56 89.1314 4
-3 5 -2 712.287 34.7587 3
3 -5 2 729.915 35.8931 3
-3 5 -2 703.02 32.7664 1
3 -5 2 716.599 36.7759 5
3 -5 2 704.166 32.9916 1
-3 5 -2 755.431 36.8612 4
3 -5 2 765.625 38.3651 4
-3 5 -3 2547.6 106.45 3
3 -5 3 2494.35 107.606 3
-3 5 -3 2413.84 104.375 1
3 -5 3 2572.48 104.903 1
-3 5 -3 2644.08 108.264 4
3 -5 3 2748.36 108.928 5
3 -5 3 2708.99 110.357 4
-3 5 -4 1778.12 76.1338 3
3 -5 4 1727.99 77.3177 3
-3 5 -4 1705.74 74.4184 1
3 -5 4 1777.75 74.8651 1
-3 5 -4 1856 77.7416 4
-3 5 -5 435.394 23.8974 3
3 -5 5 411.661 24.4351 3
-3 5 -5 382.454 21.6275 1
3 -5 5 384.111 21.9365 1
-3 5 -5 362.625 22.3616 4
-3 5 -5 345.537 15.7572 2
-3 5 -5 379.603 15.7954 2
-3 5 -5 443.095 24.9108 4
3 -5 6 532.433 24.4782 2
-3 5 -6 581.814 31.0549 3
3 -5 6 593.293 32.6508 3
-3 5 -6 559.951 29.6985 1
-3 5 -6 601.867 31.0038 4
-3 5 -6 558.612 23.8588 2
3 -5 6 613.772 30.3487 1
-3 5 -7 825.025 34.3428 2
3 -5 7 952.138 44.3648 3
3 -5 7 881.369 40.8384 1
-3 5 -7 827.617 40.3292 1
-3 5 -7 857.925 41.1376 4
3 -5 7 730.4 34.9171 2
3 -5 8 33.1303 6.33595 2
3 -5 8 47.4698 11.3277 3
-3 5 -8 39.1471 9.46117 4
-3 5 -8 42.2205 5.77491 2
3 -5 8 46.2369 10.1321 1
-3 5 -8 36.1368 9.52126 1
3 -5 9 7.43932 5.78751 2
-3 5 -9 3.1921 9.52615 5
-3 5 -9 3.84167 7.36074 4
3 -5 9 3.24289 9.58933 3
-3 5 -9 -0.50069 5.05115 2
3 -5 9 8.66348 8.85338 1
-3 5 -9 14.5508 8.94426 1
3 -5 10 33.4263 7.51332 2
3 -5 10 35.9619 11.446 3
-3 5 -10 37.5185 6.48201 2
-3 5 -10 36.2614 10.5628 1
3 -5 11 11.0394 6.94724 2
3 -5 11 25.2616 11.7133 3
-3 5 -11 9.10699 5.86688 2
-3 5 -11 5.50917 9.47812 1
3 -5 12 124.914 13.0349 2
3 -5 12 159.327 18.1689 3
-3 5 -12 120.757 11.5889 2
-3 5 -12 136.847 15.637 1
3 -5 13 29.3565 8.89011 2
-3 5 -13 35.9283 12.6687 5
-3 5 -13 3.06506 10.6431 1
-3 5 -14 255.865 23.3972 5
-3 5 -14 213.838 20.3676 1
3 -5 15 5.05576 9.87239 2
-3 5 -15 25.3873 11.9602 4
-3 4 15 464.959 30.9174 2
3 -4 -15 433.426 30.0293 4
3 -4 -14 316.131 24.3116 4
-3 4 14 319.88 24.4088 2
3 -4 -13 110.753 15.1013 4
-3 4 13 134.191 15.9231 2
3 -4 -12 235.774 19.5029 4
-3 4 12 207.588 18.3202 2
3 -4 -11 90.7222 13.033 4
-3 4 11 74.281 11.8051 2
-3 4 10 49.76 9.82762 4
3 -4 -10 42.4529 10.4202 4
-3 4 10 55.549 9.97336 2
-3 4 9 119.875 12.8442 4
3 -4 -9 133.79 12.5747 2
3 -4 -9 108.314 12.8049 4
-3 4 9 114.609 12.1356 2
3 -4 -8 372.341 21.2878 2
-3 4 8 347.151 21.7389 4
-3 4 8 374.843 21.8645 2
3 -4 -8 384.035 23.5147 4
3 -4 -7 671.396 32.2799 2
-3 4 7 662.718 33.5258 4
-3 4 7 690.174 33.4018 2
3 -4 -7 662.743 34.5628 4
3 -4 -6 1368.16 58.3287 2
-3 4 6 1337.83 60.0001 4
-3 4 6 1359.98 59.0521 2
3 -4 -6 1394.74 61.4675 4
3 -4 -5 523.962 23.9792 3
3 -4 -5 617.035 28.8867 5
3 -4 -5 617.91 27.9557 2
-3 4 5 678.002 30.7886 4
-3 4 5 654.849 28.7996 2
3 -4 -5 719.667 32.2401 4
-3 4 5 572.767 23.7416 3
3 -4 -4 132.338 8.24466 3
3 -4 -4 133.318 11.0002 5
-3 4 4 127.242 9.83682 2
-3 4 4 146.85 12.4167 4
3 -4 -4 131.971 12.5543 4
3 -4 -4 148.443 10.1815 2
-3 4 4 140.26 7.93302 3
-3 4 3 4.06965 3.60961 3
3 -4 -3 -3.6027 3.95318 3
3 -4 -3 -1.50794 5.69145 5
3 -4 -3 0.51843 4.49314 2
-3 4 3 3.51464 6.48014 4
3 -4 -3 9.25677 7.02274 4
-3 4 3 0.53307 3.97804 2
-3 4 2 106.295 6.02141 1
-3 4 2 102.513 8.06784 3
3 -4 -2 113.042 9.01031 3
3 -4 -2 113.776 10.4253 5
-3 4 2 115.742 6.14367 1
-3 4 2 128.116 8.23812 2
-3 4 2 137.148 11.8182 4
3 -4 -2 122.991 11.6645 4
-3 4 1 589.353 26.5486 2
-3 4 1 552.469 26.6161 3
3 -4 -1 544.826 27.3125 3
-3 4 1 593.331 24.8945 1
3 -4 -1 613.628 29.281 5
-3 4 1 560.906 24.6415 1
-3 4 1 572.111 25.4498 2
-3 4 1 592.608 29.7624 4
3 -4 -1 578.643 30.3819 4
-3 4 0 -0.62029 4.51983 3
-3 4 0 2.95378 4.13077 2
3 -4 0 5.84678 5.22709 3
3 -4 0 1.7403 5.94129 5
-3 4 0 -1.55442 3.51006 1
-3 4 0 -2.74722 3.00169 2
-3 4 0 -0.92579 6.53701 4
3 -4 0 -4.09516 5.82526 4
-3 4 0 1.69401 3.06705 1
-3 4 -1 463.436 23.5248 3
3 -4 1 463.529 24.3378 3
-3 4 -1 454.837 21.4659 1
-3 4 -1 435.512 20.1382 2
-3 4 -1 438.054 21.7133 1
-3 4 -1 456.304 25.2155 4
3 -4 1 458.347 25.7832 4
-3 4 -1 482.72 20.8663 2
-3 4 -2 154.766 12.1683 3
3 -4 2 150.611 10.9121 1
3 -4 2 147.022 12.4571 3
-3 4 -2 141.596 8.3229 2
-3 4 -2 148.272 10.3213 1
-3 4 -2 141.689 12.7471 4
3 -4 2 180.017 14.2943 4
-3 4 -2 149.505 8.79429 2
-3 4 -3 52.6757 5.03997 2
-3 4 -3 45.3609 6.68377 1
3 -4 3 23.8922 6.35666 1
-3 4 -3 38.7546 8.32906 3
3 -4 3 49.802 8.45385 3
-3 4 -3 44.0975 4.64279 2
-3 4 -3 39.6518 8.82117 4
-3 4 -4 2.48188 3.1708 2
-3 4 -4 10.1998 5.89239 1
-3 4 -4 12.7974 7.20983 3
3 -4 4 3.25384 6.81955 3
-3 4 -4 3.66814 5.06304 4
3 -4 4 9.70552 6.00372 1
-3 4 -4 5.15798 7.19178 4
3 -4 5 179.075 11.0789 2
-3 4 -5 163.342 14.115 3
-3 4 -5 190.718 15.4815 5
-3 4 -5 172.165 13.4166 4
3 -4 5 146.137 12.7395 1
-3 4 -5 172.538 13.2616 1
-3 4 -5 162.446 9.767 2
-3 4 -5 180.266 14.9303 4
3 -4 5 185.446 15.2478 3
-3 4 -6 171.394 15.0032 3
-3 4 -6 164.564 15.1344 5
3 -4 6 160.598 15.3 3
3 -4 6 160.589 13.7078 1
-3 4 -6 163.071 13.6556 4
-3 4 -6 199.765 14.4345 1
-3 4 -6 167.046 10.3955 2
-3 4 -6 184.082 15.3013 4
3 -4 6 168.781 11.4446 2
-3 4 -7 242.768 18.4663 3
3 -4 7 260.478 19.7918 3
-3 4 -7 237.688 19.0839 5
-3 4 -7 270.124 18.0382 4
3 -4 7 226.955 17.4426 1
-3 4 -7 277.313 18.22 1
-3 4 -7 243.85 13.9192 2
-3 4 -7 238.156 18.745 4
3 -4 7 253.911 15.2206 2
3 -4 8 468.129 28.5151 3
-3 4 -8 396.215 26.9396 5
3 -4 8 473.031 26.3947 1
-3 4 -8 434.33 25.6718 1
-3 4 -8 433.645 21.6129 2
-3 4 -8 440.395 25.568 4
3 -4 8 414.7 22.7526 2
-3 4 -9 297.783 21.6488 5
3 -4 9 234.605 20.1652 3
-3 4 -9 257.748 18.6544 4
3 -4 9 279.969 19.7917 1
-3 4 -9 259.942 19.2931 1
-3 4 -9 247.49 15.3681 2
3 -4 9 253.768 16.7636 2
3 -4 10 232.336 18.8399 1
3 -4 10 214.337 19.2648 3
-3 4 -10 184.18 13.8054 2
-3 4 -10 227.643 17.4372 4
-3 4 -10 212.194 17.6716 1
3 -4 10 197.976 15.0478 2
-3 4 -11 188.519 14.2588 2
-3 4 -11 184.941 17.3005 1
3 -4 11 176.899 14.7284 2
3 -4 11 203.351 19.3334 3
-3 4 -11 202.073 16.9136 4
3 -4 12 14.233 8.1952 2
-3 4 -12 22.9264 9.5992 4
-3 4 -12 13.3972 7.34716 2
-3 4 -12 20.1553 10.0531 1
3 -4 13 10.7727 8.66958 2
-3 4 -13 -1.83202 10.5286 5
-3 4 -13 6.3276 7.90255 2
-3 4 -13 -6.07861 10.3769 1
3 -4 14 5.21229 9.02305 2
-3 4 -14 1.59855 10.6098 1
-3 4 -14 13.4102 11.6408 5
3 -4 15 244.299 20.6392 2
3 -4 16 321.103 24.5225 2
3 -3 -16 66.9619 13.7053 4
-3 3 16 57.3916 14.8416 2
3 -3 -15 218.283 20.0706 4
-3 3 15 226.225 21.1869 2
3 -3 -14 9.41674 9.39165 4
-3 3 14 22.2259 11.0777 2
3 -3 -13 10.1572 8.6116 4
-3 3 13 1.48527 9.48898 2
3 -3 -12 136.967 6.86501 1
-3 3 12 185.265 14.3164 4
3 -3 -12 185.295 15.5588 4
-3 3 12 213.062 17.358 2
-3 3 11 134.272 12.8111 4
3 -3 -11 128.262 13.8038 4
-3 3 11 142.513 14.8258 2
-3 3 10 306.765 18.7136 4
-3 3 10 312.345 20.6134 2
3 -3 -10 269.497 19.4247 4
-3 3 9 13.7976 7.22772 4
3 -3 -9 2.82956 7.33298 2
3 -3 -9 20.8781 7.56066 4
-3 3 9 11.9184 7.3084 2
3 -3 -8 14.8591 7.088 2
-3 3 8 12.4097 6.26321 4
3 -3 -8 14.1259 6.96507 4
-3 3 8 13.8433 6.77191 2
3 -3 -7 20.275 6.77253 2
-3 3 7 19.4035 6.38385 4
3 -3 -7 23.3473 7.13075 4
-3 3 7 27.0066 7.32955 2
3 -3 -6 40.2042 5.85662 5
3 -3 -6 43.4155 7.57564 2
-3 3 6 42.0129 7.47818 4
3 -3 -6 41.5313 7.61505 4
-3 3 6 30.1429 6.66024 2
3 -3 -5 295.065 15.149 5
-3 3 5 260.892 16.1397 2
3 -3 -5 257.953 16.022 2
-3 3 5 269.025 16.4593 4
3 -3 -5 276.843 17.4301 4
3 -3 -4 1912.44 76.1793 2
-3 3 4 1942.83 76.4315 2
-3 3 4 1974.97 77.1943 4
3 -3 -4 1882.74 77.7694 4
-3 3 4 1812.2 71.5056 1
3 -3 -4 1881.4 75.3962 5
-3 3 4 1827.22 71.8838 3
-3 3 4 1854.92 71.9771 3
-3 3 4 1800.82 71.4123 1
-3 3 3 229.516 12.1524 3
3 -3 -3 270.164 14.9747 2
3 -3 -3 261.303 14.6629 5
-3 3 3 253.156 14.4417 2
-3 3 3 275.079 15.9914 4
-3 3 3 256.177 11.6388 1
3 -3 -3 272.205 16.5007 4
-3 3 3 253.897 12.1428 3
-3 3 3 255.002 11.8506 1
-3 3 2 954.233 39.989 3
-3 3 2 977.803 42.2904 2
3 -3 -2 961.798 42.082 5
-3 3 2 1016.24 41.4249 2
-3 3 2 927.273 38.9771 1
-3 3 2 962.397 42.9132 4
3 -3 -2 979.675 43.603 4
-3 3 2 911.893 39.1874 1
-3 3 1 1071.74 46.8678 2
-3 3 1 1088.08 45.7984 3
3 -3 -1 1055.2 46.2056 3
-3 3 1 1123.29 45.9623 2
-3 3 1 1098.91 44.6722 1
-3 3 1 1033.56 47.8105 4
3 -3 -1 1108.74 48.6488 4
-3 3 1 1073.62 45.0101 1
-3 3 0 37.9557 6.21786 2
-3 3 0 46.3572 6.08884 3
3 -3 0 32.22 6.25072 3
-3 3 0 40.9613 5.08923 2
-3 3 0 44.1133 5.32649 1
-3 3 0 38.1071 7.41491 4
-3 3 0 38.4488 5.05455 1
3 -3 0 59.9089 8.27212 4
-3 3 -1 7.98876 4.64508 2
-3 3 -1 7.89944 4.65766 3
3 -3 1 14.7891 5.74588 3
-3 3 -1 6.8297 3.63915 2
-3 3 -1 3.39547 3.56901 1
-3 3 -1 9.86737 4.09819 1
-3 3 -1 10.3771 6.10087 4
3 -3 1 7.43641 5.84952 4
-3 3 -2 342.898 18.2972 3
3 -3 2 311.049 18.4314 3
-3 3 -2 329.608 19.1363 5
-3 3 -2 347.498 16.9912 1
-3 3 -2 308.218 17.4997 4
-3 3 -2 301.384 15.7224 2
-3 3 -2 284.579 18.4029 4
-3 3 -2 274.302 15.947 2
-3 3 -2 308.199 16.9892 1
-3 3 -3 203.124 14.279 3
3 -3 3 203.831 14.8075 3
-3 3 -3 218.413 15.4042 5
-3 3 -3 199.013 12.5953 1
-3 3 -3 184.294 13.2574 4
-3 3 -3 208.483 14.8064 4
-3 3 -3 220.44 12.4024 2
-3 3 -3 200.427 13.5085 1
-3 3 -4 129.785 11.8863 3
3 -3 4 120.458 9.58028 2
3 -3 4 118.288 11.3455 3
-3 3 -4 118.368 11.8209 5
-3 3 -4 109.863 9.90692 4
-3 3 -4 87.3234 9.50979 1
-3 3 -4 110.575 8.52425 2
-3 3 -4 92.3414 10.6369 4
3 -3 5 539.29 27.9029 1
-3 3 -5 555.713 28.7585 4
-3 3 -5 550.493 28.5544 3
3 -3 5 550.066 29.5234 3
-3 3 -5 521.423 29.1641 5
-3 3 -5 555.233 27.7613 4
-3 3 -5 531.235 25.326 2
-3 3 -5 488.173 27.3263 1
3 -3 5 539.083 26.5245 2
-3 3 -6 24.7983 6.03854 2
3 -3 6 34.2982 7.09574 2
-3 3 -6 31.8213 8.45237 3
3 -3 6 29.052 7.71123 1
-3 3 -6 23.6433 8.1438 5
3 -3 6 25.2887 8.57151 3
-3 3 -6 17.507 6.72837 1
-3 3 -6 37.5991 7.17738 4
-3 3 -6 34.2997 9.07261 4
-3 3 -7 24.1291 6.41254 2
3 -3 7 22.0196 6.60631 2
-3 3 -7 29.6032 9.13368 3
-3 3 -7 15.1584 8.55804 5
-3 3 -7 28.3598 8.11931 1
-3 3 -7 29.1984 7.30943 4
3 -3 7 28.5263 8.90499 3
3 -3 7 23.0965 8.07126 1
-3 3 -7 26.7114 8.91734 4
3 -3 8 40.0377 8.22885 2
-3 3 -8 47.8217 10.4938 3
-3 3 -8 21.503 8.45187 1
3 -3 8 29.1683 9.77024 3
-3 3 -8 36.4448 9.74518 5
3 -3 8 20.3468 8.14264 1
-3 3 -8 49.7889 8.68042 4
-3 3 -8 42.8969 10.3236 4
-3 3 -8 33.1427 7.09843 2
3 -3 9 17.5943 7.20161 2
-3 3 -9 13.3016 8.51316 1
3 -3 9 23.0044 8.79777 1
3 -3 9 19.2427 9.25403 3
-3 3 -9 14.4071 8.54935 5
-3 3 -9 25.5294 8.01037 4
-3 3 -9 18.2745 7.10255 2
3 -3 10 336.064 23.4243 3
-3 3 -10 302.523 18.6898 2
-3 3 -10 275.938 20.9338 1
3 -3 10 304.85 21.5949 1
3 -3 10 257.553 18.8717 2
-3 3 -10 336.036 21.4445 4
3 -3 11 22.8694 9.07369 2
-3 3 -11 34.225 10.3849 1
-3 3 -11 30.3638 9.13433 4
-3 3 -11 22.2515 8.53638 2
-3 3 -12 549.675 30.0565 4
-3 3 -12 498.346 29.9113 1
-3 3 -12 426.885 26.1716 2
3 -3 12 487.822 28.1999 2
-3 3 -13 18.3038 10.4554 1
3 -3 13 20.0787 9.9149 2
-3 3 -13 39.7403 12.8704 5
-3 3 -13 23.9079 9.43597 4
-3 3 -14 44.8768 12.8513 1
3 -3 14 51.9706 11.7797 2
-3 3 -14 62.6032 14.2906 5
-3 3 -14 44.3693 11.571 4
-3 3 -14 54.2803 12.0639 3
3 -3 15 266.937 21.587 2
-3 3 -15 250.089 23.7495 5
-3 3 -15 217.702 20.5842 3
3 -3 16 39.7987 13.7068 2
-3 3 -16 15.2636 11.1281 3
3 -2 -16 354.528 24.3346 4
-3 2 16 332.804 26.6797 2
3 -2 -15 422.563 26.2571 4
-3 2 15 388.067 28.3895 2
3 -2 -14 218.336 13.1294 1
3 -2 -14 215.375 17.4846 4
-3 2 14 204.688 19.6431 2
-3 2 13 421.559 21.1505 1
-3 2 13 394.495 23.1821 4
3 -2 -13 427.121 25.0291 4
-3 2 13 432.115 27.5915 2
3 -2 -13 452.713 20.8633 1
-3 2 12 43.0442 6.48818 1
3 -2 -12 39.3029 5.33763 1
-3 2 12 26.0776 7.53856 4
3 -2 -12 41.5575 9.487 4
-3 2 12 45.5623 10.7012 2
3 -2 -11 1.21488 3.53993 1
-3 2 11 4.92408 6.0702 4
3 -2 -11 0.93755 7.03689 4
-3 2 11 -1.28243 7.65312 2
-3 2 11 -0.4538 4.50214 1
-3 2 10 395.332 22.0534 4
-3 2 10 449.894 26.3409 2
3 -2 -10 431.219 19.7115 1
3 -2 -10 443.99 23.8707 4
-3 2 10 447.645 20.2629 1
-3 2 9 190.341 12.8473 4
3 -2 -9 145.497 8.00393 5
3 -2 -9 209.28 9.97999 1
3 -2 -9 191.96 13.2389 4
3 -2 -9 207.301 15.0226 2
-3 2 9 205.955 10.3578 1
-3 2 9 191.684 15.1485 2
3 -2 -8 77.9945 5.2275 5
3 -2 -8 113.799 6.64052 1
-3 2 8 108.826 6.92943 1
3 -2 -8 100.422 10.9343 2
-3 2 8 112.101 9.38353 4
3 -2 -8 109.852 9.69854 4
-3 2 8 106.102 10.9652 2
3 -2 -7 8.53609 6.59157 2
-3 2 7 6.40556 5.24302 4
3 -2 -7 4.21038 4.89456 4
-3 2 7 6.50423 5.84329 2
-3 2 7 5.96406 3.09863 1
3 -2 -7 4.31026 2.83955 1
-3 2 6 268.935 12.9053 1
3 -2 -6 291.363 17.0584 2
3 -2 -6 268.826 12.855 1
-3 2 6 278.292 16.9803 2
-3 2 6 247.411 15.0718 4
3 -2 -6 274.496 15.9091 4
3 -2 -5 174.903 12.8403 2
-3 2 5 172.301 11.4274 4
3 -2 -5 175.647 11.9807 4
3 -2 -5 176.905 9.42926 1
-3 2 5 187.755 9.6647 1
-3 2 5 195.4 13.0092 2
-3 2 4 185.771 8.51191 3
3 -2 -4 179.803 9.55885 1
3 -2 -4 162.932 12.3221 2
-3 2 4 175.989 12.4354 2
-3 2 4 181.509 11.5155 4
3 -2 -4 167.565 11.6971 4
-3 2 4 188.924 9.73253 1
-3 2 4 176.826 8.21224 3
-3 2 3 581.246 24.7653 3
3 -2 -3 575.817 27.7111 2
-3 2 3 567.262 27.7217 2
-3 2 3 604.589 26.9373 4
-3 2 3 571.717 25.024 1
3 -2 -3 568.647 27.216 4
-3 2 3 567.477 24.3299 3
-3 2 2 549.338 27.2302 2
-3 2 2 558.227 24.6369 3
-3 2 2 537.012 26.2336 2
-3 2 2 536.156 24.3057 1
-3 2 2 562.674 25.9235 4
3 -2 -2 553.763 26.2017 4
-3 2 2 535.295 24.8902 1
-3 2 2 552.349 24.0627 3
-3 2 1 314.208 17.3105 2
-3 2 1 297.638 15.5708 3
-3 2 1 286.258 16.1475 2
-3 2 1 309.28 15.2022 1
-3 2 1 278.053 15.4186 1
-3 2 1 298.704 16.3444 4
3 -2 -1 297.906 16.8213 4
-3 2 1 299.691 14.9799 3
-3 2 0 2668.99 108.531 3
-3 2 0 2752.5 109.24 5
-3 2 0 2579.07 108.59 2
-3 2 0 2732.5 108.575 1
-3 2 0 2735.52 107.919 1
-3 2 0 2761.67 109.257 4
-3 2 0 2700.94 107.914 3
-3 2 0 2700.88 109.578 2
-3 2 -1 2459.26 98.5185 3
-3 2 -1 2315.4 97.9828 1
-3 2 -1 2495.9 99.0513 5
-3 2 -1 2377.13 97.7315 2
-3 2 -1 2471.87 97.785 4
-3 2 -1 2468.9 97.5051 1
-3 2 -1 2399.76 98.4709 4
-3 2 -1 2366.99 97.6432 3
-3 2 -1 2426.1 98.5366 2
-3 2 -2 485.816 24.3679 3
-3 2 -2 441.905 23.4675 1
-3 2 -2 502.072 24.8708 5
-3 2 -2 479.118 23.0786 1
-3 2 -2 456.216 23.0984 4
-3 2 -2 477.319 23.9482 4
-3 2 -2 458.128 23.2689 3
-3 2 -2 479.014 23.588 2
-3 2 -3 0.66358 4.37069 2
-3 2 -3 2.4244 6.10018 3
3 -2 3 -1.52218 5.05022 2
-3 2 -3 -3.86289 4.81545 1
-3 2 -3 6.14831 5.52003 5
-3 2 -3 -2.04165 3.83335 4
-3 2 -3 0.65609 4.19036 1
-3 2 -3 3.84199 5.56478 4
-3 2 -3 0.71985 4.33468 3
-3 2 -4 4.06176 5.0051 2
-3 2 -4 5.07893 5.37504 1
3 -2 4 7.27928 5.5338 2
-3 2 -4 11.4835 7.29218 3
-3 2 -4 8.64647 6.14623 5
-3 2 -4 12.6276 4.94158 4
-3 2 -4 7.88044 5.32659 1
-3 2 -4 11.759 6.24127 4
-3 2 -4 16.6789 5.61923 3
-3 2 -5 33.8341 6.85392 2
3 -2 5 54.6921 8.11425 2
-3 2 -5 66.9774 9.7548 3
-3 2 -5 50.1226 9.0294 5
-3 2 -5 42.0852 7.04785 4
-3 2 -5 61.6385 8.18137 1
-3 2 -5 44.483 8.46816 4
-3 2 -5 71.2214 8.41346 3
-3 2 -5 53.357 7.94033 1
-3 2 -6 7.42424 5.76414 2
3 -2 6 4.66739 5.86951 2
-3 2 -6 1.02744 7.48881 3
-3 2 -6 2.65362 4.77822 4
-3 2 -6 9.3057 6.16704 1
-3 2 -6 6.13804 7.50184 4
-3 2 -6 3.99457 6.33008 1
-3 2 -6 3.7727 5.58015 3
-3 2 -7 21.9068 6.93213 2
3 -2 7 29.8668 7.25438 2
-3 2 -7 27.3789 9.39482 3
-3 2 -7 35.5706 7.34489 4
-3 2 -7 31.9581 7.7542 1
-3 2 -7 19.4185 7.84673 1
-3 2 -7 42.7458 8.22704 3
-3 2 -8 594.399 31.332 3
-3 2 -8 588.511 30.0481 4
-3 2 -8 544.309 28.4699 2
-3 2 -8 532.228 29.9992 3
-3 2 -8 492.796 29.8502 1
3 -2 8 614.44 30.6599 2
3 -2 9 2059.97 86.2804 4
-3 2 -9 2144.28 88.009 4
-3 2 -9 1977.93 85.8982 2
-3 2 -9 2107.32 88.5189 3
-3 2 -9 1906.06 87.9765 1
3 -2 9 2025.89 87.6201 2
-3 2 -10 236.839 18.0407 4
-3 2 -10 247.475 17.5927 2
-3 2 -10 233.921 18.5859 1
3 -2 10 245.053 18.6764 2
3 -2 11 28.3636 9.38398 2
-3 2 -11 11.2002 9.13104 1
-3 2 -11 32.4893 8.4831 4
-3 2 -11 24.8921 8.97107 2
3 -2 12 62.2672 11.9843 2
-3 2 -12 91.88 12.8099 4
3 -2 13 106.796 14.5081 2
-3 2 -13 94.9301 13.3845 4
-3 2 -13 105.75 14.1313 3
-3 2 -14 1565.84 69.5078 4
-3 2 -14 1462.39 68.5146 3
3 -2 14 1361.16 68.183 2
-3 2 -15 1899.47 83.9172 5
-3 2 -15 1749.58 80.3188 4
-3 2 -15 1731.47 80.0278 3
3 -2 15 1623.76 80.1735 2
3 -2 16 87.8785 15.6348 2
-3 2 -16 73.2223 14.8937 4
-3 2 -16 76.0078 14.8844 3
3 -1 -16 182.576 16.5663 4
-3 1 16 198.709 20.684 2
3 -1 -15 13.07 6.31791 1
3 -1 -15 10.8156 8.21726 4
-3 1 15 -3.37927 10.4487 2
3 -1 -14 27.6968 6.78114 1
-3 1 14 15.6256 7.07461 4
3 -1 -14 15.065 7.99573 4
-3 1 14 18.7544 7.53151 1
-3 1 14 20.6592 10.0164 2
3 -1 -13 74.0853 8.42046 1
-3 1 13 53.0987 8.16501 4
-3 1 13 64.6533 8.874 1
3 -1 -13 60.0064 9.13834 4
-3 1 13 57.9819 11.7205 2
-3 1 12 739.764 35.0124 4
-3 1 12 803.852 41.0175 2
3 -1 -12 769.023 36.6451 4
3 -1 -12 754.992 35.0209 1
-3 1 12 827.025 35.8305 1
-3 1 11 62.8712 7.86133 1
3 -1 -11 66.7209 7.36618 1
-3 1 11 59.9815 7.42912 4
3 -1 -11 66.8744 8.3858 4
-3 1 11 63.4977 10.7116 2
-3 1 10 132.463 9.56699 1
3 -1 -10 111.503 8.81608 1
-3 1 10 99.3048 8.8414 4
3 -1 -10 115.518 9.89926 4
-3 1 10 106.305 12.4797 2
-3 1 9 2641.63 102.886 1
3 -1 -9 2691.51 107.121 2
-3 1 9 2398.98 102.134 4
-3 1 9 2586.39 107.775 2
3 -1 -9 2670.41 102.767 1
3 -1 -9 2466.71 103.318 4
-3 1 8 2288.97 92.3776 1
3 -1 -8 2423.68 96.6314 2
-3 1 8 2220.78 91.9299 4
-3 1 8 2322.3 97.0516 2
3 -1 -8 2325.5 92.3062 1
3 -1 -8 2288.73 92.8892 4
3 -1 -7 1.40161 3.76002 1
-3 1 7 -0.47256 4.0605 1
3 -1 -7 7.32856 6.67536 2
-3 1 7 -0.81312 3.73063 4
-3 1 7 -0.97673 5.44556 2
3 -1 -7 7.54361 4.37771 4
-3 1 6 3519.71 139.137 1
3 -1 -6 3602.86 142.663 2
-3 1 6 3603.74 143.135 2
-3 1 6 3467.88 138.512 4
3 -1 -6 3550.79 139.158 1
3 -1 -6 3496.59 139.117 4
-3 1 5 448.225 19.3899 3
-3 1 5 472.839 24.7991 2
3 -1 -5 487.418 24.5625 2
3 -1 -5 466.081 21.5586 1
-3 1 5 454.929 20.7282 4
3 -1 -5 457.432 21.3883 4
-3 1 5 458.12 21.662 1
-3 1 5 467.073 19.1969 3
-3 1 4 566.219 24.6119 3
3 -1 -4 610.614 28.6658 2
3 -1 -4 578.636 25.9877 1
-3 1 4 527.792 28.1979 2
-3 1 4 562.905 24.9768 4
3 -1 -4 551.046 25.392 4
-3 1 4 612.604 26.0553 1
-3 1 4 575.24 24.1738 3
-3 1 3 2020.68 80.9973 3
3 -1 -3 1969.09 81.5847 1
-3 1 3 2010.09 84.2441 2
-3 1 3 2033.13 80.788 4
-3 1 3 2026.14 81.6661 1
3 -1 -3 2098.37 81.3283 4
-3 1 3 2003.62 80.3683 3
-3 1 2 551.479 27.7916 2
-3 1 2 506.217 24.335 3
-3 1 2 553.77 23.962 5
-3 1 2 515.055 23.2578 4
3 -1 -2 565.842 24.8076 1
-3 1 2 505.074 26.1692 2
-3 1 2 529.83 24.5191 1
-3 1 2 542.129 23.9041 4
-3 1 2 523.264 23.6731 3
-3 1 1 270.427 14.873 3
-3 1 1 273.664 14.2815 5
3 -1 -1 228.667 14.0278 1
-3 1 1 226.372 15.1499 2
-3 1 1 285.111 14.5582 1
-3 1 1 285.13 14.2919 4
-3 1 1 278.085 13.4972 4
-3 1 1 251.223 13.7565 3
-3 1 1 272.181 16.9474 2
-3 1 0 1353.56 56.7643 3
-3 1 0 1345.4 56.3342 5
-3 1 0 1316.7 57.4187 2
-3 1 0 1387.09 56.4667 1
-3 1 0 1335.79 55.7782 4
-3 1 0 1292.81 54.9858 4
-3 1 0 1339.93 55.9725 3
-3 1 0 1388.4 58.468 2
-3 1 -1 574.703 26.8788 3
-3 1 -1 551.228 26.827 2
-3 1 -1 548.278 24.8978 4
-3 1 -1 544.28 26.0714 1
-3 1 -1 537.436 25.4782 4
-3 1 -1 559.543 27.0267 1
-3 1 -1 502.403 25.433 3
-3 1 -1 535.677 27.4167 2
-3 1 -2 105.5 9.88015 2
3 -1 2 86.7299 9.5608 2
-3 1 -2 95.5187 9.42086 3
-3 1 -2 100.446 7.66215 4
-3 1 -2 103.721 8.6188 4
-3 1 -2 90.0013 8.52378 1
-3 1 -2 101.644 8.62635 3
-3 1 -2 79.5918 8.58543 1
3 -1 3 624.433 32.1853 2
-3 1 -3 673.763 32.5721 3
-3 1 -3 642.967 30.0012 4
-3 1 -3 656.761 31.0645 1
-3 1 -3 633.158 31.7119 1
-3 1 -3 692.678 31.39 4
-3 1 -3 649.185 31.1342 3
-3 1 -3 641.06 31.608 2
-3 1 -4 188.56 14.498 3
3 -1 4 161.949 13.5588 2
-3 1 -4 202.195 14.1249 1
-3 1 -4 174.649 12.8158 1
-3 1 -4 168.106 11.8478 4
-3 1 -4 171.583 12.8025 3
-3 1 -4 179.641 13.3038 2
-3 1 -5 455.625 25.72 3
-3 1 -5 444.138 25.1445 1
3 -1 5 448.539 23.1752 4
-3 1 -5 438.997 24.0847 1
-3 1 -5 465.738 23.6799 4
-3 1 -5 487.284 24.8111 2
-3 1 -5 447.741 24.3969 3
3 -1 5 437.345 25.2095 2
-3 1 -6 197.877 16.1065 1
-3 1 -6 232.024 17.4911 3
-3 1 -6 255.347 16.2972 1
3 -1 6 245.882 15.1245 4
-3 1 -6 227.706 15.1127 4
-3 1 -6 219.101 15.7819 2
-3 1 -6 222.606 15.9599 3
3 -1 6 243.509 17.1489 2
-3 1 -7 8.06301 6.70004 2
3 -1 7 16.0082 7.37413 2
-3 1 -7 7.86031 6.89566 1
-3 1 -7 14.7844 9.29808 3
3 -1 7 8.88393 5.86571 4
-3 1 -7 12.8356 5.91864 4
-3 1 -7 4.68457 6.32324 1
-3 1 -7 24.9142 7.24771 3
-3 1 -8 1600.73 75.5221 1
-3 1 -8 1819.86 76.498 3
-3 1 -8 1766.68 74.8646 1
3 -1 8 1798.76 73.6613 4
-3 1 -8 1730.15 74.4301 4
-3 1 -8 1653.98 74.129 2
-3 1 -8 1727.67 75.5848 3
3 -1 8 1657.74 75.8577 2
-3 1 -9 210.375 17.6202 1
-3 1 -9 223.805 16.8917 1
3 -1 9 228.409 15.7737 4
-3 1 -9 205.712 15.9754 4
-3 1 -9 205.288 16.5146 2
3 -1 9 220.334 17.5753 2
-3 1 -10 420.534 25.3307 1
-3 1 -10 417.319 25.2118 4
-3 1 -10 399.116 24.6757 2
3 -1 10 434.73 26.7582 2
3 -1 11 171.452 16.6484 2
-3 1 -11 147.75 14.5963 4
3 -1 12 219.145 20.2653 2
-3 1 -12 252.643 19.6629 3
-3 1 -12 236.625 19.0165 4
3 -1 13 21.1987 10.6044 2
-3 1 -13 53.712 11.4884 4
-3 1 -13 46.0484 11.5629 3
3 -1 14 98.7057 15.5099 2
-3 1 -14 133.332 17.0443 1
-3 1 -14 90.0749 14.5945 4
-3 1 -14 95.1433 14.2399 3
3 -1 15 -3.66362 11.1291 2
-3 1 -15 -1.73667 10.915 1
-3 1 -15 13.8241 11.1244 4
-3 1 -15 3.26474 10.7522 3
3 -1 16 -1.93438 11.858 2
-3 1 -16 14.7851 11.9009 4
-3 1 -16 10.2292 10.3617 3
-3 0 17 24.6333 13.9232 2
3 0 -16 116.265 12.3128 1
3 0 -16 121.35 13.0348 4
-3 0 16 127.553 17.6568 2
3 0 -15 1005.21 45.9753 4
-3 0 15 968.68 51.2613 2
3 0 -15 1035.54 46.285 1
-3 0 15 953.403 46.4216 1
-3 0 14 64.7632 10.3592 1
3 0 -14 72.5248 10.2572 1
-3 0 14 67.9416 8.59919 4
3 0 -14 60.7306 9.18123 4
-3 0 14 65.4574 13.0951 2
-3 0 13 16.4962 7.60262 1
3 0 -13 10.1066 6.95923 1
-3 0 13 14.11 5.75368 4
3 0 -13 6.84765 6.07774 4
-3 0 13 13.5304 9.14449 2
-3 0 12 4.06872 6.83659 1
3 0 -12 -3.99685 6.30269 1
-3 0 12 4.21907 4.89453 4
3 0 -12 8.09117 5.84393 4
-3 0 12 7.0597 8.42616 2
3 0 -12 0.67499 1.42171 3
3 0 -12 2.27249 1.37306 3
-3 0 11 187.882 12.5796 1
-3 0 11 181.226 10.2211 4
3 0 -11 161.196 10.442 4
3 0 -11 169.469 11.872 1
-3 0 11 166.942 15.1872 2
-3 0 10 390.887 17.8603 3
-3 0 10 495.366 23.0332 1
-3 0 10 513.368 20.4074 4
-3 0 10 538.917 27.6263 2
3 0 -10 448.235 20.7251 4
3 0 -10 536.362 23.3452 1
3 0 -10 382.676 17.5275 3
-3 0 9 988.381 42.7072 3
-3 0 9 1212.28 47.3206 1
3 0 -9 1154.12 50.4696 2
-3 0 9 1087.44 43.925 4
-3 0 9 1180.33 51.3014 2
3 0 -9 1056.05 44.509 4
3 0 -9 1168.95 47.1401 1
3 0 -9 1044.65 42.4115 3
-3 0 8 422.946 17.9344 3
-3 0 8 436.243 21.2623 1
3 0 -8 439.245 24.0844 2
-3 0 8 400.286 17.9746 4
-3 0 8 375.191 23.4894 2
3 0 -8 400.126 20.9045 1
3 0 -8 369.828 18.3895 4
3 0 -8 416.21 17.4726 3
-3 0 7 49.3034 6.66016 1
3 0 -7 32.3376 6.14808 1
-3 0 7 35.5403 4.18807 3
-3 0 7 41.5037 3.68296 4
3 0 -7 32.9164 7.9328 2
-3 0 7 60.6351 8.86957 2
3 0 -7 32.2802 4.16645 4
3 0 -7 42.1432 3.98562 3
-3 0 6 558.258 23.0663 3
3 0 -6 556.582 27.8673 2
-3 0 6 512.178 21.4359 4
3 0 -6 576.836 25.5975 1
-3 0 6 561.568 28.3534 2
3 0 -6 468.194 21.735 4
3 0 -6 568.802 22.8044 3
-3 0 6 536.599 25.3978 1
3 0 -5 208.969 14.6579 2
-3 0 5 189.986 8.66883 4
-3 0 5 210.081 14.7721 2
3 0 -5 223.201 12.8558 1
-3 0 5 197.346 12.5784 1
3 0 -5 222.005 10.7885 3
-3 0 5 207.694 10.8856 3
-3 0 4 7.12904 3.26994 3
-3 0 4 4.05924 1.37286 4
-3 0 4 9.37613 4.59908 1
-3 0 4 3.5346 1.52191 4
-3 0 4 1.79869 5.1708 2
3 0 -4 5.90079 3.47753 3
3 0 -4 4.26115 4.13079 1
-3 0 3 606.844 30.3273 2
-3 0 3 559.813 24.2189 5
-3 0 3 565.038 23.033 4
-3 0 3 539.238 28.4319 2
3 0 -3 596.006 27.201 1
-3 0 3 570.759 23.2038 4
-3 0 3 570.955 26.926 1
3 0 -3 569.224 25.4757 3
-3 0 3 587.085 25.7089 3
-3 0 2 449.889 24.8139 2
-3 0 2 438.106 23.6303 2
-3 0 2 441.102 18.5141 4
3 0 -2 444.991 22.0331 1
-3 0 2 424.634 21.8804 1
-3 0 2 431.607 18.8702 4
3 0 -2 440.918 20.76 3
-3 0 2 438.134 20.8595 3
-3 0 1 738.933 34.761 2
3 0 -1 762.51 33.4967 1
-3 0 1 701.292 30.0062 4
-3 0 1 760.009 33.3529 1
-3 0 1 730.316 30.7427 4
3 0 -1 742.531 32.3626 3
-3 0 1 696.288 32.2002 3
-3 0 1 707.119 35.6018 2
-3 0 0 271.226 17.205 2
3 0 0 280.296 16.0762 1
-3 0 0 287.867 13.6565 4
-3 0 0 280.907 16.1909 1
-3 0 0 285.702 14.4362 4
3 0 0 281.717 15.4299 3
-3 0 0 278.178 15.5545 3
-3 0 0 289.488 18.2904 2
3 0 1 314.788 19.2317 2
3 0 1 293.752 16.9409 1
-3 0 -1 279.521 14.4678 4
-3 0 -1 313.841 17.3547 1
-3 0 -1 310.28 15.7722 4
-3 0 -1 270.678 16.2078 3
-3 0 -1 300.52 18.7103 2
-3 0 -2 5.40015 7.0259 2
3 0 2 4.068 5.96273 2
-3 0 -2 4.16162 6.83451 3
3 0 2 4.66267 3.74116 4
-3 0 -2 8.17016 3.48914 4
3 0 2 5.90321 4.75647 1
-3 0 -2 5.18011 5.09361 1
-3 0 -2 11.0762 5.08259 3
-3 0 -3 4.54366 6.97755 2
3 0 3 4.22268 6.30209 2
-3 0 -3 3.60786 7.00127 3
3 0 3 4.80151 4.87876 4
-3 0 -3 6.15517 3.7168 4
-3 0 -3 9.31416 6.62142 1
-3 0 -3 0.78067 5.55056 1
-3 0 -3 1.61469 4.90763 3
-3 0 -4 8.33682 6.67165 2
-3 0 -4 4.954 6.12914 1
3 0 4 2.20422 6.3383 2
-3 0 -4 21.3933 8.39499 3
3 0 4 7.80743 4.66725 4
-3 0 -4 5.75876 4.2533 4
-3 0 -4 1.64993 5.71604 1
-3 0 -4 7.89007 5.19001 3
-3 0 -5 76.0514 10.105 2
3 0 5 79.3307 10.3388 2
-3 0 -5 81.4726 11.0818 3
3 0 5 65.8415 7.76764 4
-3 0 -5 91.4511 10.5875 1
-3 0 -5 81.6015 8.00685 4
-3 0 -5 73.3075 9.40574 1
-3 0 -5 89.1145 9.51541 3
-3 0 -6 44.7726 9.27091 1
-3 0 -6 40.5563 9.26921 2
3 0 6 56.6228 10.0166 2
-3 0 -6 52.2382 10.4684 3
3 0 6 63.4586 8.16035 4
-3 0 -6 47.573 7.18446 4
-3 0 -6 26.8028 7.82815 1
-3 0 -6 46.929 7.94877 3
-3 0 -7 1108.56 49.1051 3
-3 0 -7 990.048 48.3173 1
3 0 7 990.453 45.2895 4
-3 0 -7 981.943 46.7435 1
-3 0 -7 1031.93 46.1254 4
-3 0 -7 952.469 47.0065 2
-3 0 -7 995.136 47.576 3
3 0 7 1051.16 49.6597 2
3 0 8 192.038 17.4987 2
-3 0 -8 265.062 18.9091 3
3 0 8 255.625 16.1402 4
-3 0 -8 218.104 15.9283 4
-3 0 -8 216.672 16.7707 2
-3 0 -9 1.08197 8.03754 2
3 0 9 9.98245 8.28523 2
3 0 9 17.6062 7.20267 4
-3 0 -9 13.0959 7.46295 4
3 0 10 1.50966 8.84566 2
-3 0 -10 -8.39538 7.1596 4
3 0 11 118.241 15.565 2
-3 0 -11 99.7557 12.7039 4
-3 0 -11 110.942 14.4305 1
-3 0 -11 71.8518 13.1293 3
-3 0 -12 337.465 23.7155 4
-3 0 -12 354.552 24.1601 3
3 0 12 345.911 26.0769 2
-3 0 -12 366.063 25.7132 1
-3 0 -13 483.204 31.3715 4
-3 0 -13 553.633 32.5238 3
-3 0 -13 496.552 32.3099 1
-3 0 -14 466.54 30.6076 4
-3 0 -14 472.149 30.357 3
-3 0 -14 503.627 31.7984 1
3 0 14 458.922 32.4895 2
3 0 15 3.95522 11.9085 2
-3 0 -15 -1.77685 11.4384 1
-3 0 -15 -1.78751 10.6673 4
-3 0 -15 4.99199 10.6279 3
3 0 16 157.833 20.2412 2
-3 0 -16 184.396 20.5744 4
-3 0 -16 161.096 18.8634 3
3 1 -16 1.106 8.71997 1
-3 -1 15 17.6319 9.49264 1
3 1 -15 25.6396 8.91865 1
3 1 -15 13.8107 6.59876 4
-3 -1 14 376.488 19.5046 3
3 1 -14 377.691 20.8242 4
-3 -1 14 405.495 24.1761 1
3 1 -14 457.471 24.4178 1
-3 -1 13 109.164 12.0204 1
3 1 -13 103.983 7.73592 3
-3 -1 13 90.0162 8.62096 3
3 1 -13 125.289 12.1657 1
-3 -1 13 100.597 8.48777 4
3 1 -13 94.1417 8.96421 4
-3 -1 12 252.348 13.6569 3
-3 -1 12 225.957 16.7346 1
-3 -1 12 200.618 12.2072 4
3 1 -12 234.216 13.2507 4
3 1 -12 275.017 17.0543 1
3 1 -12 226.161 12.39 3
-3 -1 11 226.272 13.1914 3
-3 -1 11 253.599 16.4034 1
-3 -1 11 225.086 11.7332 4
3 1 -11 217.932 12.1594 4
3 1 -11 214.322 15.689 1
3 1 -11 238.246 12.3733 3
-3 -1 10 178.778 11.0886 3
-3 -1 10 214.026 14.5197 1
-3 -1 10 162.692 8.8727 4
3 1 -10 151.202 9.15207 4
3 1 -10 181.441 13.4681 1
3 1 -10 191.371 10.2747 3
-3 -1 9 224.311 11.9488 3
-3 -1 9 214.948 14.0625 1
3 1 -9 198.92 13.6516 1
3 1 -9 160.816 8.83655 4
-3 -1 9 185.075 16.0498 2
3 1 -9 207.263 10.8741 3
-3 -1 8 493.886 23.6631 3
-3 -1 8 537.447 26.2218 1
3 1 -8 508.205 27.92 2
-3 -1 8 462.181 28.0527 2
3 1 -8 505.924 25.973 1
3 1 -8 522.669 23.036 3
-3 -1 7 269.223 16.5489 1
-3 -1 7 249.139 14.4017 3
3 1 -7 291.039 18.4339 2
-3 -1 7 269.032 18.5109 2
3 1 -7 262.135 16.3332 1
3 1 -7 279.801 14.0007 3
3 1 -6 515.689 26.6098 2
-3 -1 6 468.25 26.375 2
3 1 -6 447.579 24.0829 1
3 1 -6 505.57 22.1122 3
-3 -1 6 461.502 24.1997 1
-3 -1 6 453.739 22.4582 3
3 1 -5 393.082 21.4505 1
-3 -1 5 404.478 23.2991 2
-3 -1 5 439.239 21.8616 1
3 1 -5 406.617 19.4997 3
-3 -1 5 394.375 19.8915 3
-3 -1 4 196.651 16.3642 2
-3 -1 4 194.978 14.6101 2
3 1 -4 183.183 13.0219 1
-3 -1 4 192.669 13.0986 1
3 1 -4 188.794 11.575 3
-3 -1 4 207.39 12.1846 3
-3 -1 3 1.75808 3.88959 3
-3 -1 3 1.07689 8.08305 2
-3 -1 3 2.14513 5.08236 1
-3 -1 3 4.8626 5.96045 2
3 1 -3 0.52857 4.37992 3
3 1 -3 5.28374 5.3305 1
-3 -1 2 16.8057 5.00889 3
-3 -1 2 19.9388 8.55791 2
-3 -1 2 21.8369 6.07207 1
-3 -1 2 16.3035 5.91994 2
3 1 -2 22.2386 5.99301 1
3 1 -2 16.3826 5.29034 3
-3 -1 1 287.658 17.8866 2
3 1 -1 272.027 16.4907 1
-3 -1 1 264.249 12.1195 4
-3 -1 1 249.789 15.9315 1
-3 -1 1 270.059 12.4473 4
3 1 -1 285.431 15.4863 3
-3 -1 1 236.692 15.1418 3
-3 -1 1 287.923 18.7839 2
-3 -1 0 322.074 20.1121 2
3 1 0 323.103 18.9246 1
-3 -1 0 336.788 15.5994 4
-3 -1 0 362.348 19.4452 1
3 1 0 327.321 18.1083 3
-3 -1 0 326.298 18.4085 3
-3 -1 0 342.048 21.0907 2
3 1 1 461.376 26.3828 2
3 1 1 453.258 20.8488 4
3 1 1 428.381 23.8914 1
-3 -1 -1 479.079 21.3057 4
-3 -1 -1 449.535 24.0327 1
3 1 1 466.03 23.4526 3
-3 -1 -1 478.862 23.8995 3
-3 -1 -1 432.397 25.5208 2
3 1 2 476.061 28.9442 2
3 1 2 503.057 27.114 1
3 1 2 533.562 24.5429 4
-3 -1 -2 540.088 24.9435 4
-3 -1 -2 549.966 27.6038 1
3 1 2 567.434 27.0525 3
-3 -1 -2 557.343 27.3945 3
-3 -1 -2 567.731 29.3511 2
3 1 3 387.73 21.7397 1
3 1 3 392.724 19.245 4
-3 -1 -3 398.035 19.7391 4
-3 -1 -3 407.125 22.0525 1
3 1 3 376.95 20.9051 3
-3 -1 -3 352.834 21.29 3
-3 -1 -3 365.716 22.9309 2
3 1 3 385.93 23.9688 2
-3 -1 -4 88.4305 11.7693 2
3 1 4 96.0829 11.8884 2
3 1 4 82.9391 7.97935 4
-3 -1 -4 76.9063 8.22575 4
3 1 4 77.1178 9.41867 3
-3 -1 -4 83.1882 9.96024 1
-3 -1 -4 90.634 9.75221 3
3 1 5 306.654 16.7114 4
-3 -1 -5 286.428 17.0948 4
-3 -1 -5 270.911 18.3653 1
-3 -1 -5 294.492 19.7587 1
-3 -1 -5 282.663 19.1751 2
-3 -1 -5 278.135 18.509 3
3 1 5 290.248 20.4925 2
-3 -1 -6 5.34872 7.79486 2
3 1 6 -2.76504 8.32503 2
-3 -1 -6 2.32441 8.97011 3
3 1 6 -2.18806 5.69018 4
-3 -1 -6 2.60117 5.40439 4
-3 -1 -6 1.08681 6.42646 3
-3 -1 -7 373.706 23.0415 3
3 1 7 326.72 19.0657 4
-3 -1 -7 316.158 20.0814 4
-3 -1 -7 320.813 21.3255 2
3 1 7 339.343 23.7143 2
3 1 8 199.739 18.9129 2
3 1 8 228.111 15.6345 4
-3 -1 -8 247.941 16.8435 4
3 1 9 109.772 14.7359 2
3 1 9 103.353 11.4509 4
-3 -1 -9 119.138 12.8644 4
-3 -1 -9 155.622 15.4196 1
-3 -1 -9 94.834 12.8199 1
3 1 10 63.2422 12.7103 2
-3 -1 -10 68.971 12.5502 1
-3 -1 -10 68.941 11.2646 4
-3 -1 -10 45.2422 11.546 3
3 1 11 179.055 18.8185 2
-3 -1 -11 190.189 18.5129 1
-3 -1 -11 215.471 17.7863 4
-3 -1 -11 185.603 18.1922 3
-3 -1 -12 68.8212 13.4605 1
3 1 12 62.7761 14.1678 2
-3 -1 -12 94.9693 13.6108 4
-3 -1 -12 79.8344 13.0497 3
3 1 13 46.5493 14.2156 2
-3 -1 -13 45.1675 11.9245 4
-3 -1 -13 31.801 12.5834 1
-3 -1 -13 37.7385 11.2793 3
3 1 14 193.133 22.7698 2
-3 -1 -14 191.279 20.0295 4
-3 -1 -14 223.347 21.472 1
-3 -1 -14 206.398 19.5519 3
3 1 15 344.863 29.3664 2
-3 -1 -15 423.609 29.184 4
-3 -1 -15 336.352 26.5079 3
3 2 -16 3.73843 8.74327 1
-3 -2 16 5.44994 11.134 2
-3 -2 15 132.261 12.2215 3
3 2 -15 148.579 15.2016 1
-3 -2 15 146.92 17.1442 2
-3 -2 14 15.9395 7.47147 3
3 2 -14 1.16787 8.72873 1
3 2 -14 15.7227 5.23999 4
-3 -2 14 14.8032 10.0916 2
-3 -2 13 93.4336 10.2685 3
3 2 -13 92.9143 7.87056 4
3 2 -13 87.9504 11.8875 1
-3 -2 13 96.8014 14.1384 2
-3 -2 13 79.2474 11.8799 1
3 2 -12 3.26319 7.88462 1
3 2 -12 8.93975 5.49933 3
-3 -2 12 14.256 6.73163 3
3 2 -12 11.0165 3.91453 4
-3 -2 12 20.2871 8.425 1
-3 -2 12 -2.96735 8.61575 2
3 2 -12 5.91932 4.06315 4
3 2 -11 30.6854 6.17455 3
-3 -2 11 6.64918 6.21613 3
3 2 -11 25.1666 8.0784 1
-3 -2 11 20.3514 9.07005 1
3 2 -11 18.0812 3.38072 4
3 2 -11 15.5776 3.45787 4
-3 -2 10 209.708 14.0374 3
-3 -2 10 224.997 16.2601 1
3 2 -10 193.518 15.5735 1
3 2 -10 219.149 13.2054 3
-3 -2 9 452.818 23.228 3
-3 -2 9 423.553 24.7726 1
3 2 -9 442.854 25.0167 1
3 2 -9 479.634 22.4505 3
-3 -2 8 1106.68 49.1141 3
-3 -2 8 1154.03 51.1234 1
3 2 -8 1098.77 50.8987 1
3 2 -8 1139.67 48.1011 3
3 2 -7 20.3206 5.5379 3
-3 -2 7 32.9702 6.288 3
3 2 -7 27.5739 6.85079 1
-3 -2 7 24.1718 7.37815 1
3 2 -6 19.3561 5.64378 3
3 2 -6 14.4127 6.39516 1
-3 -2 6 18.2235 5.84469 3
-3 -2 6 16.6185 6.673 1
3 2 -5 189.811 14.0034 1
-3 -2 5 195.317 13.9369 1
3 2 -5 196.949 12.3039 3
-3 -2 5 175.627 12.7433 3
3 2 -4 64.848 8.58474 1
-3 -2 4 66.6371 7.86089 3
-3 -2 4 59.7383 8.50358 1
3 2 -4 78.0416 7.7728 3
-3 -2 3 29.8482 6.08541 3
-3 -2 3 21.7887 6.6466 1
3 2 -3 20.6955 5.83257 3
3 2 -3 32.0793 6.87393 1
3 2 -2 271.06 17.2978 1
-3 -2 2 242.299 16.4086 1
3 2 -2 272.538 15.7893 3
-3 -2 2 264.018 16.0959 3
3 2 -1 688.36 27.9138 4
3 2 -1 684.095 33.5425 1
-3 -2 1 679.064 28.2249 4
-3 -2 1 738.891 33.6227 1
3 2 -1 654.407 31.8293 3
-3 -2 1 616.035 32.094 3
3 2 0 624.047 26.7577 4
3 2 0 609.292 31.2876 1
-3 -2 0 629.815 27.2743 4
-3 -2 0 653.845 31.3932 1
3 2 0 628.927 30.3431 3
-3 -2 0 620.06 30.9317 3
-3 -2 -1 1.75939 5.29733 3
-3 -2 -1 -1.79484 5.91102 1
3 2 1 -5.07742 7.64368 2
3 2 1 -0.39187 3.51155 4
-3 -2 -1 -2.81625 4.06807 4
3 2 1 -1.88696 5.68142 1
3 2 1 3.12217 6.15404 3
-3 -2 -2 -1.85443 5.73097 3
-3 -2 -2 -0.92499 6.09251 1
3 2 2 2.60465 7.70082 2
3 2 2 0.93794 4.11662 4
-3 -2 -2 -0.57123 4.21283 4
3 2 2 4.80511 5.93993 1
3 2 2 2.45613 6.00191 3
-3 -2 -3 20.6338 6.85913 3
-3 -2 -3 17.221 7.86138 1
-3 -2 -3 10.2355 8.39712 2
3 2 3 5.38536 8.04463 2
3 2 3 10.3401 4.54794 4
-3 -2 -3 5.36908 4.99542 4
3 2 3 5.91357 5.78792 1
3 2 3 17.1648 7.31988 3
-3 -2 -4 53.0915 8.48512 3
-3 -2 -4 38.0405 10.1853 2
3 2 4 51.731 10.0064 2
3 2 4 59.2493 7.07492 4
-3 -2 -4 53.0282 7.50506 4
3 2 4 46.736 8.69421 3
3 2 5 5097.22 206.532 4
-3 -2 -5 5268.94 208.366 4
3 2 5 5342.79 208.941 3
-3 -2 -5 5157.99 210.575 2
-3 -2 -5 5297.87 210.244 3
3 2 5 5337.18 213.522 2
3 2 6 5111.06 209.214 4
-3 -2 -6 5284.33 211.197 4
-3 -2 -6 5363.05 212.919 2
3 2 6 5410.34 211.454 3
-3 -2 -6 5332.63 213.033 3
3 2 6 5344.89 216.319 2
-3 -2 -7 234.324 18.0533 1
3 2 7 188.021 18.3952 2
3 2 7 189.038 13.9969 4
-3 -2 -7 200.735 16.7274 1
-3 -2 -7 201.18 15.5664 4
3 2 8 105.967 15.1116 2
-3 -2 -8 134.469 14.2925 1
3 2 8 126.575 12.0773 4
-3 -2 -8 129.842 12.7777 4
-3 -2 -8 104.283 12.5801 1
-3 -2 -9 17.757 9.24603 1
3 2 9 8.80324 10.7159 2
-3 -2 -9 21.187 8.35564 4
3 2 10 38.5634 13.0803 2
-3 -2 -10 26.8878 9.09398 4
-3 -2 -10 15.4296 9.97189 1
-3 -2 -10 18.538 8.70812 3
-3 -2 -11 413.756 28.7688 1
-3 -2 -11 449.849 27.6036 4
-3 -2 -11 400.608 27.0196 3
3 2 11 437.669 30.6204 2
-3 -2 -12 665.731 38.2746 1
-3 -2 -12 674.255 37.5352 4
-3 -2 -12 695.994 37.9075 3
3 2 12 570.938 38.9971 2
-3 -2 -13 30.9434 12.5304 1
3 2 13 43.8757 15.1042 2
-3 -2 -13 51.3274 12.1479 4
-3 -2 -13 27.3758 10.5432 3
3 2 14 6.55016 14.0633 2
-3 -2 -14 8.8176 11.0022 4
-3 -2 -14 20.0175 11.3996 3
3 2 15 4.54518 13.5643 2
-3 -2 -15 13.095 12.2319 4
-3 -2 -15 3.45106 11.7023 3
3 3 -16 81.7554 13.15 1
-3 -3 16 60.557 13.8889 2
-3 -3 15 159.401 15.133 3
3 3 -15 202.089 18.1684 1
-3 -3 15 185.954 19.484 2
-3 -3 14 127.574 13.3683 3
3 3 -14 126.909 15.0199 1
-3 -3 14 152.392 17.3811 2
-3 -3 13 208.49 16.4971 3
3 3 -13 198.039 17.7805 1
-3 -3 13 241.423 20.1509 2
-3 -3 12 537.316 25.8721 3
-3 -3 12 533.85 30.0051 2
3 3 -12 541.823 28.0332 1
3 3 -12 533.662 24.3589 3
-3 -3 11 491.931 27.2318 3
-3 -3 11 527.823 30.8958 2
3 3 -11 526.01 29.2814 1
3 3 -11 520.363 26.3339 3
-3 -3 10 296.656 19.12 3
-3 -3 10 318.071 21.0136 1
-3 -3 10 312.697 22.1738 2
3 3 -10 329.294 21.0561 1
3 3 -10 294.498 18.0324 3
-3 -3 9 263.151 17.8092 3
-3 -3 9 251.828 18.7037 1
-3 -3 9 277.185 20.1861 2
3 3 -9 256.736 18.7988 1
3 3 -9 337.971 17.9048 3
-3 -3 8 436.033 24.6685 3
-3 -3 8 512.103 26.9306 1
-3 -3 8 453.695 20.7617 5
-3 -3 8 469.412 27.852 2
3 3 -8 409.916 25.4831 1
3 3 -8 479.419 23.9086 3
-3 -3 7 470.046 25.4444 3
-3 -3 7 494.581 22.253 5
-3 -3 7 465.314 27.9351 2
3 3 -7 460.97 26.6799 1
3 3 -7 519.153 24.8635 3
-3 -3 7 429.245 26.0588 1
-3 -3 6 599.688 32.4532 2
3 3 -6 599.883 31.1179 1
3 3 -6 573.413 28.4359 3
-3 -3 6 588.053 30.752 1
-3 -3 6 579.042 29.7743 3
3 3 -5 74.0843 9.25434 3
3 3 -5 56.0849 8.96692 1
-3 -3 5 52.6575 8.39491 3
-3 -3 5 47.4394 11.8278 2
-3 -3 5 50.8318 9.8954 2
-3 -3 5 64.2546 9.40705 1
-3 -3 4 1261.42 58.3399 2
3 3 -4 1194.49 56.7022 1
-3 -3 4 1307.86 57.0619 1
3 3 -4 1246.73 54.9967 3
-3 -3 4 1276.65 56.2686 3
-3 -3 4 1352.98 59.7901 2
-3 -3 3 649.928 34.0011 2
3 3 -3 630.046 32.4917 1
-3 -3 3 617.399 32.0092 1
3 3 -3 657.187 30.8929 3
-3 -3 3 627.267 31.6854 3
-3 -3 3 602.555 34.0929 2
-3 -3 2 29.9406 7.32304 3
-3 -3 2 56.0681 11.3001 2
-3 -3 2 34.6651 8.10453 1
3 3 -2 40.7544 3.34036 4
-3 -3 2 30.6506 8.06436 2
-3 -3 2 32.5422 3.84588 4
3 3 -2 40.4005 8.16481 1
3 3 -2 42.151 7.59887 3
-3 -3 1 768.781 40.0725 2
3 3 -1 805.473 33.2983 4
3 3 -1 796.771 39.2215 1
-3 -3 1 804.916 33.993 4
-3 -3 1 791.773 38.7776 1
3 3 -1 824.595 37.9005 3
-3 -3 1 787.97 38.6367 3
-3 -3 1 853.516 41.5425 2
3 3 0 670.836 28.6928 4
3 3 0 702.668 34.3344 1
-3 -3 0 668.862 29.5123 4
-3 -3 0 680.231 33.5902 1
3 3 0 655.733 32.5021 3
-3 -3 0 630.286 33.4511 3
-3 -3 0 630.662 35.2429 2
-3 -3 -1 78.1188 9.58155 3
-3 -3 -1 77.1415 12.3807 2
-3 -3 -1 52.0066 9.31001 1
3 3 1 79.3364 6.75626 4
-3 -3 -1 70.7648 7.26619 4
3 3 1 71.7003 9.90598 1
3 3 1 72.3653 9.50529 3
3 3 2 237.243 13.5345 4
-3 -3 -2 238.989 14.5782 4
3 3 2 232.716 16.567 3
-3 -3 -2 246.873 17.37 3
3 3 3 600.999 27.9031 4
-3 -3 -3 587.522 29.2178 4
3 3 3 588.944 30.5999 3
-3 -3 -3 608.241 31.8548 3
3 3 4 932.256 41.8514 4
-3 -3 -4 1008 43.9865 4
-3 -3 -4 896.083 45.4439 3
3 3 5 520.813 26.2246 4
-3 -3 -5 510.946 27.693 4
-3 -3 -5 513.551 29.1054 1
-3 -3 -5 544.655 29.7828 3
3 3 6 584.441 28.8363 4
-3 -3 -6 558.898 30.4117 4
-3 -3 -6 571.318 31.255 1
3 3 7 0.86861 6.44416 4
-3 -3 -7 -1.1531 7.18738 4
-3 -3 -7 5.87578 8.76623 1
-3 -3 -8 68.3839 12.8554 1
-3 -3 -8 54.9326 9.90539 4
-3 -3 -9 368.573 24.3339 4
-3 -3 -9 363.132 25.9475 1
-3 -3 -9 354.474 24.5884 3
-3 -3 -10 85.9908 14.6647 1
-3 -3 -10 64.9218 11.7673 4
-3 -3 -11 64.4769 13.0709 3
-3 -3 -11 56.9448 12.6181 4
-3 -3 -11 41.8744 12.5985 1
-3 -3 -12 16.2766 10.4076 3
3 3 12 21.5866 14.3324 2
-3 -3 -12 15.548 12.129 1
-3 -3 -12 4.91062 10.0434 4
-3 -3 -13 11.7681 11.5604 3
3 3 13 4.483 13.8561 2
-3 -3 -13 1.73528 10.8183 4
-3 -4 15 9.72343 9.65144 3
3 4 -15 14.8921 10.802 1
-3 -4 15 26.6787 12.159 2
-3 -4 14 9.68192 9.73846 3
3 4 -14 -1.45214 10.3858 1
-3 -4 14 -6.82204 11.3169 2
-3 -4 13 94.1286 12.9444 3
3 4 -13 82.0408 13.7592 1
-3 -4 13 111.351 15.5662 2
-3 -4 12 156.032 15.2971 3
3 4 -12 148.559 15.5845 1
-3 -4 12 176.734 17.8211 2
3 4 -11 36.8306 8.83494 3
-3 -4 11 36.5314 10.093 3
3 4 -11 44.1542 10.8725 1
-3 -4 11 42.5769 11.1159 2
-3 -4 10 201.354 16.6893 3
3 4 -10 203.336 17.8459 1
-3 -4 10 265.875 19.9952 2
3 4 -10 228.455 16.4025 3
3 4 -9 38.0994 8.7633 3
-3 -4 9 27.8484 9.13871 3
3 4 -9 39.4668 10.817 1
-3 -4 9 32.6213 6.41058 5
-3 -4 9 25.774 9.72079 2
3 4 -8 -4.40399 7.56746 3
3 4 -8 4.98637 8.14925 1
-3 -4 8 -5.47464 7.68093 3
-3 -4 8 3.70689 5.53595 5
-3 -4 8 6.95119 7.83083 2
3 4 -7 67.5373 9.65577 3
3 4 -7 63.643 10.871 1
-3 -4 7 86.8823 10.9674 3
-3 -4 7 83.42 11.8657 1
3 4 -6 137.817 12.6883 3
3 4 -6 154.056 14.5593 1
-3 -4 6 167.856 14.0095 3
-3 -4 6 142.588 14.6019 2
-3 -4 6 159.733 14.691 1
-3 -4 5 518.326 29.8461 2
3 4 -5 549.574 29.2458 1
-3 -4 5 498.854 28.2998 1
3 4 -5 511.287 26.8195 3
-3 -4 5 463.108 27.4338 3
3 4 -4 61.2781 9.04313 3
3 4 -4 66.0755 10.2219 1
-3 -4 4 51.2089 9.21243 3
3 4 -4 44.1742 2.56659 4
3 4 -4 36.0005 2.66982 4
-3 -4 4 47.7217 10.2445 2
-3 -4 4 68.5421 10.116 1
-3 -4 3 569.806 31.2157 2
3 4 -3 542.404 22.4094 4
3 4 -3 513.358 29.3355 1
-3 -4 3 503.152 22.907 4
-3 -4 3 543.477 29.2082 1
3 4 -3 596.577 28.5344 3
-3 -4 3 532.61 29.1313 3
-3 -4 2 440.552 27.8509 2
3 4 -2 482.773 21.0085 4
3 4 -2 479.286 27.4371 1
-3 -4 2 484.87 21.9644 4
-3 -4 2 478.006 27.0015 1
3 4 -2 507.602 26.1754 3
-3 -4 2 453.829 26.8523 3
-3 -4 1 161.657 14.2257 3
3 4 -1 179.607 9.93214 4
-3 -4 1 167.347 14.3829 1
-3 -4 1 141.569 14.9925 2
-3 -4 1 173.71 10.8851 4
3 4 -1 134.452 13.6745 1
3 4 -1 165.482 14.1006 3
-3 -4 0 173.237 14.9725 3
3 4 0 184.64 10.8835 4
-3 -4 0 184.935 11.773 4
3 4 0 153.711 14.0607 3
-3 -4 -1 67.5962 10.723 3
3 4 1 82.7648 12.7743 2
3 4 1 70.2621 7.21306 4
-3 -4 -1 86.0607 8.53785 4
-3 -4 -2 77.1036 11.0801 3
3 4 2 67.3114 12.2743 2
3 4 2 81.2322 8.30784 4
-3 -4 -2 85.1263 8.9214 4
3 4 3 366.85 26.2684 2
3 4 3 426.095 24.7521 1
3 4 3 365.292 20.1245 4
-3 -4 -3 381.522 21.7535 4
-3 -4 -3 401.279 24.0105 1
-3 -4 -3 366.474 24.102 3
3 4 4 480.667 28.6125 1
3 4 4 495.012 25.5285 4
-3 -4 -4 532.254 27.5741 4
-3 -4 -4 528.372 29.9684 3
3 4 4 510.474 32.2966 2
3 4 5 107.826 15.3273 2
3 4 5 104.558 11.038 4
3 4 5 153.104 14.068 1
-3 -4 -5 115.869 12.3144 4
3 4 6 -1.83102 11.2209 2
3 4 6 0.86664 6.57887 4
3 4 6 -1.27969 8.17326 1
-3 -4 -6 2.35101 7.38771 4
3 4 7 3.81101 11.9755 2
-3 -4 -7 -2.55023 8.14404 4
-3 -4 -8 37.3811 12.3951 1
-3 -4 -8 45.7878 11.1172 3
3 4 8 31.7521 13.7883 2
-3 -4 -8 16.4831 9.45396 4
-3 -4 -9 11.0576 9.6154 3
3 4 9 22.7042 14.0075 2
-3 -4 -9 19.1053 10.259 4
-3 -4 -9 13.3306 11.0732 1
-3 -4 -10 200.517 19.2095 3
3 4 10 158.574 20.909 2
-3 -4 -10 189.444 19.8473 1
-3 -4 -10 189.683 19.2066 4
-3 -4 -11 68.9122 13.6679 3
-3 -4 -11 84.5254 14.1921 4
-3 -4 -11 61.3857 14.5158 1
-3 -4 -12 188.329 19.2753 3
-3 -4 -12 161.143 19.3039 4
-3 -5 13 300.342 23.3012 3
-3 -5 13 340.427 25.4468 2
-3 -5 12 8.1779 9.43651 3
3 5 -12 -6.07947 10.1607 1
-3 -5 12 11.3595 9.59758 2
-3 -5 11 -1.33388 9.66107 3
3 5 -11 -10.4117 10.5034 1
-3 -5 11 1.57816 9.5041 2
3 5 -10 29.1227 10.9903 1
-3 -5 10 54.2109 11.2799 3
-3 -5 10 38.9913 7.59845 5
-3 -5 10 56.8218 11.8387 2
3 5 -9 29.9937 10.1725 1
-3 -5 9 32.7475 9.86506 3
-3 -5 9 30.4666 7.63407 5
-3 -5 9 53.8825 11.6285 2
-3 -5 8 307.907 22.0593 3
-3 -5 8 347.398 19.9552 5
-3 -5 8 306.405 23.1248 2
3 5 -8 367.681 24.0741 1
3 5 -7 -2.75891 9.35335 1
-3 -5 7 -1.2857 8.01403 3
-3 -5 7 -1.42713 8.20131 2
3 5 -6 133.291 14.488 1
-3 -5 6 108.899 12.6221 3
3 5 -6 55.6848 3.77107 4
3 5 -6 69.1771 3.77516 4
-3 -5 6 82.6624 12.2434 2
3 5 -5 -4.02894 8.23007 1
-3 -5 5 1.28135 8.0529 3
3 5 -5 2.66673 2.77611 4
3 5 -5 -1.3016 2.63009 4
-3 -5 5 9.70232 8.92251 2
3 5 -4 -3.9916 8.57154 1
-3 -5 4 23.1207 8.65393 3
3 5 -4 9.23736 3.31297 4
-3 -5 4 1.38455 8.41785 2
-3 -5 4 9.58728 4.71394 4
3 5 -3 35.6486 9.69457 1
-3 -5 3 29.6279 9.23226 3
-3 -5 3 31.9693 10.1984 2
3 5 -3 29.3303 4.75192 4
-3 -5 3 32.8445 5.90613 4
-3 -5 2 286.286 21.2838 2
3 5 -2 312.653 15.1291 4
-3 -5 2 279.445 16.0005 4
-3 -5 2 263.713 20.0283 3
-3 -5 1 208.575 17.226 3
3 5 -1 209.591 12.3647 4
-3 -5 1 217.159 18.5178 2
-3 -5 1 215.267 13.7335 4
3 5 0 172.518 11.5326 4
-3 -5 0 138.897 15.5189 2
-3 -5 0 158.86 12.7165 4
3 5 1 404.934 21.0889 4
3 5 1 412.379 25.637 1
-3 -5 -1 413.486 22.6129 4
-3 -5 -1 405.835 25.726 3
-3 -5 -2 13.9035 8.45704 3
3 5 2 7.03875 10.317 2
3 5 2 12.5391 6.40506 4
-3 -5 -2 11.0121 7.17169 4
3 5 2 7.96005 8.87761 1
3 5 3 377.818 26.8416 2
3 5 3 340.322 23.1995 1
3 5 3 336.013 19.4037 4
-3 -5 -3 330.745 20.9432 4
-3 -5 -3 336.954 23.2926 3
3 5 4 -9.31694 10.6031 2
3 5 4 9.0387 7.12225 4
-3 -5 -4 4.40703 7.62727 4
3 5 4 1.34663 8.39426 1
3 5 5 69.1546 14.6114 2
3 5 5 63.9961 12.0364 1
-3 -5 -5 56.3953 10.6659 4
3 5 6 99.0663 16.4938 2
3 5 6 95.1798 13.3398 1
-3 -5 -6 110.535 13.0272 4
-3 -5 -7 142.76 16.5933 3
3 5 7 116.424 18.4902 2
-3 -5 -7 117.563 14.8657 4
-3 -5 -8 107.047 15.2647 3
3 5 8 95.2396 17.1484 2
-3 -5 -8 107.475 16.7985 1
-3 -5 -8 101.989 14.8664 4
-3 -5 -9 98.17 15.6319 3
-3 -5 -9 81.2712 15.1771 1
3 5 9 59.1968 16.2869 2
-3 -5 -9 89.4499 14.8829 4
-3 -5 -10 7.05676 11.0888 3
3 5 10 -2.27099 14.2735 2
-3 -5 -10 6.76577 10.8045 4
-3 -6 12 35.6566 12.3898 3
-3 -6 12 74.8689 13.9319 2
-3 -6 11 9.16894 10.6727 3
-3 -6 11 29.273 11.5049 2
-3 -6 10 156.428 16.9702 3
-3 -6 10 116.069 15.7877 2
3 6 -9 110.816 15.5004 1
-3 -6 9 123.763 16.0326 3
-3 -6 9 112.117 15.8231 2
3 6 -8 7.78593 10.1033 1
-3 -6 8 5.98738 9.63692 3
-3 -6 8 4.03683 7.87485 5
-3 -6 8 -1.52536 9.50872 2
3 6 -7 3.07177 10.1193 1
-3 -6 7 16.3851 9.59215 3
-3 -6 7 1.49967 9.58154 2
-3 -6 6 562.514 31.7388 3
3 6 -6 498.388 22.1677 4
-3 -6 6 489.499 30.6216 2
3 6 -6 522.713 31.5464 1
3 6 -5 -2.99324 9.71052 1
-3 -6 5 -5.93731 9.55641 3
-3 -6 5 -2.93902 8.85016 2
-3 -6 4 1131.94 54.3595 2
-3 -6 4 1094.58 46.9107 4
-3 -6 4 1055.58 53.5626 3
-3 -6 3 1273.93 60.0434 2
-3 -6 3 1271.89 53.2776 4
-3 -6 3 1142.98 58.8251 3
-3 -6 2 263.303 20.8729 2
3 6 -2 229.415 14.2454 4
-3 -6 2 232.946 15.7953 4
-3 -6 2 282.104 20.9382 3
-3 -6 1 219.351 19.565 3
3 6 -1 234.196 14.542 4
-3 -6 1 216.781 19.3624 2
-3 -6 1 243.532 15.9366 4
3 6 -1 232.219 20.085 1
-3 -6 0 39.4653 10.6506 3
-3 -6 0 34.0023 10.9838 2
3 6 0 27.3647 6.4692 4
-3 -6 0 46.3498 9.01287 4
3 6 0 18.8168 10.556 1
-3 -6 -1 225.106 19.3709 3
3 6 1 190.2 13.9446 4
-3 -6 -1 226.603 16.1648 4
3 6 1 170.61 18.1769 1
3 6 2 1061.39 55.9176 2
3 6 2 1061.78 52.313 1
3 6 2 1071.37 47.607 4
-3 -6 -2 1055.87 49.5495 4
-3 -6 -2 1034.67 52.9094 3
3 6 3 793.361 45.1699 2
3 6 3 767.705 41.3002 1
3 6 3 790.851 37.4001 4
-3 -6 -3 786.312 39.6898 4
-3 -6 -3 764.334 42.4278 3
3 6 4 8.04097 11.8931 2
-3 -6 -4 11.1516 8.98172 4
3 6 4 10.1904 9.87809 1
3 6 5 4.13627 13.1045 2
3 6 5 -10.2652 10.0832 1
-3 -6 -5 -1.3317 9.21926 4
-3 -6 -6 -3.45045 10.2043 3
3 6 6 2.12245 12.7829 2
3 6 6 11.8371 10.652 1
-3 -6 -6 14.3085 10.1715 4
-3 -6 -7 -8.85878 10.858 3
3 6 7 8.7334 13.945 2
3 6 7 8.98938 10.5103 1
-3 -6 -7 6.13488 10.0266 4
-3 -6 -8 30.8555 13.0746 3
3 6 8 6.72653 13.3917 2
-3 -6 -8 8.17263 10.7798 4
-3 -7 9 100.979 16.0667 3
-3 -7 9 66.0145 14.1194 2
-3 -7 8 216.55 22.0745 3
-3 -7 8 326.438 23.3961 2
-3 -7 7 771.3 41.3456 3
-3 -7 7 660.455 38.9308 2
-3 -7 6 326.471 26.1427 3
-3 -7 6 421.854 26.9032 2
-3 -7 5 60.6924 13.1096 3
-3 -7 5 69.4808 13.0328 2
-3 -7 4 1047.77 52.8573 2
-3 -7 4 1055.59 53.8346 3
-3 -7 3 187.107 19.9767 3
-3 -7 3 226.638 20.14 2
-3 -7 3 208.01 15.2814 4
3 7 -3 200.91 20.0902 1
-3 -7 2 18.628 12.0397 3
-3 -7 2 9.53911 10.6323 2
-3 -7 2 6.32377 7.34976 4
3 7 -2 6.37425 10.734 1
-3 -7 1 205.27 20.7949 3
-3 -7 1 219.229 20.1757 2
-3 -7 1 217.427 16.4955 4
3 7 -1 210.492 20.2736 1
-3 -7 0 8.54952 10.6809 3
-3 -7 0 29.4597 11.6523 2
-3 -7 0 23.3191 9.01348 4
3 7 0 12.583 10.5367 1
-3 -7 -1 12.0892 10.8572 3
-3 -7 -1 6.68963 11.1818 2
-3 -7 -1 4.56174 8.94849 4
3 7 1 6.26241 10.003 1
-3 -7 -2 14.0091 10.93 3
-3 -7 -2 23.1588 9.87374 4
3 7 2 7.80511 10.4499 1
3 7 3 -6.2863 13.277 2
-3 -7 -3 7.81921 9.43829 4
3 7 4 -4.29594 13.6106 2
-3 -7 -4 9.70648 10.3489 4
-3 -7 -5 22.2086 12.4916 3
3 7 5 24.1665 15.1306 2
-3 -7 -5 23.6504 11.3191 4
4 -9 0 786.797 42.7206 3
4 -9 0 909.839 49.4369 4
4 -9 1 433.639 28.1136 3
4 -9 1 405.838 31.6381 4
4 -9 2 106.562 16.0203 3
4 -9 2 130.103 20.3257 4
4 -9 3 -8.0264 11.114 3
4 -9 3 -2.27512 13.4548 4
4 -8 -6 15.5044 13.154 4
4 -8 -5 32.6294 12.7037 4
4 -8 -4 237.285 22.9886 4
4 -8 -3 924.657 44.1155 3
4 -8 -3 994.059 51.9509 4
4 -8 -2 280.628 19.7456 3
4 -8 -2 285.512 24.3448 4
4 -8 -1 125.028 13.9836 3
4 -8 -1 145.288 18.0625 4
4 -8 0 24.5315 10.698 3
4 -8 0 42.4353 13.5843 4
4 -8 1 146.054 16.4447 3
4 -8 1 231.828 21.9651 4
4 -8 2 225.872 19.8663 3
-4 8 -2 240.44 14.563 1
4 -8 2 263.729 23.8848 4
4 -8 3 173.01 17.6857 3
4 -8 3 200.812 21.9985 4
-4 8 -3 148.254 12.773 1
4 -8 4 94.776 15.6573 3
-4 8 -4 116.553 12.1095 1
-4 8 -5 704.104 35.5619 1
4 -8 5 694.299 40.3233 3
-4 8 -5 724.934 39.9121 4
-4 8 -6 192.511 16.5609 1
4 -8 6 183.084 19.9745 3
-4 8 -6 185.623 18.5845 4
-4 8 -7 32.634 10.3198 1
4 -8 7 25.9473 12.7268 3
-4 8 -7 48.2882 12.4989 4
-4 8 -8 340.196 24.6225 1
4 -8 8 355.483 29.0074 3
4 -7 -8 449.407 31.0285 4
4 -7 -7 175.665 19.9749 4
-4 7 6 147.247 11.9416 2
4 -7 -6 152.848 16.1031 5
4 -7 -6 152.667 18.3036 4
-4 7 5 6.88955 6.08846 2
4 -7 -5 17.1386 10.7877 4
4 -7 -4 239.248 15.6079 3
4 -7 -4 280.697 20.1959 5
-4 7 4 226.234 13.2829 2
4 -7 -4 300.377 22.7171 4
4 -7 -3 50.3701 8.98351 3
4 -7 -3 57.9927 11.5756 5
4 -7 -3 58.1425 13.4321 4
4 -7 -2 369.331 21.4909 3
4 -7 -2 360.99 25.9238 4
-4 7 2 336.604 20.0581 3
4 -7 -1 259.866 17.6332 3
-4 7 1 211.742 9.98082 1
4 -7 -1 294.171 22.2455 4
-4 7 1 270.564 16.9233 3
4 -7 0 205.449 16.9355 3
-4 7 0 196.027 11.3465 1
-4 7 0 215.876 11.6987 1
4 -7 0 252.558 21.3589 4
-4 7 0 220.204 16.3447 3
-4 7 -1 -3.80383 8.6576 3
4 -7 1 -2.4201 8.871 3
-4 7 -1 1.41961 4.72574 1
4 -7 1 -1.7716 10.2801 4
-4 7 -1 -3.72228 4.93507 1
-4 7 -2 -0.65635 6.02274 1
4 -7 2 9.10268 8.69252 3
4 -7 2 3.6584 10.6146 4
-4 7 -3 88.7386 9.78259 1
4 -7 3 55.7469 12.3256 3
-4 7 -4 -2.59863 7.03992 1
4 -7 4 1.48345 10.1992 3
-4 7 -4 4.27263 8.5764 4
4 -7 4 6.44549 7.70035 1
4 -7 5 25.3458 9.16693 1
-4 7 -5 24.0722 8.88166 1
4 -7 5 22.0255 12.3081 3
-4 7 -5 23.3349 9.79137 4
-4 7 -6 222.072 17.4127 1
4 -7 6 221.403 20.9347 3
-4 7 -6 238.853 19.5566 4
4 -7 6 208.397 17.6281 1
4 -7 7 126.399 18.0443 3
-4 7 -7 134.404 14.2924 1
-4 7 -7 109.095 14.6592 4
4 -7 8 133.149 17.4884 3
-4 7 -8 117.581 14.4104 1
-4 7 -8 105.641 14.8798 4
4 -7 9 5.82739 11.9043 3
-4 7 -9 10.6044 9.42093 1
-4 7 -9 -4.85618 10.6624 4
4 -7 10 -2.03547 13.0003 3
-4 7 -10 -2.81844 10.0789 1
-4 7 -10 4.98493 10.2703 4
4 -7 11 -4.25949 13.2746 3
-4 7 -11 1.49201 10.535 1
-4 7 -11 1.70544 10.7181 4
-4 6 10 87.2684 12.5059 2
4 -6 -10 86.5643 15.1246 4
4 -6 -9 15.929 11.0267 4
-4 6 9 -3.27643 8.83276 2
4 -6 -8 76.5888 14.2176 4
-4 6 8 69.2952 10.3531 2
4 -6 -7 249.265 18.4512 5
-4 6 7 272.646 17.714 2
4 -6 -7 257.413 21.5857 4
4 -6 -6 183.823 15.7925 5
-4 6 6 188.021 13.9914 2
4 -6 -6 197.066 18.4637 4
4 -6 -5 321.925 21.1911 5
-4 6 5 318.63 18.1082 2
4 -6 -5 346.171 24.4579 4
-4 6 4 274 17.6173 2
4 -6 -4 263.437 15.6818 3
4 -6 -4 288.846 19.8092 5
-4 6 4 292.149 16.1321 2
4 -6 -4 322.45 23.1014 4
-4 6 4 311.288 15.4085 3
-4 6 3 7.6263 5.58236 3
-4 6 3 9.01662 6.33517 2
4 -6 -3 1.38259 5.94235 3
4 -6 -3 6.60393 8.26316 5
4 -6 -3 9.04365 9.78028 4
-4 6 3 1.93388 4.63984 2
-4 6 2 6.35129 5.76411 3
-4 6 2 4.01632 5.23355 2
4 -6 -2 11.2904 6.84083 3
4 -6 -2 2.28937 8.39476 5
4 -6 -2 4.51425 9.22429 4
-4 6 2 6.44853 4.29037 2
-4 6 1 23.1022 7.21653 3
-4 6 1 28.1519 5.03478 2
4 -6 -1 31.9368 8.24441 3
4 -6 -1 13.0707 8.23755 5
-4 6 1 30.387 4.15082 1
4 -6 -1 19.6261 9.31205 4
-4 6 1 23.8793 4.06524 1
-4 6 1 34.2379 4.3056 2
-4 6 0 228.435 15.9371 3
-4 6 0 269.448 12.9808 1
4 -6 0 273.343 17.4392 3
4 -6 0 260.122 19.1855 5
-4 6 0 255.839 12.6144 1
-4 6 0 204.139 9.70956 2
-4 6 0 216.544 9.90077 2
4 -6 0 254.03 20.1715 4
-4 6 -1 448.906 25.394 3
-4 6 -1 478.325 22.6946 1
4 -6 1 472.357 26.7362 3
-4 6 -1 446.203 22.094 1
4 -6 1 469.328 29.855 4
-4 6 -2 255.241 14.5238 1
-4 6 -2 192.912 16.3151 3
4 -6 2 199.597 17.4343 3
-4 6 -2 208.388 13.3926 1
4 -6 2 246.41 21.0332 4
-4 6 -3 506.696 28.1518 3
4 -6 3 489.968 28.7914 3
-4 6 -3 520.152 25.4961 1
-4 6 -3 437.487 23.695 1
4 -6 4 61.1101 11.4186 3
-4 6 -4 57.8309 10.8028 4
-4 6 -4 63.5842 9.51149 1
4 -6 5 38.5471 10.9093 3
-4 6 -5 47.5926 10.22 4
-4 6 -5 58.8834 9.67623 1
4 -6 5 54.0605 10.2691 1
4 -6 6 23.6476 10.4624 3
-4 6 -6 1.36642 8.00661 4
-4 6 -6 1.05854 7.76209 1
4 -6 6 1.10794 8.55308 1
4 -6 7 75.2258 13.9068 3
-4 6 -7 108.486 13.2439 4
4 -6 7 96.6449 12.8675 1
-4 6 -7 97.7273 11.6735 1
4 -6 8 1.76683 10.5438 3
-4 6 -8 5.81366 8.9833 4
-4 6 -8 -0.56598 3.7 2
-4 6 -8 2.47413 8.79144 1
4 -6 9 281.404 23.8437 3
-4 6 -9 229.767 19.7003 4
-4 6 -9 234.094 19.7692 1
4 -6 10 3.91764 12.4121 3
-4 6 -10 10.8653 10.3007 4
-4 6 -10 -1.40754 9.74432 1
4 -6 11 65.5841 15.9376 3
-4 6 -11 88.388 13.9587 4
-4 6 -11 80.4979 14.2138 1
4 -6 12 126.153 18.992 3
-4 6 -12 105.342 15.1585 4
-4 6 -12 76.806 14.7102 1
4 -5 -12 103.821 15.2752 4
-4 5 12 104.777 14.9691 2
4 -5 -11 8.8336 10.4629 4
-4 5 11 -5.34707 9.12729 2
4 -5 -10 230.507 20.4488 4
-4 5 10 253.44 19.5527 2
-4 5 9 349.733 23.2199 2
4 -5 -9 396.281 25.2622 4
4 -5 -8 335.121 19.0376 5
4 -5 -8 328.339 20.5963 2
-4 5 8 324.969 20.9313 2
4 -5 -8 339.551 23.2821 4
4 -5 -7 165.027 13.1905 5
4 -5 -7 172.892 14.0643 2
4 -5 -7 203.593 17.0946 4
-4 5 7 176.734 14.5326 2
4 -5 -6 68.1787 9.42022 5
4 -5 -6 74.38 9.46148 2
4 -5 -6 86.9256 12.3415 4
-4 5 6 80.7152 9.81529 2
-4 5 5 63.0208 4.36264 3
4 -5 -5 85.4883 10.1369 5
4 -5 -5 67.2103 8.55064 2
-4 5 5 80.9683 11.3974 4
4 -5 -5 106.448 12.9026 4
-4 5 5 67.4808 4.29601 3
-4 5 5 98.9628 9.59648 2
-4 5 4 223.304 16.2322 2
4 -5 -4 242.997 16.7008 5
-4 5 4 254.09 14.796 2
4 -5 -4 278.503 19.8076 4
-4 5 4 226.93 18.2176 4
-4 5 4 213.821 11.7554 3
-4 5 4 248.267 12.3002 3
-4 5 3 10.1579 4.37707 3
-4 5 3 10.1227 6.76823 2
4 -5 -3 13.172 7.80163 5
-4 5 3 7.65492 8.71741 4
4 -5 -3 -1.30065 8.24752 4
-4 5 3 8.0087 5.11447 2
-4 5 2 93.9946 5.56097 1
-4 5 2 78.6857 8.4183 3
-4 5 2 73.3246 9.2523 2
4 -5 -2 91.4775 9.14424 3
-4 5 2 87.8806 5.60473 1
-4 5 2 111.758 13.2682 4
4 -5 -2 93.4569 12.4439 4
-4 5 2 98.7756 8.0361 2
-4 5 1 21.215 6.37751 3
-4 5 1 16.5937 6.23297 2
4 -5 -1 29.7741 7.78801 3
-4 5 1 31.4611 4.62271 1
-4 5 1 33.8076 10.0714 4
-4 5 1 29.1568 4.99313 2
4 -5 -1 36.9473 9.6728 4
-4 5 1 27.284 4.67905 1
-4 5 0 92.548 8.45455 2
-4 5 0 97.3721 9.88223 3
4 -5 0 95.937 10.4673 3
-4 5 0 84.4809 12.2278 4
-4 5 0 85.8802 7.45634 1
-4 5 0 93.0042 7.10856 2
4 -5 0 99.4436 12.861 4
-4 5 0 100.578 7.80281 1
-4 5 -1 375.906 21.3467 3
4 -5 1 345.097 21.8996 3
-4 5 -1 365.183 18.9691 1
-4 5 -1 389.379 19.0993 1
-4 5 -1 353.02 17.185 2
-4 5 -1 347.559 23.1133 4
4 -5 1 374.468 24.7576 4
-4 5 -1 362.35 17.8729 2
-4 5 -2 81.0639 6.82406 2
-4 5 -2 78.1411 10.5602 3
4 -5 2 64.8329 10.8312 3
-4 5 -2 75.9031 6.22895 2
-4 5 -2 70.6331 8.1257 1
-4 5 -2 66.8859 8.2316 1
-4 5 -3 749.715 37.3436 3
4 -5 3 729.577 38.6016 3
-4 5 -3 776.676 35.0017 1
-4 5 -3 749.956 37.8342 4
-4 5 -3 711.545 35.3114 1
-4 5 -3 749.169 31.9328 2
-4 5 -3 764.415 32.1288 2
-4 5 -4 66.5509 9.88912 1
-4 5 -4 90.2892 6.79138 2
-4 5 -4 66.0342 11.8688 3
4 -5 4 93.2253 12.4445 3
-4 5 -4 96.7456 11.5992 4
-4 5 -4 93.5655 6.87748 2
-4 5 -4 79.6454 8.9854 1
4 -5 5 2070.52 88.0451 3
-4 5 -5 1947.79 82.399 1
-4 5 -5 1980.53 85.3783 4
-4 5 -5 1881.59 78.6198 2
-4 5 -5 2020.53 84.0654 1
-4 5 -5 1993.28 78.6987 2
4 -5 6 2284.87 98.3912 3
-4 5 -6 2186.6 89.2305 2
-4 5 -6 2330.5 96.1625 4
-4 5 -6 2133.27 94.4237 1
-4 5 -6 2245.24 89.1002 2
4 -5 7 218.803 20.1208 3
-4 5 -7 254.688 18.4025 4
-4 5 -7 218.721 17.6588 1
-4 5 -7 229.183 13.1527 2
-4 5 -8 27.4849 9.71662 1
4 -5 8 21.0324 7.04717 2
-4 5 -8 35.0643 12.2992 5
4 -5 8 16.9216 11.5358 3
-4 5 -8 48.4202 10.5058 4
-4 5 -8 38.3109 6.37576 2
4 -5 9 423.463 29.0919 3
-4 5 -9 393.406 27.6763 5
-4 5 -9 409.204 25.6278 4
-4 5 -9 399.646 25.7324 1
-4 5 -9 356.566 19.868 2
4 -5 9 360.31 21.3827 2
4 -5 10 187.138 15.2072 2
-4 5 -10 215.217 21.6532 5
4 -5 10 204.735 21.2729 3
-4 5 -10 232.909 19.221 4
-4 5 -10 184.112 18.6531 1
-4 5 -11 622.522 37.5019 1
4 -5 11 768.777 42.0092 3
-4 5 -11 669.889 40.5772 5
-4 5 -11 684.891 37.6533 4
4 -5 11 626.478 33.3071 2
4 -5 12 364.748 28.5281 3
-4 5 -12 371.771 25.1007 4
-4 5 -12 300.98 24.9135 1
4 -5 12 284.097 20.7964 2
4 -5 13 5.74137 8.91431 2
-4 5 -13 8.35597 11.254 4
4 -4 -13 457.892 28.6186 4
-4 4 13 423.624 29.1044 2
-4 4 12 695.898 37.3061 2
4 -4 -12 607.066 35.1016 4
4 -4 -11 132.164 15.1691 4
-4 4 11 186.159 17.4945 2
4 -4 -10 27.7822 9.41135 4
-4 4 10 41.0429 10.6536 2
4 -4 -9 173.198 11.2199 5
-4 4 9 179.708 15.3406 4
4 -4 -9 218.348 16.7646 4
-4 4 9 187.827 16.2726 2
4 -4 -8 356.953 22.0116 2
4 -4 -8 330.207 17.8769 5
-4 4 8 358.724 21.9545 4
-4 4 8 423.665 23.391 2
4 -4 -8 379.543 23.1429 4
4 -4 -7 322.172 20.6264 2
-4 4 7 356.772 21.1998 4
-4 4 7 360.503 21.4273 2
4 -4 -7 349.257 22.04 4
4 -4 -6 158.868 13.4837 2
-4 4 6 155.839 13.9242 4
4 -4 -6 183.111 14.9924 4
-4 4 6 162.891 13.3067 2
4 -4 -5 141.116 12.3772 2
-4 4 5 156.135 13.549 4
4 -4 -5 150.669 13.7773 4
-4 4 5 136.038 11.8251 2
-4 4 4 870.577 39.597 2
-4 4 4 868.894 38.2233 2
-4 4 4 777.102 39.1186 4
4 -4 -4 804.478 40.3116 4
-4 4 4 804.287 33.5645 3
-4 4 4 817.829 33.6605 3
-4 4 3 792.407 34.4627 3
-4 4 3 789.523 38.175 2
-4 4 3 831.138 33.3361 1
-4 4 3 794.637 36.9188 2
-4 4 3 794.602 38.9733 4
-4 4 3 823.226 33.1359 1
4 -4 -3 830.583 40.2214 4
-4 4 3 784.913 34.2553 3
-4 4 2 84.0582 6.2423 1
-4 4 2 63.8455 6.02827 1
-4 4 2 61.7791 6.85149 3
-4 4 2 60.5898 9.21761 2
-4 4 2 62.9612 10.2378 4
-4 4 2 88.7722 7.98984 2
4 -4 -2 63.9761 10.2987 4
-4 4 2 78.3649 6.87883 3
-4 4 1 434.649 21.6338 3
-4 4 1 446.869 21.6184 2
-4 4 1 413.862 20.174 1
-4 4 1 426.18 24.5709 4
-4 4 1 419.637 20.5505 1
4 -4 -1 439.297 25.4498 4
-4 4 1 421.262 21.2242 3
-4 4 1 425.414 22.6487 2
-4 4 0 6.94447 6.22883 2
-4 4 0 -2.15902 5.79777 3
-4 4 0 15.5067 5.30822 1
-4 4 0 9.43826 4.28116 2
-4 4 0 7.01137 7.60873 4
4 -4 0 16.8892 8.57784 4
-4 4 0 6.45446 4.64979 1
-4 4 -1 792.411 36.1367 3
-4 4 -1 740.346 36.3342 4
-4 4 -1 737.904 34.1694 1
-4 4 -1 746.878 33.5893 2
-4 4 -1 728.827 37.3463 4
-4 4 -1 758.059 34.6275 1
-4 4 -1 776.225 34.7208 2
-4 4 -2 1357.87 61.7936 3
-4 4 -2 1333.11 61.9955 4
-4 4 -2 1488.63 60.5086 1
-4 4 -2 1377.41 58.9476 2
-4 4 -2 1480.49 63.636 4
-4 4 -2 1423.69 61.0035 1
-4 4 -2 1459.31 59.91 2
-4 4 -3 549.896 28.8988 3
4 -4 3 535.343 29.7735 3
-4 4 -3 512.978 28.2829 4
-4 4 -3 543.02 26.9169 1
-4 4 -3 524.999 25.3248 2
-4 4 -3 584.178 30.2571 4
-4 4 -3 529.61 27.4772 1
-4 4 -3 542.335 25.8469 2
-4 4 -4 376.953 23.3127 3
4 -4 4 380.236 24.0394 3
-4 4 -4 365.456 24.1464 5
-4 4 -4 384.867 21.1785 1
-4 4 -4 370.482 19.5508 2
-4 4 -4 347.572 22.3432 4
-4 4 -4 429.801 24.6289 4
-4 4 -4 383.738 22.0842 1
-4 4 -4 391.142 19.7811 2
-4 4 -5 1546.04 68.7695 3
4 -4 5 1571.58 70.5011 3
-4 4 -5 1539.33 70.2576 5
-4 4 -5 1549.96 66.8235 1
-4 4 -5 1510.21 64.4718 2
-4 4 -5 1528.95 68.3654 4
-4 4 -5 1559.6 67.9551 1
-4 4 -5 1549.91 64.5987 2
-4 4 -6 78.7081 8.60342 2
-4 4 -6 101.671 11.9942 1
4 -4 6 86.5104 10.5027 2
-4 4 -6 118.119 13.8773 5
4 -4 6 100.489 13.4556 3
-4 4 -6 130.783 12.2581 4
-4 4 -6 76.5013 10.3759 1
4 -4 7 617.611 31.3284 2
-4 4 -7 664.418 35.8447 5
-4 4 -7 582.789 31.8931 1
-4 4 -7 641.641 33.3437 4
-4 4 -7 558.694 32.6677 1
-4 4 -7 635.313 29.7486 2
-4 4 -8 383.999 27.1249 5
-4 4 -8 388.617 24.7072 1
-4 4 -8 448.13 25.8245 4
-4 4 -8 416.367 25.9088 1
-4 4 -8 396.325 22.0003 2
4 -4 8 437.291 24.0214 2
-4 4 -9 246.587 20.4957 1
-4 4 -9 277.488 22.7136 5
-4 4 -9 320.867 20.9612 4
-4 4 -9 261.688 17.4041 2
4 -4 9 266.195 18.808 2
-4 4 -10 27.3956 10.134 1
4 -4 10 46.0053 9.97826 2
-4 4 -10 28.0371 10.4451 5
-4 4 -10 43.5495 10.2588 4
-4 4 -10 28.8245 8.51131 2
-4 4 -11 7.60124 10.0946 1
4 -4 11 9.50491 8.77033 2
-4 4 -11 5.51544 10.8776 5
-4 4 -11 11.8146 8.82113 4
-4 4 -11 12.2865 7.84103 2
-4 4 -12 4.79104 11.4239 1
4 -4 12 2.50823 9.78631 2
-4 4 -12 3.85568 12.1177 5
-4 4 -12 3.10455 9.43258 4
-4 4 -12 14.3965 11.0745 3
4 -4 13 -1.32668 9.54843 2
-4 4 -13 3.261 9.81827 4
-4 4 -13 -3.34926 10.9474 3
4 -4 14 35.1237 11.3614 2
-4 4 -14 46.2158 12.6496 4
-4 4 -14 45.4554 12.9157 3
4 -3 -14 31.5823 10.8673 4
-4 3 14 8.44697 11.318 2
4 -3 -13 48.4372 10.9311 4
-4 3 13 89.3037 14.6044 2
4 -3 -12 149.949 14.6531 4
-4 3 12 135.004 15.8146 2
-4 3 11 184.396 14.3588 4
4 -3 -11 191.358 15.9432 4
-4 3 11 183.874 17.3162 2
-4 3 10 260.421 17.2713 4
-4 3 10 293.047 20.8189 2
4 -3 -10 264.715 18.2796 4
-4 3 9 159.693 13.5087 4
4 -3 -9 201.859 15.1939 4
-4 3 9 219.746 16.8829 2
-4 3 8 8.85122 6.83072 4
4 -3 -8 13.8886 6.79942 4
-4 3 8 8.02426 7.44739 2
-4 3 7 33.9628 2.78765 1
4 -3 -7 62.4963 10.3637 2
-4 3 7 47.0901 7.54185 4
4 -3 -7 48.0601 8.82963 4
-4 3 7 62.9813 9.81165 2
-4 3 6 291.055 14.0222 1
-4 3 6 319.732 14.0063 1
4 -3 -6 349.424 20.1705 2
-4 3 6 320.206 19.8058 2
-4 3 6 301.881 18.171 4
4 -3 -6 343.957 19.4755 4
-4 3 5 377.428 17.4895 1
-4 3 5 382.713 22.0614 2
-4 3 5 379.278 20.8559 4
4 -3 -5 369.152 21.7158 4
-4 3 5 392.373 17.2017 1
-4 3 4 948.507 37.5156 3
-4 3 4 951.399 43.9069 2
-4 3 4 890.812 38.5163 1
-4 3 4 974.689 42.8242 2
-4 3 4 898.566 41.4955 4
4 -3 -4 977.993 42.7669 4
-4 3 4 947.976 38.2814 1
-4 3 4 855.187 37.106 3
-4 3 3 120.459 8.28374 3
-4 3 3 121.011 8.70863 1
-4 3 3 114.434 11.4696 2
-4 3 3 115.247 7.91284 1
-4 3 3 118.694 10.9134 2
-4 3 3 123.997 10.8852 4
4 -3 -3 133.73 11.9719 4
-4 3 3 124.165 8.00602 3
-4 3 2 923.203 39.8245 3
-4 3 2 901.368 39.9115 1
-4 3 2 897.679 41.5701 2
-4 3 2 911.418 39.3591 1
-4 3 2 875.028 41.7247 4
4 -3 -2 966.355 43.2519 4
-4 3 2 934.091 39.3474 3
-4 3 2 956.908 43.0474 2
-4 3 1 20.7468 4.98194 1
-4 3 1 22.515 5.75951 1
-4 3 1 28.807 7.12939 2
-4 3 1 13.8567 5.77754 3
-4 3 1 16.3001 5.31277 2
-4 3 1 10.7869 6.08741 4
-4 3 1 18.5652 4.77895 3
-4 3 0 54.649 7.05409 1
-4 3 0 58.3638 8.51942 2
-4 3 0 44.0027 7.38055 3
-4 3 0 65.5712 7.18883 4
-4 3 0 62.6163 6.9439 2
-4 3 0 66.3758 8.64351 4
-4 3 0 45.2032 6.68101 3
-4 3 0 71.0589 7.09791 1
-4 3 -1 65.1705 8.53903 2
-4 3 -1 51.6294 8.07808 3
-4 3 -1 55.5885 6.9987 4
-4 3 -1 32.9842 6.10071 2
-4 3 -1 50.9454 8.36311 4
-4 3 -1 61.7183 7.21 1
-4 3 -1 57.4934 6.72533 3
-4 3 -1 40.4344 6.72557 1
-4 3 -2 40.7899 7.36463 2
-4 3 -2 37.3185 7.70086 3
-4 3 -2 45.5723 7.73458 5
-4 3 -2 31.459 6.23558 4
-4 3 -2 48.4861 6.74562 2
-4 3 -2 40.4743 8.31676 4
-4 3 -2 37.0415 6.35838 1
-4 3 -2 24.2944 6.00164 3
-4 3 -2 39.3011 7.02237 1
-4 3 -3 115.648 10.6481 2
-4 3 -3 139.209 12.6293 3
-4 3 -3 103.27 11.6795 5
-4 3 -3 131.109 10.1503 2
-4 3 -3 104.344 10.1575 4
-4 3 -3 100.441 11.7505 4
-4 3 -3 118.797 10.5858 1
-4 3 -3 153.912 12.2468 1
-4 3 -3 132.833 11.3615 3
-4 3 -4 536.406 29.3669 3
-4 3 -4 600.726 30.757 5
-4 3 -4 562.818 27.8677 1
-4 3 -4 516.85 27.8748 4
-4 3 -4 539.428 29.2325 4
-4 3 -4 532.212 27.0603 2
-4 3 -4 513.15 28.2397 3
-4 3 -4 513.573 28.3402 1
4 -3 5 200.818 14.949 2
-4 3 -5 151.177 15.9363 3
-4 3 -5 205.82 16.9914 5
-4 3 -5 179.126 14.1491 4
-4 3 -5 203.097 15.5376 1
-4 3 -5 156.908 13.4393 1
-4 3 -5 170.395 12.9868 2
-4 3 -5 171.296 15.4943 4
-4 3 -5 171.228 14.3828 3
-4 3 -6 4.11975 6.07705 2
4 -3 6 6.40596 7.73242 2
-4 3 -6 6.73217 8.39261 5
-4 3 -6 1.05573 6.1264 4
-4 3 -6 -2.34431 7.77818 1
-4 3 -6 -1.98808 7.46112 1
-4 3 -6 -1.17984 8.75318 4
-4 3 -6 4.51898 7.21594 3
-4 3 -7 12.7641 7.00013 2
4 -3 7 6.74303 7.95059 2
-4 3 -7 18.6298 8.71992 5
-4 3 -7 11.2907 6.99582 4
-4 3 -7 13.7709 9.0236 1
-4 3 -7 20.1001 8.00067 1
-4 3 -7 8.45162 7.72701 3
-4 3 -8 71.5179 10.1789 2
4 -3 8 63.4872 11.0344 2
-4 3 -8 70.0036 12.4159 5
-4 3 -8 60.077 10.1265 4
-4 3 -8 83.8694 12.5965 1
-4 3 -8 77.4365 11.629 1
-4 3 -8 69.4378 10.9369 3
-4 3 -9 86.1438 11.5662 2
4 -3 9 114.792 13.6874 2
-4 3 -9 96.8834 14.841 5
-4 3 -9 88.9357 13.6167 1
-4 3 -9 139.228 13.7792 4
-4 3 -9 147.24 14.7461 3
4 -3 10 173.26 16.1303 2
-4 3 -10 150.286 18.1258 5
-4 3 -10 145.663 16.2558 1
-4 3 -10 155.898 15.4471 4
-4 3 -10 155.533 16.3586 3
-4 3 -10 136.514 14.0648 2
4 -3 11 213.912 18.4423 2
-4 3 -11 216.925 19.9181 1
-4 3 -11 202.37 20.6009 5
-4 3 -11 234.598 19.1024 4
-4 3 -11 200.172 18.7098 3
4 -3 12 274.077 22.6997 2
-4 3 -12 306.268 26.275 5
-4 3 -12 335.205 24.0595 4
-4 3 -12 345.585 25.6964 1
-4 3 -12 316.845 23.9 3
4 -3 13 100.141 15.2984 2
-4 3 -13 70.1257 14.8691 1
-4 3 -13 106.372 15.1001 4
-4 3 -13 96.6164 14.9915 3
4 -3 14 61.2587 14.0204 2
-4 3 -14 71.2464 13.7501 4
-4 2 14 239.287 21.9829 2
4 -2 -13 188.266 15.1388 4
-4 2 13 193.951 19.3101 2
4 -2 -12 26.944 8.45159 4
-4 2 12 24.4357 10.7597 2
-4 2 11 7.77718 5.22844 4
-4 2 11 16.9521 5.34532 1
4 -2 -11 14.6425 7.15623 4
-4 2 11 20.1371 9.48561 2
4 -2 -11 10.4274 3.90133 1
-4 2 10 54.5925 6.71907 1
-4 2 10 54.1511 7.71491 4
4 -2 -10 53.663 8.1499 4
-4 2 10 94.7421 12.8562 2
4 -2 -10 61.6717 5.991 1
-4 2 9 145.682 9.38644 1
4 -2 -9 138.595 8.73514 1
-4 2 9 125.302 10.1937 4
4 -2 -9 124.268 11.1257 4
-4 2 9 147.761 14.7804 2
-4 2 8 152.233 9.49873 1
4 -2 -8 158.371 9.28252 1
-4 2 8 125.423 10.3703 4
4 -2 -8 153.289 11.6523 4
-4 2 8 149.696 14.1576 2
-4 2 7 112.969 8.09783 1
4 -2 -7 133.936 8.29073 1
4 -2 -7 115.78 12.4374 2
-4 2 7 89.0826 8.78441 4
-4 2 7 110.884 12.2403 2
4 -2 -7 97.8716 9.588 4
4 -2 -6 11.959 7.74929 2
-4 2 6 14.7408 5.14259 4
4 -2 -6 12.1678 4.11657 1
-4 2 6 3.20841 6.73951 2
4 -2 -6 13.6588 5.61004 4
-4 2 6 17.0363 4.66877 1
-4 2 5 247.186 11.6471 3
4 -2 -5 292.766 14.4246 1
-4 2 5 279.463 18.0056 2
-4 2 5 266.576 14.9001 4
4 -2 -5 264.885 15.4542 4
-4 2 5 272.921 14.2652 1
-4 2 5 261.706 11.4792 3
-4 2 4 44.8258 4.3139 3
-4 2 4 32.649 4.88053 3
-4 2 4 36.3454 9.07675 2
-4 2 4 42.5662 5.48013 1
-4 2 4 32.8205 7.40031 2
-4 2 4 35.2875 5.99443 4
4 -2 -4 45.3697 6.74602 4
-4 2 3 447.842 25.9028 2
-4 2 3 460.418 21.6538 3
-4 2 3 450.215 24.7259 2
-4 2 3 446.522 22.3792 4
-4 2 3 467.175 22.1466 1
-4 2 3 432.471 22.8389 1
-4 2 3 468.585 21.0633 3
-4 2 2 184.872 12.1071 3
-4 2 2 188.821 11.588 4
-4 2 2 184.967 13.7409 2
-4 2 2 187.23 11.9638 1
-4 2 2 188.824 12.1021 4
-4 2 2 178.112 12.7548 1
-4 2 2 191.527 11.3785 3
-4 2 2 184.614 14.9764 2
-4 2 1 857.505 38.8579 3
-4 2 1 852.449 38.099 4
-4 2 1 838.323 40.0077 2
-4 2 1 894.46 38.8769 1
-4 2 1 827.351 39.4788 1
-4 2 1 901.149 39.1861 4
-4 2 1 881.817 38.3453 3
-4 2 1 878.123 41.5147 2
-4 2 0 373.024 20.2998 3
-4 2 0 357.825 20.1822 5
-4 2 0 355.061 18.9833 4
-4 2 0 385.991 21.0567 2
-4 2 0 343.54 20.2424 1
-4 2 0 367.606 19.6324 1
-4 2 0 392.874 20.2478 4
-4 2 0 357.11 19.5305 3
-4 2 0 375.224 22.0047 2
-4 2 -1 359.956 20.9028 3
-4 2 -1 384.548 21.2479 5
-4 2 -1 357.173 20.906 1
-4 2 -1 380.786 20.969 2
-4 2 -1 341.927 19.1764 4
-4 2 -1 406.742 20.6105 1
-4 2 -1 349.556 20.0855 4
-4 2 -1 386.548 20.2869 3
-4 2 -1 369.327 21.6577 2
-4 2 -2 297.34 18.8275 3
-4 2 -2 334.784 19.5621 1
-4 2 -2 326.501 19.231 5
-4 2 -2 297.71 18.3923 2
-4 2 -2 316.397 17.6528 4
-4 2 -2 340.753 18.6238 1
-4 2 -2 284.209 18.2309 4
-4 2 -2 305.833 18.3648 3
-4 2 -2 303.531 19.1953 2
-4 2 -3 1.8876 6.17004 2
-4 2 -3 4.9842 7.52484 3
-4 2 -3 -4.16492 6.21391 5
-4 2 -3 -3.12932 4.31613 4
-4 2 -3 -3.04144 6.3193 1
-4 2 -3 -1.8065 5.58308 4
-4 2 -3 0.8576 5.60659 1
-4 2 -3 -1.80331 5.42971 3
-4 2 -4 19.8849 7.65877 2
-4 2 -4 38.6814 10.0591 3
4 -2 4 32.0171 9.15881 2
-4 2 -4 35.7364 8.98514 1
-4 2 -4 37.336 8.92592 5
-4 2 -4 34.0497 6.59694 4
-4 2 -4 46.7471 8.54411 4
-4 2 -4 41.1003 8.09309 1
-4 2 -4 31.3881 7.72649 3
-4 2 -5 187.727 15.437 2
-4 2 -5 189.969 16.006 1
-4 2 -5 180.68 16.4238 3
4 -2 5 214.739 16.7261 2
-4 2 -5 225.636 17.2435 5
-4 2 -5 196.325 14.3729 4
-4 2 -5 205.713 15.6871 1
-4 2 -5 236.046 16.4234 4
-4 2 -5 211.934 15.8698 3
-4 2 -6 107.65 12.7606 1
-4 2 -6 103.59 12.0894 2
4 -2 6 128.045 13.4388 2
-4 2 -6 107.36 13.2326 5
-4 2 -6 123.294 11.822 4
-4 2 -6 99.9345 12.1119 1
-4 2 -6 113.623 13.129 4
-4 2 -6 94.4448 11.577 3
-4 2 -7 270.21 19.9047 5
-4 2 -7 231.183 17.6552 1
-4 2 -7 234.609 16.8144 4
-4 2 -7 243.724 17.4872 2
-4 2 -7 237.28 18.7346 4
-4 2 -7 210.624 17.4395 3
-4 2 -7 183.225 17.1818 1
4 -2 7 245.348 18.8444 2
-4 2 -8 52.1439 10.3562 2
4 -2 8 67.1331 12.0668 2
-4 2 -8 50.6787 9.63546 4
-4 2 -8 60.617 11.968 1
-4 2 -8 47.9834 10.118 3
-4 2 -9 67.4734 11.6006 2
4 -2 9 86.7041 13.2516 2
-4 2 -9 71.755 10.7797 4
-4 2 -9 50.9281 12.0687 1
-4 2 -9 75.615 12.0617 3
4 -2 10 33.4622 10.9894 2
-4 2 -10 2.6506 7.99042 4
-4 2 -10 12.2666 10.1072 1
-4 2 -10 4.35691 8.35522 3
4 -2 11 50.0261 12.5746 2
-4 2 -11 57.9437 11.4065 4
-4 2 -11 57.9734 12.8937 1
-4 2 -11 29.0739 11.1651 3
4 -2 12 -1.58402 10.1974 2
-4 2 -12 1.68797 11.1183 1
-4 2 -12 15.0209 10.3275 4
-4 2 -12 -3.21296 9.8453 3
4 -2 13 78.1062 14.4678 2
-4 2 -13 75.3425 16.4455 5
-4 2 -13 91.4724 15.8512 1
-4 2 -13 96.8244 14.3732 4
4 -2 14 48.6344 14.0048 2
-4 2 -14 38.7486 12.6803 4
-4 1 14 321.464 25.5407 2
-4 1 13 442.57 29.6532 2
4 -1 -12 202.317 12.6049 1
-4 1 12 199.213 13.2731 1
4 -1 -12 136.164 11.5238 4
-4 1 12 161.049 17.6017 2
-4 1 11 281.61 16.4066 1
4 -1 -11 275.782 15.7089 1
-4 1 11 318.871 22.189 2
4 -1 -11 244.648 14.9487 4
-4 1 10 228.28 14.1878 1
-4 1 10 214.409 11.8106 4
4 -1 -10 203.861 13.1973 1
4 -1 -10 210.395 12.7626 4
-4 1 10 234.456 18.7099 2
-4 1 9 39.5552 7.07255 1
-4 1 9 41.7474 5.08676 4
-4 1 9 45.2698 10.2201 2
4 -1 -9 34.6375 5.66746 4
4 -1 -9 39.753 6.33014 1
-4 1 8 325.939 16.7441 1
-4 1 8 289.078 13.8744 4
4 -1 -8 298.965 16.3344 1
-4 1 8 299.935 20.8008 2
4 -1 -8 263.776 14.4567 4
-4 1 7 92.2165 8.80792 1
-4 1 7 89.4417 6.41496 4
-4 1 7 81.1638 11.1338 2
4 -1 -7 83.9451 6.79359 4
4 -1 -7 103.828 8.71029 1
-4 1 6 245.613 11.9538 3
4 -1 -6 256.505 14.8488 1
-4 1 6 227.859 17.4703 2
-4 1 6 243.172 12.2344 4
-4 1 6 258.122 14.937 1
-4 1 6 260.583 11.7784 3
-4 1 5 303.011 21.0001 2
-4 1 5 283.001 14.5033 3
-4 1 5 272.705 13.5161 4
4 -1 -5 272.605 16.0939 1
-4 1 5 271.843 19.0689 2
-4 1 5 300.214 13.8057 4
-4 1 5 305.014 16.6093 1
-4 1 5 303.575 14.0567 3
-4 1 4 2104.83 87.4909 2
-4 1 4 1994.33 80.9877 3
-4 1 4 1959.11 79.3461 4
4 -1 -4 2030.18 82.4303 1
-4 1 4 1956.08 85.5322 2
-4 1 4 1988.85 79.6524 4
-4 1 4 2065.68 82.4493 1
-4 1 4 2003.74 80.3649 3
-4 1 3 300.494 20.5029 2
-4 1 3 298.596 16.2376 3
4 -1 -3 294.489 16.743 1
-4 1 3 286.863 14.2233 4
-4 1 3 283.497 18.7893 2
-4 1 3 296.862 14.5464 4
-4 1 3 296.543 16.7532 1
-4 1 3 285.455 15.1882 3
-4 1 2 23.6449 4.94654 3
-4 1 2 12.0383 5.27621 1
-4 1 2 33.7284 9.8974 2
-4 1 2 22.5854 6.69705 3
-4 1 2 21.2886 5.172 5
-4 1 2 14.6994 3.79729 4
-4 1 2 18.8751 7.05467 2
4 -1 -2 18.5463 5.5268 1
-4 1 2 26.0826 4.94228 4
-4 1 1 196.074 13.7291 3
-4 1 1 210.47 16.7553 2
-4 1 1 203.922 12.853 5
4 -1 -1 214.637 13.85 1
-4 1 1 203.264 15.1373 2
-4 1 1 203.327 11.6085 4
-4 1 1 200.444 13.4393 1
-4 1 1 211.392 12.4854 4
-4 1 1 199.648 12.743 3
-4 1 0 139.095 11.5411 1
-4 1 0 151.422 14.3625 2
-4 1 0 130.318 11.6307 3
-4 1 0 139.949 11.4454 5
-4 1 0 149.317 9.63027 4
-4 1 0 132.206 12.4263 2
-4 1 0 164.043 10.9736 4
-4 1 0 147.731 10.9231 3
-4 1 -1 257.166 16.5058 3
-4 1 -1 239.428 15.6752 5
-4 1 -1 238.74 16.5317 2
-4 1 -1 239.892 13.7324 4
-4 1 -1 251.715 15.894 1
-4 1 -1 242.379 14.8763 4
-4 1 -1 245.112 16.792 1
-4 1 -1 222.992 15.1266 3
-4 1 -1 234.685 17.7201 2
-4 1 -2 2367.43 100.783 3
-4 1 -2 2379.68 101.163 2
-4 1 -2 2383.05 97.8759 4
-4 1 -2 2436.79 100.182 1
-4 1 -2 2427.95 101.314 1
-4 1 -2 2437.89 99.0892 4
-4 1 -2 2422.41 100.023 3
-4 1 -2 2449.74 101.747 2
4 -1 3 1416.72 60.5127 2
-4 1 -3 1281.05 58.1533 3
-4 1 -3 1246.19 54.9989 4
-4 1 -3 1224.53 56.7539 1
-4 1 -3 1266.12 58.1658 1
-4 1 -3 1296.32 56.3557 4
-4 1 -3 1320.93 57.368 3
-4 1 -3 1268.05 58.2945 2
-4 1 -4 63.9235 10.231 1
-4 1 -4 67.0824 11.0474 2
4 -1 4 82.5227 11.917 2
-4 1 -4 64.4169 11.218 3
-4 1 -4 70.5209 8.3429 4
-4 1 -4 70.4003 9.29953 4
-4 1 -4 73.826 10.2637 1
-4 1 -4 84.0874 10.178 3
-4 1 -5 61.7664 10.6608 2
4 -1 5 90.9644 12.8188 2
-4 1 -5 65.0069 11.6843 3
-4 1 -5 75.0612 8.85088 4
-4 1 -5 84.8189 11.7515 1
-4 1 -5 70.9221 9.91294 4
-4 1 -5 85.8773 11.0608 1
-4 1 -5 62.9033 10.129 3
-4 1 -6 5.46344 8.52671 2
4 -1 6 8.4295 8.38604 2
-4 1 -6 1.89131 6.04264 4
-4 1 -6 6.49075 8.42375 1
-4 1 -6 13.4884 7.93894 4
-4 1 -6 -1.07614 7.5514 1
-4 1 -6 3.54608 7.49161 3
-4 1 -7 -1.11699 8.80655 2
4 -1 7 -5.80032 9.90096 2
-4 1 -7 4.10063 9.33286 1
-4 1 -7 4.1196 6.78347 4
-4 1 -7 1.13348 8.5561 1
-4 1 -7 -1.25908 7.44509 3
-4 1 -8 38.7411 10.8202 1
4 -1 8 27.0794 10.7365 2
-4 1 -8 49.1195 9.20547 4
-4 1 -8 44.177 10.0531 3
-4 1 -9 28.6618 10.8561 1
4 -1 9 34.3598 11.9832 2
-4 1 -9 28.8801 8.58168 4
-4 1 -9 35.4115 10.2655 3
-4 1 -10 1265.8 62.1025 1
-4 1 -10 1307.14 60.3553 4
-4 1 -10 1313.62 61.989 3
4 -1 10 1278.14 62.7565 2
-4 1 -11 832.185 43.4922 4
-4 1 -11 910.884 46.0038 3
4 -1 11 781.752 45.0997 2
-4 1 -11 872.725 45.8178 1
4 -1 12 108.717 16.4303 2
-4 1 -12 123.258 15.4923 4
-4 1 -12 93.7695 15.6087 1
-4 1 -12 131.783 16.5491 3
4 -1 13 12.827 12.6374 2
-4 1 -13 38.7916 12.5145 4
4 -1 14 22.9509 14.3059 2
-4 1 -14 27.7061 12.5016 4
-4 0 15 3.71635 11.6789 2
4 0 -14 30.8785 8.24862 1
-4 0 14 26.5953 12.1588 2
-4 0 13 402.759 27.5086 2
4 0 -13 365.864 21.7234 1
4 0 -12 58.1259 9.13651 1
-4 0 12 38.7127 11.8314 2
-4 0 12 45.7144 9.2158 1
4 0 -11 182.353 12.832 1
-4 0 11 159.614 12.9241 1
4 0 -10 157.352 12.0912 1
-4 0 10 117.166 11.7627 1
-4 0 10 113.167 14.4849 2
4 0 -9 37.8716 7.24769 1
-4 0 9 27.0606 7.58539 1
-4 0 9 25.5352 3.24783 3
-4 0 9 21.5525 3.22825 3
-4 0 9 33.6933 10.2752 2
-4 0 8 290.224 17.7649 1
-4 0 8 296.05 14.0355 3
-4 0 8 264.961 20.4593 2
4 0 -8 306.628 17.6802 1
-4 0 7 4016.01 159.708 3
-4 0 7 4023.31 167.319 2
4 0 -7 4124.11 163.149 1
-4 0 7 4203.7 163.4 1
-4 0 6 999.436 48.4967 2
4 0 -6 983.204 44.919 1
-4 0 6 990.242 44.956 1
-4 0 6 1017.95 42.3134 3
-4 0 5 426.596 26.9859 2
-4 0 5 413.006 25.396 2
4 0 -5 420.156 22.7545 1
-4 0 5 442.569 22.8743 1
-4 0 5 421.04 20.5338 3
-4 0 4 395.708 25.539 2
-4 0 4 391.296 24.16 2
4 0 -4 395.852 21.9355 1
-4 0 4 407.952 22.0152 1
-4 0 4 424.403 20.4004 3
-4 0 3 447.914 19.9645 5
4 0 -3 477.713 23.4899 1
-4 0 3 459.161 25.4543 2
-4 0 3 412.431 17.0728 4
-4 0 3 408.065 17.1233 4
-4 0 3 494.556 23.6828 1
-4 0 3 448.453 21.6853 3
-4 0 3 461.777 26.7219 2
-4 0 2 445.288 23.1654 3
4 0 -2 433.818 23.4409 1
-4 0 2 451.72 25.6811 2
-4 0 2 433.38 18.5786 4
-4 0 2 412.959 18.8882 4
-4 0 2 485.461 24.0433 1
-4 0 2 421.52 22.0052 3
-4 0 2 430.836 26.3108 2
-4 0 1 849.699 39.6117 3
4 0 -1 797.626 39.4772 1
-4 0 1 799.915 41.2903 2
-4 0 1 852.66 35.4199 4
-4 0 1 928.604 40.4449 1
-4 0 1 856.403 36.0832 4
-4 0 1 846.196 38.7841 3
-4 0 1 890.626 42.9915 2
-4 0 0 388.317 21.5567 3
4 0 0 347.523 21.0184 1
-4 0 0 420.785 23.7726 2
-4 0 0 334.149 17.4301 4
-4 0 0 395.807 21.7471 1
-4 0 0 377.177 18.5833 4
-4 0 0 375.267 20.693 3
-4 0 0 435.491 24.7133 2
-4 0 -1 136.386 11.8732 3
-4 0 -1 146.109 12.6561 1
-4 0 -1 137.304 14.8078 2
-4 0 -1 163.919 13.2721 3
-4 0 -1 134.501 9.26553 4
-4 0 -1 132.622 13.2205 2
4 0 1 148.053 12.5049 1
-4 0 -1 152.539 10.8778 4
-4 0 -2 1.92528 6.5274 1
-4 0 -2 -3.57237 9.1409 2
-4 0 -2 8.36892 7.98617 3
-4 0 -2 1.14941 4.00564 4
-4 0 -2 0.69666 5.93311 4
-4 0 -2 4.68444 6.12506 3
-4 0 -3 84.9651 11.6795 1
-4 0 -3 128.018 14.2835 2
4 0 3 103.836 13.2549 2
-4 0 -3 110.545 12.7909 3
-4 0 -3 109.681 9.08953 4
-4 0 -3 90.5064 10.371 4
-4 0 -3 95.8561 10.9555 3
-4 0 -3 119.097 11.8486 1
-4 0 -4 92.6866 11.9275 1
-4 0 -4 50.6534 11.5139 2
4 0 4 80.6996 12.639 2
-4 0 -4 86.6531 12.4568 3
-4 0 -4 68.8859 8.14808 4
-4 0 -4 99.0407 11.2258 1
-4 0 -4 86.777 10.5491 3
4 0 5 322.675 22.6177 2
4 0 5 271.69 17.0718 4
-4 0 -5 287.471 17.4406 4
-4 0 -5 282.805 19.5109 1
-4 0 -5 247.792 20.0117 1
-4 0 -5 271.369 20.1788 2
-4 0 -5 271.609 19.4237 3
-4 0 -6 59.267 11.917 1
4 0 6 76.6928 13.4016 2
4 0 6 71.3108 9.22022 4
-4 0 -6 57.5995 9.0946 4
-4 0 -6 79.456 11.4824 1
-4 0 -6 67.2199 10.9583 3
-4 0 -7 585.185 33.302 1
4 0 7 533.043 28.7598 4
-4 0 -7 558.235 29.8242 4
-4 0 -7 587.411 32.171 3
4 0 7 557.261 33.6152 2
4 0 8 -1.66906 10.4036 2
-4 0 -8 -5.60952 7.76634 4
-4 0 -8 7.57671 9.6787 1
-4 0 -8 16.796 8.65148 3
4 0 9 -3.46301 10.5191 2
-4 0 -9 -3.16376 11.3137 1
-4 0 -9 9.78539 7.81227 4
-4 0 -9 -5.90387 8.64636 3
-4 0 -10 126.889 16.6981 1
4 0 10 104.232 16.8797 2
-4 0 -10 130.579 14.3162 4
-4 0 -10 164.532 16.2575 3
4 0 11 173.249 19.2843 2
-4 0 -11 148.331 16.3452 4
-4 0 -11 190.274 18.5655 3
4 0 12 25.1107 13.0421 2
-4 0 -12 26.4533 10.671 4
4 0 13 231.006 23.6498 2
-4 0 -13 252.059 21.8617 4
4 0 14 108.611 18.8987 2
-4 0 -14 98.0508 15.6138 4
4 1 -14 242.859 18.3142 1
-4 -1 14 192.692 20.5648 2
4 1 -13 296.904 19.8155 1
-4 -1 13 324.224 24.4947 2
-4 -1 13 243.414 19.3029 1
4 1 -12 188.765 15.5547 1
-4 -1 12 191.3 15.881 1
-4 -1 12 166.718 18.2288 2
4 1 -11 15.0542 8.04979 1
-4 -1 11 7.7213 4.78565 3
-4 -1 11 16.7935 8.5749 1
-4 -1 11 25.6732 10.5005 2
4 1 -10 0.97706 7.20599 1
-4 -1 10 5.21849 5.0934 3
-4 -1 10 -0.9655 7.73039 1
-4 -1 10 -1.54029 8.85148 2
4 1 -10 0.75987 3.68182 3
4 1 -9 4.77856 7.13408 1
-4 -1 9 -0.94431 7.56275 1
-4 -1 9 3.16747 5.02957 3
-4 -1 9 -1.49051 8.56719 2
4 1 -9 9.81869 4.28062 3
-4 -1 8 487.19 26.0885 1
-4 -1 8 473.668 23.1976 3
-4 -1 8 444.35 28.4841 2
4 1 -8 476.965 25.8129 1
4 1 -8 486.939 22.3439 3
-4 -1 7 -0.61044 5.12875 3
-4 -1 7 -2.77761 8.0589 2
-4 -1 7 -2.77348 6.89906 1
4 1 -7 -0.50973 4.47486 3
4 1 -7 -3.71716 7.25021 1
-4 -1 6 764.087 39.002 2
4 1 -6 714.746 35.5512 1
4 1 -6 723.782 32.6946 3
-4 -1 6 711.955 35.6288 1
-4 -1 6 759.912 33.711 3
-4 -1 5 271.045 19.4284 2
4 1 -5 249.22 16.7682 1
-4 -1 5 259.738 17.0986 1
4 1 -5 248.338 14.6274 3
-4 -1 5 229.296 14.8966 3
-4 -1 4 241.226 18.2834 2
4 1 -4 249.113 16.694 1
-4 -1 4 263.335 17.1835 1
4 1 -4 244.083 14.7317 3
-4 -1 4 237.428 15.0643 3
-4 -1 3 30.6907 6.97911 3
-4 -1 3 31.1917 8.17531 1
-4 -1 3 26.3134 8.63929 2
4 1 -3 44.1551 8.11631 1
4 1 -3 26.8808 6.32776 3
-4 -1 2 6.5339 5.74393 3
-4 -1 2 26.6083 10.7133 2
-4 -1 2 11.2709 6.68739 1
-4 -1 2 7.51325 7.48385 2
4 1 -2 4.89031 6.30939 1
4 1 -2 18.5884 6.77046 3
-4 -1 1 96.0814 10.1238 3
-4 -1 1 101.781 14.258 2
-4 -1 1 100.955 10.723 1
-4 -1 1 98.0944 5.97407 4
-4 -1 1 129.788 12.9816 2
-4 -1 1 85.5462 6.23922 4
4 1 -1 75.9447 10.0577 1
4 1 -1 103.317 9.84534 3
-4 -1 0 256.326 19.9421 2
-4 -1 0 243.411 18.6462 2
4 1 0 250.886 17.4945 1
-4 -1 0 270.931 13.2009 4
-4 -1 0 250.467 17.5066 1
-4 -1 0 248.589 13.6214 4
4 1 0 286.628 16.8792 3
-4 -1 0 257.66 17.0628 3
-4 -1 -1 351.265 23.45 2
4 1 1 377.391 22.7327 1
-4 -1 -1 380.113 18.5426 4
-4 -1 -1 379.682 22.564 1
-4 -1 -1 368.855 19.2786 4
4 1 1 377.508 21.3315 3
-4 -1 -1 374.154 22.1655 3
-4 -1 -1 395.477 25.0547 2
4 1 2 290.476 19.6726 1
-4 -1 -2 309.897 16.5957 4
-4 -1 -2 294.053 19.8055 1
-4 -1 -2 303.554 19.5403 3
-4 -1 -3 173.005 15.1055 1
4 1 3 190.556 18.0026 2
4 1 3 177.664 12.0388 4
-4 -1 -3 189.491 12.9221 4
-4 -1 -3 211.612 15.6498 3
-4 -1 -4 163.136 14.9276 3
-4 -1 -4 193.361 15.5931 1
4 1 4 165.492 17.3943 2
4 1 4 177.036 12.1779 4
-4 -1 -4 160.947 12.6381 4
-4 -1 -4 175.566 16.6897 1
-4 -1 -5 9.89282 7.57951 3
4 1 5 3.34289 9.79254 2
4 1 5 4.45507 6.21085 4
-4 -1 -5 5.38821 6.58499 4
-4 -1 -5 -1.41716 9.40465 1
-4 -1 -5 -2.32638 7.94342 1
4 1 6 55.1973 12.8896 2
4 1 6 55.1378 8.8778 4
-4 -1 -6 53.7088 9.22075 4
-4 -1 -6 48.6274 11.3774 1
-4 -1 -6 57.601 10.5808 3
-4 -1 -7 12.273 9.95909 1
4 1 7 10.6454 10.202 2
4 1 7 11.4209 7.28717 4
-4 -1 -7 -4.36446 7.14188 4
-4 -1 -7 29.0244 9.95387 3
-4 -1 -8 384.392 26.6597 1
-4 -1 -8 381.818 23.7644 4
-4 -1 -8 361.049 25.2075 3
4 1 8 407.798 28.5089 2
4 1 9 260.694 23.4254 2
-4 -1 -9 269.832 20.1088 4
-4 -1 -9 281.229 21.7372 3
4 1 10 116.351 17.1255 2
-4 -1 -10 97.1397 13.5795 4
-4 -1 -10 107.173 15.329 3
4 1 11 16.3277 12.8407 2
-4 -1 -11 15.0647 10.087 4
4 1 12 -2.11563 13.1898 2
-4 -1 -12 14.4904 10.0395 4
4 1 13 19.7091 13.7651 2
-4 -1 -13 15.4274 11.8681 4
-4 -1 -13 -7.20361 12.7185 3
4 2 -14 66.1243 12.3925 1
4 2 -13 1.22074 9.37065 1
4 2 -12 76.2522 12.0987 1
-4 -2 12 63.0039 8.6785 3
-4 -2 11 379.379 21.1007 3
4 2 -11 405.83 24.3875 1
4 2 -10 22.7371 9.36756 1
-4 -2 10 39.3074 7.81238 3
-4 -2 9 547.609 27.0281 3
-4 -2 9 524.722 29.4716 1
4 2 -9 512.374 29.0615 1
4 2 -9 540.472 25.7489 3
-4 -2 8 237.43 18.4286 1
-4 -2 8 259.909 16.2889 3
4 2 -8 267.29 18.564 1
4 2 -8 252.863 15.2427 3
4 2 -7 6.49456 7.59943 1
-4 -2 7 10.4786 6.49334 3
-4 -2 7 5.91464 8.58555 2
-4 -2 7 2.11546 8.1695 1
4 2 -7 12.064 5.9404 3
-4 -2 6 5.79557 6.59578 3
-4 -2 6 1.96351 1.97525 5
-4 -2 6 4.31569 8.1857 2
-4 -2 6 -3.13484 7.88824 1
4 2 -6 0.69754 6.22561 3
4 2 -6 8.6128 7.74898 1
-4 -2 5 127.213 11.3652 3
-4 -2 5 127.676 14.6067 2
-4 -2 5 126.443 12.912 1
4 2 -5 134.673 11.3583 3
4 2 -5 114.202 12.2355 1
4 2 -4 204.07 15.9106 1
-4 -2 4 204.265 17.457 2
-4 -2 4 219.39 16.5412 1
4 2 -4 218.723 14.3842 3
-4 -2 4 206.62 14.9948 3
-4 -2 3 175.362 14.3903 1
-4 -2 3 145.862 15.1473 2
4 2 -3 172.295 14.5551 1
-4 -2 3 171.483 13.5388 3
4 2 -3 174.202 13.0473 3
-4 -2 2 274.27 20.1645 2
4 2 -2 251.95 18.2952 1
-4 -2 2 278.908 18.7026 1
4 2 -2 244.183 16.4465 3
-4 -2 2 249.143 17.2636 3
-4 -2 1 7.04337 6.83624 3
-4 -2 1 11.8194 7.84153 1
-4 -2 1 23.3459 9.25578 2
-4 -2 1 9.69555 2.7188 4
-4 -2 1 10.8015 3.14798 4
4 2 -1 15.8537 7.8507 1
4 2 -1 21.3149 7.68279 3
-4 -2 0 16.8763 7.30413 3
-4 -2 0 4.37839 7.92987 1
-4 -2 0 -1.38329 8.25754 2
-4 -2 0 5.10634 3.72987 4
4 2 0 6.92018 7.07112 1
-4 -2 0 4.1239 4.53048 4
4 2 0 4.45508 6.88015 3
-4 -2 -1 41.8829 9.00408 3
-4 -2 -1 54.897 10.1183 1
4 2 1 40.4354 5.31246 4
-4 -2 -1 40.6316 9.88663 2
-4 -2 -1 40.8973 5.93907 4
4 2 1 37.6857 9.12348 1
4 2 1 31.6404 8.34891 3
-4 -2 -2 16.1707 7.82281 3
-4 -2 -2 18.4078 8.16816 1
4 2 2 30.5592 5.70219 4
-4 -2 -2 16.0711 5.82038 4
4 2 2 28.862 9.01435 1
4 2 3 265.904 22.5397 2
4 2 3 269.411 19.6649 1
4 2 3 279.105 15.5333 4
-4 -2 -3 272.032 16.4947 4
-4 -2 -3 277.362 19.6669 3
-4 -2 -4 40.7599 9.77176 3
4 2 4 39.1044 12.4268 2
4 2 4 52.4571 7.81202 4
4 2 4 52.9841 10.1487 1
-4 -2 -4 39.4671 7.89915 4
4 2 5 434.099 30.768 2
4 2 5 488.621 24.3977 4
-4 -2 -5 450.053 25.2778 4
-4 -2 -5 474.25 28.284 3
-4 -2 -6 5.62789 8.08587 3
4 2 6 5.65977 11.3608 2
4 2 6 13.0962 7.36453 4
-4 -2 -6 -2.09567 7.10543 4
-4 -2 -6 -11.108 10.2158 1
-4 -2 -7 385.54 23.7901 4
-4 -2 -7 388.919 25.6826 3
4 2 7 355.962 28.3584 2
-4 -2 -8 679.551 36.3507 4
-4 -2 -8 718.208 39.0703 3
4 2 8 694.942 41.8657 2
-4 -2 -9 70.8429 12.9662 3
4 2 9 57.9922 15.2665 2
-4 -2 -9 53.8458 10.7518 4
4 2 10 17.1391 14.0204 2
-4 -2 -10 24.5718 10.5522 4
-4 -2 -10 7.27233 11.903 1
4 2 11 234.938 24.7684 2
-4 -2 -11 214.94 20.063 4
4 2 12 29.7894 15.5651 2
-4 -2 -12 21.402 11.6621 4
4 3 -13 113.633 14.603 1
-4 -3 13 114.315 17.2805 2
4 3 -12 21.4651 10.3377 1
-4 -3 12 24.3679 8.74434 3
-4 -3 12 25.0538 11.909 2
4 3 -11 -1.31464 9.10037 1
-4 -3 11 4.76769 7.86272 3
-4 -3 11 1.73773 10.2757 2
4 3 -10 9.03298 9.63131 1
-4 -3 10 0.97012 7.76945 3
-4 -3 10 8.47728 10.3019 2
4 3 -9 195.178 17.1881 1
-4 -3 9 190.789 15.5361 3
4 3 -9 204.443 14.5942 3
-4 -3 8 403.974 22.9247 3
4 3 -8 389.583 24.4052 1
4 3 -8 364.292 21.1866 3
-4 -3 7 665.074 30.8831 3
4 3 -7 676.448 32.7845 1
4 3 -7 719.992 30.1744 3
4 3 -6 631.306 33.7873 1
4 3 -6 638.184 31.2799 3
-4 -3 6 614.64 32.2587 3
-4 -3 5 165.36 13.8643 3
4 3 -5 133.455 14.243 1
4 3 -5 168.265 13.6505 3
-4 -3 4 39.1951 8.80874 3
4 3 -4 24.582 9.13601 1
4 3 -4 25.6417 8.31464 3
-4 -3 3 22.8468 8.59324 3
4 3 -3 38.3705 10.2081 1
4 3 -3 22.6907 7.89797 3
-4 -3 2 11.2039 7.81044 3
4 3 -2 -1.25113 8.42568 1
-4 -3 1 119.142 12.2284 3
-4 -3 1 79.2491 5.89296 4
4 3 -1 126.694 13.0292 1
-4 -3 0 8.39991 7.90725 3
4 3 0 5.76995 3.3754 4
-4 -3 0 5.38872 4.265 4
4 3 0 8.98745 8.45986 1
4 3 1 407.184 19.2832 4
4 3 1 429.701 25.7277 1
-4 -3 -1 382.65 20.0007 4
-4 -3 -1 435.771 25.8073 3
4 3 2 909.743 45.9381 1
4 3 2 919.556 39.804 4
-4 -3 -2 911.231 40.9478 4
-4 -3 -2 949.226 45.9057 3
-4 -3 -3 22.9567 9.29156 3
4 3 3 15.0507 12.3042 2
4 3 3 8.00101 5.36976 4
-4 -3 -3 10.2204 6.61521 4
4 3 3 -1.34883 8.82537 1
-4 -3 -4 35.1463 10.1261 3
4 3 4 52.185 13.6583 2
4 3 4 43.7354 7.79493 4
4 3 4 48.0306 11.2195 1
-4 -3 -4 41.4172 8.39245 4
4 3 5 300.504 25.8831 2
4 3 5 332.984 19.3165 4
-4 -3 -5 335.645 20.7435 4
-4 -3 -5 337.092 23.6093 3
4 3 6 423.893 31.3361 2
4 3 6 458.29 24.682 4
-4 -3 -6 490.272 26.7794 4
-4 -3 -6 416.539 28.4856 3
-4 -3 -7 2641.81 111.249 4
-4 -3 -7 2570.51 113.949 3
4 3 7 2697.56 118.456 2
-4 -3 -8 1636.27 73.8603 4
-4 -3 -8 1704.52 77.8929 1
-4 -3 -8 1526.32 75.5808 3
4 3 8 1710.69 80.7203 2
4 3 9 31.2559 14.6067 2
-4 -3 -9 7.41312 13.2681 1
-4 -3 -9 12.8214 9.74503 4
4 3 10 103.679 19.7539 2
-4 -3 -10 65.4844 13.1294 4
4 3 11 140.17 21.7447 2
-4 -3 -11 118.296 16.3236 4
4 4 -12 -7.43416 10.9 1
-4 -4 12 4.64704 9.06382 3
-4 -4 12 -3.67932 11.5619 2
-4 -4 11 438.882 26.8857 3
-4 -4 11 450.683 30.8246 2
4 4 -11 475.497 29.5479 1
-4 -4 10 544.934 31.6466 3
-4 -4 10 616.171 36.2465 2
4 4 -10 602.072 34.1667 1
4 4 -9 51.0932 11.8105 1
-4 -4 9 50.8824 10.5276 3
-4 -4 9 51.6589 12.4708 2
4 4 -8 32.2529 11.1781 1
-4 -4 8 42.6068 10.239 3
-4 -4 8 18.5201 10.5626 2
4 4 -7 59.6483 12.0003 1
-4 -4 7 61.9644 11.0669 3
-4 -4 7 66.0006 12.9572 2
-4 -4 6 238.353 18.5266 3
-4 -4 6 238.211 20.6488 2
4 4 -6 258.982 20.2167 1
-4 -4 5 265.926 21.0532 2
4 4 -5 215.671 19.3364 1
-4 -4 5 241.976 18.6894 3
-4 -4 4 282.583 22.081 2
4 4 -4 251.666 20.5439 1
-4 -4 4 278.075 19.9177 3
-4 -4 3 273.542 22.2547 2
4 4 -3 311.765 21.9993 1
-4 -4 3 302.422 21.0037 3
-4 -4 2 649.281 36.4435 2
4 4 -2 633.144 35.1074 1
-4 -4 2 601.933 34.017 3
-4 -4 1 277.486 21.573 2
4 4 -1 253.536 11.9171 4
4 4 -1 282.884 20.6828 1
-4 -4 1 226.534 12.5464 4
-4 -4 1 274.81 19.9392 3
-4 -4 0 13.5709 9.46563 3
4 4 0 12.7007 3.97424 4
-4 -4 0 16.3138 9.38331 2
-4 -4 0 4.55698 5.21719 4
4 4 0 8.4808 8.96471 1
-4 -4 -1 346.189 25.2755 2
4 4 1 334.167 17.4305 4
4 4 1 364.362 24.2139 1
-4 -4 -1 358.809 18.8749 4
-4 -4 -1 331.511 23.5636 3
-4 -4 -2 1.44499 8.70252 3
4 4 2 4.00664 5.08951 4
-4 -4 -2 2.25852 5.96827 4
4 4 2 11.5606 9.23076 1
4 4 3 296.104 17.1574 4
-4 -4 -3 306.006 18.7871 4
-4 -4 -3 296.21 22.5188 3
-4 -4 -4 49.6624 11.9988 3
4 4 4 31.1052 7.39019 4
-4 -4 -4 40.1687 9.23769 4
-4 -4 -5 35.435 11.8068 3
-4 -4 -5 57.7218 10.7455 4
-4 -4 -6 18.3576 10.7496 3
-4 -4 -6 3.60574 9.0286 4
-4 -4 -7 124.039 16.5293 3
-4 -4 -7 137.663 15.0488 4
-4 -4 -7 149.547 18.669 1
-4 -4 -8 5.33991 11.2782 3
-4 -4 -8 -7.09549 10.4036 4
-4 -4 -9 42.5754 11.7217 4
-4 -5 10 70.2599 13.2266 3
-4 -5 10 76.3772 14.9693 2
-4 -5 9 59.3208 12.3144 3
-4 -5 9 57.1458 13.6644 2
4 5 -8 96.3833 14.7626 1
-4 -5 8 103.598 14.016 3
-4 -5 8 115.779 16.0366 2
4 5 -7 67.7778 13.3189 1
-4 -5 7 49.9912 11.2441 3
-4 -5 7 67.4162 13.7522 2
-4 -5 6 33.6071 10.6291 3
-4 -5 6 27.2777 11.7743 2
4 5 -6 26.011 11.1371 1
-4 -5 5 18.3957 10.9742 3
-4 -5 5 47.4312 13.1889 2
4 5 -5 24.3762 10.7412 1
-4 -5 4 41.4383 11.6351 3
-4 -5 4 26.9676 11.5883 2
4 5 -4 38.0567 11.506 1
-4 -5 3 20.2253 10.2885 3
-4 -5 3 13.6428 10.472 2
4 5 -3 18.2688 10.1978 1
-4 -5 2 105.748 14.6886 3
-4 -5 2 130.207 16.4493 2
4 5 -2 131.311 15.797 1
-4 -5 1 112.167 14.8035 3
-4 -5 1 124.404 16.5811 2
4 5 -1 98.1038 14.2636 1
-4 -5 0 843.685 44.5285 2
4 5 0 875.097 43.2556 1
-4 -5 0 721.747 34.9229 4
-4 -5 0 813.632 42.6799 3
-4 -5 -1 73.4645 13.8138 3
-4 -5 -1 105.023 16.0211 2
-4 -5 -1 82.4775 9.86646 4
-4 -5 -2 46.4893 12.1658 3
-4 -5 -2 48.7037 12.3624 2
-4 -5 -2 46.3271 9.02208 4
-4 -5 -3 92.323 14.3352 3
-4 -5 -3 77.9585 10.9504 4
-4 -5 -4 6.8069 10.2517 3
4 5 4 11.1968 13.3671 2
-4 -5 -4 7.49662 8.40496 4
-4 -5 -5 87.723 15.1661 3
4 5 5 80.2709 18.3231 2
-4 -5 -5 69.8659 11.8887 4
-4 -5 -6 151.815 18.7548 3
4 5 6 141.07 21.624 2
-4 -5 -6 160.886 16.4299 4
-4 -6 6 70.1449 13.4824 3
-4 -6 6 71.2929 14.1665 2
-4 -6 5 44.9836 12.7669 3
-4 -6 5 63.8964 13.8524 2
-4 -6 4 1.6203 10.5933 3
-4 -6 4 -8.8751 12.0361 2
-4 -6 3 4.90095 10.68 3
-4 -6 3 -10.7889 11.844 2
-4 -6 2 21.4578 11.8342 3
-4 -6 2 21.7825 13.2526 2
-4 -6 1 -8.3638 11.1029 3
-4 -6 1 -5.48668 11.2111 2
-4 -6 0 22.1233 12.0612 3
-4 -6 0 33.3818 13.4709 2
-4 -6 -1 298.345 24.3871 3
-4 -6 -1 308.625 25.9141 2
-4 -6 -2 42.5373 12.8911 3
-4 -6 -2 19.1514 13.2208 2
-4 -6 -3 87.0909 16.075 3
5 -7 -4 6.90352 11.9495 4
5 -7 -3 14.0095 11.9689 4
5 -7 -2 954.896 50.7363 4
5 -7 -1 575.117 36.1282 4
5 -7 0 146.9 14.7065 3
5 -7 0 153.218 19.7205 4
5 -7 1 1.23202 9.24698 3
5 -7 2 14.7844 11.0341 3
-5 7 -2 4.33283 9.08275 4
5 -7 3 89.9636 14.4033 3
-5 7 -3 94.4685 14.1469 4
5 -7 4 136.698 16.8845 3
-5 7 -4 99.7533 14.45 4
5 -7 5 156.997 18.1184 3
-5 7 -5 155.176 14.6721 1
-5 7 -5 125.516 16.0198 4
5 -7 6 243.487 22.4835 3
-5 7 -6 210.901 17.6749 1
-5 7 -6 241.217 21.0149 4
5 -6 -7 228.622 20.6703 4
5 -6 -6 122.963 15.8747 4
5 -6 -5 749.533 40.7766 4
5 -6 -4 61.3568 13.2727 4
5 -6 -3 10.9616 10.4754 4
5 -6 -2 6.44871 11.0079 4
-5 6 2 0.60831 5.62424 3
5 -6 -1 72.3543 14.8813 4
-5 6 1 54.8512 8.5983 3
-5 6 0 229.243 15.5568 3
-5 6 -1 151.245 11.2457 1
-5 6 -1 178.089 15.8415 4
-5 6 -2 224.881 15.0533 1
-5 6 -2 233.448 18.6054 4
-5 6 -3 46.9182 10.4866 4
-5 6 -3 43.0723 8.57649 1
-5 6 -4 1.38041 8.53258 4
-5 6 -4 -5.817 7.59541 1
-5 6 -4 -0.96516 7.20294 1
-5 6 -5 24.1352 10.3819 4
-5 6 -5 21.3788 6.89343 1
-5 6 -5 24.444 9.40889 1
-5 6 -6 20.4573 10.2102 4
-5 6 -6 18.5255 9.93199 1
-5 6 -7 3.01188 9.84465 4
-5 6 -7 -3.75068 9.80552 1
-5 6 -8 108.58 15.2709 4
-5 6 -8 113.907 14.8504 1
5 -5 -9 170.679 17.268 4
-5 5 9 167.651 16.7391 2
-5 5 8 300.754 20.7731 2
5 -5 -8 254.205 20.6767 4
5 -5 -7 3.92447 9.47894 4
-5 5 7 11.8949 8.12217 2
5 -5 -6 27.3425 10.4111 4
-5 5 6 43.1602 9.34729 2
5 -5 -5 -5.25616 9.39822 4
-5 5 5 1.85757 7.54816 2
-5 5 4 370.758 21.5331 2
5 -5 -4 398.381 25.2457 4
-5 5 3 260.313 16.2137 2
5 -5 -3 291.552 21.3424 4
-5 5 3 227.118 13.1657 3
-5 5 2 237.698 12.185 1
-5 5 2 227.858 14.8983 2
5 -5 -2 270.16 20.4889 4
-5 5 2 214.492 13.7892 3
-5 5 1 90.6688 8.94963 2
-5 5 1 83.2816 7.71023 1
-5 5 1 92.2725 9.37061 3
-5 5 0 39.1959 6.38956 1
-5 5 0 34.7455 6.63336 1
-5 5 0 35.0287 7.46455 3
-5 5 0 35.0847 7.77078 4
-5 5 0 38.7663 6.2913 2
-5 5 0 37.9763 7.71765 3
-5 5 -1 34.9465 6.99662 1
-5 5 -1 48.179 8.86407 3
-5 5 -1 23.6903 7.78228 4
-5 5 -1 34.6477 6.20435 2
-5 5 -1 43.4781 8.11057 3
-5 5 -1 44.5444 7.59645 1
-5 5 -2 86.3667 9.54011 1
-5 5 -2 63.7408 10.5373 3
-5 5 -2 54.8811 9.66995 4
-5 5 -2 75.3708 7.58265 2
-5 5 -2 55.3889 8.75956 1
-5 5 -2 75.3798 9.65624 3
-5 5 -3 380.039 24.2504 4
-5 5 -3 374.428 19.491 2
-5 5 -3 372.615 21.5865 1
-5 5 -3 400.447 22.2551 1
-5 5 -3 361.465 22.6385 3
-5 5 -4 256.974 19.5709 4
-5 5 -4 256.091 17.2883 1
-5 5 -4 253.765 15.2358 2
-5 5 -4 309.317 19.3211 1
-5 5 -4 262.285 18.6771 3
-5 5 -5 19.2782 8.6721 1
-5 5 -5 2.5866 8.47021 4
-5 5 -5 20.729 6.30368 2
-5 5 -5 13.5774 6.45575 1
-5 5 -5 8.62157 7.43439 3
-5 5 -6 121.031 14.0179 1
-5 5 -6 146.138 14.7328 4
-5 5 -6 134.728 11.1455 2
-5 5 -6 132.367 14.7467 3
-5 5 -7 10.4888 9.58119 1
-5 5 -7 18.1006 9.98481 4
-5 5 -7 20.4198 6.76724 2
-5 5 -7 27.7887 11.1481 3
-5 5 -8 256.976 21.2543 1
-5 5 -8 281.201 21.5287 4
-5 5 -8 266.87 21.5287 3
-5 5 -9 7.40816 10.6669 1
-5 5 -9 6.05879 9.67785 4
-5 5 -9 7.71653 10.6861 3
-5 5 -10 34.3565 12.5024 1
-5 5 -10 29.925 11.3335 4
-5 5 -10 33.9882 12.4862 3
-5 4 10 28.1276 11.1404 2
5 -4 -9 -3.28265 8.89246 4
-5 4 9 3.97664 9.17549 2
5 -4 -8 58.3371 10.9942 4
-5 4 8 43.6246 10.2635 2
-5 4 7 837.88 40.9289 2
5 -4 -7 792.48 40.1029 4
-5 4 6 269.854 18.6714 2
5 -4 -6 245.4 18.2942 4
-5 4 5 138.124 13.6045 4
-5 4 5 171.553 14.7463 2
-5 4 4 2.77904 3.42975 3
-5 4 4 3.60076 4.08382 1
-5 4 4 8.92168 7.61622 2
-5 4 4 5.50237 7.84601 4
-5 4 4 6.82757 7.15215 2
5 -4 -4 4.6267 9.0732 4
-5 4 3 21.0782 9.01773 2
-5 4 3 42.8952 6.1257 1
-5 4 3 23.5167 4.69502 1
-5 4 3 44.6138 9.30961 4
-5 4 3 46.1263 8.01935 2
-5 4 3 27.829 5.42242 3
-5 4 2 20.2307 5.857 3
-5 4 2 21.2895 8.80869 2
-5 4 2 24.3924 5.57324 1
-5 4 2 38.3974 6.89382 1
-5 4 2 22.1333 6.53301 4
-5 4 2 42.2747 7.60378 2
-5 4 2 28.478 8.9296 4
-5 4 2 24.5991 6.07253 3
-5 4 1 136.925 10.1364 1
-5 4 1 116.125 12.7106 2
-5 4 1 116.315 10.2155 3
-5 4 1 107.87 10.8302 4
-5 4 1 116.513 10.4635 1
-5 4 1 108.733 10.7155 2
-5 4 1 119.872 12.6882 4
-5 4 1 129.437 10.3837 3
-5 4 0 75.574 8.61925 1
-5 4 0 85.0051 10.7542 2
-5 4 0 67.8286 9.21098 3
-5 4 0 90.3702 9.83758 4
-5 4 0 86.0723 9.5685 1
-5 4 0 66.5461 8.50112 2
-5 4 0 61.5974 11.0558 4
-5 4 0 71.7173 8.82878 3
-5 4 -1 252.586 17.3747 3
-5 4 -1 264.014 17.1928 4
-5 4 -1 272.541 16.2628 2
-5 4 -1 261.775 16.3714 1
-5 4 -1 269.893 19.1319 4
-5 4 -1 264.454 16.9241 1
-5 4 -1 270.391 16.9829 3
-5 4 -1 242.929 17.4465 2
-5 4 -2 -4.45922 8.55221 2
-5 4 -2 -6.02565 7.95954 3
-5 4 -2 -1.0295 6.08828 4
-5 4 -2 0.96693 5.92629 1
-5 4 -2 -3.12071 5.75455 2
-5 4 -2 -0.96252 5.42242 3
-5 4 -2 -3.38604 5.53461 1
-5 4 -3 7.81409 6.63209 2
-5 4 -3 9.68446 7.09135 4
-5 4 -3 3.16735 6.80056 1
-5 4 -3 4.73444 5.85865 2
-5 4 -3 7.31947 6.79171 1
-5 4 -3 5.25198 5.92126 3
-5 4 -4 467.645 24.6181 2
-5 4 -4 466.547 26.6029 4
-5 4 -4 433.43 25.4265 1
-5 4 -4 464.895 26.8853 1
-5 4 -4 479.147 25.4323 2
-5 4 -4 488.501 27.0676 3
-5 4 -5 661.756 37.2436 5
-5 4 -5 693.19 32.8307 2
-5 4 -5 628.729 34.5455 4
-5 4 -5 705.459 34.3233 1
-5 4 -5 702.088 35.881 1
-5 4 -5 654.883 32.7214 2
-5 4 -5 594.267 34.4352 3
-5 4 -6 252.186 21.4446 5
-5 4 -6 245.72 16.6256 2
-5 4 -6 240.733 19.8025 1
-5 4 -6 251.004 18.8379 4
-5 4 -6 245.992 19.5838 3
-5 4 -7 3165.31 131.869 5
-5 4 -7 3043.77 125.617 2
-5 4 -7 3140.12 128.657 4
-5 4 -7 2951.08 129.052 1
-5 4 -7 3041.99 129.438 3
-5 4 -8 569.86 34.541 5
-5 4 -8 549.676 31.0621 4
-5 4 -8 452.225 31.1739 1
-5 4 -8 527.81 32.061 3
-5 4 -9 224.15 20.6943 1
5 -4 9 232.65 19.8598 2
-5 4 -9 275.345 23.5027 5
-5 4 -9 220.773 19.578 4
-5 4 -9 216.978 20.2425 3
-5 4 -10 197.89 20.5131 1
5 -4 10 237.826 19.8298 2
-5 4 -10 199.932 19.0201 4
-5 4 -10 203.767 20.295 3
-5 3 11 400.856 27.6022 2
-5 3 10 749.982 40.5602 2
-5 3 9 75.1653 13.2346 2
-5 3 8 1.31897 8.62493 2
5 -3 -8 8.26178 7.03875 4
-5 3 7 -4.99158 8.92515 2
5 -3 -7 1.67683 6.91322 4
-5 3 6 278.728 14.8842 1
-5 3 6 298.242 20.1451 2
5 -3 -6 277.332 17.9853 4
-5 3 5 234.335 13.5758 1
-5 3 5 240.524 17.6422 2
-5 3 5 198.343 14.6618 4
-5 3 5 242.853 13.0448 1
-5 3 4 116.549 7.84857 3
-5 3 4 111.271 9.89475 1
-5 3 4 101.25 9.44472 4
-5 3 4 94.7248 8.35916 1
-5 3 4 109.246 10.5502 4
-5 3 4 106.192 12.1985 2
-5 3 4 104.054 7.18187 3
-5 3 3 510.73 23.7849 3
-5 3 3 477.711 24.945 1
-5 3 3 487.303 24.7445 4
-5 3 3 511.339 27.5477 2
-5 3 3 485.608 25.533 4
-5 3 3 515.695 24.2108 1
-5 3 3 494.188 23.1481 3
-5 3 3 503.123 28.8264 2
-5 3 2 1401.5 60.2383 3
-5 3 2 1411.81 61.3306 1
-5 3 2 1466.9 61.0513 4
-5 3 2 1314.28 62.4571 2
-5 3 2 1465.94 61.8842 4
-5 3 2 1445.81 60.3483 1
-5 3 2 1459.27 59.8675 3
-5 3 2 1425.1 64.4557 2
-5 3 1 145.4 11.5313 1
-5 3 1 196.152 15.6392 2
-5 3 1 166.3 13.2851 1
-5 3 1 163.175 12.8137 3
-5 3 1 152.588 11.8179 4
-5 3 1 151.373 13.1336 2
-5 3 1 135.062 12.7673 4
-5 3 1 178.966 11.9912 3
-5 3 0 1.5891 5.53699 1
-5 3 0 0.92006 6.4116 1
-5 3 0 -2.18553 7.35691 2
-5 3 0 3.40606 6.42766 3
-5 3 0 -3.21957 5.18141 4
-5 3 0 3.80266 5.92548 2
-5 3 0 2.76877 6.21349 4
-5 3 0 -1.59387 5.94694 3
-5 3 -1 86.0595 9.30748 1
-5 3 -1 65.7669 9.23568 1
-5 3 -1 68.8064 10.2003 2
-5 3 -1 86.8482 10.304 3
-5 3 -1 66.4375 8.28082 4
-5 3 -1 69.1814 9.11602 2
-5 3 -1 61.5153 9.59576 4
-5 3 -1 70.7766 8.74232 3
-5 3 -2 55.3777 9.53105 2
-5 3 -2 56.6084 9.30567 3
-5 3 -2 68.2297 9.84493 5
-5 3 -2 67.6384 8.32938 4
-5 3 -2 59.0652 8.6172 2
-5 3 -2 59.883 9.94167 4
-5 3 -2 69.9578 8.85437 3
-5 3 -2 62.8139 8.80236 1
-5 3 -2 56.8407 9.47694 1
-5 3 -3 225.422 17.1897 2
-5 3 -3 261.324 18.5828 5
-5 3 -3 293.501 17.6432 2
-5 3 -3 243.292 16.3082 4
-5 3 -3 243.664 16.9523 1
-5 3 -3 214.992 17.671 4
-5 3 -3 280.472 17.873 3
-5 3 -3 218.599 17.5522 1
-5 3 -4 1218.55 57.7002 5
-5 3 -4 1191.95 55.2174 2
-5 3 -4 1277.84 55.6733 4
-5 3 -4 1234.73 55.8503 1
-5 3 -4 1228.72 55.9245 2
-5 3 -4 1224.57 56.5232 3
-5 3 -4 1183.47 56.8382 1
-5 3 -5 1.03656 8.38297 2
-5 3 -5 4.23628 9.439 5
-5 3 -5 -1.0677 6.13622 2
-5 3 -5 -3.25968 7.86941 4
-5 3 -5 -10.469 9.87855 1
-5 3 -5 -3.67713 7.64033 3
-5 3 -6 48.059 10.2461 2
-5 3 -6 64.4597 12.4612 5
-5 3 -6 36.9303 8.95084 4
-5 3 -6 34.6113 11.1968 1
-5 3 -6 31.4208 9.66992 3
5 -3 7 94.7766 14.5306 2
-5 3 -7 110.915 15.7467 5
-5 3 -7 113.795 13.5354 4
-5 3 -7 92.2354 14.3399 1
-5 3 -7 101.629 13.8271 3
5 -3 8 137.387 16.2438 2
-5 3 -8 90.2376 14.9878 5
-5 3 -8 94.6321 13.1403 4
-5 3 -8 112.373 15.9451 1
-5 3 -8 82.5439 13.5019 3
5 -3 9 136.856 16.4431 2
-5 3 -9 123.217 17.1225 5
-5 3 -9 145.339 17.6465 1
-5 3 -9 146.914 15.426 4
-5 3 -9 96.3513 15.2422 3
5 -3 10 223.512 20.7639 2
-5 3 -10 207.203 22.0699 5
-5 3 -10 218.04 21.474 1
-5 3 -10 219.232 19.4875 4
-5 3 -10 243.211 21.2245 3
5 -3 11 162.895 18.6309 2
-5 3 -11 144.156 16.6793 4
-5 3 -11 155.487 18.3576 3
-5 2 11 43.3286 12.3625 2
-5 2 10 -4.59184 10.2323 2
-5 2 9 312.167 23.0589 2
-5 2 8 217.529 18.6146 2
-5 2 7 167.5 11.8893 1
-5 2 7 173.317 10.2942 4
-5 2 7 177.191 16.4267 2
-5 2 6 0.41038 4.12447 4
-5 2 6 -3.84884 8.25881 2
-5 2 6 0.62677 5.54778 1
-5 2 5 -3.55657 3.30461 3
-5 2 5 -3.0315 6.59644 1
-5 2 5 4.69213 4.16651 3
-5 2 5 0.87278 4.25749 4
-5 2 5 4.66993 4.88509 4
-5 2 5 -1.32664 6.2702 1
-5 2 5 4.93487 8.42365 2
-5 2 4 303.592 16.5612 3
-5 2 4 326.073 16.4253 4
-5 2 4 334.128 21.6399 2
-5 2 4 332.211 16.9652 4
-5 2 4 295.575 17.6866 1
-5 2 4 338.481 19.4656 1
-5 2 4 327.837 16.1294 3
-5 2 3 4.49197 4.93289 3
-5 2 3 7.97326 6.0478 3
-5 2 3 2.95639 5.42199 1
-5 2 3 8.69201 4.65908 4
-5 2 3 4.60205 7.35094 2
-5 2 3 5.75448 4.72646 4
-5 2 3 -0.8672 6.80439 1
-5 2 2 200.868 14.4232 3
-5 2 2 223.602 13.0568 4
-5 2 2 231.172 15.7413 1
-5 2 2 217.707 13.5162 4
-5 2 2 229.921 14.7563 1
-5 2 2 194.137 16.1 2
-5 2 2 209.918 13.3116 3
-5 2 1 507.09 26.4212 3
-5 2 1 505.39 24.3978 4
-5 2 1 517.444 28.1559 2
-5 2 1 455.456 26.6066 1
-5 2 1 508.661 26.1691 1
-5 2 1 499.026 25.2779 4
-5 2 1 526.198 25.523 3
-5 2 0 253.167 17.7257 3
-5 2 0 251.029 20.0551 2
-5 2 0 307.088 18.2576 5
-5 2 0 283.477 15.8795 4
-5 2 0 287.965 19.1257 2
-5 2 0 287.895 18.5749 1
-5 2 0 262.113 17.3232 1
-5 2 0 279.365 17.0997 4
-5 2 0 270.209 16.9146 3
-5 2 -1 283.7 19.1691 3
-5 2 -1 300.05 19.0383 5
-5 2 -1 275.604 19.353 1
-5 2 -1 301.728 19.8629 2
-5 2 -1 297.873 17.1187 4
-5 2 -1 307.009 19.0147 1
-5 2 -1 295.584 18.5576 4
-5 2 -1 314.365 18.7155 3
-5 2 -1 317.216 21.935 2
-5 2 -2 90.3984 10.8161 1
-5 2 -2 58.1197 11.2919 2
-5 2 -2 63.5859 10.4247 3
-5 2 -2 95.2505 10.8677 5
-5 2 -2 78.0085 8.76481 4
-5 2 -2 66.5509 9.91265 2
-5 2 -2 82.8275 11.2137 1
-5 2 -2 69.7918 9.47405 4
-5 2 -2 61.3619 9.0155 3
-5 2 -3 128.677 13.3443 5
-5 2 -3 148.543 11.9946 4
-5 2 -3 192.789 16.0631 1
-5 2 -3 154.152 14.2554 2
-5 2 -3 155.47 13.5717 4
-5 2 -3 154.792 14.1677 3
-5 2 -3 141.819 14.2899 1
-5 2 -4 18.464 9.7661 1
-5 2 -4 24.4108 7.71726 5
-5 2 -4 20.5372 8.29522 2
-5 2 -4 17.7552 6.52796 4
-5 2 -4 41.346 8.84271 4
-5 2 -4 18.9151 9.08489 1
-5 2 -4 22.2835 8.694 3
-5 2 -5 528.518 30.8257 1
-5 2 -5 470.893 30.0604 5
-5 2 -5 481.777 27.2902 4
-5 2 -5 588.659 30.5119 3
-5 2 -6 82.832 13.4971 1
5 -2 6 123.927 16.3852 2
-5 2 -6 102.909 14.2914 5
-5 2 -6 114.997 12.2509 4
-5 2 -6 112.427 13.7254 3
5 -2 7 107.962 15.7585 2
-5 2 -7 99.8436 15.4474 5
-5 2 -7 110.682 12.6295 4
-5 2 -7 120.457 15.3223 1
-5 2 -7 113.756 14.507 3
5 -2 8 41.2196 13.2476 2
-5 2 -8 16.5149 11.2528 5
-5 2 -8 41.1454 10.0445 4
-5 2 -8 11.2007 10.6757 1
-5 2 -8 37.6293 11.3518 3
5 -2 9 3.36894 11.7406 2
-5 2 -9 15.7107 11.5853 5
-5 2 -9 5.31613 8.691 4
-5 2 -9 5.02226 11.2728 1
-5 2 -9 1.58661 9.97384 3
5 -2 10 -3.43479 11.6447 2
-5 2 -10 -3.68217 12.658 5
-5 2 -10 2.82369 9.29957 4
-5 2 -10 -6.98661 11.5047 1
-5 2 -10 -1.66514 11.1303 3
5 -2 11 33.3484 13.2072 2
-5 2 -11 17.8949 10.5035 4
-5 2 -11 26.1523 11.7756 3
-5 1 11 268.84 22.9532 2
-5 1 10 88.1235 14.1741 2
-5 1 9 115.642 14.9257 2
5 -1 -9 58.3874 8.00775 1
-5 1 8 -0.75847 6.79711 1
-5 1 8 1.48208 8.84517 2
5 -1 -8 -5.9086 5.70149 1
-5 1 7 151.908 16.1537 2
5 -1 -7 168.884 12.4662 1
-5 1 7 161.941 13.191 1
-5 1 6 94.4754 7.39397 3
-5 1 6 85.8831 12.9257 2
5 -1 -6 97.4969 10.0338 1
-5 1 6 94.7089 10.4379 1
-5 1 5 74.229 6.71485 3
-5 1 5 41.4791 7.36758 3
-5 1 5 64.7744 8.75619 1
5 -1 -5 51.273 8.2915 1
-5 1 5 46.9279 10.4694 2
-5 1 4 159.608 12.3544 3
-5 1 4 178.647 8.40152 4
-5 1 4 162.471 8.41765 4
5 -1 -4 152.904 12.8635 1
-5 1 4 188.783 16.3377 2
-5 1 4 205.138 14.0968 1
-5 1 4 170.579 11.2569 3
-5 1 3 -2.0222 5.23345 3
-5 1 3 5.12807 7.05124 3
-5 1 3 9.56334 6.9275 1
-5 1 3 3.80954 3.50948 4
5 -1 -3 0.88026 6.57083 1
-5 1 3 2.54705 8.07079 2
-5 1 3 8.46721 3.47068 4
-5 1 2 26.3844 5.73596 3
-5 1 2 19.1269 7.17979 1
-5 1 2 15.6546 7.82173 3
-5 1 2 23.831 6.10484 5
-5 1 2 17.5028 4.40036 4
-5 1 2 17.5805 8.72226 2
-5 1 2 13.4601 4.83198 4
-5 1 1 38.1534 7.07225 3
-5 1 1 37.0334 8.76239 1
-5 1 1 18.2154 8.56943 3
-5 1 1 23.9142 6.75139 5
-5 1 1 31.4775 5.35333 4
-5 1 1 32.5769 8.22478 1
-5 1 1 15.0253 8.92348 2
-5 1 1 46.5936 6.66467 4
-5 1 0 196.634 15.771 3
-5 1 0 234.632 15.4656 5
-5 1 0 190.206 15.9787 1
-5 1 0 223.963 17.9713 2
-5 1 0 217.173 12.6599 4
-5 1 0 221.303 16.3942 1
-5 1 0 205.149 13.5442 4
-5 1 0 209.611 14.7395 3
-5 1 -1 53.763 8.43755 3
-5 1 -1 54.2067 9.75829 1
-5 1 -1 45.0805 8.80933 3
-5 1 -1 45.2577 8.59954 5
-5 1 -1 44.9865 6.41598 4
-5 1 -1 59.2597 11.0435 2
-5 1 -1 58.9309 11.1703 1
-5 1 -1 55.2666 8.58609 4
-5 1 -2 448.587 25.1136 5
-5 1 -2 410.496 26.1664 2
-5 1 -2 423.933 21.7887 4
-5 1 -2 417.077 25.1311 1
-5 1 -2 397.642 25.813 1
-5 1 -2 464.996 24.0047 4
-5 1 -2 383.196 24.1593 3
-5 1 -3 26.9093 9.7242 1
-5 1 -3 24.8688 7.73381 5
-5 1 -3 22.6763 9.76008 2
-5 1 -3 33.0355 6.3598 4
-5 1 -3 12.0131 8.02337 4
-5 1 -3 14.6988 7.92917 3
-5 1 -4 497.602 30.2177 2
-5 1 -4 505.899 30.5633 1
-5 1 -4 522.406 26.8859 4
-5 1 -4 510.151 28.3727 4
-5 1 -4 561.224 30.0146 3
-5 1 -5 260.435 16.7575 4
-5 1 -5 239.987 17.6573 4
-5 1 -5 215.342 19.4141 1
-5 1 -5 221.761 18.5729 3
5 -1 6 10.5066 11.1014 2
-5 1 -6 7.71212 10.391 1
-5 1 -6 18.5533 7.92108 4
-5 1 -6 1.38525 8.99474 3
5 -1 7 42.9038 13.6896 2
-5 1 -7 38.479 12.6212 1
-5 1 -7 14.4713 8.3772 4
-5 1 -7 35.2366 11.0727 3
-5 1 -8 40.0884 12.5366 1
5 -1 8 18.232 12.5207 2
-5 1 -8 33.7955 10.0422 4
-5 1 -8 46.5347 11.5181 3
-5 1 -9 119.946 16.9356 1
5 -1 9 109.513 17.04 2
-5 1 -9 117.921 14.2386 4
-5 1 -9 151.795 16.8267 3
5 -1 10 3.78334 13.0201 2
-5 1 -10 16.8794 10.268 4
-5 1 -10 27.3674 11.4496 3
5 -1 11 9.66036 13.2913 2
-5 1 -11 10.5907 10.1963 4
-5 1 -11 16.0838 12.0402 3
-5 0 11 136.442 17.5132 2
-5 0 10 52.3479 12.9953 2
5 0 -10 38.9282 8.56079 1
-5 0 9 312.131 20.1831 1
5 0 -9 327.035 19.6621 1
-5 0 9 295.561 23.6526 2
-5 0 8 62.7087 10.2073 1
-5 0 8 57.0765 12.328 2
5 0 -8 62.2184 9.65977 1
-5 0 7 3.83376 4.99845 3
-5 0 7 1.53816 9.50723 2
5 0 -7 -0.9257 6.98784 1
-5 0 7 -0.94486 7.52682 1
-5 0 6 198.638 17.885 2
-5 0 6 162.719 14.4876 1
5 0 -6 186.182 14.4342 1
-5 0 6 176.565 11.9882 3
-5 0 5 978.415 45.4231 3
5 0 -5 1072.26 47.7653 1
-5 0 5 1032.74 51.2085 2
-5 0 5 1048.97 47.7003 1
-5 0 5 1035.89 44.9978 3
-5 0 4 804.329 38.8773 3
5 0 -4 813.251 40.1588 1
-5 0 4 805.011 43.3203 2
-5 0 4 904.812 40.7954 1
-5 0 4 859.824 38.3446 3
-5 0 3 120.317 10.9728 3
-5 0 3 117.854 12.5716 3
-5 0 3 125.433 9.15864 5
-5 0 3 141.208 13.1434 1
-5 0 3 124.768 14.2249 2
5 0 -3 122.374 12.8574 1
-5 0 2 844.878 34.9964 3
-5 0 2 829.977 31.6414 5
5 0 -2 815.981 35.0105 1
-5 0 2 796.479 37.8797 2
-5 0 2 867.216 35.6837 1
-5 0 2 877.604 34.1636 3
-5 0 1 530.865 28.5416 3
-5 0 1 534.33 26.5379 5
5 0 -1 481.001 28.1832 1
-5 0 1 503.241 30.5437 2
-5 0 1 513.86 22.6565 4
-5 0 1 504.467 23.0723 4
-5 0 1 578.161 29.3945 1
-5 0 1 561.193 27.8852 3
-5 0 0 33.1132 8.04571 3
-5 0 0 24.1615 9.30705 1
-5 0 0 34.8918 8.32093 3
-5 0 0 36.9958 10.6882 2
-5 0 0 29.9991 4.81379 4
-5 0 0 34.4378 6.17314 4
-5 0 -1 385.531 25.1073 1
-5 0 -1 345.118 24.7749 2
-5 0 -1 390.304 19.2182 4
-5 0 -1 415.066 20.5855 4
-5 0 -1 334.46 22.3379 3
-5 0 -2 257.69 14.8209 4
-5 0 -2 242.572 19.7471 2
-5 0 -2 230.883 16.0152 4
-5 0 -2 232.781 19.2205 1
-5 0 -2 253.223 18.1932 3
-5 0 -3 703.268 38.5359 2
-5 0 -3 698.635 33.0494 4
-5 0 -3 668.13 37.8743 1
-5 0 -3 684.758 34.2203 4
-5 0 -3 738.787 36.9445 3
-5 0 -4 785.426 36.2125 4
-5 0 -4 705.287 40.3116 1
-5 0 -4 761.32 37.3229 4
-5 0 -4 727.406 38.9646 3
5 0 5 332.581 25.7216 2
-5 0 -5 320.146 19.6259 4
-5 0 -5 307.215 23.6528 1
-5 0 -5 305.889 20.4021 4
-5 0 -5 296.996 21.7925 3
5 0 6 117.165 17.1022 2
-5 0 -6 101.797 11.8399 4
-5 0 -6 120.808 16.0845 1
-5 0 -6 83.1724 12.9811 3
5 0 7 62.6607 15.0118 2
-5 0 -7 48.0649 10.4257 4
-5 0 -7 52.5506 13.4594 1
-5 0 -7 60.5396 12.4174 3
5 0 8 31.9335 13.833 2
-5 0 -8 12.3252 12.1254 1
-5 0 -8 21.1765 9.99779 4
-5 0 -8 11.1535 10.7498 3
5 0 9 56.8764 15.0889 2
-5 0 -9 67.3485 11.6253 4
-5 0 -9 63.5055 13.3989 3
5 0 10 47.6454 15.5253 2
-5 0 -10 36.2698 11.7628 4
-5 0 -10 33.2041 11.7696 3
5 1 -11 339.452 23.153 1
-5 -1 11 432.718 29.1362 2
-5 -1 10 124.649 16.7374 2
5 1 -10 109.073 13.2287 1
-5 -1 9 189.219 19.7428 2
5 1 -9 204.965 16.4939 1
-5 -1 8 11.4755 6.00365 3
-5 -1 8 11.8246 11.2201 2
5 1 -8 17.3134 8.67818 1
-5 -1 7 14.1396 6.79184 3
-5 -1 7 13.1557 11.0789 2
5 1 -7 4.34387 8.52738 1
5 1 -6 1343.3 61.0169 1
-5 -1 6 1352.32 64.9219 2
-5 -1 6 1366.93 58.5228 3
5 1 -5 1197.41 54.7273 1
-5 -1 5 1186.81 58.0446 2
-5 -1 5 1172.29 52.2117 3
-5 -1 4 253.062 13.7344 5
5 1 -4 277.795 19.244 1
-5 -1 4 318.591 22.575 2
-5 -1 4 329.373 18.68 3
-5 -1 3 73.7273 10.3616 3
-5 -1 3 78.175 8.32739 5
-5 -1 3 81.3972 13.0509 2
5 1 -3 69.9396 10.913 1
-5 -1 2 128.899 12.891 3
-5 -1 2 132.5 15.3552 2
5 1 -2 157.317 14.534 1
-5 -1 1 2.13689 7.73779 3
-5 -1 1 -4.66086 8.83998 2
5 1 -1 3.60885 8.21364 1
5 1 0 618.519 32.9031 1
-5 -1 0 686.168 35.9861 2
-5 -1 0 564.094 25.3061 4
-5 -1 0 594.738 31.7733 3
-5 -1 -1 144.495 14.4846 3
-5 -1 -1 162.184 16.4763 2
5 1 1 147.327 14.7328 1
-5 -1 -1 131.481 9.57615 4
-5 -1 -2 136.891 15.0006 3
-5 -1 -2 164.001 11.626 4
-5 -1 -2 193.986 18.0273 2
-5 -1 -3 9.15646 8.56159 3
-5 -1 -3 12.5943 10.4548 1
-5 -1 -3 7.98685 10.0479 2
-5 -1 -3 12.7286 6.24665 4
-5 -1 -4 22.0184 9.31603 3
-5 -1 -4 34.1177 11.8784 1
-5 -1 -4 24.2081 7.71471 4
-5 -1 -5 20.2608 10.4956 3
5 1 5 6.13538 12.6529 2
-5 -1 -5 21.4613 8.4364 4
-5 -1 -5 3.34711 10.8715 1
-5 -1 -6 12.1408 10.3646 3
5 1 6 2.08596 13.0038 2
-5 -1 -6 5.18844 11.8926 1
-5 -1 -6 4.32799 8.44449 4
-5 -1 -7 130.555 16.3641 3
-5 -1 -7 96.7398 16.0399 1
5 1 7 114.907 18.3015 2
-5 -1 -7 107.868 13.1862 4
-5 -1 -8 61.6815 13.4873 3
5 1 8 60.7769 16.4612 2
-5 -1 -8 61.7837 12.2631 4
-5 -1 -9 41.7876 12.7186 3
5 1 9 79.5859 17.6545 2
-5 -1 -9 59.6608 12.1684 4
-5 -2 10 24.3642 13.1776 2
5 2 -10 22.7016 10.2382 1
-5 -2 9 248.973 23.1513 2
5 2 -9 264.103 20.3005 1
-5 -2 8 25.0214 8.15751 3
5 2 -8 13.6887 9.23136 1
-5 -2 7 35.3957 8.74816 3
-5 -2 7 12.2345 9.98458 2
5 2 -7 18.6353 9.78446 1
-5 -2 6 -4.76958 7.55988 3
-5 -2 6 -5.14179 10.7715 2
5 2 -6 14.9544 9.92702 1
-5 -2 5 49.9005 9.31647 3
-5 -2 5 70.8184 13.9233 2
5 2 -5 48.8959 10.8268 1
-5 -2 4 146.798 14.366 3
-5 -2 4 196.743 18.7212 2
5 2 -4 160.969 15.5873 1
5 2 -3 427.653 27.2461 1
-5 -2 3 471.432 30.12 2
-5 -2 3 465.487 26.4559 3
-5 -2 2 133.702 14.1352 3
-5 -2 2 138.847 17.1196 2
5 2 -2 160.671 15.783 1
-5 -2 1 39.7839 10.4624 3
-5 -2 1 31.9712 12.0491 2
5 2 -1 42.6849 11.2006 1
-5 -2 0 44.0993 10.521 3
-5 -2 0 13.5318 10.6246 2
5 2 0 46.3283 11.2051 1
-5 -2 -1 38.2666 10.424 3
-5 -2 -1 57.9813 12.6085 2
5 2 1 44.5999 10.8812 1
-5 -2 -1 40.4118 5.94369 4
-5 -2 -2 92.0532 13.1457 3
-5 -2 -2 73.9746 14.1653 2
5 2 2 69.9076 13.0312 1
-5 -2 -2 77.89 8.41604 4
-5 -2 -3 70.1359 12.4382 3
-5 -2 -3 77.8161 14.4297 2
-5 -2 -3 80.9927 9.31115 4
-5 -2 -4 221.012 19.4714 3
-5 -2 -4 214.089 15.6636 4
-5 -2 -4 225.11 21.506 1
-5 -2 -5 145.062 17.1053 3
5 2 5 174.306 21.4422 2
-5 -2 -5 176.869 14.7012 4
-5 -2 -5 166.916 19.3458 1
-5 -2 -6 29.2716 11.4131 3
5 2 6 45.0462 15.7539 2
-5 -2 -6 36.0744 9.80987 4
-5 -2 -7 81.3788 15.1876 3
5 2 7 117.181 19.3312 2
-5 -2 -7 107.002 13.4673 4
-5 -2 -8 40.6317 13.2372 3
5 2 8 21.1061 15.2611 2
-5 -2 -8 30.1381 11.0735 4
-5 -3 8 206.334 17.0068 3
5 3 -8 201.542 18.9233 1
-5 -3 7 59.6064 10.7727 3
5 3 -7 54.365 11.8085 1
-5 -3 6 142.644 14.3736 3
-5 -3 6 137.975 18.001 2
5 3 -6 143.554 15.8794 1
-5 -3 5 83.6929 12.4261 3
-5 -3 5 121.909 16.8266 2
5 3 -5 130.152 15.0754 1
-5 -3 4 13.4045 8.93632 3
-5 -3 4 -1.78108 10.5342 2
5 3 -4 4.22967 9.95781 1
-5 -3 3 17.69 9.78149 3
-5 -3 3 14.2575 11.1339 2
5 3 -3 27.0368 10.7068 1
-5 -3 2 158.374 15.7285 3
-5 -3 2 152.745 18.3131 2
5 3 -2 134.115 15.8218 1
-5 -3 1 54.2187 11.4536 3
-5 -3 1 45.1553 12.8232 2
5 3 -1 54.1409 12.3945 1
-5 -3 0 108.139 14.3491 3
-5 -3 0 89.0389 15.4951 2
5 3 0 110.289 14.7298 1
-5 -3 -1 -5.82789 9.80895 3
-5 -3 -1 -7.33396 11.2361 2
5 3 1 12.1333 10.7785 1
-5 -3 -2 -6.04263 10.315 3
-5 -3 -2 -1.8533 10.9591 2
5 3 2 1.54516 10.0246 1
-5 -3 -3 15.7098 10.8956 3
-5 -3 -3 20.5381 12.8545 2
-5 -3 -4 50.5341 12.2476 3
-5 -3 -5 50.7686 13.8145 3
5 3 5 44.8824 16.3497 2
-5 -3 -5 49.9624 10.0588 4
-5 -3 -6 70.11 14.4176 3
5 3 6 65.1703 17.2977 2
-5 -3 -6 48.2614 11.1745 4
-5 -4 5 535.581 31.6879 3
-5 -4 4 270.219 21.5126 3
-5 -4 3 71.6679 13.0323 3
-5 -4 2 55.8943 12.316 3
-5 -4 1 1.51312 10.9582 3
-5 -4 0 57.565 12.8957 3
-5 -4 -1 198.948 19.6597 3
-5 -4 -2 46.343 12.8973 3
-6 4 3 9.89617 8.16623 2
-6 4 2 104.085 11.6181 4
-6 4 2 112.219 12.3765 2
-6 4 1 174.854 14.4732 4
-6 4 1 225.506 15.964 2
-6 4 0 141.484 12.613 4
-6 4 0 122.084 12.1654 2
-6 4 -1 38.1823 8.36114 4
-6 4 -1 37.1416 8.07537 2
-6 4 -1 52.0062 8.97248 3
-6 4 -2 6.34037 6.54823 4
-6 4 -2 15.8069 7.77662 1
-6 4 -2 8.00764 6.80294 2
-6 4 -2 22.8178 7.63661 3
-6 4 -3 -2.44042 7.79348 1
-6 4 -3 5.58492 7.62676 4
-6 4 -3 -1.00713 7.38329 2
-6 4 -3 1.18439 6.80624 3
-6 3 5 299.753 21.8667 2
-6 3 4 317.579 22.1709 2
-6 3 3 166.525 15.8977 2
-6 3 2 -3.65116 8.70558 2
-6 3 1 -2.41282 5.49185 3
-6 3 1 3.05145 8.10273 1
-6 3 1 -4.79231 8.67677 2
-6 3 0 140.931 12.3417 3
-6 3 0 136.19 13.6379 1
-6 3 0 159.06 12.1765 4
-6 3 0 145.185 14.2736 2
-6 3 -1 101.695 10.2141 4
-6 3 -1 90.4909 11.3311 2
-6 3 -1 62.4674 10.901 1
-6 3 -1 87.6612 10.6202 3
-6 3 -2 64.378 9.20252 4
-6 3 -2 57.8401 10.1206 2
-6 3 -2 55.4254 10.3132 1
-6 3 -2 47.4727 9.1846 3
-6 3 -3 169.465 15.7815 5
-6 3 -3 140.794 12.8641 4
-6 3 -3 155.924 14.3494 2
-6 3 -3 127.292 14.9336 1
-6 3 -3 139.462 14.5544 3
-6 3 -4 12.9991 8.77718 5
-6 3 -4 3.19994 7.13276 4
-6 3 -4 7.58433 7.74931 2
-6 3 -4 -1.4199 10.8413 1
-6 3 -4 6.4993 7.83015 3
-6 2 5 1.43829 9.61381 2
-6 2 4 100.005 14.0394 2
-6 2 3 49.2833 10.1253 1
-6 2 3 71.9755 12.4035 2
-6 2 2 235.184 19.1022 2
-6 2 2 210.064 17.5494 1
-6 2 1 475.009 28.328 1
-6 2 1 509.544 29.6872 2
-6 2 1 502.206 26.2597 3
-6 2 0 553.187 30.7069 1
-6 2 0 517.737 31.2193 2
-6 2 0 554.376 28.7653 3
-6 2 -1 172.366 14.5524 3
-6 2 -1 146.24 14.6457 5
-6 2 -1 181.913 16.9027 2
-6 2 -1 173.045 16.1297 1
-6 2 -2 20.7115 8.35392 3
-6 2 -2 15.7524 8.23706 5
-6 2 -2 24.9957 8.95879 1
-6 2 -2 11.4279 5.8311 4
-6 2 -2 8.41964 9.26158 2
-6 2 -3 58.0838 11.8995 1
-6 2 -3 35.6652 9.6414 5
-6 2 -3 56.4575 8.38226 4
-6 2 -3 45.7746 11.3829 2
-6 2 -3 55.6445 10.9334 3
-6 2 -4 71.4167 14.689 1
-6 2 -4 60.8311 11.3347 5
-6 2 -4 83.4982 13.1027 2
-6 2 -4 75.1392 9.54994 4
-6 2 -4 79.3378 12.5461 3
-6 2 -5 111.229 16.6955 1
-6 2 -5 116.036 14.6467 5
-6 2 -5 95.4044 13.7186 2
-6 2 -5 140.467 13.1187 4
-6 2 -5 122.702 15.6788 3
-6 1 5 198.018 19.1797 2
-6 1 4 1.20134 7.97167 1
-6 1 4 1.54782 10.4206 2
-6 1 3 19.9224 11.1771 2
-6 1 3 8.73872 8.11325 1
-6 1 2 -5.18565 7.80851 1
-6 1 2 -5.40485 6.99251 3
-6 1 2 -1.5235 10.4038 2
-6 1 1 -3.95464 7.91663 3
-6 1 1 10.678 10.5599 2
-6 1 1 9.4112 8.45047 1
-6 1 0 26.7423 8.93992 3
-6 1 0 48.8631 10.7223 1
-6 1 0 18.4209 10.691 2
-6 1 -1 319.662 23.1135 1
-6 1 -1 309.73 23.6459 2
-6 1 -1 304.782 20.9421 3
-6 1 -2 340.032 22.7997 5
-6 1 -2 338.935 24.7748 1
-6 1 -2 348.685 25.2365 2
-6 1 -2 316.811 22.2916 3
-6 1 -3 28.5635 10.3204 3
-6 1 -3 18.2694 7.96782 5
-6 1 -3 17.3846 10.7453 2
-6 1 -3 20.4186 11.3324 1
-6 1 -4 425.805 29.6076 1
-6 1 -4 404.298 26.9853 5
-6 1 -4 444.119 28.7621 2
-6 1 -4 407.823 26.9257 3
6 0 -4 212.157 17.2573 1
-6 0 4 185.797 19.7034 2
-6 0 3 13.1558 8.09527 3
-6 0 3 20.1392 11.3946 2
-6 0 2 17.4472 8.7134 3
-6 0 2 5.0158 10.9398 2
-6 0 1 26.5784 9.69286 3
-6 0 1 33.6197 12.2165 2
-6 0 1 21.4313 10.6454 1
-6 0 0 -2.3616 8.81237 3
-6 0 0 -1.69787 10.8449 2
-6 0 0 -6.26467 11.9565 1
-6 0 -1 113.676 13.876 3
-6 0 -1 114.925 17.0345 2
-6 0 -1 99.3814 16.7512 1
-6 0 -2 73.7656 12.5186 3
-6 0 -2 73.969 12.7162 5
-6 0 -2 65.1752 14.2372 2
-6 0 -2 95.3743 16.1411 1
-6 0 -3 20.8017 10.9433 3
-6 0 -3 6.57784 8.00561 5
-6 0 -3 13.6896 11.2804 2
