#------------------------------------------------------------------------------
#$Date: 2019-10-29 23:40:40 +0200 (Tue, 29 Oct 2019) $
#$Revision: 220469 $
#$URL: file:///home/coder/svn-repositories/cod/cif/4/00/30/4003050.cif $
#------------------------------------------------------------------------------
#
# This file is available in the Crystallography Open Database (COD),
# http://www.crystallography.net/
#
# All data on this site have been placed in the public domain by the
# contributors.
#
data_4003050
loop_
_publ_author_name
'Drozhzhin, Oleg A.'
'Tertov, Ilya V.'
'Alekseeva, Anastasia M.'
'Aksyonov, Dmitry A.'
'Stevenson, Keith J.'
'Abakumov, Artem M.'
'Antipov, Evgeny V.'
_publ_section_title
;
 \b-NaVP2O7 as a Superior Electrode Material for Na-Ion Batteries
;
_journal_issue                   18
_journal_name_full               'Chemistry of Materials'
_journal_page_first              7463
_journal_paper_doi               10.1021/acs.chemmater.9b02124
_journal_volume                  31
_journal_year                    2019
_chemical_formula_sum            'O7 P2 V'
_chemical_formula_weight         224.9
_space_group_IT_number           2
_space_group_name_Hall           '-P 1'
_space_group_name_H-M_alt        'P -1'
_symmetry_cell_setting           triclinic
_symmetry_Int_Tables_number      2
_symmetry_space_group_name_Hall  '-P 1'
_symmetry_space_group_name_H-M   'P -1'
_cell_angle_alpha                105.28(4)
_cell_angle_beta                 103.21(5)
_cell_angle_gamma                96.37(5)
_cell_formula_units_Z            2
_cell_length_a                   7.819(3)
_cell_length_b                   6.147(3)
_cell_length_c                   6.133(2)
_cell_measurement_temperature    293
_cell_volume                     272.2(2)
_diffrn_ambient_temperature      293
_diffrn_measurement_device_type  'Huber G670'
_diffrn_radiation_probe          x-ray
_diffrn_radiation_type           CuKa1
_diffrn_radiation_wavelength     1.5406
_exptl_absorpt_coefficient_mu    21.138
_exptl_crystal_density_diffrn    2.7437
_exptl_crystal_F_000             218
_pd_instr_location               ' ?'
_pd_meas_2theta_range_max        100.287
_pd_meas_2theta_range_min        7.008
_pd_meas_number_of_points        4665
_pd_proc_2theta_range_max        100.287
_pd_proc_2theta_range_min        7.008
_pd_proc_ls_background_function  '18 Chebyshev polynoms'
_pd_proc_ls_pref_orient_corr     none
_pd_proc_ls_profile_function     Pseudo-Voigt
_pd_proc_ls_prof_R_factor        0.0298
_pd_proc_ls_prof_wR_expected     0.0033
_pd_proc_ls_prof_wR_factor       0.0413
_refine_diff_density_max         0.74
_refine_diff_density_min         -0.67
_refine_ls_goodness_of_fit_all   12.51
_refine_ls_number_constraints    31
_refine_ls_number_parameters     44
_refine_ls_number_restraints     0
_refine_ls_R_factor_all          0.0520
_refine_ls_R_factor_gt           0.0520
_refine_ls_shift/su_max          0.0542
_refine_ls_shift/su_mean         0.0138
_refine_ls_weighting_scheme      sigma
_refine_ls_wR_factor_all         0.0763
_refine_ls_wR_factor_gt          0.0763
_cod_data_source_file            cm9b02124_si_003.cif
_cod_data_source_block           I
_cod_depositor_comments
;
The following automatic conversions were performed:

'_diffrn_radiation_probe' value 'X-ray' changed to 'x-ray' according
to
/home/data/users/saulius/crontab/automatic-downloads/current/ACS/lib/dictionaries/cif_core.dic
dictionary named 'cif_core.dic' version 2.4.2 from 2011-04-26.

Automatic conversion script
Id: cif_fix_values 4973 2017-02-22 13:04:09Z antanas 
;
_cod_original_formula_sum        'V P2 O7'
_cod_database_code               4003050
loop_
_space_group_symop_id
_space_group_symop_operation_xyz
1 x,y,z
2 -x,-y,-z
loop_
_atom_site_label
_atom_site_type_symbol
_atom_site_fract_x
_atom_site_fract_y
_atom_site_fract_z
_atom_site_adp_type
_atom_site_U_iso_or_equiv
_atom_site_site_symmetry_multiplicity
_atom_site_occupancy
_atom_site_calc_flag
V V 0.274(3) 0.304(5) 0.624(5) Uiso 0.001(8) 2 1 d
P1z P 0.289(4) 0.451(5) 0.188(5) Uiso 0.0305 2 1 d
O1z O 0.46(4) 0.62(4) 0.223(12) Uiso 0.0305 2 1 d
O2z O 0.33(4) 0.27(3) 0.313(10) Uiso 0.0305 2 1 d
O3z O 0.208(13) 0.333(12) -0.080(6) Uiso 0.0305 2 1 d
P1t P 0.163(4) 0.752(4) 0.513(5) Uiso 0.0305 2 1 d
O1t O -0.033(5) 0.756(10) 0.514(11) Uiso 0.0305 2 1 d
O2t O 0.247(8) 0.627(9) 0.680(9) Uiso 0.0305 2 1 d
O3t O 0.265(9) 1.003(9) 0.589(13) Uiso 0.0305 2 1 d
O4t O 0.172(10) 0.635(12) 0.261(8) Uiso 0.0305 2 1 d
loop_
_atom_type_symbol
_atom_type_scat_dispersion_real
_atom_type_scat_dispersion_imag
_atom_type_scat_source
O 0.0114 0.0062 'International Tables Vol C tables 4.2.6.8 and 6.1.1.1'
P 0.1041 0.0961 'International Tables Vol C tables 4.2.6.8 and 6.1.1.1'
V 0.3038 0.5367 'International Tables Vol C tables 4.2.6.8 and 6.1.1.1'
loop_
_geom_angle_atom_site_label_1
_geom_angle_atom_site_label_2
_geom_angle_atom_site_label_3
_geom_angle_site_symmetry_3
_geom_angle
O2z V O3z 1_556 177(8)
O2z V O2t . 95(6)
loop_
_geom_bond_atom_site_label_1
_geom_bond_atom_site_label_2
_geom_bond_site_symmetry_2
_geom_bond_distance
V O1za 2_666 2.01(5)
V O2za . 2.01(3)
V O3za 1_556 1.970(11)
V O1ta 2_566 1.832(7)
V O2ta . 1.967(11)
V O3ta 1_545 1.795(10)
P1za O1za . 1.53(5)
P1za O2za . 1.51(3)
P1za O3za . 1.558(8)
P1za P1ta . 2.781(8)
P1za O4ta . 1.571(14)
O1za O1za 2_665 2.96(4)
O1za O2za . 2.50(6)
O1za O2za 2_666 2.80(3)
O1za O3za . 2.51(4)
O1za O3za 2_665 2.92(5)
O1za O2ta 2_666 2.89(5)
O1za O3ta 2_676 2.78(4)
O1za O4ta . 2.35(6)
O2za O3za . 2.52(2)
O2za O1ta 2_566 2.76(5)
O2za O2ta . 2.93(3)
O2za O3ta 1_545 2.74(3)
O2za O4ta . 2.71(4)
O3za O1ta 2_565 2.581(12)
O3za O2ta 1_554 2.651(16)
O3za O3ta 1_544 2.619(16)
O3za O4ta . 2.496(14)
O3za O4ta 2_565 2.97(2)
P1ta O1ta . 1.531(9)
P1ta O2ta . 1.513(11)
P1ta O3ta . 1.557(10)
P1ta O4ta . 1.547(10)
O1ta O2ta . 2.498(13)
O1ta O2ta 2_566 2.550(12)
O1ta O3ta . 2.507(13)
O1ta O3ta 2_576 2.538(15)
O1ta O4ta . 2.511(15)
O2ta O3ta . 2.516(15)
O2ta O4ta . 2.519(13)
O3ta O4ta . 2.507(13)
loop_
_pd_proc_point_id
_pd_proc_2theta_corrected
_pd_proc_d_spacing
_pd_proc_intensity_net
_pd_calc_intensity_net
_pd_proc_ls_weight
1 6.9790 12.655748 122163.00 125334.00 349.52
2 6.9990 12.619629 122665.00 125105.00 350.24
3 7.0190 12.583714 121815.00 124885.00 349.02
4 7.0390 12.548006 123346.00 124675.00 351.21
5 7.0590 12.512499 123405.00 124475.00 351.29
6 7.0790 12.477192 122008.00 124283.00 349.30
7 7.0990 12.442085 122042.00 124099.00 349.35
8 7.1190 12.407175 123907.00 123925.00 352.00
9 7.1390 12.372461 123327.00 123758.00 351.18
10 7.1590 12.337941 122528.00 123600.00 350.04
11 7.1790 12.303615 121549.00 123449.00 348.64
12 7.1990 12.269477 122360.00 123306.00 349.80
13 7.2190 12.235530 122562.00 123170.00 350.09
14 7.2390 12.201770 122729.00 123042.00 350.33
15 7.2590 12.168197 122539.00 122920.00 350.06
16 7.2790 12.134809 122609.00 122805.00 350.16
17 7.2990 12.101603 122323.00 122697.00 349.75
18 7.3190 12.068578 122456.00 122595.00 349.94
19 7.3390 12.035733 122030.00 122499.00 349.33
20 7.3590 12.003068 124196.00 122410.00 352.42
21 7.3790 11.970580 124182.00 122326.00 352.39
22 7.3990 11.938267 124584.00 122247.00 352.96
23 7.4190 11.906128 124759.00 122175.00 353.21
24 7.4390 11.874164 124180.00 122107.00 352.39
25 7.4590 11.842369 123886.00 122045.00 351.97
26 7.4790 11.810747 122878.00 121987.00 350.54
27 7.4990 11.779291 122191.00 121935.00 349.56
28 7.5190 11.748004 122845.00 121887.00 350.49
29 7.5390 11.716883 123109.00 121844.00 350.87
30 7.5590 11.685927 123491.00 121805.00 351.41
31 7.5790 11.655133 122631.00 121770.00 350.19
32 7.5990 11.624503 122270.00 121739.00 349.67
33 7.6190 11.594034 122055.00 121712.00 349.36
34 7.6390 11.563724 123315.00 121689.00 351.16
35 7.6590 11.533572 123871.00 121669.00 351.95
36 7.6790 11.503578 122274.00 121653.00 349.68
37 7.6990 11.473739 121922.00 121641.00 349.17
38 7.7190 11.444056 122200.00 121631.00 349.57
39 7.7390 11.414526 122311.00 121625.00 349.73
40 7.7590 11.385148 122130.00 121621.00 349.47
41 7.7790 11.355921 122136.00 121621.00 349.48
42 7.7990 11.326844 122912.00 121623.00 350.59
43 7.8190 11.297916 123523.00 121628.00 351.46
44 7.8390 11.269136 123550.00 121636.00 351.50
45 7.8590 11.240502 122712.00 121645.00 350.30
46 7.8790 11.212014 123108.00 121658.00 350.87
47 7.8990 11.183671 122246.00 121672.00 349.64
48 7.9190 11.155471 122501.00 121688.00 350.00
49 7.9390 11.127412 122312.00 121707.00 349.73
50 7.9590 11.099495 122212.00 121727.00 349.59
51 7.9790 11.071718 122329.00 121749.00 349.76
52 7.9990 11.044081 121705.00 121773.00 348.86
53 8.0190 11.016581 121534.00 121798.00 348.62
54 8.0390 10.989218 122857.00 121825.00 350.51
55 8.0590 10.961990 123438.00 121853.00 351.34
56 8.0790 10.934897 122947.00 121883.00 350.64
57 8.0990 10.907940 122760.00 121914.00 350.37
58 8.1190 10.881115 124285.00 121946.00 352.54
59 8.1390 10.854422 123107.00 121979.00 350.87
60 8.1590 10.827859 122717.00 122014.00 350.31
61 8.1790 10.801427 123267.00 122049.00 351.09
62 8.1990 10.775123 122518.00 122085.00 350.03
63 8.2190 10.748948 122904.00 122122.00 350.58
64 8.2390 10.722899 122664.00 122159.00 350.23
65 8.2590 10.696979 124022.00 122197.00 352.17
66 8.2790 10.671182 122547.00 122236.00 350.07
67 8.2990 10.645510 122583.00 122276.00 350.12
68 8.3190 10.619961 123055.00 122315.00 350.79
69 8.3390 10.594536 123106.00 122356.00 350.86
70 8.3590 10.569231 122892.00 122396.00 350.56
71 8.3790 10.544049 122718.00 122437.00 350.31
72 8.3990 10.518986 122465.00 122478.00 349.95
73 8.4190 10.494042 122359.00 122520.00 349.80
74 8.4390 10.469215 122143.00 122561.00 349.49
75 8.4590 10.444509 122217.00 122602.00 349.60
76 8.4790 10.419916 122340.00 122644.00 349.77
77 8.4990 10.395441 122368.00 122685.00 349.81
78 8.5190 10.371080 121338.00 122727.00 348.34
79 8.5390 10.346835 122887.00 122768.00 350.55
80 8.5590 10.322701 123349.00 122809.00 351.21
81 8.5790 10.298681 122809.00 122850.00 350.44
82 8.5990 10.274774 122998.00 122891.00 350.71
83 8.6190 10.250976 122957.00 122931.00 350.65
84 8.6390 10.227288 123200.00 122971.00 351.00
85 8.6590 10.203711 123249.00 123011.00 351.07
86 8.6790 10.180243 124560.00 123050.00 352.93
87 8.6990 10.156881 123835.00 123089.00 351.90
88 8.7190 10.133628 124323.00 123128.00 352.60
89 8.7390 10.110480 123932.00 123166.00 352.04
90 8.7590 10.087440 123115.00 123203.00 350.88
91 8.7790 10.064504 123648.00 123240.00 351.64
92 8.7990 10.041672 122411.00 123276.00 349.87
93 8.8190 10.018945 123900.00 123312.00 351.99
94 8.8390 9.996320 123228.00 123347.00 351.04
95 8.8590 9.973796 123637.00 123381.00 351.62
96 8.8790 9.951376 123232.00 123415.00 351.04
97 8.8990 9.929055 122962.00 123448.00 350.66
98 8.9190 9.906836 124418.00 123480.00 352.73
99 8.9390 9.884714 123340.00 123512.00 351.20
100 8.9590 9.862694 123870.00 123543.00 351.95
101 8.9790 9.840769 124582.00 123572.00 352.96
102 8.9990 9.818944 123264.00 123602.00 351.09
103 9.0190 9.797214 123378.00 123630.00 351.25
104 9.0390 9.775581 122525.00 123657.00 350.04
105 9.0590 9.754045 122773.00 123684.00 350.39
106 9.0790 9.732601 121953.00 123710.00 349.22
107 9.0990 9.711254 122848.00 123734.00 350.50
108 9.1190 9.690000 122785.00 123758.00 350.41
109 9.1390 9.668839 122694.00 123781.00 350.28
110 9.1590 9.647770 121920.00 123804.00 349.17
111 9.1790 9.626794 122177.00 123825.00 349.54
112 9.1990 9.605908 122348.00 123845.00 349.78
113 9.2190 9.585114 122923.00 123864.00 350.60
114 9.2390 9.564409 122434.00 123883.00 349.91
115 9.2590 9.543795 123154.00 123900.00 350.93
116 9.2790 9.523269 122320.00 123916.00 349.74
117 9.2990 9.502831 123568.00 123932.00 351.52
118 9.3190 9.482481 122300.00 123946.00 349.71
119 9.3390 9.462219 122437.00 123960.00 349.91
120 9.3590 9.442043 122852.00 123972.00 350.50
121 9.3790 9.421954 122059.00 123984.00 349.37
122 9.3990 9.401950 122179.00 123994.00 349.54
123 9.4190 9.382031 122727.00 124004.00 350.32
124 9.4390 9.362196 122114.00 124012.00 349.45
125 9.4590 9.342446 122109.00 124023.00 349.44
126 9.4790 9.322779 123121.00 124030.00 350.89
127 9.4990 9.303195 122153.00 124035.00 349.50
128 9.5190 9.283693 122861.00 124040.00 350.52
129 9.5390 9.264274 122115.00 124043.00 349.45
130 9.5590 9.244934 123551.00 124046.00 351.50
131 9.5790 9.225677 123891.00 124048.00 351.98
132 9.5990 9.206499 122493.00 124048.00 349.99
133 9.6190 9.187402 123096.00 124048.00 350.85
134 9.6390 9.168384 123109.00 124047.00 350.87
135 9.6590 9.149444 123655.00 124045.00 351.65
136 9.6790 9.130584 123616.00 124041.00 351.59
137 9.6990 9.111801 122726.00 124037.00 350.32
138 9.7190 9.093096 123305.00 124032.00 351.15
139 9.7390 9.074466 124299.00 124026.00 352.56
140 9.7590 9.055914 124771.00 124019.00 353.23
141 9.7790 9.037437 124197.00 124011.00 352.42
142 9.7990 9.019037 124196.00 124002.00 352.42
143 9.8190 9.000711 124360.00 123992.00 352.65
144 9.8390 8.982460 124517.00 123982.00 352.87
145 9.8590 8.964283 123176.00 123970.00 350.96
146 9.8790 8.946180 123221.00 123958.00 351.03
147 9.8990 8.928150 123722.00 123944.00 351.74
148 9.9190 8.910193 123514.00 123930.00 351.45
149 9.9390 8.892307 123818.00 123915.00 351.88
150 9.9590 8.874496 124093.00 123899.00 352.27
151 9.9790 8.856752 122847.00 123882.00 350.49
152 9.9990 8.839084 123282.00 123865.00 351.11
153 10.0190 8.821483 122787.00 123846.00 350.41
154 10.0390 8.803954 122977.00 123827.00 350.68
155 10.0590 8.786493 122310.00 123807.00 349.73
156 10.0790 8.769102 121221.00 123786.00 348.17
157 10.0990 8.751781 121413.00 123765.00 348.44
158 10.1190 8.734529 121705.00 123742.00 348.86
159 10.1390 8.717344 122278.00 123719.00 349.68
160 10.1590 8.700227 123241.00 123696.00 351.06
161 10.1790 8.683178 122070.00 123671.00 349.39
162 10.1990 8.666195 121057.00 123646.00 347.93
163 10.2190 8.649279 121117.00 123620.00 348.02
164 10.2390 8.632428 121340.00 123594.00 348.34
165 10.2590 8.615645 121109.00 123566.00 348.01
166 10.2790 8.598926 121594.00 123539.00 348.70
167 10.2990 8.582273 119758.00 123510.00 346.06
168 10.3190 8.565682 120343.00 123481.00 346.90
169 10.3390 8.549159 121787.00 123451.00 348.98
170 10.3590 8.532698 120757.00 123421.00 347.50
171 10.3790 8.516300 121124.00 123390.00 348.03
172 10.3990 8.499966 122019.00 123359.00 349.31
173 10.4190 8.483695 122370.00 123327.00 349.81
174 10.4390 8.467485 122013.00 123295.00 349.30
175 10.4590 8.451339 122905.00 123262.00 350.58
176 10.4790 8.435253 122044.00 123229.00 349.35
177 10.4990 8.419230 122146.00 123195.00 349.49
178 10.5190 8.403267 121701.00 123160.00 348.86
179 10.5390 8.387365 122390.00 123126.00 349.84
180 10.5590 8.371523 122568.00 123091.00 350.10
181 10.5790 8.355741 121495.00 123055.00 348.56
182 10.5990 8.340019 121233.00 123019.00 348.18
183 10.6190 8.324355 122042.00 122983.00 349.35
184 10.6390 8.308752 123315.00 122947.00 351.16
185 10.6590 8.293206 122613.00 122910.00 350.16
186 10.6790 8.277720 121440.00 122873.00 348.48
187 10.6990 8.262291 122251.00 122836.00 349.64
188 10.7190 8.246920 122243.00 122798.00 349.63
189 10.7390 8.231606 121311.00 122761.00 348.30
190 10.7590 8.216349 121385.00 122724.00 348.40
191 10.7790 8.201149 121463.00 122687.00 348.52
192 10.7990 8.186005 121291.00 122650.00 348.27
193 10.8190 8.170917 122062.00 122614.00 349.37
194 10.8390 8.155885 122630.00 122579.00 350.19
195 10.8590 8.140908 121488.00 122545.00 348.55
196 10.8790 8.125987 121064.00 122512.00 347.94
197 10.8990 8.111120 121398.00 122480.00 348.42
198 10.9190 8.096309 122223.00 122450.00 349.60
199 10.9390 8.081551 121027.00 122421.00 347.89
200 10.9590 8.066847 120878.00 122393.00 347.67
201 10.9790 8.052197 120513.00 122367.00 347.15
202 10.9990 8.037600 121195.00 122341.00 348.13
203 11.0190 8.023056 121264.00 122317.00 348.23
204 11.0390 8.008565 122749.00 122294.00 350.36
205 11.0590 7.994127 121907.00 122272.00 349.15
206 11.0790 7.979740 121149.00 122250.00 348.07
207 11.0990 7.965406 122069.00 122230.00 349.38
208 11.1190 7.951123 123392.00 122210.00 351.27
209 11.1390 7.936892 121938.00 122192.00 349.20
210 11.1590 7.922711 121989.00 122175.00 349.27
211 11.1790 7.908583 121457.00 122159.00 348.51
212 11.1990 7.894503 122879.00 122145.00 350.54
213 11.2190 7.880475 122666.00 122132.00 350.24
214 11.2390 7.866496 121609.00 122121.00 348.73
215 11.2590 7.852568 121402.00 122112.00 348.43
216 11.2790 7.838688 121392.00 122104.00 348.41
217 11.2990 7.824858 122300.00 122099.00 349.71
218 11.3190 7.811077 123078.00 122096.00 350.83
219 11.3390 7.797344 123898.00 122096.00 351.99
220 11.3590 7.783660 123232.00 122099.00 351.04
221 11.3790 7.770025 123859.00 122106.00 351.94
222 11.3990 7.756436 123657.00 122116.00 351.65
223 11.4190 7.742896 123746.00 122130.00 351.77
224 11.4390 7.729403 124248.00 122149.00 352.49
225 11.4590 7.715958 124566.00 122174.00 352.94
226 11.4790 7.702559 123215.00 122206.00 351.02
227 11.4990 7.689207 124081.00 122246.00 352.25
228 11.5190 7.675901 123327.00 122295.00 351.18
229 11.5390 7.662642 124138.00 122357.00 352.33
230 11.5590 7.649429 124034.00 122433.00 352.18
231 11.5790 7.636261 124715.00 122527.00 353.15
232 11.5990 7.623139 124162.00 122642.00 352.37
233 11.6190 7.610061 125609.00 122782.00 354.41
234 11.6390 7.597030 125316.00 122948.00 354.00
235 11.6590 7.584043 125487.00 123138.00 354.24
236 11.6790 7.571100 126322.00 123343.00 355.42
237 11.6990 7.558201 125937.00 123551.00 354.88
238 11.7190 7.545347 126881.00 123741.00 356.20
239 11.7390 7.532537 127931.00 123885.00 357.67
240 11.7590 7.519771 127490.00 123954.00 357.06
241 11.7790 7.507047 127729.00 123917.00 357.39
242 11.7990 7.494368 126764.00 123756.00 356.04
243 11.8190 7.481730 127003.00 123471.00 356.38
244 11.8390 7.469136 125906.00 123089.00 354.83
245 11.8590 7.456584 124796.00 122657.00 353.27
246 11.8790 7.444076 123824.00 122219.00 351.89
247 11.8990 7.431608 124146.00 121811.00 352.34
248 11.9190 7.419183 122833.00 121455.00 350.48
249 11.9390 7.406799 123011.00 121162.00 350.73
250 11.9590 7.394457 123726.00 120930.00 351.75
251 11.9790 7.382156 121258.00 120752.00 348.22
252 11.9990 7.369897 121977.00 120620.00 349.25
253 12.0190 7.357677 122290.00 120520.00 349.70
254 12.0390 7.345500 122603.00 120445.00 350.15
255 12.0590 7.333362 121971.00 120386.00 349.24
256 12.0790 7.321264 122007.00 120338.00 349.30
257 12.0990 7.309207 122805.00 120296.00 350.43
258 12.1190 7.297189 122909.00 120259.00 350.58
259 12.1390 7.285212 122567.00 120224.00 350.10
260 12.1590 7.273273 121797.00 120193.00 348.99
261 12.1790 7.261374 122824.00 120163.00 350.46
262 12.1990 7.249514 123525.00 120134.00 351.46
263 12.2190 7.237693 123711.00 120107.00 351.73
264 12.2390 7.225910 123091.00 120081.00 350.84
265 12.2590 7.214167 121596.00 120057.00 348.71
266 12.2790 7.202461 120457.00 120033.00 347.07
267 12.2990 7.190794 121507.00 120011.00 348.58
268 12.3190 7.179164 121628.00 119990.00 348.75
269 12.3390 7.167573 122182.00 119969.00 349.55
270 12.3590 7.156019 122055.00 119950.00 349.36
271 12.3790 7.144502 121051.00 119931.00 347.92
272 12.3990 7.133023 121397.00 119914.00 348.42
273 12.4190 7.121581 121660.00 119897.00 348.80
274 12.4390 7.110175 122087.00 119882.00 349.41
275 12.4590 7.098806 122176.00 119867.00 349.54
276 12.4790 7.087473 122491.00 119853.00 349.99
277 12.4990 7.076178 121445.00 119840.00 348.49
278 12.5190 7.064918 120512.00 119827.00 347.15
279 12.5390 7.053695 120768.00 119816.00 347.52
280 12.5590 7.042506 120083.00 119805.00 346.53
281 12.5790 7.031353 119401.00 119796.00 345.54
282 12.5990 7.020237 119862.00 119787.00 346.21
283 12.6190 7.009155 121220.00 119779.00 348.17
284 12.6390 6.998109 121821.00 119772.00 349.03
285 12.6590 6.987097 120920.00 119766.00 347.74
286 12.6790 6.976121 120627.00 119760.00 347.31
287 12.6990 6.965179 120919.00 119756.00 347.73
288 12.7190 6.954272 121177.00 119752.00 348.11
289 12.7390 6.943398 120982.00 119749.00 347.83
290 12.7590 6.932559 120780.00 119747.00 347.53
291 12.7790 6.921754 119969.00 120216.00 346.36
292 12.7990 6.910984 120610.00 120225.00 347.29
293 12.8190 6.900246 122075.00 120234.00 349.39
294 12.8390 6.889542 121847.00 120245.00 349.07
295 12.8590 6.878871 122946.00 120256.00 350.64
296 12.8790 6.868234 123043.00 120269.00 350.77
297 12.8990 6.857629 123397.00 120283.00 351.28
298 12.9190 6.847058 122424.00 120298.00 349.89
299 12.9390 6.836519 122307.00 120314.00 349.72
300 12.9590 6.826014 123154.00 120331.00 350.93
301 12.9790 6.815539 122680.00 120349.00 350.26
302 12.9990 6.805098 123349.00 120369.00 351.21
303 13.0190 6.794689 123662.00 120390.00 351.66
304 13.0390 6.784312 122700.00 120412.00 350.29
305 13.0590 6.773966 122792.00 120436.00 350.42
306 13.0790 6.763652 121482.00 120460.00 348.54
307 13.0990 6.753371 121688.00 120486.00 348.84
308 13.1190 6.743120 121327.00 121063.00 348.32
309 13.1390 6.732901 121169.00 121102.00 348.09
310 13.1590 6.722712 119874.00 121142.00 346.23
311 13.1790 6.712555 120130.00 121184.00 346.60
312 13.1990 6.702429 121319.00 121227.00 348.31
313 13.2190 6.692333 121689.00 121272.00 348.84
314 13.2390 6.682268 122520.00 121319.00 350.03
315 13.2590 6.672234 123527.00 121367.00 351.46
316 13.2790 6.662229 123131.00 121418.00 350.90
317 13.2990 6.652255 123543.00 121470.00 351.49
318 13.3190 6.642310 124526.00 121524.00 352.88
319 13.3390 6.632397 122266.00 121580.00 349.67
320 13.3590 6.622512 120818.00 121638.00 347.59
321 13.3790 6.612657 120479.00 121698.00 347.10
322 13.3990 6.602831 121486.00 121760.00 348.55
323 13.4190 6.593035 121245.00 121824.00 348.20
324 13.4390 6.583268 121619.00 121891.00 348.74
325 13.4590 6.573531 122005.00 121960.00 349.29
326 13.4790 6.563822 122458.00 122031.00 349.94
327 13.4990 6.554142 122615.00 122104.00 350.16
328 13.5190 6.544491 122047.00 122180.00 349.35
329 13.5390 6.534868 122007.00 122259.00 349.30
330 13.5590 6.525274 121962.00 122340.00 349.23
331 13.5790 6.515707 121524.00 122424.00 348.60
332 13.5990 6.506170 122050.00 122511.00 349.36
333 13.6190 6.496660 122736.00 122601.00 350.34
334 13.6390 6.487179 124189.00 122694.00 352.40
335 13.6590 6.477725 123544.00 122790.00 351.49
336 13.6790 6.468299 123367.00 122889.00 351.24
337 13.6990 6.458900 122717.00 122992.00 350.31
338 13.7190 6.449530 122785.00 123099.00 350.41
339 13.7390 6.440186 123799.00 123209.00 351.85
340 13.7590 6.430869 124044.00 123324.00 352.20
341 13.7790 6.421579 122139.00 123442.00 349.48
342 13.7990 6.412318 122740.00 123565.00 350.34
343 13.8190 6.403082 123588.00 123693.00 351.55
344 13.8390 6.393873 124612.00 123825.00 353.00
345 13.8590 6.384691 123695.00 123963.00 351.70
346 13.8790 6.375535 122685.00 124106.00 350.26
347 13.8990 6.366406 123624.00 124255.00 351.60
348 13.9190 6.357304 122816.00 124410.00 350.45
349 13.9390 6.348227 123136.00 124572.00 350.91
350 13.9590 6.339176 123445.00 124740.00 351.35
351 13.9790 6.330152 123008.00 124916.00 350.73
352 13.9990 6.321153 122695.00 125100.00 350.28
353 14.0190 6.312180 123664.00 125293.00 351.66
354 14.0390 6.303232 125058.00 125495.00 353.64
355 14.0590 6.294311 124178.00 125708.00 352.39
356 14.0790 6.285414 124669.00 125931.00 353.08
357 14.0990 6.276543 125470.00 126242.00 354.22
358 14.1190 6.267696 126672.00 126491.00 355.91
359 14.1390 6.258876 126312.00 126755.00 355.40
360 14.1590 6.250080 126753.00 127034.00 356.02
361 14.1790 6.241309 127548.00 127328.00 357.14
362 14.1990 6.232563 127341.00 127644.00 356.85
363 14.2190 6.223841 128007.00 127983.00 357.78
364 14.2390 6.215144 129139.00 128348.00 359.36
365 14.2590 6.206471 130024.00 128745.00 360.59
366 14.2790 6.197824 130342.00 129181.00 361.03
367 14.2990 6.189199 131046.00 129668.00 362.00
368 14.3190 6.180600 131911.00 130219.00 363.20
369 14.3390 6.172024 133008.00 130858.00 364.70
370 14.3590 6.163472 134255.00 131611.00 366.41
371 14.3790 6.154944 135337.00 132515.00 367.88
372 14.3990 6.146440 136891.00 133611.00 369.99
373 14.4190 6.137959 138993.00 134949.00 372.82
374 14.4390 6.129502 138991.00 136578.00 372.82
375 14.4590 6.121069 140876.00 138547.00 375.33
376 14.4790 6.112659 142115.00 140898.00 376.98
377 14.4990 6.104272 144027.00 143657.00 379.51
378 14.5190 6.095909 146341.00 146836.00 382.55
379 14.5390 6.087568 150003.00 150436.00 387.30
380 14.5590 6.079249 152826.00 154447.00 390.93
381 14.5790 6.070955 154312.00 158858.00 392.83
382 14.5990 6.062683 159637.00 163661.00 399.55
383 14.6190 6.054434 163572.00 168853.00 404.44
384 14.6390 6.046207 167949.00 174443.00 409.82
385 14.6590 6.038003 173070.00 180450.00 416.02
386 14.6780 6.030230 178416.00 186572.00 422.39
387 14.6980 6.022069 184334.00 193500.00 429.34
388 14.7180 6.013931 191106.00 200986.00 437.16
389 14.7380 6.005815 199261.00 209273.00 446.39
390 14.7580 5.997720 206617.00 218145.00 454.55
391 14.7780 5.989649 214668.00 227885.00 463.32
392 14.7980 5.981598 226468.00 238638.00 475.89
393 14.8180 5.973569 240370.00 250574.00 490.27
394 14.8380 5.965562 255701.00 263884.00 505.67
395 14.8580 5.957578 272460.00 278795.00 521.98
396 14.8780 5.949615 290478.00 295561.00 538.96
397 14.8980 5.941672 310925.00 314492.00 557.61
398 14.9180 5.933751 333522.00 335954.00 577.51
399 14.9380 5.925852 359994.00 360379.00 599.99
400 14.9580 5.917973 387451.00 388230.00 622.46
401 14.9780 5.910116 419111.00 419927.00 647.39
402 14.9980 5.902280 455563.00 455720.00 674.95
403 15.0180 5.894465 494839.00 495480.00 703.45
404 15.0380 5.886670 541828.00 538478.00 736.09
405 15.0580 5.878897 589133.00 583184.00 767.55
406 15.0780 5.871143 632440.00 627122.00 795.26
407 15.0980 5.863411 674477.00 666901.00 821.27
408 15.1180 5.855699 707973.00 698448.00 841.41
409 15.1380 5.848008 730841.00 717471.00 854.89
410 15.1580 5.840336 732912.00 720395.00 856.10
411 15.1780 5.832685 713167.00 705810.00 844.49
412 15.1980 5.825055 675583.00 675856.00 821.94
413 15.2180 5.817444 624164.00 636124.00 790.04
414 15.2380 5.809854 570369.00 593670.00 755.23
415 15.2580 5.802283 527564.00 554840.00 726.34
416 15.2780 5.794733 499239.00 524233.00 706.57
417 15.2980 5.787202 484012.00 504647.00 695.71
418 15.3180 5.779691 480688.00 497346.00 693.32
419 15.3380 5.772200 488614.00 502368.00 699.01
420 15.3580 5.764728 503866.00 518763.00 709.84
421 15.3780 5.757275 527483.00 544742.00 726.28
422 15.3980 5.749842 561255.00 577740.00 749.17
423 15.4180 5.742428 601300.00 614372.00 775.43
424 15.4380 5.735034 642122.00 650444.00 801.33
425 15.4580 5.727659 680980.00 681013.00 825.22
426 15.4780 5.720303 709791.00 700675.00 842.49
427 15.4980 5.712966 720941.00 704167.00 849.08
428 15.5180 5.705648 714082.00 687545.00 845.03
429 15.5380 5.698349 676963.00 649900.00 822.78
430 15.5580 5.691069 614114.00 594630.00 783.65
431 15.5780 5.683807 536891.00 528613.00 732.73
432 15.5980 5.676564 459125.00 459604.00 677.59
433 15.6180 5.669340 387193.00 393948.00 622.25
434 15.6380 5.662134 328087.00 335813.00 572.79
435 15.6580 5.654947 283229.00 287280.00 532.19
436 15.6780 5.647778 250188.00 248796.00 500.19
437 15.6980 5.640627 224704.00 219737.00 474.03
438 15.7180 5.633495 206769.00 198482.00 454.72
439 15.7380 5.626381 191289.00 183442.00 437.37
440 15.7580 5.619285 179553.00 172992.00 423.74
441 15.7780 5.612207 170618.00 165751.00 413.06
442 15.7980 5.605147 165050.00 160659.00 406.26
443 15.8180 5.598105 160112.00 156968.00 400.14
444 15.8380 5.591081 155109.00 154183.00 393.84
445 15.8580 5.584074 151363.00 151992.00 389.05
446 15.8780 5.577085 147890.00 150208.00 384.57
447 15.8980 5.570115 144561.00 148717.00 380.21
448 15.9180 5.563160 142383.00 147450.00 377.34
449 15.9380 5.556225 142013.00 146364.00 376.85
450 15.9580 5.549306 140375.00 145427.00 374.67
451 15.9780 5.542405 138652.00 144621.00 372.36
452 15.9980 5.535521 137795.00 143928.00 371.21
453 16.0180 5.528655 137323.00 143338.00 370.57
454 16.0380 5.521805 137266.00 142842.00 370.49
455 16.0580 5.514973 136655.00 142437.00 369.67
456 16.0780 5.508158 136054.00 142119.00 368.86
457 16.0980 5.501359 134970.00 141888.00 367.38
458 16.1180 5.494578 135735.00 141746.00 368.42
459 16.1380 5.487813 136869.00 141696.00 369.96
460 16.1580 5.481065 135507.00 141741.00 368.11
461 16.1780 5.474335 135621.00 141886.00 368.27
462 16.1980 5.467620 136722.00 142133.00 369.76
463 16.2180 5.460923 135769.00 142484.00 368.47
464 16.2380 5.454241 135467.00 142937.00 368.06
465 16.2580 5.447577 135400.00 143493.00 367.97
466 16.2780 5.440929 135325.00 144148.00 367.86
467 16.2980 5.434297 136569.00 144903.00 369.55
468 16.3180 5.427681 138059.00 145757.00 371.56
469 16.3380 5.421082 139792.00 146710.00 373.89
470 16.3580 5.414499 140188.00 147767.00 374.42
471 16.3780 5.407932 140900.00 148932.00 375.37
472 16.3980 5.401381 141970.00 150213.00 376.79
473 16.4180 5.394847 142479.00 151620.00 377.46
474 16.4380 5.388328 144814.00 153170.00 380.54
475 16.4580 5.381825 146226.00 154880.00 382.39
476 16.4780 5.375338 147600.00 156775.00 384.19
477 16.4980 5.368867 150468.00 158888.00 387.90
478 16.5180 5.362411 154148.00 161256.00 392.62
479 16.5380 5.355971 156455.00 163924.00 395.54
480 16.5580 5.349546 159740.00 166940.00 399.67
481 16.5780 5.343138 164204.00 170353.00 405.22
482 16.5980 5.336745 168148.00 174198.00 410.06
483 16.6180 5.330366 175936.00 178486.00 419.45
484 16.6380 5.324004 182058.00 183187.00 426.68
485 16.6580 5.317657 186999.00 188209.00 432.43
486 16.6780 5.311326 194169.00 193386.00 440.65
487 16.6980 5.305008 202144.00 198462.00 449.60
488 16.7180 5.298707 211386.00 203098.00 459.77
489 16.7380 5.292420 220881.00 206872.00 469.98
490 16.7580 5.286150 228649.00 209314.00 478.17
491 16.7780 5.279893 232531.00 209974.00 482.21
492 16.7980 5.273652 232633.00 208540.00 482.32
493 16.8180 5.267425 229081.00 205002.00 478.62
494 16.8380 5.261214 222997.00 199742.00 472.23
495 16.8580 5.255017 210358.00 193453.00 458.65
496 16.8780 5.248835 201220.00 186900.00 448.58
497 16.8980 5.242668 191404.00 180726.00 437.50
498 16.9180 5.236515 183826.00 175372.00 428.75
499 16.9380 5.230377 177566.00 171085.00 421.39
500 16.9580 5.224253 174231.00 167963.00 417.41
501 16.9780 5.218144 173196.00 165991.00 416.17
502 16.9980 5.212049 173404.00 165084.00 416.42
503 17.0180 5.205969 173354.00 165115.00 416.36
504 17.0380 5.199903 173532.00 165951.00 416.57
505 17.0580 5.193851 175986.00 167465.00 419.51
506 17.0780 5.187814 176964.00 169559.00 420.67
507 17.0980 5.181790 180262.00 172165.00 424.57
508 17.1180 5.175781 183885.00 175249.00 428.82
509 17.1380 5.169786 187536.00 178809.00 433.05
510 17.1580 5.163805 190617.00 182873.00 436.60
511 17.1780 5.157838 194847.00 187496.00 441.42
512 17.1980 5.151885 198687.00 192752.00 445.74
513 17.2180 5.145946 203786.00 198730.00 451.43
514 17.2380 5.140020 209323.00 205519.00 457.52
515 17.2580 5.134109 212802.00 213186.00 461.30
516 17.2780 5.128211 217999.00 221751.00 466.90
517 17.2980 5.122326 224872.00 231154.00 474.21
518 17.3180 5.116456 228588.00 241214.00 478.11
519 17.3380 5.110599 235655.00 251599.00 485.44
520 17.3580 5.104755 241894.00 261799.00 491.83
521 17.3780 5.098926 247252.00 271127.00 497.24
522 17.3980 5.093109 252117.00 278723.00 502.11
523 17.4180 5.087306 259144.00 283616.00 509.06
524 17.4380 5.081516 262963.00 284839.00 512.80
525 17.4580 5.075739 260378.00 281666.00 510.27
526 17.4780 5.069976 256112.00 273935.00 506.08
527 17.4980 5.064227 246238.00 262281.00 496.22
528 17.5180 5.058490 235441.00 248015.00 485.22
529 17.5380 5.052767 222160.00 232686.00 471.34
530 17.5580 5.047056 211450.00 217644.00 459.84
531 17.5780 5.041358 198903.00 203850.00 445.98
532 17.5980 5.035674 190116.00 191876.00 436.02
533 17.6180 5.030003 183878.00 181593.00 428.81
534 17.6380 5.024344 179408.00 173793.00 423.57
535 17.6580 5.018698 176177.00 167942.00 419.73
536 17.6780 5.013066 174322.00 163796.00 417.52
537 17.6980 5.007446 172352.00 161069.00 415.15
538 17.7180 5.001838 171950.00 159476.00 414.67
539 17.7380 4.996243 172528.00 158764.00 415.36
540 17.7580 4.990662 171743.00 158727.00 414.42
541 17.7780 4.985092 171088.00 159211.00 413.63
542 17.7980 4.979536 173624.00 160109.00 416.68
543 17.8180 4.973991 174290.00 161351.00 417.48
544 17.8380 4.968460 175496.00 162902.00 418.92
545 17.8580 4.962940 176125.00 164749.00 419.67
546 17.8780 4.957433 176646.00 166904.00 420.29
547 17.8980 4.951938 177623.00 169391.00 421.45
548 17.9180 4.946456 178744.00 172257.00 422.78
549 17.9380 4.940986 179593.00 175560.00 423.78
550 17.9580 4.935528 181382.00 179379.00 425.89
551 17.9780 4.930082 185237.00 183344.00 430.39
552 17.9980 4.924649 188846.00 188454.00 434.56
553 18.0180 4.919228 192805.00 194306.00 439.10
554 18.0380 4.913818 196473.00 200902.00 443.25
555 18.0580 4.908421 201088.00 208152.00 448.43
556 18.0780 4.903037 205454.00 215834.00 453.27
557 18.0980 4.897663 209702.00 223562.00 457.93
558 18.1180 4.892302 214727.00 230820.00 463.39
559 18.1380 4.886952 219409.00 236793.00 468.41
560 18.1580 4.881614 222723.00 240685.00 471.93
561 18.1780 4.876289 225524.00 241648.00 474.89
562 18.1980 4.870975 227451.00 239046.00 476.92
563 18.2180 4.865672 224344.00 232752.00 473.65
564 18.2380 4.860381 216608.00 223369.00 465.41
565 18.2580 4.855103 208632.00 212076.00 456.76
566 18.2780 4.849835 198160.00 200189.00 445.15
567 18.2980 4.844579 188986.00 188786.00 434.73
568 18.3180 4.839334 178799.00 178575.00 422.85
569 18.3380 4.834102 171704.00 169926.00 414.37
570 18.3580 4.828880 166350.00 162941.00 407.86
571 18.3780 4.823670 160492.00 157530.00 400.61
572 18.3980 4.818471 157843.00 153488.00 397.30
573 18.4180 4.813285 155001.00 150553.00 393.70
574 18.4380 4.808108 152814.00 148463.00 390.91
575 18.4580 4.802944 150330.00 146983.00 387.72
576 18.4780 4.797790 149413.00 145928.00 386.54
577 18.4980 4.792648 147073.00 145159.00 383.50
578 18.5180 4.787517 146791.00 144579.00 383.13
579 18.5380 4.782397 146333.00 144125.00 382.54
580 18.5580 4.777288 145475.00 143758.00 381.41
581 18.5780 4.772191 144100.00 143453.00 379.61
582 18.5980 4.767103 144095.00 143193.00 379.60
583 18.6180 4.762027 144819.00 142969.00 380.55
584 18.6380 4.756962 145040.00 142774.00 380.84
585 18.6580 4.751908 143710.00 142603.00 379.09
586 18.6780 4.746865 142505.00 142452.00 377.50
587 18.6980 4.741833 143269.00 142319.00 378.51
588 18.7180 4.736811 143215.00 142201.00 378.44
589 18.7380 4.731800 142474.00 142096.00 377.46
590 18.7580 4.726800 141277.00 142002.00 375.87
591 18.7780 4.721811 141877.00 141918.00 376.67
592 18.7980 4.716833 142043.00 141842.00 376.89
593 18.8180 4.711864 141269.00 141774.00 375.86
594 18.8380 4.706907 141744.00 141713.00 376.49
595 18.8580 4.701960 142792.00 141657.00 377.88
596 18.8780 4.697024 141276.00 141607.00 375.87
597 18.8980 4.692098 142018.00 141561.00 376.85
598 18.9180 4.687183 140819.00 141520.00 375.26
599 18.9380 4.682278 141718.00 141482.00 376.45
600 18.9580 4.677383 141405.00 141447.00 376.04
601 18.9780 4.672499 138958.00 141415.00 372.77
602 18.9980 4.667625 140304.00 141386.00 374.57
603 19.0180 4.662761 141031.00 141358.00 375.54
604 19.0380 4.657908 140814.00 141333.00 375.25
605 19.0580 4.653065 139654.00 141310.00 373.70
606 19.0780 4.648232 138871.00 141288.00 372.65
607 19.0980 4.643410 138549.00 141268.00 372.22
608 19.1180 4.638597 140226.00 141249.00 374.47
609 19.1380 4.633794 140485.00 141240.00 374.81
610 19.1580 4.629002 141394.00 141223.00 376.02
611 19.1780 4.624220 141171.00 141207.00 375.73
612 19.1980 4.619448 141617.00 141191.00 376.32
613 19.2180 4.614685 142661.00 141177.00 377.70
614 19.2380 4.609933 141441.00 141162.00 376.09
615 19.2580 4.605191 142152.00 141149.00 377.03
616 19.2780 4.600458 141518.00 141135.00 376.19
617 19.2980 4.595735 141680.00 141122.00 376.40
618 19.3180 4.591022 142096.00 141109.00 376.96
619 19.3380 4.586319 141460.00 141096.00 376.11
620 19.3580 4.581626 143110.00 141084.00 378.30
621 19.3780 4.576942 143832.00 141071.00 379.25
622 19.3980 4.572268 142311.00 141059.00 377.24
623 19.4180 4.567604 142346.00 141046.00 377.29
624 19.4380 4.562950 142150.00 141034.00 377.03
625 19.4580 4.558304 142667.00 141022.00 377.71
626 19.4780 4.553669 141463.00 141009.00 376.12
627 19.4980 4.549044 141274.00 140997.00 375.86
628 19.5180 4.544427 142393.00 140984.00 377.35
629 19.5380 4.539820 142419.00 140971.00 377.38
630 19.5580 4.535223 142276.00 140892.00 377.20
631 19.5780 4.530635 143383.00 140880.00 378.66
632 19.5980 4.526056 143571.00 140868.00 378.91
633 19.6180 4.521487 144731.00 140855.00 380.43
634 19.6380 4.516928 144820.00 140843.00 380.55
635 19.6580 4.512377 143512.00 140830.00 378.83
636 19.6780 4.507836 145264.00 140817.00 381.14
637 19.6980 4.503304 146127.00 140804.00 382.27
638 19.7180 4.498782 145449.00 140791.00 381.38
639 19.7380 4.494268 144885.00 140778.00 380.64
640 19.7580 4.489764 145448.00 140764.00 381.38
641 19.7780 4.485269 146068.00 140751.00 382.19
642 19.7980 4.480783 147542.00 140737.00 384.11
643 19.8180 4.476306 149251.00 140758.00 386.33
644 19.8380 4.471839 148339.00 140745.00 385.15
645 19.8580 4.467380 149792.00 140732.00 387.03
646 19.8780 4.462930 148622.00 140720.00 385.52
647 19.8980 4.458489 149132.00 140708.00 386.18
648 19.9180 4.454058 149838.00 140696.00 387.09
649 19.9380 4.449635 150205.00 140684.00 387.56
650 19.9580 4.445221 150210.00 140674.00 387.57
651 19.9780 4.440816 148994.00 140663.00 386.00
652 19.9980 4.436420 150297.00 140654.00 387.68
653 20.0180 4.432033 151952.00 140645.00 389.81
654 20.0380 4.427654 153270.00 140638.00 391.50
655 20.0580 4.423285 151494.00 140632.00 389.22
656 20.0780 4.418923 151738.00 140627.00 389.54
657 20.0980 4.414571 152155.00 140624.00 390.07
658 20.1180 4.410227 153221.00 140623.00 391.43
659 20.1380 4.405892 152720.00 140625.00 390.79
660 20.1580 4.401566 152071.00 140629.00 389.96
661 20.1780 4.397249 151843.00 140637.00 389.67
662 20.1980 4.392940 151097.00 140650.00 388.71
663 20.2180 4.388639 152374.00 140668.00 390.35
664 20.2380 4.384347 152810.00 140554.00 390.91
665 20.2580 4.380064 150431.00 140589.00 387.85
666 20.2780 4.375789 151310.00 140636.00 388.99
667 20.2980 4.371523 151520.00 140696.00 389.26
668 20.3180 4.367264 150836.00 140774.00 388.38
669 20.3380 4.363015 152300.00 140875.00 390.26
670 20.3580 4.358774 152410.00 141004.00 390.40
671 20.3780 4.354541 151760.00 141168.00 389.56
672 20.3980 4.350317 152178.00 141374.00 390.10
673 20.4180 4.346101 155026.00 141629.00 393.73
674 20.4380 4.341893 155350.00 141941.00 394.14
675 20.4580 4.337693 154440.00 142318.00 392.99
676 20.4780 4.333502 153256.00 142766.00 391.48
677 20.4980 4.329319 155587.00 143291.00 394.45
678 20.5180 4.325144 155631.00 143899.00 394.50
679 20.5380 4.320977 156096.00 144595.00 395.09
680 20.5580 4.316818 156512.00 145384.00 395.62
681 20.5780 4.312668 157158.00 146276.00 396.43
682 20.5980 4.308526 158773.00 147279.00 398.46
683 20.6180 4.304391 161530.00 148407.00 401.91
684 20.6380 4.300265 161491.00 149677.00 401.86
685 20.6580 4.296147 162065.00 151110.00 402.57
686 20.6780 4.292037 162281.00 152726.00 402.84
687 20.6980 4.287935 165621.00 154548.00 406.97
688 20.7180 4.283841 166557.00 156594.00 408.11
689 20.7380 4.279754 167590.00 158872.00 409.38
690 20.7580 4.275676 167785.00 161286.00 409.62
691 20.7780 4.271606 169503.00 163979.00 411.71
692 20.7980 4.267543 171374.00 166798.00 413.97
693 20.8180 4.263488 174190.00 169638.00 417.36
694 20.8380 4.259442 176312.00 172353.00 419.89
695 20.8580 4.255403 176952.00 174753.00 420.66
696 20.8780 4.251371 178537.00 177087.00 422.54
697 20.8980 4.247347 179900.00 178168.00 424.15
698 20.9180 4.243332 182027.00 178250.00 426.65
699 20.9380 4.239324 182008.00 177201.00 426.62
700 20.9580 4.235323 180871.00 175035.00 425.29
701 20.9780 4.231330 178502.00 171926.00 422.49
702 20.9980 4.227345 175309.00 168172.00 418.70
703 21.0180 4.223368 170068.00 164119.00 412.39
704 21.0380 4.219398 165212.00 160082.00 406.46
705 21.0580 4.215436 161853.00 156294.00 402.31
706 21.0780 4.211482 158018.00 152903.00 397.52
707 21.0980 4.207534 155121.00 149978.00 393.85
708 21.1180 4.203595 152473.00 147534.00 390.48
709 21.1380 4.199662 150123.00 145545.00 387.46
710 21.1580 4.195737 148613.00 143960.00 385.50
711 21.1780 4.191821 147715.00 142718.00 384.34
712 21.1980 4.187911 145543.00 141754.00 381.50
713 21.2180 4.184008 144213.00 141008.00 379.75
714 21.2380 4.180113 144327.00 140427.00 379.90
715 21.2580 4.176226 142545.00 139969.00 377.55
716 21.2780 4.172346 143433.00 139600.00 378.73
717 21.2980 4.168472 141824.00 139297.00 376.60
718 21.3180 4.164607 141098.00 139042.00 375.63
719 21.3380 4.160749 140258.00 138823.00 374.51
720 21.3580 4.156898 139261.00 138634.00 373.18
721 21.3780 4.153054 137765.00 138469.00 371.17
722 21.3980 4.149217 138768.00 138325.00 372.52
723 21.4180 4.145388 139159.00 138201.00 373.04
724 21.4380 4.141566 137207.00 138097.00 370.42
725 21.4580 4.137751 137669.00 138012.00 371.04
726 21.4780 4.133943 137641.00 137948.00 371.00
727 21.4980 4.130142 137384.00 137906.00 370.65
728 21.5180 4.126348 137005.00 137886.00 370.14
729 21.5380 4.122562 136427.00 137889.00 369.36
730 21.5580 4.118783 137905.00 137917.00 371.36
731 21.5780 4.115010 137782.00 137996.00 371.19
732 21.5980 4.111245 137258.00 138076.00 370.48
733 21.6180 4.107486 137255.00 138185.00 370.48
734 21.6380 4.103735 138116.00 138323.00 371.64
735 21.6580 4.099990 139434.00 138495.00 373.41
736 21.6780 4.096253 139838.00 138704.00 373.95
737 21.6980 4.092523 139823.00 138954.00 373.93
738 21.7180 4.088799 141060.00 139251.00 375.58
739 21.7380 4.085082 142773.00 139599.00 377.85
740 21.7580 4.081373 142823.00 140003.00 377.92
741 21.7780 4.077670 143439.00 140461.00 378.73
742 21.7980 4.073973 145044.00 140972.00 380.85
743 21.8180 4.070284 147030.00 141526.00 383.45
744 21.8380 4.066602 146777.00 142104.00 383.11
745 21.8580 4.062926 146727.00 142681.00 383.05
746 21.8780 4.059257 148183.00 143221.00 384.95
747 21.8980 4.055594 147688.00 143678.00 384.30
748 21.9180 4.051939 148403.00 143999.00 385.23
749 21.9380 4.048290 147784.00 144132.00 384.43
750 21.9580 4.044648 148156.00 144037.00 384.91
751 21.9780 4.041012 147743.00 143700.00 384.37
752 21.9980 4.037384 147214.00 143158.00 383.68
753 22.0180 4.033762 146846.00 142485.00 383.20
754 22.0380 4.030146 145676.00 141776.00 381.67
755 22.0580 4.026537 144874.00 141116.00 380.62
756 22.0780 4.022935 143093.00 140570.00 378.28
757 22.0980 4.019339 141633.00 140182.00 376.34
758 22.1180 4.015750 142141.00 139971.00 377.02
759 22.1380 4.012167 141739.00 139947.00 376.48
760 22.1580 4.008590 141602.00 140111.00 376.30
761 22.1780 4.005021 139862.00 140457.00 373.98
762 22.1980 4.001458 141875.00 140981.00 376.66
763 22.2180 3.997901 140613.00 141679.00 374.98
764 22.2380 3.994350 140610.00 142552.00 374.98
765 22.2580 3.990807 140818.00 143609.00 375.26
766 22.2780 3.987269 141804.00 144859.00 376.57
767 22.2980 3.983738 142899.00 146317.00 378.02
768 22.3180 3.980213 143285.00 147992.00 378.53
769 22.3380 3.976695 143187.00 149886.00 378.40
770 22.3580 3.973183 144590.00 151982.00 380.25
771 22.3780 3.969677 146865.00 154236.00 383.23
772 22.3980 3.966177 148998.00 156571.00 386.00
773 22.4180 3.962684 151661.00 158868.00 389.44
774 22.4380 3.959197 156177.00 160965.00 395.19
775 22.4580 3.955717 156717.00 162660.00 395.88
776 22.4780 3.952242 157401.00 163723.00 396.74
777 22.4980 3.948774 158894.00 163927.00 398.61
778 22.5180 3.945312 158910.00 163111.00 398.64
779 22.5380 3.941856 158363.00 161262.00 397.95
780 22.5580 3.938406 154507.00 158560.00 393.07
781 22.5780 3.934963 152136.00 155329.00 390.05
782 22.5980 3.931526 148999.00 151921.00 386.00
783 22.6180 3.928094 145188.00 148624.00 381.04
784 22.6380 3.924669 142511.00 145629.00 377.51
785 22.6580 3.921250 140207.00 143039.00 374.44
786 22.6780 3.917837 137548.00 140893.00 370.88
787 22.6980 3.914430 133917.00 139181.00 365.95
788 22.7180 3.911029 133395.00 137859.00 365.23
789 22.7380 3.907634 131282.00 136871.00 362.33
790 22.7580 3.904246 129579.00 136154.00 359.97
791 22.7780 3.900863 127977.00 135650.00 357.74
792 22.7980 3.897485 128766.00 135307.00 358.84
793 22.8180 3.894115 128758.00 135085.00 358.83
794 22.8380 3.890750 128929.00 134953.00 359.07
795 22.8580 3.887391 128961.00 134893.00 359.11
796 22.8780 3.884037 129785.00 134889.00 360.26
797 22.8980 3.880690 129968.00 134934.00 360.51
798 22.9180 3.877349 129335.00 135024.00 359.63
799 22.9380 3.874013 130063.00 135158.00 360.64
800 22.9580 3.870684 129953.00 135335.00 360.49
801 22.9780 3.867360 129503.00 135559.00 359.86
802 22.9980 3.864042 129529.00 135832.00 359.90
803 23.0180 3.860730 131279.00 136160.00 362.32
804 23.0380 3.857423 131317.00 136549.00 362.38
805 23.0580 3.854123 132158.00 137008.00 363.54
806 23.0780 3.850828 132761.00 137550.00 364.36
807 23.0980 3.847539 134404.00 138192.00 366.61
808 23.1180 3.844255 136725.00 138956.00 369.76
809 23.1380 3.840978 137619.00 139871.00 370.97
810 23.1580 3.837706 137947.00 140975.00 371.41
811 23.1780 3.834440 139369.00 142317.00 373.32
812 23.1980 3.831179 142426.00 143958.00 377.39
813 23.2180 3.827924 146016.00 145973.00 382.12
814 23.2380 3.824674 148669.00 148449.00 385.58
815 23.2580 3.821431 153461.00 151487.00 391.74
816 23.2780 3.818193 156737.00 155199.00 395.90
817 23.2980 3.814960 162386.00 159705.00 402.97
818 23.3180 3.811733 168231.00 165127.00 410.16
819 23.3380 3.808512 175189.00 171581.00 418.56
820 23.3580 3.805296 181861.00 179181.00 426.45
821 23.3780 3.802086 190606.00 188038.00 436.58
822 23.3980 3.798882 199456.00 198267.00 446.61
823 23.4180 3.795682 210506.00 210007.00 458.81
824 23.4380 3.792489 223711.00 223418.00 472.98
825 23.4580 3.789300 239115.00 238695.00 488.99
826 23.4780 3.786118 255849.00 256058.00 505.82
827 23.4980 3.782941 276839.00 275730.00 526.16
828 23.5180 3.779769 300536.00 297907.00 548.21
829 23.5380 3.776602 325017.00 322695.00 570.10
830 23.5580 3.773441 347643.00 350050.00 589.61
831 23.5780 3.770286 374969.00 379676.00 612.35
832 23.5980 3.767136 402872.00 410949.00 634.72
833 23.6180 3.763991 431934.00 442835.00 657.22
834 23.6380 3.760851 459833.00 473839.00 678.11
835 23.6580 3.757717 485815.00 501965.00 697.00
836 23.6780 3.754589 510525.00 524756.00 714.51
837 23.6980 3.751465 529885.00 539423.00 727.93
838 23.7180 3.748347 544455.00 543237.00 737.87
839 23.7380 3.745234 537822.00 534239.00 733.36
840 23.7580 3.742126 514222.00 512188.00 717.09
841 23.7780 3.739024 480973.00 479073.00 693.52
842 23.7980 3.735927 441536.00 438673.00 664.48
843 23.8180 3.732835 396264.00 395228.00 629.49
844 23.8380 3.729749 349646.00 352353.00 591.31
845 23.8580 3.726667 310592.00 312565.00 557.31
846 23.8780 3.723591 277358.00 277319.00 526.65
847 23.8980 3.720520 245357.00 247259.00 495.33
848 23.9180 3.717454 221247.00 222418.00 470.37
849 23.9380 3.714394 201114.00 202499.00 448.46
850 23.9580 3.711338 187961.00 186889.00 433.55
851 23.9780 3.708288 174773.00 174892.00 418.06
852 23.9980 3.705243 164045.00 165799.00 405.02
853 24.0180 3.702202 155680.00 158956.00 394.56
854 24.0380 3.699167 150263.00 153812.00 387.64
855 24.0580 3.696137 145787.00 149923.00 381.82
856 24.0780 3.693113 143244.00 146960.00 378.48
857 24.0980 3.690093 139595.00 144684.00 373.62
858 24.1180 3.687078 138123.00 142931.00 371.65
859 24.1380 3.684068 135555.00 141588.00 368.18
860 24.1580 3.681063 134757.00 140583.00 367.09
861 24.1780 3.678064 134166.00 139860.00 366.29
862 24.1980 3.675069 133105.00 139379.00 364.84
863 24.2180 3.672079 133649.00 139096.00 365.58
864 24.2380 3.669094 132120.00 138969.00 363.48
865 24.2580 3.666115 133290.00 138943.00 365.09
866 24.2780 3.663140 132153.00 138957.00 363.53
867 24.2980 3.660170 131777.00 138937.00 363.01
868 24.3180 3.657205 133668.00 138805.00 365.61
869 24.3380 3.654245 133938.00 138492.00 365.98
870 24.3580 3.651290 132749.00 137954.00 364.35
871 24.3780 3.648340 132621.00 137203.00 364.17
872 24.3980 3.645394 133095.00 136311.00 364.82
873 24.4180 3.642454 133338.00 135384.00 365.15
874 24.4380 3.639518 132824.00 134530.00 364.45
875 24.4580 3.636587 131730.00 133829.00 362.95
876 24.4780 3.633661 133778.00 133327.00 365.76
877 24.4980 3.630740 134363.00 133038.00 366.56
878 24.5180 3.627824 136099.00 132948.00 368.92
879 24.5380 3.624912 136089.00 133022.00 368.90
880 24.5580 3.622005 138196.00 133202.00 371.75
881 24.5780 3.619103 139709.00 133418.00 373.78
882 24.5980 3.616206 140472.00 133583.00 374.80
883 24.6180 3.613313 143436.00 133607.00 378.73
884 24.6380 3.610425 143401.00 133402.00 378.68
885 24.6580 3.607542 142746.00 132903.00 377.82
886 24.6780 3.604663 141527.00 132085.00 376.20
887 24.6980 3.601790 137813.00 130982.00 371.23
888 24.7180 3.598921 137003.00 129674.00 370.14
889 24.7380 3.596056 133184.00 128262.00 364.94
890 24.7580 3.593197 128194.00 126838.00 358.04
891 24.7780 3.590342 127182.00 125467.00 356.63
892 24.7980 3.587491 125547.00 124185.00 354.33
893 24.8180 3.584645 123386.00 123002.00 351.26
894 24.8380 3.581805 121884.00 121904.00 349.12
895 24.8580 3.578968 120846.00 120894.00 347.63
896 24.8780 3.576136 118772.00 119950.00 344.63
897 24.8980 3.573309 117487.00 119064.00 342.76
898 24.9180 3.570486 117120.00 118240.00 342.23
899 24.9380 3.567668 116882.00 117484.00 341.88
900 24.9580 3.564854 115821.00 116797.00 340.33
901 24.9780 3.562045 114905.00 116181.00 338.98
902 24.9980 3.559240 115371.00 115630.00 339.66
903 25.0180 3.556440 113555.00 115138.00 336.98
904 25.0380 3.553645 113496.00 114699.00 336.89
905 25.0580 3.550854 112763.00 114304.00 335.80
906 25.0780 3.548068 112938.00 113946.00 336.06
907 25.0980 3.545285 111521.00 113619.00 333.95
908 25.1180 3.542507 111202.00 113317.00 333.47
909 25.1380 3.539734 110931.00 113034.00 333.06
910 25.1580 3.536966 111593.00 112766.00 334.05
911 25.1780 3.534201 111803.00 112511.00 334.37
912 25.1980 3.531442 111934.00 112267.00 334.57
913 25.2180 3.528686 110456.00 112031.00 332.35
914 25.2380 3.525935 109853.00 111802.00 331.44
915 25.2580 3.523189 109722.00 111581.00 331.24
916 25.2780 3.520446 110273.00 111336.00 332.07
917 25.2980 3.517708 108909.00 111127.00 330.01
918 25.3180 3.514975 109771.00 110925.00 331.32
919 25.3380 3.512246 110433.00 110730.00 332.32
920 25.3580 3.509521 109976.00 110541.00 331.63
921 25.3780 3.506800 110115.00 110359.00 331.84
922 25.3980 3.504084 109710.00 110185.00 331.23
923 25.4180 3.501373 110488.00 110020.00 332.40
924 25.4380 3.498665 110525.00 109863.00 332.45
925 25.4580 3.495962 110259.00 109716.00 332.05
926 25.4780 3.493263 110274.00 109580.00 332.08
927 25.4980 3.490568 109651.00 109454.00 331.14
928 25.5180 3.487878 109043.00 109341.00 330.22
929 25.5380 3.485191 108247.00 109240.00 329.01
930 25.5580 3.482509 108260.00 109152.00 329.03
931 25.5780 3.479832 108656.00 109080.00 329.63
932 25.5980 3.477158 110161.00 109018.00 331.90
933 25.6180 3.474489 109790.00 108970.00 331.35
934 25.6380 3.471824 110538.00 108931.00 332.47
935 25.6580 3.469163 108904.00 108899.00 330.01
936 25.6780 3.466506 108769.00 108869.00 329.80
937 25.6980 3.463854 109096.00 108834.00 330.30
938 25.7180 3.461205 108886.00 108785.00 329.98
939 25.7380 3.458561 109094.00 108712.00 330.29
940 25.7580 3.455921 108651.00 108603.00 329.62
941 25.7780 3.453285 109178.00 108447.00 330.42
942 25.7980 3.450653 109307.00 108237.00 330.62
943 25.8180 3.448025 109003.00 107972.00 330.16
944 25.8380 3.445402 110379.00 107659.00 332.23
945 25.8580 3.442782 108869.00 107313.00 329.95
946 25.8780 3.440167 107888.00 106951.00 328.46
947 25.8980 3.437555 107435.00 106589.00 327.77
948 25.9180 3.434948 107110.00 106238.00 327.28
949 25.9380 3.432345 105875.00 105904.00 325.38
950 25.9580 3.429746 105206.00 105591.00 324.36
951 25.9780 3.427150 104219.00 105300.00 322.83
952 25.9980 3.424559 103826.00 105031.00 322.22
953 26.0180 3.421972 104206.00 104782.00 322.81
954 26.0380 3.419389 103669.00 104550.00 321.98
955 26.0580 3.416810 103517.00 104334.00 321.74
956 26.0780 3.414235 103027.00 104129.00 320.98
957 26.0980 3.411664 103284.00 103934.00 321.38
958 26.1180 3.409097 104328.00 103747.00 323.00
959 26.1380 3.406533 103885.00 103566.00 322.31
960 26.1580 3.403974 104320.00 103436.00 322.99
961 26.1780 3.401419 103660.00 103264.00 321.96
962 26.1980 3.398867 104327.00 103094.00 323.00
963 26.2180 3.396320 103920.00 102926.00 322.37
964 26.2380 3.393776 103558.00 102760.00 321.80
965 26.2580 3.391237 103220.00 102596.00 321.28
966 26.2780 3.388701 101794.00 102433.00 319.05
967 26.2980 3.386169 102860.00 102271.00 320.72
968 26.3180 3.383641 102447.00 102111.00 320.07
969 26.3380 3.381118 101632.00 101951.00 318.80
970 26.3580 3.378597 100650.00 101792.00 317.25
971 26.3780 3.376081 100577.00 101635.00 317.14
972 26.3980 3.373569 100494.00 101478.00 317.01
973 26.4180 3.371060 102430.00 101322.00 320.05
974 26.4380 3.368555 100762.00 101167.00 317.43
975 26.4580 3.366054 100050.00 101012.00 316.31
976 26.4780 3.363557 100129.00 100858.00 316.43
977 26.4980 3.361064 100960.00 100705.00 317.74
978 26.5180 3.358574 101992.00 100553.00 319.36
979 26.5380 3.356088 101122.00 100401.00 318.00
980 26.5580 3.353606 100449.00 100250.00 316.94
981 26.5780 3.351128 100754.00 100099.00 317.42
982 26.5980 3.348654 101297.00 99949.00 318.27
983 26.6180 3.346183 100132.00 99799.60 316.44
984 26.6380 3.343716 99774.00 99650.80 315.87
985 26.6580 3.341252 98829.00 99073.70 314.37
986 26.6780 3.338793 97526.00 98931.70 312.29
987 26.6980 3.336337 97548.00 98790.20 312.33
988 26.7180 3.333885 98155.00 98649.10 313.30
989 26.7380 3.331437 98583.00 98508.50 313.98
990 26.7580 3.328992 98233.00 98368.30 313.42
991 26.7780 3.326551 98490.00 98228.60 313.83
992 26.7980 3.324114 98440.00 98089.20 313.75
993 26.8180 3.321680 97872.00 97950.30 312.85
994 26.8380 3.319250 97848.00 97811.80 312.81
995 26.8580 3.316824 97339.00 97673.80 311.99
996 26.8780 3.314401 97513.00 97536.20 312.27
997 26.8980 3.311982 98274.00 97399.00 313.49
998 26.9180 3.309567 97667.00 97262.30 312.52
999 26.9380 3.307155 96226.00 97126.00 310.20
1000 26.9580 3.304747 96373.00 97140.40 310.44
1001 26.9780 3.302342 96034.00 97007.10 309.89
1002 26.9980 3.299941 95604.00 96874.20 309.20
1003 27.0180 3.297544 96092.00 96741.80 309.99
1004 27.0380 3.295150 97125.00 96609.90 311.65
1005 27.0580 3.292760 96431.00 96478.50 310.53
1006 27.0780 3.290373 96229.00 96590.10 310.21
1007 27.0980 3.287990 95491.00 96462.60 309.02
1008 27.1180 3.285610 95508.00 96335.80 309.04
1009 27.1380 3.283234 93991.00 96209.50 306.58
1010 27.1580 3.280862 93984.00 96083.80 306.57
1011 27.1780 3.278493 94845.00 95948.60 307.97
1012 27.1980 3.276127 94610.00 95824.20 307.59
1013 27.2180 3.273766 93753.00 95700.30 306.19
1014 27.2380 3.271407 93433.00 95577.10 305.67
1015 27.2580 3.269052 93507.00 95454.40 305.79
1016 27.2780 3.266701 93825.00 95332.40 306.31
1017 27.2980 3.264353 94017.00 95211.00 306.62
1018 27.3180 3.262008 94909.00 95090.20 308.07
1019 27.3380 3.259667 93898.00 94970.00 306.43
1020 27.3580 3.257330 93477.00 94850.50 305.74
1021 27.3780 3.254996 93804.00 94731.70 306.27
1022 27.3980 3.252665 93936.00 94613.50 306.49
1023 27.4180 3.250338 94132.00 94496.00 306.81
1024 27.4380 3.248014 94069.00 94379.10 306.71
1025 27.4580 3.245693 93151.00 94263.00 305.21
1026 27.4780 3.243376 92580.00 94147.60 304.27
1027 27.4980 3.241063 91799.00 94257.20 302.98
1028 27.5180 3.238753 90713.00 94146.20 301.19
1029 27.5380 3.236446 91390.00 94036.10 302.31
1030 27.5580 3.234142 91585.00 93926.70 302.63
1031 27.5780 3.231843 91032.00 93818.20 301.71
1032 27.5980 3.229546 91020.00 93710.60 301.70
1033 27.6180 3.227252 91712.00 93742.50 302.84
1034 27.6380 3.224962 90938.00 93638.50 301.56
1035 27.6580 3.222676 90810.00 93535.40 301.35
1036 27.6780 3.220393 90900.00 93431.20 301.50
1037 27.6980 3.218113 90669.00 93330.20 301.11
1038 27.7180 3.215836 90223.00 93230.10 300.37
1039 27.7380 3.213562 89777.00 93131.10 299.63
1040 27.7580 3.211293 89731.00 93033.20 299.55
1041 27.7780 3.209026 89164.00 92936.50 298.60
1042 27.7980 3.206763 89420.00 92840.80 299.03
1043 27.8180 3.204502 90775.00 92732.30 301.29
1044 27.8380 3.202246 88989.00 92639.20 298.31
1045 27.8580 3.199992 89452.00 92547.30 299.08
1046 27.8780 3.197742 88899.00 92456.70 298.16
1047 27.8980 3.195495 90411.00 92367.40 300.68
1048 27.9180 3.193251 90767.00 92279.50 301.28
1049 27.9380 3.191010 89840.00 92193.00 299.73
1050 27.9580 3.188773 88990.00 92107.90 298.31
1051 27.9780 3.186539 88627.00 92024.30 297.70
1052 27.9980 3.184308 88878.00 91942.30 298.12
1053 28.0180 3.182081 89752.00 91861.90 299.59
1054 28.0380 3.179856 89904.00 91818.60 299.84
1055 28.0580 3.177635 88531.00 91742.20 297.54
1056 28.0780 3.175417 89466.00 91667.60 299.11
1057 28.0980 3.173202 89041.00 91594.90 298.40
1058 28.1180 3.170991 89137.00 91524.30 298.56
1059 28.1380 3.168782 88792.00 91455.70 297.98
1060 28.1580 3.166577 88428.00 91389.40 297.37
1061 28.1780 3.164375 88621.00 91325.40 297.69
1062 28.1980 3.162176 88689.00 91263.90 297.81
1063 28.2180 3.159980 88573.00 91205.00 297.61
1064 28.2380 3.157787 89123.00 91148.90 298.54
1065 28.2580 3.155598 88663.00 91095.70 297.76
1066 28.2780 3.153411 87255.00 91045.70 295.39
1067 28.2980 3.151228 87028.00 90999.00 295.01
1068 28.3180 3.149048 87225.00 90962.00 295.34
1069 28.3380 3.146871 87960.00 90923.10 296.58
1070 28.3580 3.144697 87692.00 90888.40 296.13
1071 28.3780 3.142526 87926.00 90858.50 296.52
1072 28.3980 3.140358 88357.00 90833.90 297.25
1073 28.4180 3.138194 87546.00 90815.20 295.88
1074 28.4380 3.136032 87833.00 90802.90 296.37
1075 28.4580 3.133873 88008.00 90798.10 296.66
1076 28.4780 3.131718 86953.00 90801.70 294.88
1077 28.4980 3.129566 88112.00 90814.60 296.84
1078 28.5180 3.127417 88858.00 90838.40 298.09
1079 28.5380 3.125270 88831.00 90874.30 298.05
1080 28.5580 3.123127 88575.00 90924.00 297.62
1081 28.5780 3.120987 88913.00 91023.80 298.18
1082 28.5980 3.118850 89725.00 91107.00 299.54
1083 28.6180 3.116715 88630.00 91209.50 297.71
1084 28.6380 3.114584 89722.00 91333.70 299.54
1085 28.6580 3.112456 91099.00 91481.50 301.83
1086 28.6780 3.110331 91920.00 91655.50 303.18
1087 28.6980 3.108209 93439.00 91858.00 305.68
1088 28.7180 3.106089 93605.00 92091.60 305.95
1089 28.7380 3.103973 93671.00 92359.10 306.06
1090 28.7580 3.101860 94607.00 92663.60 307.58
1091 28.7780 3.099750 94710.00 93008.50 307.75
1092 28.7980 3.097642 95714.00 93397.70 309.38
1093 28.8180 3.095538 96724.00 93836.00 311.01
1094 28.8380 3.093437 98957.00 94328.80 314.57
1095 28.8580 3.091338 98628.00 94883.50 314.05
1096 28.8780 3.089243 100185.00 95510.00 316.52
1097 28.8980 3.087150 102845.00 96222.20 320.70
1098 28.9180 3.085061 104086.00 97040.80 322.62
1099 28.9380 3.082974 104680.00 97993.30 323.54
1100 28.9580 3.080890 106386.00 99111.50 326.17
1101 28.9780 3.078809 109066.00 100437.00 330.25
1102 28.9980 3.076731 112371.00 102001.00 335.22
1103 29.0180 3.074656 115274.00 103833.00 339.52
1104 29.0380 3.072584 118326.00 105950.00 343.98
1105 29.0580 3.070515 120761.00 108359.00 347.51
1106 29.0780 3.068448 124979.00 111046.00 353.52
1107 29.0980 3.066385 127480.00 113976.00 357.04
1108 29.1180 3.064324 134453.00 117087.00 366.68
1109 29.1380 3.062266 137317.00 120285.00 370.56
1110 29.1580 3.060211 140151.00 123435.00 374.37
1111 29.1780 3.058159 143824.00 126367.00 379.24
1112 29.1980 3.056110 149385.00 128896.00 386.50
1113 29.2180 3.054063 152712.00 130726.00 390.78
1114 29.2380 3.052019 155790.00 131644.00 394.70
1115 29.2580 3.049979 156625.00 131468.00 395.76
1116 29.2780 3.047941 157769.00 130147.00 397.20
1117 29.2980 3.045905 157238.00 127815.00 396.53
1118 29.3180 3.043873 154660.00 124760.00 393.27
1119 29.3380 3.041844 150376.00 121344.00 387.78
1120 29.3580 3.039817 144470.00 117898.00 380.09
1121 29.3780 3.037793 140778.00 114674.00 375.20
1122 29.3980 3.035772 135573.00 111840.00 368.20
1123 29.4180 3.033753 130933.00 109491.00 361.85
1124 29.4380 3.031738 128703.00 107676.00 358.75
1125 29.4580 3.029725 125358.00 106410.00 354.06
1126 29.4780 3.027715 124213.00 105694.00 352.44
1127 29.4980 3.025708 123648.00 105519.00 351.64
1128 29.5180 3.023703 122105.00 105881.00 349.43
1129 29.5380 3.021701 120928.00 106785.00 347.75
1130 29.5580 3.019702 121213.00 108250.00 348.16
1131 29.5780 3.017706 120692.00 110309.00 347.41
1132 29.5980 3.015712 122672.00 113014.00 350.25
1133 29.6180 3.013721 123648.00 116428.00 351.64
1134 29.6380 3.011733 126269.00 120623.00 355.34
1135 29.6580 3.009748 128601.00 125673.00 358.61
1136 29.6780 3.007765 133274.00 131648.00 365.07
1137 29.6980 3.005785 136790.00 138606.00 369.85
1138 29.7180 3.003807 142417.00 146583.00 377.38
1139 29.7380 3.001833 148451.00 155571.00 385.29
1140 29.7580 2.999861 153967.00 165508.00 392.39
1141 29.7780 2.997891 160329.00 176241.00 400.41
1142 29.7980 2.995925 168344.00 187519.00 410.30
1143 29.8180 2.993961 176986.00 198967.00 420.70
1144 29.8380 2.992000 185332.00 210062.00 430.50
1145 29.8580 2.990041 194467.00 220145.00 440.98
1146 29.8780 2.988085 202455.00 228424.00 449.95
1147 29.8980 2.986131 210753.00 234049.00 459.08
1148 29.9180 2.984181 214296.00 236281.00 462.92
1149 29.9380 2.982233 215010.00 234758.00 463.69
1150 29.9580 2.980288 213613.00 229753.00 462.18
1151 29.9780 2.978344 210372.00 222217.00 458.66
1152 29.9980 2.976404 205961.00 213503.00 453.83
1153 30.0180 2.974467 199968.00 204983.00 447.18
1154 30.0380 2.972532 193960.00 197776.00 440.41
1155 30.0580 2.970599 192883.00 192674.00 439.18
1156 30.0780 2.968670 192929.00 190192.00 439.24
1157 30.0980 2.966743 195526.00 190623.00 442.18
1158 30.1180 2.964818 199699.00 194102.00 446.88
1159 30.1380 2.962896 207936.00 200646.00 456.00
1160 30.1580 2.960977 218468.00 210181.00 467.41
1161 30.1780 2.959060 233031.00 222549.00 482.73
1162 30.1980 2.957146 252066.00 237530.00 502.06
1163 30.2180 2.955234 273285.00 254824.00 522.77
1164 30.2380 2.953325 297229.00 274037.00 545.19
1165 30.2580 2.951418 322046.00 294675.00 567.49
1166 30.2780 2.949514 347953.00 316095.00 589.88
1167 30.2980 2.947613 378934.00 337520.00 615.58
1168 30.3180 2.945714 406711.00 357988.00 637.74
1169 30.3380 2.943818 426767.00 376441.00 653.27
1170 30.3580 2.941924 442060.00 391830.00 664.88
1171 30.3780 2.940032 450639.00 403383.00 671.30
1172 30.3980 2.938143 446574.00 410848.00 668.26
1173 30.4180 2.936257 436151.00 414599.00 660.42
1174 30.4380 2.934374 424696.00 415463.00 651.69
1175 30.4580 2.932492 409496.00 414344.00 639.92
1176 30.4780 2.930613 395635.00 411910.00 628.99
1177 30.4980 2.928737 390492.00 408502.00 624.89
1178 30.5180 2.926863 385307.00 404212.00 620.73
1179 30.5380 2.924992 380252.00 398951.00 616.65
1180 30.5580 2.923123 376480.00 392425.00 613.58
1181 30.5780 2.921257 373297.00 384098.00 610.98
1182 30.5980 2.919393 366574.00 373289.00 605.45
1183 30.6180 2.917531 358226.00 359464.00 598.52
1184 30.6380 2.915672 342485.00 342572.00 585.22
1185 30.6580 2.913816 324919.00 323211.00 570.02
1186 30.6780 2.911962 306976.00 302461.00 554.05
1187 30.6980 2.910110 289209.00 281505.00 537.78
1188 30.7180 2.908261 269525.00 261266.00 519.16
1189 30.7380 2.906414 251313.00 242284.00 501.31
1190 30.7580 2.904570 237267.00 224779.00 487.10
1191 30.7780 2.902728 222741.00 208759.00 471.95
1192 30.7980 2.900889 207968.00 194172.00 456.04
1193 30.8180 2.899052 194194.00 180989.00 440.67
1194 30.8380 2.897217 178769.00 169211.00 422.81
1195 30.8580 2.895385 167107.00 158857.00 408.79
1196 30.8780 2.893555 156415.00 149916.00 395.49
1197 30.8980 2.891728 146963.00 142343.00 383.36
1198 30.9180 2.889903 139835.00 136062.00 373.95
1199 30.9380 2.888080 131388.00 130973.00 362.48
1200 30.9580 2.886260 124622.00 126974.00 353.02
1201 30.9780 2.884442 119931.00 123962.00 346.31
1202 30.9980 2.882627 116423.00 121835.00 341.21
1203 31.0180 2.880813 114416.00 120494.00 338.25
1204 31.0380 2.879003 113452.00 119838.00 336.83
1205 31.0580 2.877194 110670.00 119757.00 332.67
1206 31.0780 2.875388 108887.00 120133.00 329.98
1207 31.0980 2.873585 109197.00 120831.00 330.45
1208 31.1180 2.871783 107769.00 121700.00 328.28
1209 31.1380 2.869984 106461.00 122566.00 326.28
1210 31.1580 2.868188 108420.00 123234.00 329.27
1211 31.1780 2.866394 107817.00 123499.00 328.36
1212 31.1980 2.864601 107313.00 123168.00 327.59
1213 31.2180 2.862812 106947.00 122105.00 327.03
1214 31.2380 2.861024 107873.00 120284.00 328.44
1215 31.2580 2.859240 104325.00 117808.00 322.99
1216 31.2780 2.857457 102424.00 114879.00 320.04
1217 31.2980 2.855676 101237.00 111734.00 318.18
1218 31.3180 2.853898 100259.00 108580.00 316.64
1219 31.3380 2.852123 97372.00 105564.00 312.05
1220 31.3580 2.850349 93711.00 102780.00 306.12
1221 31.3780 2.848578 92288.00 100279.00 303.79
1222 31.3980 2.846809 91227.00 98091.00 302.04
1223 31.4180 2.845042 91201.00 96229.20 301.99
1224 31.4380 2.843278 89325.00 94695.40 298.87
1225 31.4580 2.841516 89291.00 93478.60 298.82
1226 31.4780 2.839756 89219.00 92562.60 298.70
1227 31.4980 2.837999 89099.00 91928.00 298.49
1228 31.5180 2.836243 89400.00 91556.00 299.00
1229 31.5380 2.834490 89208.00 91431.30 298.68
1230 31.5580 2.832740 89722.00 91543.10 299.54
1231 31.5780 2.830991 89149.00 91884.90 298.58
1232 31.5980 2.829245 89511.00 92497.20 299.18
1233 31.6180 2.827501 91519.00 93290.50 302.52
1234 31.6380 2.825759 92139.00 94304.80 303.54
1235 31.6580 2.824019 92265.00 95532.20 303.75
1236 31.6780 2.822282 93884.00 96958.30 306.40
1237 31.6980 2.820547 95015.00 98558.90 308.24
1238 31.7180 2.818814 96735.00 100300.00 311.02
1239 31.7380 2.817083 98358.00 102135.00 313.62
1240 31.7580 2.815355 97727.00 104008.00 312.61
1241 31.7780 2.813629 98887.00 105851.00 314.46
1242 31.7980 2.811904 100641.00 107585.00 317.24
1243 31.8180 2.810183 101037.00 109110.00 317.86
1244 31.8380 2.808463 100612.00 110308.00 317.19
1245 31.8580 2.806746 102015.00 111040.00 319.40
1246 31.8780 2.805030 102389.00 111166.00 319.98
1247 31.8980 2.803317 103302.00 110581.00 321.41
1248 31.9180 2.801606 102579.00 109259.00 320.28
1249 31.9380 2.799897 100478.00 107275.00 316.98
1250 31.9580 2.798191 98620.00 104803.00 314.04
1251 31.9780 2.796486 96241.00 102055.00 310.23
1252 31.9980 2.794784 95404.00 99238.70 308.88
1253 32.0180 2.793084 92929.00 96512.40 304.84
1254 32.0380 2.791386 90926.00 93983.40 301.54
1255 32.0580 2.789690 88304.00 91711.20 297.16
1256 32.0780 2.787997 87480.00 89723.00 295.77
1257 32.0980 2.786305 86961.00 88019.20 294.89
1258 32.1180 2.784615 86091.00 86587.10 293.41
1259 32.1380 2.782928 85241.00 85402.30 291.96
1260 32.1580 2.781243 85069.00 84435.40 291.67
1261 32.1780 2.779560 84769.00 83655.60 291.15
1262 32.1980 2.777879 83983.00 83032.50 289.80
1263 32.2180 2.776200 83363.00 82539.30 288.73
1264 32.2380 2.774524 82737.00 82152.60 287.64
1265 32.2580 2.772849 83384.00 81854.00 288.76
1266 32.2780 2.771177 84014.00 81629.60 289.85
1267 32.2980 2.769506 84481.00 81468.10 290.66
1268 32.3180 2.767838 84528.00 81368.20 290.74
1269 32.3380 2.766172 84262.00 81326.20 290.28
1270 32.3580 2.764508 84754.00 81343.40 291.12
1271 32.3780 2.762846 86126.00 81424.30 293.47
1272 32.3980 2.761186 86358.00 81575.90 293.87
1273 32.4180 2.759528 87024.00 81763.60 295.00
1274 32.4380 2.757872 85855.00 82087.20 293.01
1275 32.4580 2.756218 86945.00 82515.40 294.86
1276 32.4780 2.754567 87200.00 83061.50 295.30
1277 32.4980 2.752917 87242.00 83739.00 295.37
1278 32.5180 2.751270 87324.00 84560.20 295.51
1279 32.5380 2.749624 87253.00 85533.40 295.39
1280 32.5580 2.747981 87347.00 86662.40 295.55
1281 32.5780 2.746340 87608.00 87944.30 295.99
1282 32.5980 2.744700 88546.00 89367.50 297.57
1283 32.6180 2.743063 89987.00 90910.90 299.98
1284 32.6380 2.741428 91885.00 92541.10 303.12
1285 32.6580 2.739794 93613.00 94212.40 305.96
1286 32.6780 2.738163 95349.00 95863.40 308.79
1287 32.6980 2.736534 97869.00 97417.80 312.84
1288 32.7180 2.734907 100670.00 98782.30 317.29
1289 32.7380 2.733282 101507.00 99851.50 318.60
1290 32.7580 2.731659 102615.00 100516.00 320.34
1291 32.7780 2.730038 104012.00 100678.00 322.51
1292 32.7980 2.728419 102953.00 100281.00 320.86
1293 32.8180 2.726801 102575.00 99347.20 320.27
1294 32.8380 2.725186 100757.00 97910.30 317.42
1295 32.8580 2.723573 97773.00 96117.00 312.69
1296 32.8780 2.721962 94501.00 94117.20 307.41
1297 32.8980 2.720353 91872.00 92049.70 303.10
1298 32.9180 2.718746 88734.00 90023.20 297.88
1299 32.9380 2.717141 86044.00 88114.50 293.33
1300 32.9580 2.715538 83958.00 86230.50 289.76
1301 32.9780 2.713936 82190.00 84674.50 286.69
1302 32.9980 2.712337 80118.00 83312.30 283.05
1303 33.0180 2.710740 79030.00 82139.50 281.12
1304 33.0380 2.709145 78071.00 81143.50 279.41
1305 33.0580 2.707551 77092.00 80314.60 277.65
1306 33.0780 2.705960 75807.00 79618.10 275.33
1307 33.0980 2.704370 76274.00 79041.00 276.18
1308 33.1180 2.702783 75246.00 78563.40 274.31
1309 33.1380 2.701197 74986.00 78167.30 273.84
1310 33.1580 2.699614 74419.00 77836.80 272.80
1311 33.1780 2.698032 75326.00 77558.70 274.46
1312 33.1980 2.696452 74851.00 77321.80 273.59
1313 33.2180 2.694875 75264.00 77117.50 274.34
1314 33.2380 2.693299 75259.00 76938.90 274.33
1315 33.2580 2.691725 74767.00 76780.90 273.44
1316 33.2780 2.690153 74486.00 76639.50 272.92
1317 33.2980 2.688582 74272.00 76511.70 272.53
1318 33.3180 2.687015 73720.00 76395.40 271.51
1319 33.3380 2.685448 74410.00 76288.70 272.78
1320 33.3580 2.683884 73574.00 76190.50 271.24
1321 33.3780 2.682321 73403.00 76099.60 270.93
1322 33.3980 2.680761 73319.00 76015.40 270.77
1323 33.4180 2.679202 73840.00 75937.10 271.73
1324 33.4380 2.677645 74019.00 75864.20 272.06
1325 33.4580 2.676090 73011.00 75796.30 270.20
1326 33.4780 2.674537 73441.00 75733.10 271.00
1327 33.4980 2.672986 73464.00 75674.30 271.04
1328 33.5180 2.671437 73868.00 75619.70 271.79
1329 33.5380 2.669890 73731.00 75502.70 271.54
1330 33.5580 2.668344 73346.00 75457.20 270.83
1331 33.5780 2.666800 73226.00 75415.80 270.60
1332 33.5980 2.665259 72668.00 75378.70 269.57
1333 33.6180 2.663719 72972.00 75380.30 270.13
1334 33.6380 2.662181 73152.00 75352.50 270.47
1335 33.6580 2.660645 74281.00 75329.50 272.55
1336 33.6780 2.659110 74029.00 75241.90 272.08
1337 33.6980 2.657578 74177.00 75230.20 272.36
1338 33.7180 2.656047 73982.00 75224.00 272.00
1339 33.7380 2.654518 74450.00 74997.60 272.86
1340 33.7580 2.652991 74160.00 75005.00 272.32
1341 33.7780 2.651466 73999.00 75017.70 272.03
1342 33.7980 2.649943 74050.00 75029.80 272.12
1343 33.8180 2.648422 75775.00 74977.70 275.27
1344 33.8380 2.646902 76307.00 75004.10 276.24
1345 33.8580 2.645384 75908.00 75032.10 275.51
1346 33.8780 2.643868 77663.00 75060.00 278.68
1347 33.8980 2.642354 77440.00 75085.70 278.28
1348 33.9180 2.640841 77595.00 75106.70 278.56
1349 33.9380 2.639331 77241.00 75120.60 277.92
1350 33.9580 2.637822 78732.00 75124.60 280.59
1351 33.9780 2.636315 78700.00 75116.60 280.54
1352 33.9980 2.634810 77404.00 75095.70 278.22
1353 34.0180 2.633307 78068.00 75062.40 279.41
1354 34.0380 2.631806 78130.00 75003.70 279.52
1355 34.0580 2.630306 77177.00 74952.70 277.81
1356 34.0780 2.628808 76534.00 74898.00 276.65
1357 34.0980 2.627311 76060.00 74842.60 275.79
1358 34.1180 2.625817 74975.00 74789.50 273.82
1359 34.1380 2.624324 74153.00 74740.50 272.31
1360 34.1580 2.622833 74221.00 74696.80 272.43
1361 34.1780 2.621345 73200.00 74659.20 270.55
1362 34.1980 2.619857 73983.00 74631.00 272.00
1363 34.2180 2.618372 74231.00 74606.40 272.45
1364 34.2380 2.616888 74325.00 74588.20 272.63
1365 34.2580 2.615406 73640.00 74576.20 271.37
1366 34.2780 2.613926 73357.00 74570.20 270.85
1367 34.2980 2.612447 73452.00 74569.70 271.02
1368 34.3180 2.610970 73422.00 74574.60 270.96
1369 34.3380 2.609495 72742.00 74536.10 269.71
1370 34.3580 2.608022 73327.00 74551.70 270.79
1371 34.3780 2.606551 73169.00 74572.20 270.50
1372 34.3980 2.605081 74087.00 74597.60 272.19
1373 34.4180 2.603613 73784.00 74628.20 271.63
1374 34.4380 2.602147 74261.00 74628.70 272.51
1375 34.4580 2.600682 74764.00 74670.90 273.43
1376 34.4780 2.599219 74537.00 74719.50 273.02
1377 34.4980 2.597758 75116.00 74775.10 274.07
1378 34.5180 2.596299 75725.00 74838.60 275.18
1379 34.5380 2.594841 76769.00 74911.20 277.07
1380 34.5580 2.593385 76402.00 74994.10 276.41
1381 34.5780 2.591931 76436.00 75088.80 276.47
1382 34.5980 2.590478 77155.00 75197.20 277.77
1383 34.6180 2.589027 77891.00 75321.50 279.09
1384 34.6380 2.587578 78074.00 75464.30 279.42
1385 34.6580 2.586131 78086.00 75628.60 279.44
1386 34.6780 2.584685 78706.00 75818.10 280.55
1387 34.6980 2.583241 79207.00 76037.30 281.44
1388 34.7180 2.581799 79731.00 76291.50 282.37
1389 34.7380 2.580358 80152.00 76586.80 283.11
1390 34.7580 2.578919 79933.00 76930.60 282.72
1391 34.7780 2.577482 81264.00 77331.50 285.07
1392 34.7980 2.576046 82290.00 77799.10 286.86
1393 34.8180 2.574612 82402.00 78344.00 287.06
1394 34.8380 2.573180 83922.00 78977.70 289.69
1395 34.8580 2.571749 84661.00 79712.90 290.97
1396 34.8780 2.570320 84891.00 80562.10 291.36
1397 34.8980 2.568893 84556.00 81537.80 290.79
1398 34.9180 2.567467 85625.00 82650.60 292.62
1399 34.9380 2.566044 85874.00 83906.80 293.04
1400 34.9580 2.564621 85932.00 85306.10 293.14
1401 34.9780 2.563201 86177.00 86840.70 293.56
1402 34.9980 2.561782 86897.00 88491.60 294.78
1403 35.0180 2.560364 87289.00 90229.60 295.45
1404 35.0380 2.558949 89450.00 92011.40 299.08
1405 35.0580 2.557535 89962.00 93781.50 299.94
1406 35.0780 2.556122 89354.00 95470.30 298.92
1407 35.0980 2.554712 90875.00 97002.70 301.45
1408 35.1180 2.553302 91439.00 98303.80 302.39
1409 35.1380 2.551895 91602.00 99313.00 302.66
1410 35.1580 2.550489 92226.00 99994.90 303.69
1411 35.1780 2.549084 91880.00 100342.00 303.12
1412 35.1980 2.547682 92307.00 100372.00 303.82
1413 35.2180 2.546281 92214.00 100116.00 303.67
1414 35.2380 2.544882 90553.00 99616.50 300.92
1415 35.2580 2.543484 90453.00 98931.90 300.75
1416 35.2780 2.542088 89787.00 98046.10 299.64
1417 35.2980 2.540693 89857.00 97065.60 299.76
1418 35.3180 2.539300 90367.00 95980.10 300.61
1419 35.3380 2.537909 89971.00 94788.60 299.95
1420 35.3580 2.536519 88990.00 93488.10 298.31
1421 35.3780 2.535131 88016.00 92083.00 296.67
1422 35.3980 2.533745 87364.00 90592.70 295.57
1423 35.4180 2.532360 87058.00 89053.10 295.06
1424 35.4380 2.530976 85108.00 87510.40 291.73
1425 35.4580 2.529594 83127.00 86011.70 288.32
1426 35.4780 2.528214 81504.00 84595.20 285.49
1427 35.4980 2.526835 81331.00 83288.50 285.19
1428 35.5180 2.525459 79810.00 82106.80 282.51
1429 35.5380 2.524083 79941.00 81055.40 282.74
1430 35.5580 2.522709 79457.00 80133.80 281.88
1431 35.5780 2.521337 79354.00 79336.00 281.70
1432 35.5980 2.519966 79693.00 78653.30 282.30
1433 35.6180 2.518597 80128.00 78075.60 283.07
1434 35.6380 2.517230 80019.00 77591.90 282.88
1435 35.6580 2.515863 78836.00 77191.20 280.78
1436 35.6780 2.514499 79620.00 76872.60 282.17
1437 35.6980 2.513136 80597.00 76632.20 283.90
1438 35.7180 2.511775 81821.00 76420.30 286.04
1439 35.7380 2.510415 81759.00 76253.80 285.93
1440 35.7580 2.509057 81048.00 76126.20 284.69
1441 35.7780 2.507700 82617.00 76031.40 287.43
1442 35.7980 2.506345 84144.00 75964.70 290.08
1443 35.8180 2.504991 83763.00 75922.00 289.42
1444 35.8380 2.503639 85486.00 75899.80 292.38
1445 35.8580 2.502288 85281.00 75895.20 292.03
1446 35.8780 2.500939 85777.00 75906.00 292.88
1447 35.8980 2.499592 86551.00 75930.20 294.20
1448 35.9180 2.498246 87141.00 75966.60 295.20
1449 35.9380 2.496901 87824.00 76014.80 296.35
1450 35.9580 2.495558 88104.00 76075.80 296.82
1451 35.9780 2.494217 87934.00 76152.60 296.54
1452 35.9980 2.492877 88667.00 76250.00 297.77
1453 36.0180 2.491539 89843.00 76374.60 299.74
1454 36.0380 2.490202 90020.00 76534.20 300.03
1455 36.0580 2.488867 90057.00 76737.80 300.10
1456 36.0780 2.487533 89202.00 76995.10 298.67
1457 36.0980 2.486200 88700.00 77316.70 297.83
1458 36.1180 2.484869 88773.00 77740.00 297.95
1459 36.1380 2.483540 88123.00 78226.20 296.86
1460 36.1580 2.482212 87487.00 78813.10 295.78
1461 36.1780 2.480886 87608.00 79512.60 295.99
1462 36.1980 2.479561 89560.00 80335.00 299.27
1463 36.2180 2.478238 88622.00 81287.30 297.69
1464 36.2380 2.476916 87616.00 82372.30 296.00
1465 36.2580 2.475595 88313.00 83587.40 297.17
1466 36.2780 2.474276 88671.00 84921.60 297.78
1467 36.2980 2.472959 89987.00 86356.40 299.98
1468 36.3180 2.471643 90738.00 87862.20 301.23
1469 36.3380 2.470328 91764.00 89399.30 302.93
1470 36.3580 2.469015 92347.00 90913.80 303.89
1471 36.3780 2.467704 92332.00 92340.50 303.86
1472 36.3980 2.466394 93922.00 93602.50 306.47
1473 36.4180 2.465085 94949.00 94622.70 308.14
1474 36.4380 2.463778 94595.00 95334.30 307.56
1475 36.4580 2.462472 94908.00 95674.30 308.07
1476 36.4780 2.461168 95788.00 95705.20 309.50
1477 36.4980 2.459865 95505.00 95452.40 309.04
1478 36.5180 2.458564 94978.00 94997.40 308.18
1479 36.5380 2.457264 94759.00 94428.20 307.83
1480 36.5580 2.455966 94080.00 93821.30 306.73
1481 36.5780 2.454669 91630.00 93237.20 302.70
1482 36.5980 2.453373 90972.00 92726.60 301.62
1483 36.6180 2.452079 90119.00 92340.80 300.20
1484 36.6380 2.450786 88693.00 92136.10 297.81
1485 36.6580 2.449495 89654.00 92171.60 299.42
1486 36.6780 2.448205 88878.00 92498.00 298.12
1487 36.6980 2.446917 88508.00 93147.20 297.50
1488 36.7180 2.445630 88044.00 94126.20 296.72
1489 36.7380 2.444345 88672.00 95454.20 297.78
1490 36.7580 2.443060 89086.00 97000.30 298.47
1491 36.7780 2.441778 89854.00 98726.00 299.76
1492 36.7980 2.440497 90699.00 100525.00 301.16
1493 36.8180 2.439217 92525.00 102259.00 304.18
1494 36.8380 2.437938 93389.00 103765.00 305.60
1495 36.8580 2.436661 92903.00 104863.00 304.80
1496 36.8780 2.435386 93404.00 105380.00 305.62
1497 36.8980 2.434112 94253.00 105194.00 307.01
1498 36.9180 2.432839 93771.00 104280.00 306.22
1499 36.9380 2.431568 93849.00 102738.00 306.35
1500 36.9580 2.430298 93585.00 100768.00 305.92
1501 36.9780 2.429029 92325.00 98612.80 303.85
1502 36.9980 2.427762 91268.00 96498.40 302.11
1503 37.0180 2.426496 91678.00 94599.70 302.78
1504 37.0380 2.425232 90896.00 93037.70 301.49
1505 37.0580 2.423969 91182.00 91886.30 301.96
1506 37.0780 2.422707 90333.00 91185.30 300.55
1507 37.0980 2.421447 91563.00 90946.90 302.59
1508 37.1180 2.420188 94062.00 91163.10 306.70
1509 37.1380 2.418931 95747.00 91807.30 309.43
1510 37.1580 2.417675 98507.00 92835.80 313.86
1511 37.1780 2.416420 101740.00 94190.10 318.97
1512 37.1980 2.415167 103868.00 95795.00 322.29
1513 37.2180 2.413915 107592.00 97560.40 328.01
1514 37.2380 2.412664 109692.00 99377.70 331.20
1515 37.2580 2.411415 110960.00 101122.00 333.11
1516 37.2780 2.410167 112977.00 102650.00 336.12
1517 37.2980 2.408921 113464.00 103810.00 336.84
1518 37.3180 2.407676 113789.00 104454.00 337.33
1519 37.3380 2.406432 113374.00 104471.00 336.71
1520 37.3580 2.405190 112360.00 103816.00 335.20
1521 37.3780 2.403949 109369.00 102531.00 330.71
1522 37.3980 2.402709 105541.00 100745.00 324.87
1523 37.4180 2.401471 102557.00 98633.80 320.24
1524 37.4380 2.400234 100219.00 96381.40 316.57
1525 37.4580 2.398998 95878.00 94144.20 309.64
1526 37.4780 2.397764 94222.00 92034.30 306.96
1527 37.4980 2.396531 92236.00 90122.80 303.70
1528 37.5180 2.395299 90045.00 88443.80 300.08
1529 37.5380 2.394069 88887.00 87005.80 298.14
1530 37.5580 2.392840 88939.00 85795.80 298.23
1531 37.5780 2.391612 87107.00 84788.00 295.14
1532 37.5980 2.390386 86467.00 83944.60 294.05
1533 37.6180 2.389161 86088.00 83223.20 293.41
1534 37.6380 2.387938 85935.00 82578.90 293.15
1535 37.6580 2.386715 85406.00 81971.20 292.24
1536 37.6780 2.385494 83585.00 81368.70 289.11
1537 37.6980 2.384275 83108.00 80754.50 288.29
1538 37.7180 2.383057 82526.00 80126.60 287.27
1539 37.7380 2.381840 81836.00 79495.30 286.07
1540 37.7580 2.380624 80514.00 78876.40 283.75
1541 37.7780 2.379410 79134.00 78285.70 281.31
1542 37.7980 2.378196 77508.00 77735.90 278.40
1543 37.8180 2.376985 77213.00 77234.10 277.87
1544 37.8380 2.375774 76423.00 76783.80 276.45
1545 37.8580 2.374565 75207.00 76384.80 274.24
1546 37.8780 2.373358 74196.00 76034.30 272.39
1547 37.8980 2.372151 74049.00 75730.00 272.12
1548 37.9180 2.370945 73767.00 75466.80 271.60
1549 37.9380 2.369742 72969.00 75239.70 270.13
1550 37.9580 2.368539 72758.00 75044.20 269.74
1551 37.9780 2.367338 72537.00 74876.40 269.33
1552 37.9980 2.366138 72350.00 74732.90 268.98
1553 38.0180 2.364939 73097.00 74611.10 270.36
1554 38.0380 2.363741 72183.00 74508.70 268.67
1555 38.0580 2.362545 71779.00 74424.30 267.92
1556 38.0780 2.361350 71830.00 74356.80 268.01
1557 38.0980 2.360157 71948.00 74305.20 268.23
1558 38.1180 2.358964 71548.00 74269.40 267.48
1559 38.1380 2.357773 72390.00 74249.50 269.05
1560 38.1580 2.356583 72066.00 74246.30 268.45
1561 38.1780 2.355395 72146.00 74261.40 268.60
1562 38.1980 2.354207 72669.00 74296.90 269.57
1563 38.2180 2.353021 72582.00 74355.70 269.41
1564 38.2380 2.351837 73226.00 74465.50 270.60
1565 38.2580 2.350653 72986.00 74584.90 270.16
1566 38.2780 2.349471 72003.00 74743.30 268.33
1567 38.2980 2.348290 72485.00 74948.20 269.23
1568 38.3180 2.347110 72544.00 75207.70 269.34
1569 38.3380 2.345932 73072.00 75530.40 270.32
1570 38.3580 2.344755 73036.00 75925.70 270.25
1571 38.3780 2.343579 73673.00 76400.70 271.43
1572 38.3980 2.342404 75103.00 76960.50 274.05
1573 38.4180 2.341231 76673.00 77606.30 276.90
1574 38.4380 2.340059 77807.00 78334.00 278.94
1575 38.4580 2.338887 78246.00 79132.90 279.73
1576 38.4780 2.337718 79104.00 80009.90 281.25
1577 38.4980 2.336549 80392.00 80902.10 283.54
1578 38.5180 2.335382 81779.00 81767.60 285.97
1579 38.5380 2.334216 82113.00 82573.70 286.55
1580 38.5580 2.333052 83062.00 83262.70 288.20
1581 38.5780 2.331888 84569.00 83771.10 290.81
1582 38.5980 2.330726 85550.00 84039.20 292.49
1583 38.6180 2.329565 86477.00 84026.30 294.07
1584 38.6380 2.328405 86171.00 83727.20 293.55
1585 38.6580 2.327246 86305.00 83180.90 293.78
1586 38.6780 2.326089 86259.00 82461.50 293.70
1587 38.6980 2.324932 86328.00 81645.40 293.82
1588 38.7180 2.323778 85458.00 80837.20 292.33
1589 38.7380 2.322624 84897.00 80088.60 291.37
1590 38.7580 2.321471 85470.00 79443.20 292.35
1591 38.7780 2.320320 85401.00 78941.00 292.23
1592 38.7980 2.319170 85547.00 78572.70 292.48
1593 38.8180 2.318021 86212.00 78357.40 293.62
1594 38.8380 2.316874 86385.00 78295.80 293.91
1595 38.8580 2.315727 86413.00 78383.30 293.96
1596 38.8780 2.314582 86872.00 78611.00 294.74
1597 38.8980 2.313438 87243.00 78965.70 295.37
1598 38.9180 2.312295 89047.00 79431.00 298.41
1599 38.9380 2.311153 89125.00 79985.90 298.54
1600 38.9580 2.310013 90021.00 80606.00 300.04
1601 38.9780 2.308873 91080.00 81262.00 301.80
1602 38.9980 2.307735 92158.00 81920.80 303.58
1603 39.0180 2.306599 93313.00 82545.50 305.47
1604 39.0380 2.305463 94389.00 83100.90 307.23
1605 39.0580 2.304328 94297.00 83560.40 307.08
1606 39.0780 2.303195 94859.00 83917.10 307.99
1607 39.0980 2.302063 94283.00 84190.90 307.05
1608 39.1180 2.300932 93408.00 84427.40 305.63
1609 39.1380 2.299802 93496.00 84685.40 305.77
1610 39.1580 2.298674 93387.00 85021.40 305.59
1611 39.1780 2.297546 93656.00 85463.40 306.03
1612 39.1980 2.296420 92697.00 86061.60 304.46
1613 39.2180 2.295295 92336.00 86804.60 303.87
1614 39.2380 2.294171 92946.00 87678.00 304.87
1615 39.2580 2.293048 92940.00 88652.60 304.86
1616 39.2780 2.291927 93377.00 89683.80 305.58
1617 39.2980 2.290807 92068.00 90713.80 303.43
1618 39.3180 2.289687 91875.00 91670.60 303.11
1619 39.3380 2.288569 91310.00 92460.00 302.17
1620 39.3580 2.287452 90429.00 93026.30 300.71
1621 39.3780 2.286337 90815.00 93290.40 301.36
1622 39.3980 2.285222 91145.00 93220.30 301.90
1623 39.4180 2.284109 89696.00 92847.30 299.49
1624 39.4380 2.282996 88197.00 92195.70 296.98
1625 39.4580 2.281885 87057.00 91366.60 295.05
1626 39.4780 2.280775 86596.00 90448.90 294.27
1627 39.4980 2.279666 86133.00 89518.60 293.48
1628 39.5180 2.278559 85850.00 88636.40 293.00
1629 39.5380 2.277452 85759.00 87847.70 292.85
1630 39.5580 2.276347 85375.00 87186.50 292.19
1631 39.5780 2.275243 85755.00 86681.70 292.84
1632 39.5980 2.274140 86038.00 86353.60 293.32
1633 39.6180 2.273038 85509.00 86212.40 292.42
1634 39.6380 2.271937 86354.00 86255.50 293.86
1635 39.6580 2.270837 86267.00 86467.40 293.71
1636 39.6780 2.269738 86441.00 86819.40 294.01
1637 39.6980 2.268641 87315.00 87270.70 295.49
1638 39.7180 2.267545 88644.00 87769.60 297.73
1639 39.7380 2.266450 88344.00 88256.70 297.23
1640 39.7580 2.265356 89405.00 88671.40 299.01
1641 39.7780 2.264263 90186.00 88961.20 300.31
1642 39.7980 2.263171 90304.00 89094.10 300.51
1643 39.8180 2.262080 91662.00 89066.20 302.76
1644 39.8380 2.260991 92421.00 88900.30 304.01
1645 39.8580 2.259902 91675.00 88634.30 302.78
1646 39.8780 2.258815 89828.00 88303.50 299.71
1647 39.8980 2.257729 88731.00 87929.20 297.88
1648 39.9180 2.256644 88747.00 87512.60 297.90
1649 39.9380 2.255560 87239.00 87037.90 295.36
1650 39.9580 2.254477 85853.00 86480.30 293.01
1651 39.9780 2.253395 84122.00 85816.10 290.04
1652 39.9980 2.252314 83956.00 85034.30 289.75
1653 40.0180 2.251235 82477.00 84142.30 287.19
1654 40.0380 2.250157 81400.00 83167.30 285.31
1655 40.0580 2.249079 79550.00 82148.00 282.05
1656 40.0780 2.248003 79068.00 81126.50 281.19
1657 40.0980 2.246928 77594.00 80138.00 278.56
1658 40.1180 2.245854 77239.00 79209.30 277.92
1659 40.1380 2.244781 76184.00 78337.60 276.01
1660 40.1580 2.243709 74866.00 77570.00 273.62
1661 40.1780 2.242638 74039.00 76882.20 272.10
1662 40.1980 2.241568 73570.00 76287.10 271.24
1663 40.2180 2.240500 74336.00 75772.90 272.65
1664 40.2380 2.239432 72897.00 75301.60 269.99
1665 40.2580 2.238366 72401.00 74931.20 269.07
1666 40.2780 2.237300 71535.00 74622.00 267.46
1667 40.2980 2.236236 71736.00 74366.70 267.84
1668 40.3180 2.235173 71442.00 74158.70 267.29
1669 40.3380 2.234111 71524.00 73991.70 267.44
1670 40.3580 2.233050 70941.00 73860.20 266.35
1671 40.3780 2.231990 71160.00 73759.40 266.76
1672 40.3980 2.230931 70839.00 73685.60 266.16
1673 40.4180 2.229873 71304.00 73635.70 267.03
1674 40.4380 2.228817 71884.00 73614.30 268.11
1675 40.4580 2.227761 71149.00 73606.10 266.74
1676 40.4780 2.226707 71799.00 73617.10 267.95
1677 40.4980 2.225653 72145.00 73647.00 268.60
1678 40.5180 2.224600 71404.00 73696.40 267.21
1679 40.5380 2.223549 72493.00 73766.20 269.24
1680 40.5580 2.222499 72063.00 73858.30 268.45
1681 40.5780 2.221449 73014.00 73975.10 270.21
1682 40.5980 2.220401 72889.00 74120.20 269.98
1683 40.6180 2.219354 73408.00 74297.60 270.94
1684 40.6380 2.218308 73718.00 74513.10 271.51
1685 40.6580 2.217263 72813.00 74773.20 269.84
1686 40.6780 2.216219 73185.00 75085.90 270.53
1687 40.6980 2.215176 72793.00 75460.70 269.80
1688 40.7180 2.214134 73367.00 75908.40 270.86
1689 40.7380 2.213093 72897.00 76441.00 269.99
1690 40.7580 2.212053 74169.00 77072.30 272.34
1691 40.7780 2.211015 75234.00 77816.50 274.29
1692 40.7980 2.209977 76331.00 78687.90 276.28
1693 40.8180 2.208940 77291.00 79740.70 278.01
1694 40.8380 2.207904 77832.00 80908.80 278.98
1695 40.8580 2.206870 79236.00 82242.20 281.49
1696 40.8780 2.205836 80622.00 83747.10 283.94
1697 40.8980 2.204804 82591.00 85424.70 287.39
1698 40.9180 2.203772 83358.00 87258.30 288.72
1699 40.9380 2.202742 84719.00 89251.60 291.07
1700 40.9580 2.201712 86574.00 91365.40 294.23
1701 40.9780 2.200684 88482.00 93558.40 297.46
1702 40.9980 2.199656 89933.00 95771.90 299.89
1703 41.0180 2.198630 92132.00 97932.40 303.53
1704 41.0380 2.197605 94776.00 99948.90 307.86
1705 41.0580 2.196580 97162.00 101718.00 311.71
1706 41.0780 2.195557 97877.00 103104.00 312.85
1707 41.0980 2.194535 99177.00 104051.00 314.92
1708 41.1180 2.193514 100630.00 104447.00 317.22
1709 41.1380 2.192493 99972.00 104245.00 316.18
1710 41.1580 2.191474 100577.00 103449.00 317.14
1711 41.1780 2.190456 98785.00 102121.00 314.30
1712 41.1980 2.189439 97891.00 100364.00 312.88
1713 41.2180 2.188423 95875.00 98306.30 309.64
1714 41.2380 2.187407 93137.00 96076.60 305.18
1715 41.2580 2.186393 89738.00 93794.20 299.56
1716 41.2780 2.185380 87273.00 91547.70 295.42
1717 41.2980 2.184368 84351.00 89404.70 290.43
1718 41.3180 2.183357 82670.00 87409.60 287.52
1719 41.3380 2.182347 80869.00 85590.60 284.38
1720 41.3580 2.181337 80163.00 83961.70 283.13
1721 41.3780 2.180329 77878.00 82528.80 279.07
1722 41.3980 2.179322 77676.00 81290.40 278.70
1723 41.4180 2.178316 77673.00 80241.10 278.70
1724 41.4380 2.177311 76253.00 79372.90 276.14
1725 41.4580 2.176307 75899.00 78677.00 275.50
1726 41.4780 2.175303 75978.00 78144.90 275.64
1727 41.4980 2.174301 75670.00 77769.20 275.08
1728 41.5180 2.173300 75656.00 77544.60 275.06
1729 41.5380 2.172300 76271.00 77468.00 276.17
1730 41.5580 2.171301 74822.00 77538.70 273.54
1731 41.5780 2.170302 74946.00 77755.00 273.76
1732 41.5980 2.169305 76066.00 78125.50 275.80
1733 41.6180 2.168309 77078.00 78650.20 277.63
1734 41.6380 2.167314 77627.00 79330.00 278.62
1735 41.6580 2.166319 78116.00 80162.90 279.49
1736 41.6780 2.165326 77647.00 81140.40 278.65
1737 41.6980 2.164334 78870.00 82246.40 280.84
1738 41.7180 2.163342 81173.00 83453.70 284.91
1739 41.7380 2.162352 81877.00 84723.00 286.14
1740 41.7580 2.161362 82610.00 86000.40 287.42
1741 41.7780 2.160374 84088.00 87217.10 289.98
1742 41.7980 2.159386 84976.00 88290.20 291.51
1743 41.8180 2.158400 85904.00 89130.10 293.09
1744 41.8380 2.157414 86549.00 89653.80 294.19
1745 41.8580 2.156430 87225.00 89791.10 295.34
1746 41.8780 2.155446 86284.00 89519.10 293.74
1747 41.8980 2.154464 86177.00 88916.30 293.56
1748 41.9180 2.153482 85809.00 87932.40 292.93
1749 41.9380 2.152501 85853.00 86717.00 293.01
1750 41.9580 2.151521 85204.00 85372.00 291.90
1751 41.9780 2.150542 83359.00 83993.40 288.72
1752 41.9980 2.149565 82950.00 82658.50 288.01
1753 42.0180 2.148587 82634.00 81424.30 287.46
1754 42.0380 2.147612 82118.00 80314.60 286.56
1755 42.0580 2.146637 81195.00 79375.50 284.95
1756 42.0780 2.145663 80168.00 78603.80 283.14
1757 42.0980 2.144689 79127.00 78001.80 281.30
1758 42.1180 2.143717 79280.00 77567.90 281.57
1759 42.1380 2.142746 79366.00 77298.80 281.72
1760 42.1580 2.141776 79491.00 77190.70 281.94
1761 42.1780 2.140806 79519.00 77245.20 281.99
1762 42.1980 2.139838 79578.00 77452.40 282.10
1763 42.2180 2.138870 79584.00 77816.80 282.11
1764 42.2380 2.137904 79545.00 78339.80 282.04
1765 42.2580 2.136939 79974.00 79024.00 282.80
1766 42.2780 2.135974 80191.00 79870.50 283.18
1767 42.2980 2.135010 79953.00 80879.20 282.76
1768 42.3180 2.134047 80743.00 82044.90 284.15
1769 42.3380 2.133085 81850.00 83357.40 286.09
1770 42.3580 2.132124 81830.00 84797.10 286.06
1771 42.3780 2.131165 82776.00 86334.90 287.71
1772 42.3980 2.130205 82806.00 87927.90 287.76
1773 42.4180 2.129247 84100.00 89521.80 290.00
1774 42.4380 2.128290 86367.00 91046.40 293.88
1775 42.4580 2.127334 87301.00 92420.80 295.47
1776 42.4780 2.126379 87573.00 93557.60 295.93
1777 42.4980 2.125424 87928.00 94375.60 296.53
1778 42.5180 2.124470 88962.00 94805.30 298.27
1779 42.5380 2.123518 89159.00 94838.40 298.60
1780 42.5580 2.122566 89609.00 94486.20 299.35
1781 42.5780 2.121616 88617.00 93807.80 297.69
1782 42.5980 2.120666 88228.00 92885.50 297.03
1783 42.6180 2.119717 86904.00 91805.40 294.80
1784 42.6380 2.118769 86351.00 90642.30 293.86
1785 42.6580 2.117822 85338.00 89454.90 292.13
1786 42.6780 2.116875 85408.00 88286.10 292.25
1787 42.6980 2.115930 84235.00 87170.60 290.23
1788 42.7180 2.114986 82445.00 86137.70 287.13
1789 42.7380 2.114043 81821.00 85215.30 286.04
1790 42.7580 2.113100 81331.00 84427.70 285.19
1791 42.7780 2.112158 81630.00 83795.90 285.71
1792 42.7980 2.111217 82225.00 83334.70 286.75
1793 42.8180 2.110278 82006.00 83052.80 286.37
1794 42.8380 2.109339 82319.00 82952.40 286.91
1795 42.8580 2.108401 82110.00 83030.30 286.55
1796 42.8780 2.107464 82683.00 83278.50 287.55
1797 42.8980 2.106527 83008.00 83684.40 288.11
1798 42.9180 2.105592 84373.00 84300.60 290.47
1799 42.9380 2.104658 85060.00 84971.00 291.65
1800 42.9580 2.103724 85698.00 85740.70 292.74
1801 42.9780 2.102791 86522.00 86586.00 294.15
1802 42.9980 2.101860 87266.00 87482.60 295.41
1803 43.0180 2.100929 88246.00 88408.40 297.06
1804 43.0380 2.099999 89290.00 89343.40 298.81
1805 43.0580 2.099070 90866.00 90268.60 301.44
1806 43.0780 2.098141 90780.00 91166.40 301.30
1807 43.0980 2.097214 90316.00 92012.40 300.53
1808 43.1180 2.096287 92051.00 92775.60 303.40
1809 43.1380 2.095362 92807.00 93400.20 304.64
1810 43.1580 2.094437 91648.00 93884.60 302.73
1811 43.1780 2.093513 91881.00 94170.40 303.12
1812 43.1980 2.092590 93076.00 94222.50 305.08
1813 43.2180 2.091669 92362.00 94011.20 303.91
1814 43.2380 2.090747 92620.00 93513.60 304.33
1815 43.2580 2.089827 91575.00 92717.00 302.61
1816 43.2780 2.088907 90708.00 91628.50 301.18
1817 43.2980 2.087989 90020.00 90281.30 300.03
1818 43.3180 2.087071 88949.00 88735.60 298.24
1819 43.3380 2.086154 87604.00 87071.20 295.98
1820 43.3580 2.085238 85499.00 85369.50 292.40
1821 43.3780 2.084323 83939.00 83702.20 289.72
1822 43.3980 2.083409 82731.00 82121.60 287.63
1823 43.4180 2.082496 81516.00 80660.30 285.51
1824 43.4380 2.081583 79993.00 79334.00 282.83
1825 43.4580 2.080672 78527.00 78146.50 280.23
1826 43.4780 2.079761 77550.00 77092.40 278.48
1827 43.4980 2.078851 76851.00 76149.80 277.22
1828 43.5180 2.077942 76895.00 75327.90 277.30
1829 43.5380 2.077034 75671.00 74611.80 275.08
1830 43.5580 2.076126 75593.00 73985.90 274.94
1831 43.5780 2.075220 75083.00 73440.90 274.01
1832 43.5980 2.074314 74065.00 72967.70 272.15
1833 43.6180 2.073410 74925.00 72558.30 273.72
1834 43.6380 2.072506 74158.00 72204.50 272.32
1835 43.6580 2.071603 74017.00 71899.30 272.06
1836 43.6780 2.070700 73301.00 71635.90 270.74
1837 43.6980 2.069799 73471.00 71408.90 271.05
1838 43.7180 2.068898 73323.00 71213.20 270.78
1839 43.7380 2.067999 73471.00 71044.90 271.05
1840 43.7580 2.067100 73163.00 70900.60 270.49
1841 43.7780 2.066202 72941.00 70777.60 270.08
1842 43.7980 2.065305 72442.00 70673.90 269.15
1843 43.8180 2.064408 73416.00 70587.80 270.95
1844 43.8380 2.063513 73150.00 70518.20 270.46
1845 43.8580 2.062618 73055.00 70464.40 270.29
1846 43.8780 2.061725 73436.00 70426.10 270.99
1847 43.8980 2.060832 74022.00 70403.40 272.07
1848 43.9180 2.059940 73869.00 70396.80 271.79
1849 43.9380 2.059048 74153.00 70407.30 272.31
1850 43.9580 2.058158 73978.00 70436.30 271.99
1851 43.9780 2.057268 73759.00 70474.40 271.59
1852 43.9980 2.056379 73593.00 70546.70 271.28
1853 44.0180 2.055491 73675.00 70644.50 271.43
1854 44.0380 2.054604 74226.00 70770.80 272.44
1855 44.0580 2.053718 73282.00 70929.10 270.71
1856 44.0780 2.052833 72585.00 71122.80 269.42
1857 44.0980 2.051948 73630.00 71355.20 271.35
1858 44.1180 2.051064 73891.00 71629.50 271.83
1859 44.1380 2.050181 73306.00 71947.60 270.75
1860 44.1580 2.049299 73362.00 72310.70 270.85
1861 44.1780 2.048417 72685.00 72717.70 269.60
1862 44.1980 2.047537 73425.00 73173.90 270.97
1863 44.2180 2.046657 74120.00 73656.50 272.25
1864 44.2380 2.045779 74947.00 74164.30 273.76
1865 44.2580 2.044900 75516.00 74722.10 274.80
1866 44.2780 2.044023 75184.00 75238.40 274.20
1867 44.2980 2.043147 76074.00 75732.50 275.82
1868 44.3180 2.042271 77006.00 76214.60 277.50
1869 44.3380 2.041396 76987.00 76614.50 277.46
1870 44.3580 2.040522 76908.00 76950.20 277.32
1871 44.3780 2.039649 77937.00 77216.20 279.17
1872 44.3980 2.038777 77973.00 77409.90 279.24
1873 44.4180 2.037905 78267.00 77529.80 279.76
1874 44.4380 2.037034 78478.00 77575.20 280.14
1875 44.4580 2.036164 78873.00 77548.30 280.84
1876 44.4780 2.035295 79063.00 77457.40 281.18
1877 44.4980 2.034427 79363.00 77319.80 281.71
1878 44.5180 2.033559 79140.00 77161.80 281.32
1879 44.5380 2.032692 78410.00 77016.40 280.02
1880 44.5580 2.031826 77174.00 76918.20 277.80
1881 44.5780 2.030961 77287.00 76898.60 278.01
1882 44.5980 2.030097 76778.00 76982.20 277.09
1883 44.6180 2.029233 75849.00 77186.90 275.41
1884 44.6380 2.028371 75452.00 77523.30 274.68
1885 44.6580 2.027508 76220.00 77996.00 276.08
1886 44.6780 2.026647 76402.00 78604.00 276.41
1887 44.6980 2.025787 75942.00 79341.10 275.58
1888 44.7180 2.024927 76579.00 80195.50 276.73
1889 44.7380 2.024069 76287.00 81150.60 276.20
1890 44.7580 2.023211 76994.00 82184.90 277.48
1891 44.7780 2.022353 77404.00 83273.90 278.22
1892 44.7980 2.021497 78136.00 84392.20 279.53
1893 44.8180 2.020641 79446.00 85515.30 281.86
1894 44.8380 2.019786 79954.00 86622.00 282.76
1895 44.8580 2.018932 81272.00 87708.40 285.08
1896 44.8780 2.018079 81204.00 88719.70 284.96
1897 44.8980 2.017226 81735.00 89641.60 285.89
1898 44.9180 2.016375 82868.00 90433.80 287.87
1899 44.9380 2.015524 84935.00 91043.40 291.44
1900 44.9580 2.014674 84657.00 91412.40 290.96
1901 44.9780 2.013824 84722.00 91486.60 291.07
1902 44.9980 2.012976 85453.00 91229.00 292.32
1903 45.0180 2.012128 85326.00 90631.10 292.11
1904 45.0380 2.011281 84885.00 89719.50 291.35
1905 45.0580 2.010434 84855.00 88549.60 291.30
1906 45.0780 2.009589 83340.00 87198.20 288.69
1907 45.0980 2.008744 82170.00 85745.90 286.65
1908 45.1180 2.007900 81195.00 84266.50 284.95
1909 45.1380 2.007057 79019.00 82820.10 281.10
1910 45.1580 2.006214 78550.00 81450.10 280.27
1911 45.1780 2.005373 77161.00 80186.50 277.78
1912 45.1980 2.004532 76037.00 79047.20 275.75
1913 45.2180 2.003692 74612.00 78041.30 273.15
1914 45.2380 2.002852 74602.00 77172.70 273.13
1915 45.2580 2.002014 73513.00 76440.00 271.13
1916 45.2780 2.001176 72026.00 75839.90 268.38
1917 45.2980 2.000339 72825.00 75366.60 269.86
1918 45.3180 1.999503 71347.00 75013.20 267.11
1919 45.3380 1.998667 71007.00 74771.90 266.47
1920 45.3580 1.997832 70870.00 74634.30 266.21
1921 45.3780 1.996998 70935.00 74591.40 266.34
1922 45.3980 1.996165 70787.00 74633.90 266.06
1923 45.4180 1.995332 70101.00 74751.60 264.77
1924 45.4380 1.994501 71045.00 74933.90 266.54
1925 45.4580 1.993670 71497.00 75169.80 267.39
1926 45.4780 1.992839 71684.00 75447.90 267.74
1927 45.4980 1.992010 71951.00 75758.00 268.24
1928 45.5180 1.991181 72604.00 76078.40 269.45
1929 45.5380 1.990353 73259.00 76435.80 270.66
1930 45.5580 1.989526 73202.00 76823.10 270.56
1931 45.5780 1.988699 73753.00 77258.70 271.58
1932 45.5980 1.987874 73603.00 77731.20 271.30
1933 45.6180 1.987049 75164.00 78355.20 274.16
1934 45.6380 1.986224 76412.00 79120.60 276.43
1935 45.6580 1.985401 76679.00 80081.90 276.91
1936 45.6780 1.984578 78099.00 81261.70 279.46
1937 45.6980 1.983756 79751.00 82691.00 282.40
1938 45.7180 1.982934 81927.00 84394.50 286.23
1939 45.7380 1.982114 84506.00 86388.40 290.70
1940 45.7580 1.981294 88824.00 88681.00 298.03
1941 45.7780 1.980475 91236.00 91265.00 302.05
1942 45.7980 1.979657 93963.00 94116.80 306.53
1943 45.8180 1.978839 97632.00 97187.90 312.46
1944 45.8380 1.978022 101594.00 100403.00 318.74
1945 45.8580 1.977206 106239.00 103653.00 325.94
1946 45.8780 1.976391 109886.00 106795.00 331.49
1947 45.8980 1.975576 113537.00 109659.00 336.95
1948 45.9180 1.974762 117940.00 112029.00 343.42
1949 45.9380 1.973949 120020.00 113713.00 346.44
1950 45.9580 1.973136 120826.00 114532.00 347.60
1951 45.9780 1.972324 121022.00 114384.00 347.88
1952 45.9980 1.971513 120315.00 113268.00 346.86
1953 46.0180 1.970703 118619.00 111291.00 344.41
1954 46.0380 1.969894 115204.00 108648.00 339.42
1955 46.0580 1.969085 111876.00 105569.00 334.48
1956 46.0780 1.968277 107451.00 102285.00 327.80
1957 46.0980 1.967469 102602.00 98984.00 320.32
1958 46.1180 1.966662 99990.00 95808.50 316.21
1959 46.1380 1.965856 96407.00 92852.90 310.49
1960 46.1580 1.965051 94210.00 90175.30 306.94
1961 46.1780 1.964247 92045.00 87804.00 303.39
1962 46.1980 1.963443 90106.00 85749.50 300.18
1963 46.2180 1.962640 89445.00 84008.60 299.07
1964 46.2380 1.961837 89079.00 82571.20 298.46
1965 46.2580 1.961036 87504.00 81421.90 295.81
1966 46.2780 1.960235 88062.00 80544.90 296.75
1967 46.2980 1.959434 87529.00 79925.80 295.85
1968 46.3180 1.958635 87414.00 79552.30 295.66
1969 46.3380 1.957836 86762.00 79416.80 294.55
1970 46.3580 1.957038 88101.00 79516.00 296.82
1971 46.3780 1.956241 87392.00 79851.60 295.62
1972 46.3980 1.955444 86714.00 80428.90 294.47
1973 46.4180 1.954648 87656.00 81256.00 296.07
1974 46.4380 1.953853 87566.00 82341.50 295.92
1975 46.4580 1.953058 88786.00 83691.90 297.97
1976 46.4780 1.952264 89850.00 85309.30 299.75
1977 46.4980 1.951471 91627.00 87186.00 302.70
1978 46.5180 1.950679 91795.00 89302.40 302.98
1979 46.5380 1.949887 93985.00 91619.40 306.57
1980 46.5580 1.949096 95601.00 94078.10 309.19
1981 46.5780 1.948306 97424.00 96585.00 312.13
1982 46.5980 1.947516 99833.00 99025.40 315.96
1983 46.6180 1.946727 102753.00 101227.00 320.55
1984 46.6380 1.945939 103781.00 103074.00 322.15
1985 46.6580 1.945151 104671.00 104373.00 323.53
1986 46.6780 1.944364 104444.00 104988.00 323.18
1987 46.6980 1.943578 105128.00 104843.00 324.23
1988 46.7180 1.942793 104824.00 103949.00 323.77
1989 46.7380 1.942008 103349.00 102401.00 321.48
1990 46.7580 1.941224 101963.00 100349.00 319.32
1991 46.7780 1.940441 98537.00 97961.70 313.91
1992 46.7980 1.939658 96835.00 95397.50 311.18
1993 46.8180 1.938876 93929.00 92786.80 306.48
1994 46.8380 1.938095 90939.00 90232.70 301.56
1995 46.8580 1.937314 86778.00 87809.30 294.58
1996 46.8780 1.936534 85457.00 85569.50 292.33
1997 46.8980 1.935755 82390.00 83544.80 287.04
1998 46.9180 1.934976 80895.00 81751.40 284.42
1999 46.9380 1.934198 79123.00 80192.40 281.29
2000 46.9580 1.933421 76473.00 78862.80 276.54
2001 46.9780 1.932645 74685.00 77751.10 273.29
2002 46.9980 1.931869 74342.00 76843.20 272.66
2003 47.0180 1.931094 74233.00 76141.40 272.46
2004 47.0380 1.930319 73167.00 75593.90 270.49
2005 47.0580 1.929546 73056.00 75203.60 270.29
2006 47.0780 1.928772 72687.00 74957.00 269.61
2007 47.0980 1.928000 72587.00 74841.60 269.42
2008 47.1180 1.927228 72621.00 74845.80 269.48
2009 47.1380 1.926457 72176.00 74958.60 268.66
2010 47.1580 1.925687 71471.00 75162.00 267.34
2011 47.1780 1.924917 71547.00 75440.60 267.48
2012 47.1980 1.924148 72721.00 75806.10 269.67
2013 47.2180 1.923380 73029.00 76224.70 270.24
2014 47.2380 1.922612 74335.00 76675.40 272.64
2015 47.2580 1.921845 75633.00 77133.30 275.02
2016 47.2780 1.921078 76379.00 77569.70 276.37
2017 47.2980 1.920313 76721.00 77953.50 276.99
2018 47.3180 1.919548 78190.00 78253.60 279.62
2019 47.3380 1.918783 80339.00 78442.90 283.44
2020 47.3580 1.918020 80429.00 78501.90 283.60
2021 47.3780 1.917257 81279.00 78421.50 285.10
2022 47.3980 1.916494 81429.00 78204.30 285.36
2023 47.4180 1.915733 82616.00 77863.00 287.43
2024 47.4380 1.914972 82066.00 77417.40 286.47
2025 47.4580 1.914211 81511.00 76891.80 285.50
2026 47.4780 1.913451 80781.00 76312.00 284.22
2027 47.4980 1.912692 79700.00 75703.70 282.31
2028 47.5180 1.911934 79623.00 75091.00 282.17
2029 47.5380 1.911176 79250.00 74493.20 281.51
2030 47.5580 1.910419 79260.00 73929.10 281.53
2031 47.5780 1.909663 78377.00 73403.00 279.96
2032 47.5980 1.908907 78138.00 72925.70 279.53
2033 47.6180 1.908152 77433.00 72519.90 278.27
2034 47.6380 1.907398 78174.00 72176.60 279.60
2035 47.6580 1.906644 77288.00 71897.40 278.01
2036 47.6780 1.905890 76595.00 71683.20 276.76
2037 47.6980 1.905138 76488.00 71534.30 276.57
2038 47.7180 1.904386 77267.00 71451.30 277.97
2039 47.7380 1.903635 77132.00 71434.90 277.73
2040 47.7580 1.902885 77247.00 71486.80 277.93
2041 47.7780 1.902135 76447.00 71609.00 276.49
2042 47.7980 1.901386 77859.00 71804.70 279.03
2043 47.8180 1.900637 77038.00 72077.50 277.56
2044 47.8380 1.899889 76669.00 72431.70 276.89
2045 47.8580 1.899142 77731.00 72871.40 278.80
2046 47.8780 1.898395 77743.00 73401.00 278.82
2047 47.8980 1.897649 77976.00 74022.80 279.24
2048 47.9180 1.896904 79062.00 74738.10 281.18
2049 47.9380 1.896159 79775.00 75544.00 282.45
2050 47.9580 1.895415 79361.00 76433.50 281.71
2051 47.9780 1.894671 80122.00 77393.80 283.06
2052 47.9980 1.893929 80114.00 78406.10 283.04
2053 48.0180 1.893186 81828.00 79451.50 286.06
2054 48.0380 1.892445 83185.00 80487.00 288.42
2055 48.0580 1.891704 84708.00 81487.80 291.05
2056 48.0780 1.890964 85109.00 82428.50 291.73
2057 48.0980 1.890224 85666.00 83294.40 292.69
2058 48.1180 1.889485 86469.00 84086.40 294.06
2059 48.1380 1.888747 87277.00 84818.40 295.43
2060 48.1580 1.888009 88413.00 85511.90 297.34
2061 48.1780 1.887272 89512.00 86187.60 299.19
2062 48.1980 1.886536 89766.00 86856.60 299.61
2063 48.2180 1.885800 91066.00 87536.50 301.77
2064 48.2380 1.885065 91990.00 88232.00 303.30
2065 48.2580 1.884330 94319.00 88956.10 307.11
2066 48.2780 1.883596 95223.00 89722.40 308.58
2067 48.2980 1.882863 95084.00 90559.60 308.36
2068 48.3180 1.882131 97215.00 91487.90 311.79
2069 48.3380 1.881398 96823.00 92501.80 311.16
2070 48.3580 1.880667 96812.00 93628.10 311.15
2071 48.3780 1.879936 99064.00 94795.80 314.74
2072 48.3980 1.879206 100892.00 95999.40 317.64
2073 48.4180 1.878477 102801.00 97205.00 320.63
2074 48.4380 1.877748 105193.00 98378.70 324.33
2075 48.4580 1.877019 106921.00 99493.50 326.99
2076 48.4780 1.876292 107910.00 100534.00 328.50
2077 48.4980 1.875565 109660.00 101457.00 331.15
2078 48.5180 1.874838 111841.00 102233.00 334.43
2079 48.5380 1.874113 111962.00 102816.00 334.61
2080 48.5580 1.873388 112904.00 103143.00 336.01
2081 48.5780 1.872663 114092.00 103154.00 337.77
2082 48.5980 1.871939 114521.00 102806.00 338.41
2083 48.6180 1.871216 115181.00 102089.00 339.38
2084 48.6380 1.870493 114067.00 101035.00 337.74
2085 48.6580 1.869771 112626.00 99712.80 335.60
2086 48.6780 1.869049 110059.00 98213.60 331.75
2087 48.6980 1.868328 107525.00 96631.40 327.91
2088 48.7180 1.867608 104546.00 95045.70 323.34
2089 48.7380 1.866889 101137.00 93514.40 318.02
2090 48.7580 1.866170 97315.00 92066.80 311.95
2091 48.7780 1.865451 95040.00 90710.10 308.29
2092 48.7980 1.864733 92531.00 89430.80 304.19
2093 48.8180 1.864016 91608.00 88203.10 302.67
2094 48.8380 1.863300 90491.00 86994.00 300.82
2095 48.8580 1.862584 87359.00 85773.20 295.57
2096 48.8780 1.861868 85709.00 84518.30 292.76
2097 48.8980 1.861153 83919.00 83222.40 289.69
2098 48.9180 1.860439 82805.00 81893.70 287.76
2099 48.9380 1.859726 80351.00 80554.20 283.46
2100 48.9580 1.859013 79513.00 79233.60 281.98
2101 48.9780 1.858300 77623.00 77960.10 278.61
2102 48.9980 1.857589 75492.00 76757.40 274.76
2103 49.0180 1.856877 74434.00 75641.00 272.83
2104 49.0380 1.856167 72995.00 74613.20 270.18
2105 49.0580 1.855457 72284.00 73689.10 268.86
2106 49.0780 1.854748 71430.00 72860.80 267.26
2107 49.0980 1.854039 70271.00 72123.30 265.09
2108 49.1180 1.853331 69325.00 71471.10 263.30
2109 49.1380 1.852623 68785.00 70896.90 262.27
2110 49.1580 1.851916 67781.00 70393.60 260.35
2111 49.1780 1.851210 66645.00 69953.80 258.16
2112 49.1980 1.850504 66387.00 69570.70 257.66
2113 49.2180 1.849799 66124.00 69237.40 257.15
2114 49.2380 1.849094 65969.00 68948.20 256.84
2115 49.2580 1.848390 66522.00 68697.40 257.92
2116 49.2780 1.847687 66216.00 68480.30 257.33
2117 49.2980 1.846984 66356.00 68290.00 257.60
2118 49.3180 1.846282 66203.00 68129.00 257.30
2119 49.3380 1.845580 65141.00 67991.60 255.23
2120 49.3580 1.844879 64512.00 67875.70 253.99
2121 49.3780 1.844179 64357.00 67779.60 253.69
2122 49.3980 1.843479 64369.00 67702.20 253.71
2123 49.4180 1.842780 64051.00 67642.80 253.08
2124 49.4380 1.842081 64118.00 67601.20 253.21
2125 49.4580 1.841383 64290.00 67552.40 253.55
2126 49.4780 1.840685 63959.00 67547.00 252.90
2127 49.4980 1.839989 64881.00 67560.60 254.72
2128 49.5180 1.839292 64877.00 67594.20 254.71
2129 49.5380 1.838597 64963.00 67648.90 254.88
2130 49.5580 1.837901 65204.00 67765.30 255.35
2131 49.5780 1.837207 65307.00 67866.80 255.55
2132 49.5980 1.836513 65392.00 67993.60 255.72
2133 49.6180 1.835819 66027.00 68176.10 256.96
2134 49.6380 1.835126 66028.00 68358.00 256.96
2135 49.6580 1.834434 65863.00 68569.20 256.64
2136 49.6780 1.833742 66489.00 68810.90 257.86
2137 49.6980 1.833051 67224.00 69084.10 259.28
2138 49.7180 1.832361 67416.00 69389.20 259.65
2139 49.7380 1.831671 67872.00 69726.10 260.52
2140 49.7580 1.830981 69058.00 70092.40 262.79
2141 49.7780 1.830293 69266.00 70483.10 263.18
2142 49.7980 1.829604 69662.00 70888.60 263.94
2143 49.8180 1.828917 70357.00 71294.80 265.25
2144 49.8380 1.828229 71903.00 71682.10 268.15
2145 49.8580 1.827543 72993.00 72025.40 270.17
2146 49.8780 1.826857 73577.00 72301.70 271.25
2147 49.8980 1.826172 74107.00 72486.20 272.23
2148 49.9180 1.825487 74041.00 72562.10 272.11
2149 49.9380 1.824803 74040.00 72523.40 272.10
2150 49.9580 1.824119 74267.00 72376.00 272.52
2151 49.9780 1.823436 73977.00 72152.00 271.99
2152 49.9980 1.822753 72855.00 71838.40 269.92
2153 50.0180 1.822071 72777.00 71471.30 269.77
2154 50.0380 1.821390 71892.00 71067.90 268.13
2155 50.0580 1.820709 71074.00 70642.10 266.60
2156 50.0780 1.820029 70833.00 70205.80 266.14
2157 50.0980 1.819349 70477.00 69715.40 265.48
2158 50.1180 1.818670 70161.00 69293.20 264.88
2159 50.1380 1.817991 69060.00 68893.40 262.79
2160 50.1580 1.817313 69068.00 68530.50 262.81
2161 50.1780 1.816636 69342.00 68196.60 263.33
2162 50.1980 1.815959 68802.00 67901.30 262.30
2163 50.2180 1.815282 68144.00 67645.60 261.04
2164 50.2380 1.814607 67512.00 67428.80 259.83
2165 50.2580 1.813931 66962.00 67249.30 258.77
2166 50.2780 1.813257 66556.00 67104.90 257.98
2167 50.2980 1.812583 67316.00 66993.30 259.45
2168 50.3180 1.811909 67561.00 66911.80 259.92
2169 50.3380 1.811236 68590.00 66858.20 261.90
2170 50.3580 1.810563 69045.00 66829.80 262.76
2171 50.3780 1.809892 68580.00 66824.40 261.88
2172 50.3980 1.809220 68264.00 66839.40 261.27
2173 50.4180 1.808550 67674.00 66872.40 260.14
2174 50.4380 1.807879 68753.00 66920.50 262.21
2175 50.4580 1.807210 68690.00 66980.50 262.09
2176 50.4780 1.806540 68479.00 67048.90 261.68
2177 50.4980 1.805872 69623.00 67090.80 263.86
2178 50.5180 1.805204 69519.00 67162.40 263.67
2179 50.5380 1.804536 69173.00 67231.80 263.01
2180 50.5580 1.803869 70808.00 67293.30 266.10
2181 50.5780 1.803203 71057.00 67344.40 266.57
2182 50.5980 1.802537 71488.00 67384.00 267.37
2183 50.6180 1.801872 71254.00 67412.90 266.93
2184 50.6380 1.801207 70843.00 67433.80 266.16
2185 50.6580 1.800543 69631.00 67450.40 263.88
2186 50.6780 1.799879 69169.00 67467.10 263.00
2187 50.6980 1.799216 68377.00 67487.40 261.49
2188 50.7180 1.798553 67890.00 67514.70 260.56
2189 50.7380 1.797891 67669.00 67549.60 260.13
2190 50.7580 1.797230 67504.00 67591.00 259.82
2191 50.7780 1.796569 67329.00 67636.20 259.48
2192 50.7980 1.795909 67382.00 67680.90 259.58
2193 50.8180 1.795249 66774.00 67716.40 258.41
2194 50.8380 1.794589 67485.00 67745.70 259.78
2195 50.8580 1.793931 68035.00 67782.40 260.83
2196 50.8780 1.793272 67198.00 67784.50 259.23
2197 50.8980 1.792615 66874.00 67773.30 258.60
2198 50.9180 1.791957 67453.00 67750.30 259.72
2199 50.9380 1.791301 66866.00 67717.00 258.58
2200 50.9580 1.790645 65486.00 67672.80 255.90
2201 50.9780 1.789989 66375.00 67615.70 257.63
2202 50.9980 1.789334 66575.00 67542.50 258.02
2203 51.0180 1.788679 65993.00 67450.70 256.89
2204 51.0380 1.788026 65827.00 67339.40 256.57
2205 51.0580 1.787372 66487.00 67211.10 257.85
2206 51.0780 1.786719 65962.00 67070.70 256.83
2207 51.0980 1.786067 66251.00 66924.80 257.39
2208 51.1180 1.785415 66023.00 66780.00 256.95
2209 51.1380 1.784764 65793.00 66641.30 256.50
2210 51.1580 1.784113 65970.00 66512.90 256.85
2211 51.1780 1.783463 65834.00 66397.60 256.58
2212 51.1980 1.782813 65386.00 66295.20 255.71
2213 51.2180 1.782164 65848.00 66207.00 256.61
2214 51.2380 1.781515 66479.00 66133.20 257.83
2215 51.2580 1.780867 65917.00 66073.40 256.74
2216 51.2780 1.780219 65486.00 66027.60 255.90
2217 51.2980 1.779572 65354.00 65995.10 255.64
2218 51.3180 1.778926 64007.00 65975.50 253.00
2219 51.3380 1.778279 64854.00 65968.40 254.66
2220 51.3580 1.777634 64626.00 65973.40 254.22
2221 51.3780 1.776989 64592.00 65990.20 254.15
2222 51.3980 1.776345 64235.00 66018.70 253.45
2223 51.4180 1.775701 64505.00 66047.00 253.98
2224 51.4380 1.775057 65424.00 66100.10 255.78
2225 51.4580 1.774414 64680.00 66166.20 254.32
2226 51.4780 1.773772 64542.00 66246.40 254.05
2227 51.4980 1.773130 63655.00 66342.00 252.30
2228 51.5180 1.772488 64890.00 66454.60 254.74
2229 51.5380 1.771848 64264.00 66586.00 253.50
2230 51.5580 1.771207 64885.00 66738.50 254.73
2231 51.5780 1.770568 64462.00 66914.30 253.89
2232 51.5980 1.769928 65194.00 67116.30 255.33
2233 51.6180 1.769289 65473.00 67347.10 255.88
2234 51.6380 1.768651 65680.00 67609.80 256.28
2235 51.6580 1.768013 66051.00 67907.20 257.00
2236 51.6780 1.767376 66709.00 68242.30 258.28
2237 51.6980 1.766739 67180.00 68617.50 259.19
2238 51.7180 1.766103 68094.00 69035.40 260.95
2239 51.7380 1.765468 68432.00 69497.60 261.60
2240 51.7580 1.764832 68772.00 70005.40 262.24
2241 51.7780 1.764198 70262.00 70558.40 265.07
2242 51.7980 1.763563 71174.00 71155.50 266.79
2243 51.8180 1.762930 72993.00 71793.00 270.17
2244 51.8380 1.762297 73525.00 72465.50 271.15
2245 51.8580 1.761664 73976.00 73164.00 271.98
2246 51.8780 1.761032 74774.00 73876.60 273.45
2247 51.8980 1.760400 76737.00 74586.60 277.01
2248 51.9180 1.759769 78090.00 75265.90 279.45
2249 51.9380 1.759138 79137.00 75908.50 281.31
2250 51.9580 1.758508 79593.00 76480.50 282.12
2251 51.9780 1.757879 80957.00 76957.00 284.53
2252 51.9980 1.757250 81801.00 77316.60 286.01
2253 52.0180 1.756621 83171.00 77545.50 288.39
2254 52.0380 1.755993 82939.00 77630.00 287.99
2255 52.0580 1.755365 82366.00 77591.30 286.99
2256 52.0780 1.754738 82190.00 77436.00 286.69
2257 52.0980 1.754112 81178.00 77185.70 284.92
2258 52.1180 1.753486 81430.00 76865.80 285.36
2259 52.1380 1.752860 80397.00 76498.20 283.54
2260 52.1580 1.752235 78210.00 76115.30 279.66
2261 52.1780 1.751610 76795.00 75734.40 277.12
2262 52.1980 1.750986 76054.00 75373.90 275.78
2263 52.2180 1.750363 74913.00 75048.40 273.70
2264 52.2380 1.749740 74562.00 74769.00 273.06
2265 52.2580 1.749117 74568.00 74542.60 273.07
2266 52.2780 1.748495 74091.00 74372.20 272.20
2267 52.2980 1.747873 74213.00 74257.20 272.42
2268 52.3180 1.747252 72860.00 74194.20 269.93
2269 52.3380 1.746631 72704.00 74178.20 269.64
2270 52.3580 1.746011 72472.00 74241.50 269.21
2271 52.3780 1.745392 72306.00 74306.60 268.90
2272 52.3980 1.744773 73707.00 74409.70 271.49
2273 52.4180 1.744154 73868.00 74553.40 271.79
2274 52.4380 1.743536 73546.00 74743.40 271.19
2275 52.4580 1.742918 73612.00 74987.20 271.32
2276 52.4780 1.742301 74070.00 75293.50 272.16
2277 52.4980 1.741684 74659.00 75671.10 273.24
2278 52.5180 1.741068 75956.00 76126.70 275.60
2279 52.5380 1.740452 76120.00 76665.20 275.90
2280 52.5580 1.739837 75909.00 77287.00 275.52
2281 52.5780 1.739222 75637.00 77986.20 275.02
2282 52.5980 1.738608 76894.00 78748.70 277.30
2283 52.6180 1.737994 78531.00 79551.00 280.23
2284 52.6380 1.737381 79755.00 80349.40 282.41
2285 52.6580 1.736768 81691.00 81121.80 285.82
2286 52.6780 1.736156 81886.00 81811.30 286.16
2287 52.6980 1.735544 82452.00 82371.40 287.14
2288 52.7180 1.734933 83102.00 82763.50 288.27
2289 52.7380 1.734322 84257.00 82963.20 290.27
2290 52.7580 1.733712 83873.00 82965.70 289.61
2291 52.7780 1.733102 83867.00 82786.70 289.60
2292 52.7980 1.732492 84829.00 82460.10 291.25
2293 52.8180 1.731883 83193.00 82030.90 288.43
2294 52.8380 1.731275 82128.00 81533.40 286.58
2295 52.8580 1.730667 82863.00 81039.30 287.86
2296 52.8780 1.730060 82167.00 80569.40 286.65
2297 52.8980 1.729453 81960.00 80147.30 286.29
2298 52.9180 1.728846 81744.00 79787.40 285.91
2299 52.9380 1.728240 82014.00 79475.10 286.38
2300 52.9580 1.727634 81485.00 79253.10 285.46
2301 52.9780 1.727029 81034.00 79096.70 284.67
2302 52.9980 1.726425 81192.00 78999.50 284.94
2303 53.0180 1.725821 81997.00 78944.40 286.35
2304 53.0380 1.725217 81078.00 78938.10 284.74
2305 53.0580 1.724614 81734.00 78962.70 285.89
2306 53.0780 1.724011 83082.00 79009.90 288.24
2307 53.0980 1.723409 83861.00 79072.90 289.59
2308 53.1180 1.722807 83445.00 79146.60 288.87
2309 53.1380 1.722206 83067.00 79226.60 288.21
2310 53.1580 1.721605 84152.00 79308.80 290.09
2311 53.1780 1.721004 82935.00 79388.20 287.98
2312 53.1980 1.720405 84568.00 79459.50 290.81
2313 53.2180 1.719805 84433.00 79516.40 290.57
2314 53.2380 1.719206 84204.00 79543.90 290.18
2315 53.2580 1.718608 83352.00 79550.60 288.71
2316 53.2780 1.718010 82239.00 79520.10 286.77
2317 53.2980 1.717412 80648.00 79445.40 283.99
2318 53.3180 1.716815 80736.00 79322.40 284.14
2319 53.3380 1.716219 79436.00 79152.50 281.84
2320 53.3580 1.715622 78056.00 78944.80 279.39
2321 53.3780 1.715027 77795.00 78716.30 278.92
2322 53.3980 1.714432 77501.00 78490.60 278.39
2323 53.4180 1.713837 78173.00 78295.70 279.59
2324 53.4380 1.713243 77892.00 78160.80 279.09
2325 53.4580 1.712649 77837.00 78114.00 278.99
2326 53.4780 1.712055 77389.00 78180.10 278.19
2327 53.4980 1.711462 77790.00 78380.90 278.91
2328 53.5180 1.710870 78583.00 78734.00 280.33
2329 53.5380 1.710278 78215.00 79253.40 279.67
2330 53.5580 1.709687 78507.00 79948.80 280.19
2331 53.5780 1.709096 78917.00 80825.90 280.92
2332 53.5980 1.708505 80362.00 81884.60 283.48
2333 53.6180 1.707915 81188.00 83118.20 284.93
2334 53.6380 1.707325 81311.00 84510.00 285.15
2335 53.6580 1.706736 82902.00 86036.00 287.93
2336 53.6780 1.706147 85035.00 87643.30 291.61
2337 53.6980 1.705559 87235.00 89289.70 295.36
2338 53.7180 1.704971 88821.00 90903.50 298.03
2339 53.7380 1.704384 89856.00 92413.30 299.76
2340 53.7580 1.703797 90817.00 93755.00 301.36
2341 53.7780 1.703211 91595.00 94882.70 302.65
2342 53.7980 1.702625 94440.00 95783.40 307.31
2343 53.8180 1.702039 95388.00 96473.70 308.85
2344 53.8380 1.701454 95743.00 97016.10 309.42
2345 53.8580 1.700869 96321.00 97474.00 310.36
2346 53.8780 1.700285 98508.00 97916.80 313.86
2347 53.8980 1.699701 97516.00 98400.70 312.28
2348 53.9180 1.699118 98056.00 98960.40 313.14
2349 53.9380 1.698535 98767.00 99602.20 314.27
2350 53.9580 1.697953 99748.00 100304.00 315.83
2351 53.9780 1.697371 100109.00 101014.00 316.40
2352 53.9980 1.696790 100576.00 101656.00 317.14
2353 54.0180 1.696208 102416.00 102155.00 320.02
2354 54.0380 1.695628 103279.00 102416.00 321.37
2355 54.0580 1.695048 103336.00 102363.00 321.46
2356 54.0780 1.694468 102336.00 101944.00 319.90
2357 54.0980 1.693889 101898.00 101142.00 319.21
2358 54.1180 1.693310 101477.00 99976.90 318.55
2359 54.1380 1.692732 99363.00 98497.80 315.22
2360 54.1580 1.692154 96719.00 96776.20 311.00
2361 54.1780 1.691576 95938.00 94889.50 309.74
2362 54.1980 1.691000 95282.00 92920.40 308.68
2363 54.2180 1.690423 92926.00 90937.70 304.84
2364 54.2380 1.689847 90281.00 89003.80 300.47
2365 54.2580 1.689271 89355.00 87154.90 298.92
2366 54.2780 1.688696 86574.00 85421.90 294.23
2367 54.2980 1.688121 85896.00 83817.20 293.08
2368 54.3180 1.687547 84911.00 82343.00 291.39
2369 54.3380 1.686973 82968.00 80993.50 288.04
2370 54.3580 1.686400 80874.00 79757.20 284.38
2371 54.3780 1.685827 78904.00 78627.80 280.90
2372 54.3980 1.685254 79352.00 77592.60 281.70
2373 54.4180 1.684682 77582.00 76641.20 278.54
2374 54.4380 1.684110 75734.00 75767.80 275.20
2375 54.4580 1.683539 74856.00 74966.10 273.60
2376 54.4780 1.682968 74229.00 74232.40 272.45
2377 54.4980 1.682398 72231.00 73564.30 268.76
2378 54.5180 1.681828 71071.00 72959.50 266.59
2379 54.5380 1.681258 70533.00 72415.60 265.58
2380 54.5580 1.680689 69413.00 71928.80 263.46
2381 54.5780 1.680121 69254.00 71495.20 263.16
2382 54.5980 1.679553 69041.00 71109.60 262.76
2383 54.6180 1.678985 67947.00 70767.60 260.67
2384 54.6380 1.678417 66817.00 70465.70 258.49
2385 54.6580 1.677851 67268.00 70202.30 259.36
2386 54.6780 1.677284 65540.00 69977.80 256.01
2387 54.6980 1.676718 65464.00 69794.10 255.86
2388 54.7180 1.676153 66031.00 69655.60 256.96
2389 54.7380 1.675587 64850.00 69562.90 254.66
2390 54.7580 1.675023 64527.00 69519.60 254.02
2391 54.7780 1.674458 66099.00 69527.60 257.10
2392 54.7980 1.673895 66174.00 69587.10 257.24
2393 54.8180 1.673331 65626.00 69697.10 256.18
2394 54.8380 1.672768 65653.00 69855.00 256.23
2395 54.8580 1.672206 65956.00 70055.90 256.82
2396 54.8780 1.671643 65805.00 70293.10 256.52
2397 54.8980 1.671082 66439.00 70557.20 257.76
2398 54.9180 1.670521 66813.00 70836.30 258.48
2399 54.9380 1.669960 66734.00 71116.60 258.33
2400 54.9580 1.669399 65556.00 71382.80 256.04
2401 54.9780 1.668839 67246.00 71620.20 259.32
2402 54.9980 1.668280 67061.00 71815.80 258.96
2403 55.0180 1.667720 66595.00 71975.80 258.06
2404 55.0380 1.667162 66511.00 72065.30 257.90
2405 55.0580 1.666604 68031.00 72100.70 260.83
2406 55.0780 1.666046 67854.00 72086.70 260.49
2407 55.0980 1.665488 67729.00 72038.60 260.25
2408 55.1180 1.664931 67540.00 71970.00 259.89
2409 55.1380 1.664375 67509.00 71899.30 259.83
2410 55.1580 1.663818 67090.00 71844.70 259.02
2411 55.1780 1.663263 67808.00 71820.60 260.40
2412 55.1980 1.662707 68486.00 71843.60 261.70
2413 55.2180 1.662152 68446.00 71919.70 261.62
2414 55.2380 1.661598 69025.00 72052.20 262.73
2415 55.2580 1.661044 68700.00 72239.60 262.11
2416 55.2780 1.660490 68513.00 72476.00 261.75
2417 55.2980 1.659937 68988.00 72750.60 262.66
2418 55.3180 1.659384 69721.00 73048.70 264.05
2419 55.3380 1.658832 70451.00 73351.10 265.43
2420 55.3580 1.658280 69325.00 73635.50 263.30
2421 55.3780 1.657728 70488.00 73877.20 265.50
2422 55.3980 1.657177 71492.00 74092.50 267.38
2423 55.4180 1.656626 71125.00 74179.10 266.69
2424 55.4380 1.656076 70856.00 74161.30 266.19
2425 55.4580 1.655526 70583.00 74031.00 265.67
2426 55.4780 1.654977 70675.00 73789.10 265.85
2427 55.4980 1.654428 70600.00 73445.00 265.71
2428 55.5180 1.653879 69823.00 73014.40 264.24
2429 55.5380 1.653331 69319.00 72516.20 263.29
2430 55.5580 1.652783 69155.00 71970.10 262.97
2431 55.5780 1.652236 68858.00 71394.40 262.41
2432 55.5980 1.651689 69317.00 70804.50 263.28
2433 55.6180 1.651142 69288.00 70213.60 263.23
2434 55.6380 1.650596 67376.00 69630.70 259.57
2435 55.6580 1.650050 67894.00 69068.40 260.57
2436 55.6780 1.649505 65867.00 68531.90 256.65
2437 55.6980 1.648960 65805.00 68026.80 256.52
2438 55.7180 1.648415 65291.00 67557.00 255.52
2439 55.7380 1.647871 63552.00 67124.50 252.10
2440 55.7580 1.647327 63474.00 66730.00 251.94
2441 55.7780 1.646784 64069.00 66373.50 253.12
2442 55.7980 1.646241 64325.00 66053.90 253.62
2443 55.8180 1.645699 64016.00 65769.30 253.01
2444 55.8380 1.645157 63446.00 65517.60 251.88
2445 55.8580 1.644615 62240.00 65296.50 249.48
2446 55.8780 1.644074 61759.00 65103.40 248.51
2447 55.8980 1.643533 62052.00 64936.00 249.10
2448 55.9180 1.642992 62756.00 64791.70 250.51
2449 55.9380 1.642452 62383.00 64668.30 249.77
2450 55.9580 1.641913 61910.00 64563.50 248.82
2451 55.9780 1.641374 62000.00 64475.50 249.00
2452 55.9980 1.640835 62253.00 64402.20 249.51
2453 56.0180 1.640296 63412.00 64342.00 251.82
2454 56.0380 1.639758 62535.00 64293.50 250.07
2455 56.0580 1.639221 62308.00 64307.40 249.62
2456 56.0780 1.638684 63098.00 64297.10 251.19
2457 56.0980 1.638147 63828.00 64278.70 252.64
2458 56.1180 1.637610 64033.00 64269.50 253.05
2459 56.1380 1.637074 63264.00 64270.00 251.52
2460 56.1580 1.636539 63151.00 64280.70 251.30
2461 56.1780 1.636003 63686.00 64302.80 252.36
2462 56.1980 1.635469 64337.00 64337.50 253.65
2463 56.2180 1.634934 63432.00 64386.30 251.86
2464 56.2380 1.634400 63120.00 64451.20 251.24
2465 56.2580 1.633867 63260.00 64534.40 251.51
2466 56.2780 1.633333 63783.00 64638.50 252.55
2467 56.2980 1.632801 64378.00 64766.70 253.73
2468 56.3180 1.632268 63699.00 64922.40 252.39
2469 56.3380 1.631736 64265.00 65110.00 253.51
2470 56.3580 1.631204 65876.00 65332.60 256.66
2471 56.3780 1.630673 65212.00 65597.40 255.37
2472 56.3980 1.630142 65223.00 65908.20 255.39
2473 56.4180 1.629612 65876.00 66270.50 256.66
2474 56.4380 1.629082 66230.00 66689.00 257.35
2475 56.4580 1.628552 66112.00 67168.60 257.12
2476 56.4780 1.628023 66345.00 67712.40 257.58
2477 56.4980 1.627494 65969.00 68322.60 256.84
2478 56.5180 1.626966 67113.00 68997.90 259.06
2479 56.5380 1.626438 67963.00 69733.90 260.70
2480 56.5580 1.625910 69317.00 70520.20 263.28
2481 56.5780 1.625383 69134.00 71339.70 262.93
2482 56.5980 1.624856 70230.00 72167.40 265.01
2483 56.6180 1.624329 71154.00 72970.00 266.75
2484 56.6380 1.623803 71804.00 73707.30 267.96
2485 56.6580 1.623277 71473.00 74338.60 267.34
2486 56.6780 1.622752 72591.00 74830.10 269.43
2487 56.6980 1.622227 73572.00 75155.90 271.24
2488 56.7180 1.621703 74572.00 75316.40 273.08
2489 56.7380 1.621178 73869.00 75331.00 271.79
2490 56.7580 1.620655 74903.00 75234.70 273.68
2491 56.7780 1.620131 75170.00 75069.50 274.17
2492 56.7980 1.619608 75397.00 74875.30 274.58
2493 56.8180 1.619086 76576.00 74683.00 276.72
2494 56.8380 1.618563 76282.00 74512.60 276.19
2495 56.8580 1.618041 76172.00 74373.40 275.99
2496 56.8780 1.617520 76217.00 74266.10 276.07
2497 56.8980 1.616999 75967.00 74186.50 275.62
2498 56.9180 1.616478 75760.00 74128.20 275.24
2499 56.9380 1.615958 76260.00 74085.70 276.15
2500 56.9580 1.615438 74695.00 74055.60 273.30
2501 56.9780 1.614918 74730.00 74037.50 273.37
2502 56.9980 1.614399 75968.00 74032.70 275.62
2503 57.0180 1.613880 75917.00 74042.40 275.53
2504 57.0380 1.613362 75733.00 74063.60 275.20
2505 57.0580 1.612844 74995.00 74097.60 273.85
2506 57.0780 1.612327 75823.00 74132.90 275.36
2507 57.0980 1.611809 75968.00 74155.90 275.62
2508 57.1180 1.611292 76053.00 74161.00 275.78
2509 57.1380 1.610776 76043.00 74096.90 275.76
2510 57.1580 1.610260 75304.00 73969.00 274.42
2511 57.1780 1.609744 74802.00 73753.30 273.50
2512 57.1980 1.609228 74310.00 73439.30 272.60
2513 57.2180 1.608714 73495.00 73013.90 271.10
2514 57.2380 1.608199 73299.00 72505.90 270.74
2515 57.2580 1.607685 71826.00 71922.30 268.00
2516 57.2780 1.607171 70990.00 71282.30 266.44
2517 57.2980 1.606658 69814.00 70608.10 264.22
2518 57.3180 1.606144 69323.00 69921.10 263.29
2519 57.3380 1.605632 67517.00 69239.50 259.84
2520 57.3580 1.605119 67216.00 68577.30 259.26
2521 57.3780 1.604608 66140.00 67945.40 257.18
2522 57.3980 1.604096 65892.00 67350.50 256.69
2523 57.4180 1.603585 64647.00 66796.60 254.26
2524 57.4380 1.603074 63868.00 66271.70 252.72
2525 57.4580 1.602563 63349.00 65803.80 251.69
2526 57.4780 1.602053 63420.00 65378.00 251.83
2527 57.4980 1.601544 63173.00 64992.60 251.34
2528 57.5180 1.601034 63206.00 64645.50 251.41
2529 57.5380 1.600525 61850.00 64344.20 248.70
2530 57.5580 1.600017 61936.00 64098.80 248.87
2531 57.5780 1.599509 61800.00 63851.20 248.60
2532 57.5980 1.599001 60929.00 63631.10 246.84
2533 57.6180 1.598493 60850.00 63435.80 246.68
2534 57.6380 1.597986 60636.00 63262.90 246.24
2535 57.6580 1.597479 60180.00 63109.90 245.32
2536 57.6780 1.596973 60387.00 62974.80 245.74
2537 57.6980 1.596467 60661.00 62855.40 246.29
2538 57.7180 1.595961 60004.00 62750.20 244.96
2539 57.7380 1.595456 60256.00 62657.60 245.47
2540 57.7580 1.594951 59933.00 62576.20 244.81
2541 57.7780 1.594447 59562.00 62504.90 244.05
2542 57.7980 1.593943 59869.00 62442.60 244.68
2543 57.8180 1.593439 59933.00 62388.50 244.81
2544 57.8380 1.592935 60363.00 62341.70 245.69
2545 57.8580 1.592432 59825.00 62301.60 244.59
2546 57.8780 1.591930 59905.00 62274.40 244.76
2547 57.8980 1.591427 59694.00 62245.50 244.32
2548 57.9180 1.590925 60164.00 62221.10 245.28
2549 57.9380 1.590424 59376.00 62200.50 243.67
2550 57.9580 1.589922 59309.00 62182.70 243.53
2551 57.9780 1.589422 59852.00 62166.90 244.65
2552 57.9980 1.588921 59753.00 62156.00 244.44
2553 58.0180 1.588421 60940.00 62141.50 246.86
2554 58.0380 1.587921 60624.00 62108.70 246.22
2555 58.0580 1.587422 59906.00 62092.70 244.76
2556 58.0780 1.586923 59923.00 62075.60 244.79
2557 58.0980 1.586424 59663.00 62050.10 244.26
2558 58.1180 1.585926 60143.00 62031.60 245.24
2559 58.1380 1.585428 60276.00 62013.50 245.51
2560 58.1580 1.584930 59296.00 61996.80 243.51
2561 58.1780 1.584433 60313.00 61994.20 245.59
2562 58.1980 1.583936 60047.00 61983.40 245.04
2563 58.2180 1.583440 59990.00 61971.30 244.93
2564 58.2380 1.582943 60197.00 61969.60 245.35
2565 58.2580 1.582448 59929.00 61973.50 244.80
2566 58.2780 1.581952 59070.00 61983.30 243.04
2567 58.2980 1.581457 59474.00 61999.50 243.87
2568 58.3180 1.580962 59634.00 62022.50 244.20
2569 58.3380 1.580468 59070.00 62052.80 243.04
2570 58.3580 1.579974 58886.00 62091.00 242.66
2571 58.3780 1.579480 59414.00 62137.80 243.75
2572 58.3980 1.578987 59858.00 62182.20 244.66
2573 58.4180 1.578494 59733.00 62249.20 244.40
2574 58.4380 1.578001 60641.00 62324.20 246.25
2575 58.4580 1.577509 60565.00 62414.50 246.10
2576 58.4780 1.577017 61140.00 62517.00 247.26
2577 58.4980 1.576526 61084.00 62631.60 247.15
2578 58.5180 1.576035 61251.00 62750.80 247.49
2579 58.5380 1.575544 61250.00 62886.10 247.49
2580 58.5580 1.575053 61547.00 63028.20 248.09
2581 58.5780 1.574563 62015.00 63172.90 249.03
2582 58.5980 1.574074 62248.00 63287.00 249.49
2583 58.6180 1.573584 63232.00 63424.90 251.46
2584 58.6380 1.573095 63442.00 63542.20 251.88
2585 58.6580 1.572606 63274.00 63636.10 251.54
2586 58.6780 1.572118 63624.00 63700.70 252.24
2587 58.6980 1.571630 63181.00 63732.20 251.36
2588 58.7180 1.571142 64082.00 63734.20 253.14
2589 58.7380 1.570655 64057.00 63717.70 253.10
2590 58.7580 1.570168 63632.00 63659.40 252.25
2591 58.7780 1.569682 63795.00 63583.30 252.58
2592 58.7980 1.569195 63965.00 63497.70 252.91
2593 58.8180 1.568709 64063.00 63410.40 253.11
2594 58.8380 1.568224 63511.00 63328.20 252.01
2595 58.8580 1.567739 64041.00 63256.50 253.06
2596 58.8780 1.567254 63468.00 63199.40 251.93
2597 58.8980 1.566769 63398.00 63159.60 251.79
2598 58.9180 1.566285 63296.00 63138.90 251.59
2599 58.9380 1.565801 63290.00 63138.00 251.57
2600 58.9580 1.565318 63186.00 63157.30 251.37
2601 58.9780 1.564835 63743.00 63195.90 252.47
2602 58.9980 1.564352 63674.00 63242.70 252.34
2603 59.0180 1.563869 63636.00 63318.80 252.26
2604 59.0380 1.563387 64072.00 63436.70 253.12
2605 59.0580 1.562906 63488.00 63531.30 251.97
2606 59.0780 1.562424 64545.00 63630.10 254.06
2607 59.0980 1.561943 64957.00 63728.10 254.87
2608 59.1180 1.561463 64730.00 63820.00 254.42
2609 59.1380 1.560982 65320.00 63901.70 255.58
2610 59.1580 1.560502 65938.00 63970.20 256.78
2611 59.1780 1.560022 66422.00 64023.40 257.73
2612 59.1980 1.559543 66691.00 64064.90 258.25
2613 59.2180 1.559064 66923.00 64102.70 258.70
2614 59.2380 1.558586 66960.00 64127.70 258.77
2615 59.2580 1.558107 67521.00 64150.50 259.85
2616 59.2780 1.557629 67012.00 64174.90 258.87
2617 59.2980 1.557152 67481.00 64203.80 259.77
2618 59.3180 1.556674 68243.00 64236.70 261.23
2619 59.3380 1.556197 68774.00 64278.60 262.25
2620 59.3580 1.555721 68381.00 64327.10 261.50
2621 59.3780 1.555244 68683.00 64377.20 262.07
2622 59.3980 1.554769 69191.00 64437.20 263.04
2623 59.4180 1.554293 68709.00 64503.10 262.12
2624 59.4380 1.553818 68552.00 64576.40 261.82
2625 59.4580 1.553343 68711.00 64660.00 262.13
2626 59.4780 1.552868 67948.00 64758.30 260.67
2627 59.4980 1.552394 68826.00 64876.10 262.35
2628 59.5180 1.551920 69128.00 65018.80 262.92
2629 59.5380 1.551447 70045.00 65191.10 264.66
2630 59.5580 1.550973 69520.00 65397.70 263.67
2631 59.5780 1.550500 69167.00 65642.40 263.00
2632 59.5980 1.550028 69670.00 65928.50 263.95
2633 59.6180 1.549556 70395.00 66258.40 265.32
2634 59.6380 1.549084 70345.00 66633.70 265.23
2635 59.6580 1.548612 70154.00 67055.00 264.87
2636 59.6780 1.548141 70178.00 67521.90 264.91
2637 59.6980 1.547670 71016.00 68029.80 266.49
2638 59.7180 1.547199 71523.00 68579.80 267.44
2639 59.7380 1.546729 71481.00 69163.00 267.36
2640 59.7580 1.546259 71335.00 69770.70 267.09
2641 59.7780 1.545790 72309.00 70391.60 268.90
2642 59.7980 1.545321 73332.00 71012.30 270.80
2643 59.8180 1.544852 73808.00 71619.60 271.68
2644 59.8380 1.544383 73783.00 72202.00 271.63
2645 59.8580 1.543915 74528.00 72751.60 273.00
2646 59.8780 1.543447 74267.00 73266.60 272.52
2647 59.8980 1.542979 75189.00 73752.30 274.21
2648 59.9180 1.542512 77041.00 74220.30 277.56
2649 59.9380 1.542045 77072.00 74687.70 277.62
2650 59.9580 1.541579 77123.00 75170.10 277.71
2651 59.9780 1.541112 77639.00 75700.50 278.64
2652 59.9980 1.540647 78005.00 76295.30 279.29
2653 60.0180 1.540181 79013.00 76974.70 281.09
2654 60.0380 1.539716 80401.00 77755.40 283.55
2655 60.0580 1.539251 81554.00 78649.60 285.58
2656 60.0780 1.538786 82707.00 79662.10 287.59
2657 60.0980 1.538322 83420.00 80791.60 288.83
2658 60.1180 1.537858 86280.00 82029.90 293.73
2659 60.1380 1.537394 86426.00 83355.80 293.98
2660 60.1580 1.536931 87741.00 84741.00 296.21
2661 60.1780 1.536468 89884.00 86148.10 299.81
2662 60.1980 1.536005 90959.00 87533.90 301.59
2663 60.2180 1.535543 92455.00 88851.60 304.06
2664 60.2380 1.535081 93477.00 90057.20 305.74
2665 60.2580 1.534619 95894.00 91112.20 309.67
2666 60.2780 1.534158 96077.00 91985.90 309.96
2667 60.2980 1.533697 97452.00 92656.50 312.17
2668 60.3180 1.533236 99136.00 93111.20 314.86
2669 60.3380 1.532776 99389.00 93347.10 315.26
2670 60.3580 1.532316 100577.00 93373.70 317.14
2671 60.3780 1.531856 100912.00 93214.90 317.67
2672 60.3980 1.531397 100891.00 92909.30 317.63
2673 60.4180 1.530938 99959.00 92507.00 316.16
2674 60.4380 1.530479 99483.00 92063.40 315.41
2675 60.4580 1.530020 97752.00 91631.60 312.65
2676 60.4780 1.529562 96455.00 91255.00 310.57
2677 60.4980 1.529104 96527.00 90960.80 310.69
2678 60.5180 1.528647 95577.00 90756.50 309.15
2679 60.5380 1.528190 94399.00 90628.60 307.24
2680 60.5580 1.527733 94178.00 90543.80 306.88
2681 60.5780 1.527276 92087.00 90452.90 303.46
2682 60.5980 1.526820 91813.00 90300.50 303.01
2683 60.6180 1.526364 92038.00 90035.80 303.38
2684 60.6380 1.525909 91045.00 89624.10 301.74
2685 60.6580 1.525453 89723.00 89055.10 299.54
2686 60.6780 1.524999 89309.00 88345.20 298.85
2687 60.6980 1.524544 90208.00 87531.20 300.35
2688 60.7180 1.524090 88250.00 86660.80 297.07
2689 60.7380 1.523636 87694.00 85782.40 296.13
2690 60.7580 1.523182 86446.00 84937.50 294.02
2691 60.7780 1.522729 86539.00 84181.30 294.17
2692 60.7980 1.522276 85378.00 83478.10 292.20
2693 60.8180 1.521823 84909.00 82856.60 291.39
2694 60.8380 1.521371 84873.00 82306.70 291.33
2695 60.8580 1.520918 83780.00 81809.40 289.45
2696 60.8780 1.520467 83460.00 81339.00 288.89
2697 60.8980 1.520015 83056.00 80868.70 288.19
2698 60.9180 1.519564 82256.00 80373.00 286.80
2699 60.9380 1.519113 82780.00 79834.00 287.71
2700 60.9580 1.518663 82101.00 79229.30 286.53
2701 60.9780 1.518213 82189.00 78584.70 286.69
2702 60.9980 1.517763 81665.00 77897.60 285.77
2703 61.0180 1.517313 81378.00 77186.40 285.27
2704 61.0380 1.516864 81440.00 76472.90 285.38
2705 61.0580 1.516415 81232.00 75781.00 285.01
2706 61.0780 1.515966 80506.00 75119.50 283.74
2707 61.0980 1.515518 81265.00 74533.20 285.07
2708 61.1180 1.515070 80260.00 74023.40 283.30
2709 61.1380 1.514622 79944.00 73600.80 282.74
2710 61.1580 1.514175 80785.00 73272.00 284.23
2711 61.1780 1.513728 79319.00 73039.90 281.64
2712 61.1980 1.513281 80110.00 72905.50 283.04
2713 61.2180 1.512835 80807.00 72866.90 284.27
2714 61.2380 1.512388 80495.00 72920.60 283.72
2715 61.2580 1.511943 80128.00 73068.10 283.07
2716 61.2780 1.511497 80108.00 73287.60 283.03
2717 61.2980 1.511052 80538.00 73576.90 283.79
2718 61.3180 1.510607 79979.00 73924.20 282.81
2719 61.3380 1.510162 80822.00 74316.70 284.29
2720 61.3580 1.509718 80614.00 74739.40 283.93
2721 61.3780 1.509274 82734.00 75177.70 287.64
2722 61.3980 1.508830 84167.00 75617.10 290.12
2723 61.4180 1.508387 84013.00 76044.70 289.85
2724 61.4380 1.507944 83222.00 76450.30 288.48
2725 61.4580 1.507501 83472.00 76846.90 288.92
2726 61.4780 1.507059 83243.00 77187.90 288.52
2727 61.4980 1.506616 81943.00 77491.40 286.26
2728 61.5180 1.506175 81746.00 77756.50 285.91
2729 61.5380 1.505733 82162.00 77984.10 286.64
2730 61.5580 1.505292 81494.00 78175.00 285.47
2731 61.5780 1.504851 81981.00 78330.40 286.32
2732 61.5980 1.504410 82220.00 78450.20 286.74
2733 61.6180 1.503970 83289.00 78532.50 288.60
2734 61.6380 1.503530 82910.00 78573.90 287.94
2735 61.6580 1.503090 82853.00 78570.10 287.84
2736 61.6780 1.502651 83445.00 78517.90 288.87
2737 61.6980 1.502212 82731.00 78417.40 287.63
2738 61.7180 1.501773 83179.00 78274.00 288.41
2739 61.7380 1.501334 83881.00 78099.30 289.62
2740 61.7580 1.500896 83791.00 77910.10 289.47
2741 61.7780 1.500458 83432.00 77727.70 288.85
2742 61.7980 1.500021 83152.00 77571.80 288.36
2743 61.8180 1.499583 82809.00 77463.10 287.77
2744 61.8380 1.499146 80724.00 77418.60 284.12
2745 61.8580 1.498710 80006.00 77449.40 282.85
2746 61.8780 1.498273 79799.00 77561.40 282.49
2747 61.8980 1.497837 78687.00 77754.50 280.51
2748 61.9180 1.497401 79391.00 78023.50 281.76
2749 61.9380 1.496966 79303.00 78358.10 281.61
2750 61.9580 1.496530 78615.00 78743.80 280.38
2751 61.9780 1.496096 79205.00 79163.40 281.43
2752 61.9980 1.495661 79775.00 79593.60 282.45
2753 62.0180 1.495227 80574.00 80028.50 283.86
2754 62.0380 1.494793 80203.00 80450.30 283.20
2755 62.0580 1.494359 79764.00 80852.00 282.42
2756 62.0780 1.493925 79235.00 81233.90 281.49
2757 62.0980 1.493492 79293.00 81589.00 281.59
2758 62.1180 1.493060 79079.00 81922.40 281.21
2759 62.1380 1.492627 78649.00 82207.20 280.44
2760 62.1580 1.492195 79057.00 82428.50 281.17
2761 62.1780 1.491763 79545.00 82556.10 282.04
2762 62.1980 1.491331 80187.00 82556.40 283.17
2763 62.2180 1.490900 80048.00 82399.80 282.93
2764 62.2380 1.490469 80130.00 82067.60 283.07
2765 62.2580 1.490038 78957.00 81556.80 280.99
2766 62.2780 1.489607 77910.00 80881.90 279.12
2767 62.2980 1.489177 77516.00 80072.60 278.42
2768 62.3180 1.488747 77558.00 79168.20 278.49
2769 62.3380 1.488318 77848.00 78211.70 279.01
2770 62.3580 1.487889 76526.00 77244.70 276.63
2771 62.3780 1.487460 76695.00 76304.00 276.94
2772 62.3980 1.487031 76341.00 75418.20 276.30
2773 62.4180 1.486603 75348.00 74608.00 274.50
2774 62.4380 1.486174 75680.00 73886.00 275.10
2775 62.4580 1.485747 74333.00 73259.30 272.64
2776 62.4780 1.485319 73905.00 72728.20 271.86
2777 62.4980 1.484892 72750.00 72289.60 269.72
2778 62.5180 1.484465 72901.00 71936.60 270.00
2779 62.5380 1.484038 72384.00 71648.90 269.04
2780 62.5580 1.483612 71243.00 71440.20 266.91
2781 62.5780 1.483186 71132.00 71289.40 266.71
2782 62.5980 1.482760 71429.00 71188.30 267.26
2783 62.6180 1.482334 71208.00 71131.30 266.85
2784 62.6380 1.481909 70937.00 71115.00 266.34
2785 62.6580 1.481484 70151.00 71138.60 264.86
2786 62.6780 1.481060 69932.00 71203.30 264.45
2787 62.6980 1.480635 69699.00 71311.10 264.01
2788 62.7180 1.480211 69464.00 71463.40 263.56
2789 62.7380 1.479787 70086.00 71660.80 264.74
2790 62.7580 1.479364 69972.00 71901.90 264.52
2791 62.7780 1.478941 70310.00 72182.70 265.16
2792 62.7980 1.478518 70435.00 72496.80 265.40
2793 62.8180 1.478095 70526.00 72835.50 265.57
2794 62.8380 1.477673 70667.00 73187.70 265.83
2795 62.8580 1.477251 71335.00 73540.00 267.09
2796 62.8780 1.476829 72387.00 73883.80 269.05
2797 62.8980 1.476407 72292.00 74207.30 268.87
2798 62.9180 1.475986 72944.00 74503.50 270.08
2799 62.9380 1.475565 72950.00 74770.00 270.09
2800 62.9580 1.475145 74635.00 75009.10 273.19
2801 62.9780 1.474724 75361.00 75228.70 274.52
2802 62.9980 1.474304 75272.00 75440.20 274.36
2803 63.0180 1.473885 76493.00 75658.10 276.57
2804 63.0380 1.473465 76896.00 75897.00 277.30
2805 63.0580 1.473046 77228.00 76170.70 277.90
2806 63.0780 1.472627 77854.00 76490.10 279.02
2807 63.0980 1.472208 78034.00 76862.40 279.35
2808 63.1180 1.471790 78498.00 77289.80 280.17
2809 63.1380 1.471372 78146.00 77769.60 279.55
2810 63.1580 1.470954 79144.00 78294.40 281.33
2811 63.1780 1.470537 79559.00 78851.90 282.06
2812 63.1980 1.470119 79650.00 79427.80 282.22
2813 63.2180 1.469702 81517.00 80006.00 285.51
2814 63.2380 1.469286 82964.00 80570.30 288.04
2815 63.2580 1.468869 83881.00 81105.50 289.62
2816 63.2780 1.468453 84590.00 81606.50 290.84
2817 63.2980 1.468037 84054.00 82040.20 289.92
2818 63.3180 1.467622 83974.00 82402.10 289.78
2819 63.3380 1.467207 84197.00 82678.20 290.17
2820 63.3580 1.466792 83843.00 82856.90 289.56
2821 63.3780 1.466377 83197.00 82929.20 288.44
2822 63.3980 1.465963 83042.00 82891.70 288.17
2823 63.4180 1.465548 83024.00 82745.70 288.14
2824 63.4380 1.465135 82516.00 82498.20 287.26
2825 63.4580 1.464721 81176.00 82158.90 284.91
2826 63.4780 1.464308 80034.00 81740.50 282.90
2827 63.4980 1.463894 81721.00 81256.80 285.87
2828 63.5180 1.463482 81302.00 80722.80 285.14
2829 63.5380 1.463069 80619.00 80154.50 283.93
2830 63.5580 1.462657 79689.00 79568.40 282.29
2831 63.5780 1.462245 80057.00 78981.00 282.94
2832 63.5980 1.461834 78141.00 78406.40 279.54
2833 63.6180 1.461422 77773.00 77854.60 278.88
2834 63.6380 1.461011 77664.00 77333.10 278.68
2835 63.6580 1.460600 76751.00 76834.40 277.04
2836 63.6780 1.460190 76451.00 76353.50 276.50
2837 63.6980 1.459780 75637.00 75880.20 275.02
2838 63.7180 1.459370 75092.00 75402.70 274.03
2839 63.7380 1.458960 74348.00 74911.10 272.67
2840 63.7580 1.458550 73275.00 74399.80 270.69
2841 63.7780 1.458141 73634.00 73866.30 271.36
2842 63.7980 1.457732 72599.00 73323.90 269.44
2843 63.8180 1.457324 71633.00 72781.10 267.64
2844 63.8380 1.456915 71287.00 72253.20 267.00
2845 63.8580 1.456507 70981.00 71757.90 266.42
2846 63.8780 1.456099 70701.00 71311.50 265.90
2847 63.8980 1.455692 69549.00 70929.00 263.72
2848 63.9180 1.455285 69741.00 70648.00 264.08
2849 63.9380 1.454877 68772.00 70426.50 262.24
2850 63.9580 1.454471 68675.00 70296.50 262.06
2851 63.9780 1.454064 67727.00 70262.10 260.24
2852 63.9980 1.453658 68281.00 70325.40 261.31
2853 64.0180 1.453252 68346.00 70486.90 261.43
2854 64.0380 1.452847 67812.00 70745.60 260.41
2855 64.0580 1.452441 68210.00 71098.50 261.17
2856 64.0780 1.452036 68308.00 71542.00 261.36
2857 64.0980 1.451632 68853.00 72069.20 262.40
2858 64.1180 1.451227 69386.00 72670.40 263.41
2859 64.1380 1.450823 69748.00 73336.60 264.10
2860 64.1580 1.450419 71072.00 74051.20 266.59
2861 64.1780 1.450015 72136.00 74797.70 268.58
2862 64.1980 1.449611 72076.00 75551.60 268.47
2863 64.2180 1.449208 73045.00 76288.20 270.27
2864 64.2380 1.448805 73474.00 76978.10 271.06
2865 64.2580 1.448403 74880.00 77592.30 273.64
2866 64.2780 1.448000 75646.00 78102.10 275.04
2867 64.2980 1.447598 77432.00 78483.30 278.27
2868 64.3180 1.447196 77877.00 78715.60 279.07
2869 64.3380 1.446795 78306.00 78788.00 279.83
2870 64.3580 1.446393 78956.00 78689.60 280.99
2871 64.3780 1.445992 79062.00 78424.10 281.18
2872 64.3980 1.445591 79116.00 78000.60 281.28
2873 64.4180 1.445191 80592.00 77436.00 283.89
2874 64.4380 1.444790 80094.00 76753.30 283.01
2875 64.4580 1.444391 78579.00 75979.90 280.32
2876 64.4780 1.443991 77676.00 75144.40 278.70
2877 64.4980 1.443591 76338.00 74276.00 276.29
2878 64.5180 1.443192 75866.00 73400.80 275.44
2879 64.5380 1.442793 74014.00 72539.70 272.05
2880 64.5580 1.442395 72330.00 71711.60 268.94
2881 64.5780 1.441996 71434.00 70929.20 267.27
2882 64.5980 1.441598 70555.00 70201.80 265.62
2883 64.6180 1.441200 68339.00 69534.40 261.42
2884 64.6380 1.440802 68029.00 68929.90 260.82
2885 64.6580 1.440405 66412.00 68387.40 257.70
2886 64.6780 1.440008 64882.00 67902.80 254.72
2887 64.6980 1.439611 63515.00 67472.10 252.02
2888 64.7180 1.439215 63571.00 67083.10 252.13
2889 64.7380 1.438818 62822.00 66736.10 250.64
2890 64.7580 1.438422 61954.00 66416.80 248.91
2891 64.7780 1.438026 61225.00 66116.00 247.44
2892 64.7980 1.437631 60419.00 65824.40 245.80
2893 64.8180 1.437236 60451.00 65534.70 245.87
2894 64.8380 1.436841 60032.00 65241.10 245.01
2895 64.8580 1.436446 59631.00 64944.60 244.20
2896 64.8780 1.436051 58609.00 64651.50 242.09
2897 64.8980 1.435657 58960.00 64338.10 242.82
2898 64.9180 1.435263 59297.00 64022.10 243.51
2899 64.9380 1.434869 58590.00 63707.50 242.05
2900 64.9580 1.434476 58061.00 63398.90 240.96
2901 64.9780 1.434083 58112.00 63099.90 241.06
2902 64.9980 1.433690 57160.00 62814.40 239.08
2903 65.0180 1.433297 56308.00 62544.80 237.29
2904 65.0380 1.432905 56106.00 62293.40 236.87
2905 65.0580 1.432513 57076.00 62061.30 238.91
2906 65.0780 1.432121 56564.00 61849.30 237.83
2907 65.0980 1.431729 55765.00 61657.80 236.15
2908 65.1180 1.431338 56028.00 61487.00 236.70
2909 65.1380 1.430947 55691.00 61325.60 235.99
2910 65.1580 1.430556 55898.00 61196.70 236.43
2911 65.1780 1.430165 55779.00 61089.20 236.18
2912 65.1980 1.429775 55748.00 61003.60 236.11
2913 65.2180 1.429385 55562.00 60940.60 235.72
2914 65.2380 1.428995 55446.00 60901.10 235.47
2915 65.2580 1.428605 55753.00 60866.40 236.12
2916 65.2780 1.428216 55892.00 60876.80 236.41
2917 65.2980 1.427827 55806.00 60913.50 236.23
2918 65.3180 1.427438 55981.00 60977.40 236.60
2919 65.3380 1.427050 56176.00 61069.30 237.01
2920 65.3580 1.426661 56193.00 61190.20 237.05
2921 65.3780 1.426273 56797.00 61324.10 238.32
2922 65.3980 1.425886 56062.00 61504.90 236.77
2923 65.4180 1.425498 57443.00 61716.30 239.67
2924 65.4380 1.425111 57196.00 61959.20 239.16
2925 65.4580 1.424724 57593.00 62233.60 239.99
2926 65.4780 1.424337 58039.00 62537.20 240.91
2927 65.4980 1.423951 58878.00 62875.10 242.65
2928 65.5180 1.423564 58836.00 63244.00 242.56
2929 65.5380 1.423178 60257.00 63642.00 245.47
2930 65.5580 1.422793 61039.00 64065.20 247.06
2931 65.5780 1.422407 62060.00 64508.60 249.12
2932 65.5980 1.422022 62600.00 64964.40 250.20
2933 65.6180 1.421637 63249.00 65423.00 251.49
2934 65.6380 1.421252 63685.00 65872.40 252.36
2935 65.6580 1.420867 64095.00 66300.60 253.17
2936 65.6780 1.420483 64600.00 66695.40 254.16
2937 65.6980 1.420099 64785.00 67043.10 254.53
2938 65.7180 1.419715 66172.00 67345.60 257.24
2939 65.7380 1.419332 68306.00 67597.50 261.35
2940 65.7580 1.418949 67935.00 67802.80 260.64
2941 65.7780 1.418566 68790.00 67968.70 262.28
2942 65.7980 1.418183 70198.00 68101.50 264.95
2943 65.8180 1.417800 71497.00 68218.30 267.39
2944 65.8380 1.417418 71543.00 68323.30 267.48
2945 65.8580 1.417036 72249.00 68421.10 268.79
2946 65.8780 1.416654 72263.00 68511.60 268.82
2947 65.8980 1.416273 73244.00 68591.30 270.64
2948 65.9180 1.415892 74005.00 68653.30 272.04
2949 65.9380 1.415511 74008.00 68689.20 272.04
2950 65.9580 1.415130 74803.00 68690.80 273.50
2951 65.9780 1.414750 75353.00 68652.50 274.51
2952 65.9980 1.414369 74767.00 68567.60 273.44
2953 66.0180 1.413989 75118.00 68446.00 274.08
2954 66.0380 1.413610 75951.00 68301.60 275.59
2955 66.0580 1.413230 75370.00 68114.40 274.54
2956 66.0780 1.412851 75945.00 67904.70 275.58
2957 66.0980 1.412472 76246.00 67678.80 276.13
2958 66.1180 1.412093 76397.00 67434.30 276.40
2959 66.1380 1.411714 75980.00 67186.20 275.64
2960 66.1580 1.411336 74414.00 66932.80 272.79
2961 66.1780 1.410958 74372.00 66674.00 272.71
2962 66.1980 1.410580 73657.00 66406.90 271.40
2963 66.2180 1.410203 73485.00 66146.80 271.08
2964 66.2380 1.409825 73996.00 65894.70 272.02
2965 66.2580 1.409448 71961.00 65659.50 268.26
2966 66.2780 1.409071 71685.00 65439.40 267.74
2967 66.2980 1.408695 71156.00 65261.10 266.75
2968 66.3180 1.408319 70995.00 65124.00 266.45
2969 66.3380 1.407943 69940.00 65034.60 264.46
2970 66.3580 1.407567 69619.00 64998.30 263.85
2971 66.3780 1.407191 69689.00 65019.60 263.99
2972 66.3980 1.406816 69725.00 65102.50 264.05
2973 66.4180 1.406441 69310.00 65250.40 263.27
2974 66.4380 1.406066 70506.00 65467.00 265.53
2975 66.4580 1.405691 69612.00 65755.00 263.84
2976 66.4780 1.405317 69857.00 66116.90 264.30
2977 66.4980 1.404943 70900.00 66554.20 266.27
2978 66.5180 1.404569 71512.00 67072.10 267.42
2979 66.5380 1.404195 71471.00 67657.20 267.34
2980 66.5580 1.403822 71521.00 68308.30 267.43
2981 66.5780 1.403448 71378.00 69015.80 267.17
2982 66.5980 1.403075 71687.00 69763.00 267.74
2983 66.6180 1.402703 73529.00 70527.60 271.16
2984 66.6380 1.402330 73855.00 71278.80 271.76
2985 66.6580 1.401958 73837.00 71980.60 271.73
2986 66.6780 1.401586 75057.00 72590.90 273.96
2987 66.6980 1.401214 75195.00 73065.90 274.22
2988 66.7180 1.400843 76397.00 73366.60 276.40
2989 66.7380 1.400472 77440.00 73463.00 278.28
2990 66.7580 1.400101 78080.00 73340.50 279.43
2991 66.7780 1.399730 78583.00 73002.40 280.33
2992 66.7980 1.399359 78470.00 72469.00 280.12
2993 66.8180 1.398989 77601.00 71774.90 278.57
2994 66.8380 1.398619 76849.00 70962.00 277.22
2995 66.8580 1.398249 75105.00 70073.80 274.05
2996 66.8780 1.397880 73447.00 69150.40 271.01
2997 66.8980 1.397510 72247.00 68225.00 268.79
2998 66.9180 1.397141 71528.00 67324.90 267.45
2999 66.9380 1.396772 69653.00 66460.30 263.92
3000 66.9580 1.396404 68333.00 65660.60 261.41
3001 66.9780 1.396035 67880.00 64925.10 260.54
3002 66.9980 1.395667 66173.00 64248.80 257.24
3003 67.0180 1.395299 65101.00 63651.70 255.15
3004 67.0380 1.394931 64835.00 63118.00 254.63
3005 67.0580 1.394564 63403.00 62656.70 251.80
3006 67.0780 1.394197 62286.00 62259.20 249.57
3007 67.0980 1.393830 62500.00 61922.20 250.00
3008 67.1180 1.393463 61519.00 61641.20 248.03
3009 67.1380 1.393097 61862.00 61411.60 248.72
3010 67.1580 1.392730 60939.00 61228.20 246.86
3011 67.1780 1.392364 60154.00 61085.10 245.26
3012 67.1980 1.391999 59531.00 60975.80 243.99
3013 67.2180 1.391633 59841.00 60891.20 244.62
3014 67.2380 1.391268 58753.00 60827.80 242.39
3015 67.2580 1.390902 58576.00 60775.70 242.02
3016 67.2780 1.390538 58210.00 60720.20 241.27
3017 67.2980 1.390173 58611.00 60668.20 242.10
3018 67.3180 1.389809 58537.00 60607.60 241.94
3019 67.3380 1.389445 58370.00 60535.00 241.60
3020 67.3580 1.389081 58627.00 60449.80 242.13
3021 67.3780 1.388717 58183.00 60353.80 241.21
3022 67.3980 1.388353 58921.00 60250.80 242.74
3023 67.4180 1.387990 59235.00 60144.10 243.38
3024 67.4380 1.387627 58097.00 60042.90 241.03
3025 67.4580 1.387264 58162.00 59955.90 241.17
3026 67.4780 1.386902 58083.00 59876.50 241.00
3027 67.4980 1.386540 57581.00 59803.30 239.96
3028 67.5180 1.386177 56823.00 59758.90 238.38
3029 67.5380 1.385816 57383.00 59734.00 239.55
3030 67.5580 1.385454 56516.00 59729.20 237.73
3031 67.5780 1.385093 57580.00 59740.90 239.96
3032 67.5980 1.384732 57387.00 59774.60 239.56
3033 67.6180 1.384371 58192.00 59826.00 241.23
3034 67.6380 1.384010 57550.00 59893.50 239.90
3035 67.6580 1.383649 57686.00 59975.20 240.18
3036 67.6780 1.383289 57927.00 60068.70 240.68
3037 67.6980 1.382929 57878.00 60171.10 240.58
3038 67.7180 1.382569 58797.00 60279.10 242.48
3039 67.7380 1.382210 58695.00 60388.80 242.27
3040 67.7580 1.381850 58825.00 60500.80 242.54
3041 67.7780 1.381492 58397.00 60601.50 241.65
3042 67.7980 1.381133 58236.00 60692.30 241.32
3043 67.8180 1.380774 59614.00 60769.70 244.16
3044 67.8380 1.380416 59713.00 60831.80 244.36
3045 67.8580 1.380057 59807.00 60877.30 244.55
3046 67.8780 1.379700 60317.00 60905.80 245.60
3047 67.8980 1.379342 60352.00 60917.50 245.67
3048 67.9180 1.378984 60808.00 60913.50 246.59
3049 67.9380 1.378627 60751.00 60895.50 246.48
3050 67.9580 1.378270 60372.00 60866.00 245.71
3051 67.9780 1.377913 60671.00 60827.80 246.32
3052 67.9980 1.377557 61110.00 60784.50 247.20
3053 68.0180 1.377200 60715.00 60740.10 246.40
3054 68.0380 1.376844 60414.00 60698.50 245.79
3055 68.0580 1.376488 60654.00 60664.10 246.28
3056 68.0780 1.376132 60764.00 60640.70 246.50
3057 68.0980 1.375777 61676.00 60632.30 248.35
3058 68.1180 1.375422 61227.00 60642.10 247.44
3059 68.1380 1.375067 60134.00 60672.90 245.22
3060 68.1580 1.374712 60268.00 60726.40 245.49
3061 68.1780 1.374358 59955.00 60803.90 244.86
3062 68.1980 1.374003 60457.00 60904.60 245.88
3063 68.2180 1.373649 60586.00 61026.50 246.14
3064 68.2380 1.373295 60286.00 61165.00 245.53
3065 68.2580 1.372942 60440.00 61313.80 245.85
3066 68.2780 1.372588 60337.00 61463.80 245.64
3067 68.2980 1.372235 61300.00 61604.20 247.59
3068 68.3180 1.371882 60877.00 61714.80 246.73
3069 68.3380 1.371529 59780.00 61813.30 244.50
3070 68.3580 1.371177 61008.00 61853.80 247.00
3071 68.3780 1.370824 60006.00 61852.90 244.96
3072 68.3980 1.370472 61039.00 61806.20 247.06
3073 68.4180 1.370121 60829.00 61717.80 246.63
3074 68.4380 1.369769 62133.00 61597.70 249.26
3075 68.4580 1.369418 61324.00 61455.10 247.64
3076 68.4780 1.369066 61758.00 61299.70 248.51
3077 68.4980 1.368715 62152.00 61140.60 249.30
3078 68.5180 1.368365 62353.00 60981.40 249.71
3079 68.5380 1.368014 61967.00 60835.30 248.93
3080 68.5580 1.367664 60705.00 60703.30 246.38
3081 68.5780 1.367314 60443.00 60588.90 245.85
3082 68.5980 1.366964 59911.00 60483.80 244.77
3083 68.6180 1.366614 60184.00 60411.50 245.32
3084 68.6380 1.366265 61262.00 60365.80 247.51
3085 68.6580 1.365915 60765.00 60347.20 246.51
3086 68.6780 1.365566 60329.00 60356.30 245.62
3087 68.6980 1.365218 59896.00 60393.40 244.74
3088 68.7180 1.364869 59330.00 60458.70 243.58
3089 68.7380 1.364521 59913.00 60551.40 244.77
3090 68.7580 1.364173 59072.00 60670.80 243.05
3091 68.7780 1.363825 58531.00 60815.40 241.93
3092 68.7980 1.363477 59034.00 60983.60 242.97
3093 68.8180 1.363130 59031.00 61173.30 242.96
3094 68.8380 1.362783 59340.00 61382.00 243.60
3095 68.8580 1.362435 59782.00 61607.00 244.50
3096 68.8780 1.362089 58886.00 61844.60 242.66
3097 68.8980 1.361742 59075.00 62091.00 243.05
3098 68.9180 1.361396 59676.00 62341.60 244.29
3099 68.9380 1.361050 59582.00 62592.80 244.09
3100 68.9580 1.360704 59854.00 62835.40 244.65
3101 68.9780 1.360358 59232.00 63077.10 243.38
3102 68.9980 1.360012 59399.00 63311.00 243.72
3103 69.0180 1.359667 59830.00 63534.10 244.60
3104 69.0380 1.359322 60443.00 63749.60 245.85
3105 69.0580 1.358977 60642.00 63955.70 246.26
3106 69.0780 1.358633 60907.00 64153.90 246.79
3107 69.0980 1.358288 61350.00 64346.80 247.69
3108 69.1180 1.357944 61106.00 64537.90 247.20
3109 69.1380 1.357600 61134.00 64731.10 247.25
3110 69.1580 1.357256 60683.00 64929.70 246.34
3111 69.1780 1.356913 61296.00 65135.40 247.58
3112 69.1980 1.356569 62044.00 65336.10 249.09
3113 69.2180 1.356226 61874.00 65549.20 248.74
3114 69.2380 1.355883 62867.00 65756.70 250.73
3115 69.2580 1.355541 64218.00 65948.40 253.41
3116 69.2780 1.355198 64162.00 66110.50 253.30
3117 69.2980 1.354856 64453.00 66236.10 253.88
3118 69.3180 1.354514 65113.00 66306.70 255.17
3119 69.3380 1.354172 65267.00 66327.70 255.47
3120 69.3580 1.353830 64726.00 66290.70 254.41
3121 69.3780 1.353489 64624.00 66196.70 254.21
3122 69.3980 1.353148 64843.00 66054.30 254.64
3123 69.4180 1.352807 65721.00 65871.80 256.36
3124 69.4380 1.352466 65032.00 65659.50 255.01
3125 69.4580 1.352126 65666.00 65427.80 256.25
3126 69.4780 1.351785 64868.00 65185.20 254.69
3127 69.4980 1.351445 65503.00 64938.20 255.94
3128 69.5180 1.351105 65798.00 64690.40 256.51
3129 69.5380 1.350765 66459.00 64442.90 257.80
3130 69.5580 1.350426 64816.00 64190.70 254.59
3131 69.5780 1.350087 64955.00 63941.30 254.86
3132 69.5980 1.349748 64876.00 63688.20 254.71
3133 69.6180 1.349409 65049.00 63429.50 255.05
3134 69.6380 1.349070 64326.00 63165.50 253.63
3135 69.6580 1.348732 63537.00 62897.30 252.07
3136 69.6780 1.348394 62779.00 62642.60 250.56
3137 69.6980 1.348056 62365.00 62373.70 249.73
3138 69.7180 1.347718 61894.00 62111.00 248.79
3139 69.7380 1.347380 61351.00 61857.90 247.69
3140 69.7580 1.347043 60577.00 61615.30 246.12
3141 69.7780 1.346706 61563.00 61385.60 248.12
3142 69.7980 1.346369 60103.00 61169.30 245.16
3143 69.8180 1.346032 59686.00 60966.10 244.31
3144 69.8380 1.345695 59714.00 60775.00 244.36
3145 69.8580 1.345359 59695.00 60594.30 244.33
3146 69.8780 1.345023 58868.00 60422.20 242.63
3147 69.8980 1.344687 58996.00 60256.60 242.89
3148 69.9180 1.344351 58232.00 60095.40 241.31
3149 69.9380 1.344016 58117.00 59936.90 241.07
3150 69.9580 1.343681 56934.00 59779.90 238.61
3151 69.9780 1.343345 57079.00 59623.90 238.91
3152 69.9980 1.343010 57372.00 59469.20 239.52
3153 70.0180 1.342676 57150.00 59316.90 239.06
3154 70.0380 1.342341 56505.00 59168.90 237.71
3155 70.0580 1.342007 57076.00 59028.40 238.91
3156 70.0780 1.341673 57155.00 58897.90 239.07
3157 70.0980 1.341339 57034.00 58780.50 238.82
3158 70.1180 1.341006 55986.00 58678.90 236.61
3159 70.1380 1.340672 56060.00 58595.80 236.77
3160 70.1580 1.340339 56218.00 58533.10 237.10
3161 70.1780 1.340006 55877.00 58492.70 236.38
3162 70.1980 1.339673 55655.00 58475.70 235.91
3163 70.2180 1.339340 55705.00 58483.40 236.02
3164 70.2380 1.339008 55653.00 58516.60 235.91
3165 70.2580 1.338676 56586.00 58575.60 237.88
3166 70.2780 1.338344 56014.00 58660.70 236.67
3167 70.2980 1.338012 56032.00 58757.10 236.71
3168 70.3180 1.337681 56938.00 58893.90 238.62
3169 70.3380 1.337349 56556.00 59055.20 237.82
3170 70.3580 1.337018 57187.00 59239.50 239.14
3171 70.3780 1.336687 57615.00 59444.50 240.03
3172 70.3980 1.336356 57817.00 59666.60 240.45
3173 70.4180 1.336026 58497.00 59904.40 241.86
3174 70.4380 1.335695 58276.00 60153.00 241.40
3175 70.4580 1.335365 59127.00 60403.20 243.16
3176 70.4780 1.335036 57915.00 60664.50 240.65
3177 70.4980 1.334706 58953.00 60926.70 242.80
3178 70.5180 1.334376 60174.00 61189.30 245.30
3179 70.5380 1.334047 59948.00 61449.20 244.84
3180 70.5580 1.333718 59737.00 61704.30 244.41
3181 70.5780 1.333389 60336.00 61952.10 245.63
3182 70.5980 1.333060 61047.00 62189.60 247.08
3183 70.6180 1.332732 60829.00 62421.80 246.63
3184 70.6380 1.332403 60759.00 62628.40 246.49
3185 70.6580 1.332075 60368.00 62813.70 245.70
3186 70.6780 1.331747 60389.00 62974.50 245.74
3187 70.6980 1.331420 59534.00 63107.70 244.00
3188 70.7180 1.331092 60894.00 63211.00 246.77
3189 70.7380 1.330765 60298.00 63282.90 245.56
3190 70.7580 1.330438 61067.00 63322.20 247.12
3191 70.7780 1.330111 61209.00 63327.80 247.40
3192 70.7980 1.329784 61112.00 63299.00 247.21
3193 70.8180 1.329458 61423.00 63236.00 247.84
3194 70.8380 1.329131 61575.00 63139.60 248.14
3195 70.8580 1.328805 62649.00 63012.40 250.30
3196 70.8780 1.328479 61949.00 62858.80 248.90
3197 70.8980 1.328153 62620.00 62684.50 250.24
3198 70.9180 1.327828 61690.00 62496.50 248.38
3199 70.9380 1.327503 61480.00 62301.80 247.95
3200 70.9580 1.327178 61827.00 62107.30 248.65
3201 70.9780 1.326853 61888.00 61918.20 248.77
3202 70.9980 1.326528 61629.00 61738.70 248.25
3203 71.0180 1.326204 61943.00 61568.10 248.88
3204 71.0380 1.325879 62656.00 61413.90 250.31
3205 71.0580 1.325555 61729.00 61270.00 248.45
3206 71.0780 1.325231 62169.00 61136.40 249.34
3207 71.0980 1.324908 63186.00 61011.40 251.37
3208 71.1180 1.324584 62769.00 60893.80 250.54
3209 71.1380 1.324261 61911.00 60783.10 248.82
3210 71.1580 1.323938 61471.00 60679.90 247.93
3211 71.1780 1.323615 61470.00 60583.30 247.93
3212 71.1980 1.323292 62188.00 60500.20 249.38
3213 71.2180 1.322970 61863.00 60438.00 248.72
3214 71.2380 1.322647 61520.00 60388.60 248.03
3215 71.2580 1.322325 61704.00 60356.00 248.40
3216 71.2780 1.322003 61479.00 60345.00 247.95
3217 71.2980 1.321682 62462.00 60357.20 249.92
3218 71.3180 1.321360 62858.00 60393.10 250.71
3219 71.3380 1.321039 63080.00 60450.80 251.16
3220 71.3580 1.320718 62516.00 60533.40 250.03
3221 71.3780 1.320397 62721.00 60636.90 250.44
3222 71.3980 1.320076 63536.00 60758.70 252.06
3223 71.4180 1.319755 64697.00 60895.00 254.36
3224 71.4380 1.319435 64149.00 61041.30 253.28
3225 71.4580 1.319115 64532.00 61191.80 254.03
3226 71.4780 1.318795 66263.00 61340.30 257.42
3227 71.4980 1.318475 66496.00 61479.70 257.87
3228 71.5180 1.318156 67202.00 61602.70 259.23
3229 71.5380 1.317836 66897.00 61693.40 258.64
3230 71.5580 1.317517 67664.00 61762.70 260.12
3231 71.5780 1.317198 68221.00 61796.30 261.19
3232 71.5980 1.316879 68402.00 61790.40 261.54
3233 71.6180 1.316561 68481.00 61742.90 261.69
3234 71.6380 1.316242 68389.00 61654.00 261.51
3235 71.6580 1.315924 68360.00 61525.80 261.46
3236 71.6780 1.315606 68539.00 61361.90 261.80
3237 71.6980 1.315288 67438.00 61175.00 259.69
3238 71.7180 1.314971 66996.00 60955.70 258.84
3239 71.7380 1.314653 66582.00 60717.60 258.04
3240 71.7580 1.314336 65200.00 60458.20 255.34
3241 71.7780 1.314019 64673.00 60200.20 254.31
3242 71.7980 1.313702 63628.00 59940.90 252.25
3243 71.8180 1.313385 63560.00 59685.60 252.11
3244 71.8380 1.313069 61755.00 59439.20 248.51
3245 71.8580 1.312753 60734.00 59205.90 246.44
3246 71.8780 1.312437 60462.00 58989.70 245.89
3247 71.8980 1.312121 60990.00 58793.20 246.96
3248 71.9180 1.311805 59168.00 58618.80 243.24
3249 71.9380 1.311489 59377.00 58467.80 243.67
3250 71.9580 1.311174 58255.00 58341.20 241.36
3251 71.9780 1.310859 58760.00 58238.80 242.40
3252 71.9980 1.310544 58229.00 58160.10 241.31
3253 72.0180 1.310229 57683.00 58105.50 240.17
3254 72.0380 1.309915 58128.00 58069.90 241.10
3255 72.0580 1.309600 57966.00 58052.00 240.76
3256 72.0780 1.309286 58164.00 58048.70 241.17
3257 72.0980 1.308972 58295.00 58055.70 241.44
3258 72.1180 1.308659 57830.00 58066.70 240.48
3259 72.1380 1.308345 57854.00 58061.80 240.53
3260 72.1580 1.308032 57324.00 58070.20 239.42
3261 72.1780 1.307718 58157.00 58069.00 241.16
3262 72.1980 1.307405 57900.00 58055.40 240.62
3263 72.2180 1.307092 57673.00 58026.70 240.15
3264 72.2380 1.306780 58301.00 57981.90 241.46
3265 72.2580 1.306467 57884.00 57921.20 240.59
3266 72.2780 1.306155 57477.00 57846.30 239.74
3267 72.2980 1.305843 58434.00 57759.10 241.73
3268 72.3180 1.305531 57309.00 57662.70 239.39
3269 72.3380 1.305219 56857.00 57559.90 238.45
3270 72.3580 1.304908 57173.00 57453.90 239.11
3271 72.3780 1.304597 57904.00 57347.90 240.63
3272 72.3980 1.304285 57192.00 57244.80 239.15
3273 72.4180 1.303975 58280.00 57147.90 241.41
3274 72.4380 1.303664 58035.00 57059.60 240.90
3275 72.4580 1.303353 57627.00 56982.60 240.06
3276 72.4780 1.303043 57299.00 56918.80 239.37
3277 72.4980 1.302732 56943.00 56870.10 238.63
3278 72.5180 1.302423 56753.00 56840.60 238.23
3279 72.5380 1.302113 56756.00 56825.40 238.24
3280 72.5580 1.301803 56470.00 56828.00 237.63
3281 72.5780 1.301494 55858.00 56848.60 236.34
3282 72.5980 1.301184 57013.00 56887.20 238.77
3283 72.6180 1.300875 56864.00 56943.20 238.46
3284 72.6380 1.300566 55395.00 57014.00 235.36
3285 72.6580 1.300258 56441.00 57102.60 237.57
3286 72.6780 1.299949 56611.00 57204.50 237.93
3287 72.6980 1.299641 56835.00 57322.10 238.40
3288 72.7180 1.299333 57357.00 57454.30 239.49
3289 72.7380 1.299025 56765.00 57584.70 238.25
3290 72.7580 1.298717 57502.00 57717.30 239.80
3291 72.7780 1.298409 58659.00 57847.60 242.20
3292 72.7980 1.298102 59326.00 57970.70 243.57
3293 72.8180 1.297795 59872.00 58081.30 244.69
3294 72.8380 1.297488 59860.00 58173.30 244.66
3295 72.8580 1.297181 59903.00 58244.10 244.75
3296 72.8780 1.296874 60050.00 58298.90 245.05
3297 72.8980 1.296568 60192.00 58315.90 245.34
3298 72.9180 1.296261 61450.00 58303.40 247.89
3299 72.9380 1.295955 60757.00 58261.90 246.49
3300 72.9580 1.295649 60824.00 58193.20 246.62
3301 72.9780 1.295344 60396.00 58100.20 245.76
3302 72.9980 1.295038 60870.00 57987.50 246.72
3303 73.0180 1.294733 60341.00 57857.90 245.64
3304 73.0380 1.294428 59248.00 57716.70 243.41
3305 73.0580 1.294122 58824.00 57568.00 242.54
3306 73.0780 1.293818 58840.00 57416.30 242.57
3307 73.0980 1.293513 58433.00 57264.30 241.73
3308 73.1180 1.293209 57689.00 57115.10 240.18
3309 73.1380 1.292904 58090.00 56971.10 241.02
3310 73.1580 1.292600 56765.00 56834.10 238.25
3311 73.1780 1.292296 57204.00 56705.50 239.17
3312 73.1980 1.291993 57844.00 56586.60 240.51
3313 73.2180 1.291689 56893.00 56478.30 238.52
3314 73.2380 1.291386 56908.00 56384.00 238.55
3315 73.2580 1.291082 56624.00 56300.00 237.96
3316 73.2780 1.290779 56433.00 56229.60 237.56
3317 73.2980 1.290477 56605.00 56173.60 237.92
3318 73.3180 1.290174 55614.00 56133.10 235.83
3319 73.3380 1.289872 54777.00 56108.60 234.04
3320 73.3580 1.289569 55314.00 56100.60 235.19
3321 73.3780 1.289267 55047.00 56109.50 234.62
3322 73.3980 1.288965 55337.00 56135.20 235.24
3323 73.4180 1.288664 55734.00 56177.70 236.08
3324 73.4380 1.288362 55994.00 56236.10 236.63
3325 73.4580 1.288061 55017.00 56309.70 234.56
3326 73.4780 1.287759 55562.00 56396.90 235.72
3327 73.4980 1.287458 55494.00 56490.60 235.57
3328 73.5180 1.287158 55449.00 56596.80 235.48
3329 73.5380 1.286857 55842.00 56710.60 236.31
3330 73.5580 1.286556 55757.00 56826.40 236.13
3331 73.5780 1.286256 56239.00 56940.10 237.15
3332 73.5980 1.285956 56762.00 57047.30 238.25
3333 73.6180 1.285656 56993.00 57143.30 238.73
3334 73.6380 1.285356 57185.00 57225.30 239.13
3335 73.6580 1.285057 57783.00 57290.10 240.38
3336 73.6780 1.284757 57022.00 57335.60 238.79
3337 73.6980 1.284458 56830.00 57361.20 238.39
3338 73.7180 1.284159 57235.00 57367.00 239.24
3339 73.7380 1.283860 57359.00 57354.10 239.50
3340 73.7580 1.283561 57311.00 57324.10 239.40
3341 73.7780 1.283263 57075.00 57279.30 238.90
3342 73.7980 1.282965 56966.00 57222.20 238.68
3343 73.8180 1.282666 57354.00 57156.00 239.49
3344 73.8380 1.282369 56824.00 57083.60 238.38
3345 73.8580 1.282071 56308.00 57008.50 237.29
3346 73.8780 1.281773 56825.00 56933.80 238.38
3347 73.8980 1.281476 57090.00 56862.70 238.93
3348 73.9180 1.281178 56313.00 56798.20 237.30
3349 73.9380 1.280881 55492.00 56742.20 235.57
3350 73.9580 1.280584 56133.00 56696.90 236.92
3351 73.9780 1.280288 56885.00 56664.00 238.51
3352 73.9980 1.279991 56529.00 56644.40 237.76
3353 74.0180 1.279695 55944.00 56638.80 236.52
3354 74.0380 1.279398 56706.00 56647.30 238.13
3355 74.0580 1.279102 55766.00 56669.50 236.15
3356 74.0780 1.278806 55941.00 56704.60 236.52
3357 74.0980 1.278511 56558.00 56751.30 237.82
3358 74.1180 1.278215 56510.00 56807.60 237.72
3359 74.1380 1.277920 55297.00 56871.30 235.15
3360 74.1580 1.277625 55148.00 56939.30 234.84
3361 74.1780 1.277330 56072.00 57008.50 236.79
3362 74.1980 1.277035 55816.00 57075.10 236.25
3363 74.2180 1.276740 56228.00 57135.40 237.12
3364 74.2380 1.276446 56540.00 57186.00 237.78
3365 74.2580 1.276152 55864.00 57221.40 236.36
3366 74.2780 1.275858 56766.00 57244.70 238.26
3367 74.2980 1.275564 56435.00 57252.60 237.56
3368 74.3180 1.275270 57228.00 57242.90 239.22
3369 74.3380 1.274976 57372.00 57222.40 239.52
3370 74.3580 1.274683 57599.00 57191.10 240.00
3371 74.3780 1.274390 57803.00 57152.70 240.42
3372 74.3980 1.274097 57409.00 57111.00 239.60
3373 74.4180 1.273804 57082.00 57069.80 238.92
3374 74.4380 1.273511 56832.00 57033.20 238.40
3375 74.4580 1.273218 56789.00 57008.80 238.30
3376 74.4780 1.272926 56731.00 56991.30 238.18
3377 74.4980 1.272634 56740.00 56987.90 238.20
3378 74.5180 1.272342 57323.00 57000.70 239.42
3379 74.5380 1.272050 56999.00 57031.90 238.74
3380 74.5580 1.271758 56602.00 57083.20 237.91
3381 74.5780 1.271467 56876.00 57155.80 238.49
3382 74.5980 1.271176 57351.00 57251.00 239.48
3383 74.6180 1.270884 57686.00 57369.50 240.18
3384 74.6380 1.270593 57287.00 57511.90 239.35
3385 74.6580 1.270303 57370.00 57678.20 239.52
3386 74.6780 1.270012 58157.00 57868.20 241.16
3387 74.6980 1.269721 58069.00 58080.50 240.98
3388 74.7180 1.269431 57336.00 58313.20 239.45
3389 74.7380 1.269141 59472.00 58567.60 243.87
3390 74.7580 1.268851 59527.00 58839.00 243.98
3391 74.7780 1.268561 59736.00 59124.10 244.41
3392 74.7980 1.268272 60973.00 59419.00 246.93
3393 74.8180 1.267982 61925.00 59723.60 248.85
3394 74.8380 1.267693 61020.00 60023.70 247.02
3395 74.8580 1.267404 61899.00 60323.40 248.79
3396 74.8780 1.267115 62273.00 60613.80 249.55
3397 74.8980 1.266826 63134.00 60887.30 251.26
3398 74.9180 1.266538 63253.00 61144.30 251.50
3399 74.9380 1.266249 63511.00 61382.80 252.01
3400 74.9580 1.265961 63476.00 61600.70 251.94
3401 74.9780 1.265673 63448.00 61797.10 251.89
3402 74.9980 1.265385 64635.00 61971.10 254.23
3403 75.0180 1.265097 63880.00 62121.40 252.74
3404 75.0380 1.264810 63755.00 62249.90 252.50
3405 75.0580 1.264522 64794.00 62356.10 254.55
3406 75.0780 1.264235 64602.00 62441.40 254.17
3407 75.0980 1.263948 64616.00 62507.60 254.20
3408 75.1180 1.263661 65113.00 62557.30 255.17
3409 75.1380 1.263374 65250.00 62593.80 255.44
3410 75.1580 1.263088 65381.00 62620.10 255.70
3411 75.1780 1.262801 66018.00 62638.80 256.94
3412 75.1980 1.262515 65698.00 62651.90 256.32
3413 75.2180 1.262229 66046.00 62659.80 256.99
3414 75.2380 1.261943 66209.00 62661.60 257.31
3415 75.2580 1.261657 65836.00 62655.00 256.58
3416 75.2780 1.261372 65933.00 62636.50 256.77
3417 75.2980 1.261086 66273.00 62601.60 257.43
3418 75.3180 1.260801 65477.00 62545.80 255.88
3419 75.3380 1.260516 66391.00 62476.60 257.67
3420 75.3580 1.260231 65821.00 62368.70 256.56
3421 75.3780 1.259947 65472.00 62228.10 255.88
3422 75.3980 1.259662 64340.00 62059.10 253.65
3423 75.4180 1.259378 63538.00 61865.30 252.07
3424 75.4380 1.259093 63133.00 61645.80 251.26
3425 75.4580 1.258809 61999.00 61403.20 249.00
3426 75.4780 1.258525 62438.00 61139.70 249.88
3427 75.4980 1.258242 61908.00 60859.60 248.81
3428 75.5180 1.257958 61520.00 60557.60 248.03
3429 75.5380 1.257675 60872.00 60251.90 246.72
3430 75.5580 1.257392 60200.00 59936.50 245.36
3431 75.5780 1.257108 60824.00 59617.60 246.62
3432 75.5980 1.256826 60620.00 59296.00 246.21
3433 75.6180 1.256543 60176.00 58976.60 245.31
3434 75.6380 1.256260 59233.00 58661.40 243.38
3435 75.6580 1.255978 59364.00 58353.00 243.65
3436 75.6780 1.255696 59631.00 58053.20 244.20
3437 75.6980 1.255414 59027.00 57764.10 242.96
3438 75.7180 1.255132 57791.00 57486.70 240.40
3439 75.7380 1.254850 57769.00 57222.30 240.35
3440 75.7580 1.254568 56706.00 56969.80 238.13
3441 75.7780 1.254287 56760.00 56732.10 238.24
3442 75.7980 1.254006 56298.00 56507.90 237.27
3443 75.8180 1.253725 55912.00 56297.30 236.46
3444 75.8380 1.253444 55817.00 56099.70 236.26
3445 75.8580 1.253163 54888.00 55915.00 234.28
3446 75.8780 1.252883 55234.00 55742.90 235.02
3447 75.8980 1.252602 54195.00 55582.90 232.80
3448 75.9180 1.252322 53462.00 55434.80 231.22
3449 75.9380 1.252042 54056.00 55298.20 232.50
3450 75.9580 1.251762 53432.00 55173.00 231.15
3451 75.9780 1.251482 54047.00 55058.90 232.48
3452 75.9980 1.251202 53488.00 54955.10 231.27
3453 76.0180 1.250923 53857.00 54862.40 232.07
3454 76.0380 1.250644 54073.00 54778.40 232.54
3455 76.0580 1.250365 53618.00 54706.40 231.56
3456 76.0780 1.250086 53351.00 54644.30 230.98
3457 76.0980 1.249807 53969.00 54592.00 232.31
3458 76.1180 1.249528 53683.00 54547.60 231.70
3459 76.1380 1.249250 53972.00 54513.80 232.32
3460 76.1580 1.248972 53287.00 54488.90 230.84
3461 76.1780 1.248693 53784.00 54472.70 231.91
3462 76.1980 1.248416 53487.00 54465.00 231.27
3463 76.2180 1.248138 53621.00 54465.40 231.56
3464 76.2380 1.247860 53548.00 54473.80 231.40
3465 76.2580 1.247582 53147.00 54490.10 230.54
3466 76.2780 1.247305 53433.00 54514.20 231.16
3467 76.2980 1.247028 54293.00 54545.80 233.01
3468 76.3180 1.246751 53065.00 54585.00 230.36
3469 76.3380 1.246474 53776.00 54631.80 231.90
3470 76.3580 1.246197 54109.00 54686.30 232.61
3471 76.3780 1.245921 54156.00 54748.70 232.71
3472 76.3980 1.245645 54156.00 54819.40 232.71
3473 76.4180 1.245368 54020.00 54898.60 232.42
3474 76.4380 1.245092 54448.00 54994.30 233.34
3475 76.4580 1.244816 54688.00 55092.30 233.85
3476 76.4780 1.244541 54403.00 55200.50 233.24
3477 76.4980 1.244265 55121.00 55318.40 234.78
3478 76.5180 1.243990 55167.00 55444.90 234.88
3479 76.5380 1.243714 55367.00 55585.80 235.30
3480 76.5580 1.243439 53876.00 55737.50 232.11
3481 76.5780 1.243164 54565.00 55899.70 233.59
3482 76.5980 1.242890 54762.00 56072.00 234.01
3483 76.6180 1.242615 55578.00 56252.10 235.75
3484 76.6380 1.242341 56177.00 56438.40 237.02
3485 76.6580 1.242067 55494.00 56628.40 235.57
3486 76.6780 1.241792 55339.00 56819.30 235.24
3487 76.6980 1.241518 56299.00 57007.60 237.27
3488 76.7180 1.241245 56299.00 57189.70 237.27
3489 76.7380 1.240971 55628.00 57362.10 235.86
3490 76.7580 1.240697 56617.00 57521.50 237.94
3491 76.7780 1.240424 56940.00 57665.40 238.62
3492 76.7980 1.240151 56614.00 57791.80 237.94
3493 76.8180 1.239878 57102.00 57899.70 238.96
3494 76.8380 1.239605 56730.00 57989.20 238.18
3495 76.8580 1.239332 57364.00 58061.50 239.51
3496 76.8780 1.239060 57007.00 58118.80 238.76
3497 76.8980 1.238787 57647.00 58163.70 240.10
3498 76.9180 1.238515 57840.00 58207.30 240.50
3499 76.9380 1.238243 58101.00 58240.80 241.04
3500 76.9580 1.237971 57492.00 58269.60 239.77
3501 76.9780 1.237699 56685.00 58308.40 238.09
3502 76.9980 1.237428 57829.00 58356.20 240.48
3503 77.0180 1.237156 58085.00 58416.90 241.01
3504 77.0380 1.236885 58391.00 58493.90 241.64
3505 77.0580 1.236614 57909.00 58590.20 240.64
3506 77.0780 1.236343 56747.00 58708.20 238.22
3507 77.0980 1.236072 57404.00 58849.70 239.59
3508 77.1180 1.235801 58172.00 59015.60 241.19
3509 77.1380 1.235531 58767.00 59206.30 242.42
3510 77.1580 1.235261 58038.00 59421.00 240.91
3511 77.1780 1.234990 57937.00 59656.40 240.70
3512 77.1980 1.234720 58386.00 59912.90 241.63
3513 77.2180 1.234450 58883.00 60185.00 242.66
3514 77.2380 1.234181 59683.00 60466.90 244.30
3515 77.2580 1.233911 59172.00 60751.60 243.25
3516 77.2780 1.233642 59341.00 61030.70 243.60
3517 77.2980 1.233372 59753.00 61294.50 244.44
3518 77.3180 1.233103 60408.00 61531.80 245.78
3519 77.3380 1.232834 60213.00 61734.40 245.38
3520 77.3580 1.232566 61126.00 61893.00 247.24
3521 77.3780 1.232297 60975.00 62001.20 246.93
3522 77.3980 1.232028 60979.00 62056.00 246.94
3523 77.4180 1.231760 60500.00 62058.30 245.97
3524 77.4380 1.231492 61129.00 62012.50 247.24
3525 77.4580 1.231224 61080.00 61926.30 247.14
3526 77.4780 1.230956 60418.00 61809.30 245.80
3527 77.4980 1.230688 60354.00 61672.40 245.67
3528 77.5180 1.230421 61204.00 61526.10 247.39
3529 77.5380 1.230153 60624.00 61379.80 246.22
3530 77.5580 1.229886 60909.00 61241.60 246.80
3531 77.5780 1.229619 60881.00 61117.00 246.74
3532 77.5980 1.229352 60432.00 61009.30 245.83
3533 77.6180 1.229085 60921.00 60921.00 246.82
3534 77.6380 1.228819 60835.00 60846.50 246.65
3535 77.6580 1.228552 60342.00 60783.60 245.65
3536 77.6780 1.228286 59598.00 60724.90 244.13
3537 77.6980 1.228020 60376.00 60666.80 245.71
3538 77.7180 1.227754 59987.00 60600.60 244.92
3539 77.7380 1.227488 59941.00 60520.20 244.83
3540 77.7580 1.227222 60550.00 60421.20 246.07
3541 77.7780 1.226956 60897.00 60301.40 246.77
3542 77.7980 1.226691 60415.00 60161.60 245.79
3543 77.8180 1.226426 59814.00 60004.40 244.57
3544 77.8380 1.226161 60345.00 59834.60 245.65
3545 77.8580 1.225896 60366.00 59658.10 245.70
3546 77.8780 1.225631 60382.00 59479.90 245.73
3547 77.8980 1.225366 59311.00 59308.40 243.54
3548 77.9180 1.225102 60567.00 59148.40 246.10
3549 77.9380 1.224837 60615.00 59004.40 246.20
3550 77.9580 1.224573 60104.00 58880.20 245.16
3551 77.9780 1.224309 60218.00 58778.90 245.39
3552 77.9980 1.224045 60697.00 58702.80 246.37
3553 78.0180 1.223781 59862.00 58653.30 244.67
3554 78.0380 1.223518 59395.00 58631.40 243.71
3555 78.0580 1.223254 58789.00 58638.00 242.46
3556 78.0780 1.222991 59005.00 58673.00 242.91
3557 78.0980 1.222728 59340.00 58736.30 243.60
3558 78.1180 1.222465 59678.00 58827.20 244.29
3559 78.1380 1.222202 58864.00 58944.50 242.62
3560 78.1580 1.221939 59644.00 59086.90 244.22
3561 78.1780 1.221677 60167.00 59252.70 245.29
3562 78.1980 1.221414 60150.00 59440.40 245.26
3563 78.2180 1.221152 60540.00 59648.90 246.05
3564 78.2380 1.220890 61217.00 59877.00 247.42
3565 78.2580 1.220628 59814.00 60120.10 244.57
3566 78.2780 1.220366 60808.00 60391.50 246.59
3567 78.2980 1.220105 60690.00 60678.90 246.35
3568 78.3180 1.219843 61114.00 60987.10 247.21
3569 78.3380 1.219582 60888.00 61316.80 246.76
3570 78.3580 1.219321 60762.00 61668.40 246.50
3571 78.3780 1.219060 61711.00 62040.30 248.42
3572 78.3980 1.218799 62726.00 62431.90 250.45
3573 78.4180 1.218538 62403.00 62838.60 249.81
3574 78.4380 1.218277 62878.00 63255.00 250.76
3575 78.4580 1.218017 64212.00 63671.90 253.40
3576 78.4780 1.217757 63649.00 64078.00 252.29
3577 78.4980 1.217496 63756.00 64459.50 252.50
3578 78.5180 1.217236 64367.00 64800.50 253.71
3579 78.5380 1.216976 64651.00 65085.50 254.27
3580 78.5580 1.216717 65150.00 65299.40 255.24
3581 78.5780 1.216457 65310.00 65431.20 255.56
3582 78.5980 1.216198 65881.00 65478.90 256.67
3583 78.6180 1.215939 66197.00 65430.80 257.29
3584 78.6380 1.215679 65325.00 65296.00 255.59
3585 78.6580 1.215420 65095.00 65083.50 255.14
3586 78.6780 1.215161 65323.00 64805.40 255.58
3587 78.6980 1.214903 64501.00 64474.10 253.97
3588 78.7180 1.214644 64662.00 64106.60 254.29
3589 78.7380 1.214386 64397.00 63714.70 253.77
3590 78.7580 1.214128 64043.00 63309.20 253.07
3591 78.7780 1.213870 63694.00 62899.70 252.38
3592 78.7980 1.213612 63315.00 62492.60 251.62
3593 78.8180 1.213354 62475.00 62093.40 249.95
3594 78.8380 1.213096 62463.00 61705.70 249.93
3595 78.8580 1.212839 62538.00 61331.90 250.08
3596 78.8780 1.212581 61376.00 60973.70 247.74
3597 78.8980 1.212324 61189.00 60632.20 247.36
3598 78.9180 1.212067 61172.00 60310.20 247.33
3599 78.9380 1.211810 59914.00 60016.60 244.77
3600 78.9580 1.211553 59926.00 59726.00 244.80
3601 78.9780 1.211297 59699.00 59450.30 244.33
3602 78.9980 1.211040 60080.00 59187.80 245.11
3603 79.0180 1.210784 59749.00 58936.00 244.44
3604 79.0380 1.210528 58710.00 58692.10 242.30
3605 79.0580 1.210272 57735.00 58453.60 240.28
3606 79.0780 1.210016 57855.00 58216.20 240.53
3607 79.0980 1.209760 57179.00 57982.70 239.12
3608 79.1180 1.209504 57461.00 57750.10 239.71
3609 79.1380 1.209249 56651.00 57518.80 238.01
3610 79.1580 1.208994 57242.00 57289.60 239.25
3611 79.1780 1.208738 57107.00 57064.00 238.97
3612 79.1980 1.208483 57419.00 56843.80 239.62
3613 79.2180 1.208228 57293.00 56631.00 239.36
3614 79.2380 1.207974 57249.00 56427.30 239.27
3615 79.2580 1.207719 57431.00 56233.80 239.65
3616 79.2780 1.207464 56289.00 56049.60 237.25
3617 79.2980 1.207210 56969.00 55879.80 238.68
3618 79.3180 1.206956 56227.00 55722.50 237.12
3619 79.3380 1.206702 56560.00 55577.70 237.82
3620 79.3580 1.206448 55706.00 55445.10 236.02
3621 79.3780 1.206194 55958.00 55324.50 236.55
3622 79.3980 1.205941 55714.00 55215.40 236.04
3623 79.4180 1.205687 54728.00 55117.10 233.94
3624 79.4380 1.205434 54803.00 55029.20 234.10
3625 79.4580 1.205181 55466.00 54950.80 235.51
3626 79.4780 1.204928 54309.00 54880.80 233.04
3627 79.4980 1.204675 54704.00 54819.60 233.89
3628 79.5180 1.204422 55800.00 54766.00 236.22
3629 79.5380 1.204170 55301.00 54719.30 235.16
3630 79.5580 1.203917 54885.00 54679.00 234.27
3631 79.5780 1.203665 54369.00 54644.50 233.17
3632 79.5980 1.203413 54737.00 54615.50 233.96
3633 79.6180 1.203161 55240.00 54591.40 235.03
3634 79.6380 1.202909 54918.00 54571.90 234.35
3635 79.6580 1.202657 54240.00 54556.80 232.90
3636 79.6780 1.202405 54980.00 54546.00 234.48
3637 79.6980 1.202154 54462.00 54539.60 233.37
3638 79.7180 1.201903 54828.00 54537.50 234.15
3639 79.7380 1.201651 54570.00 54543.20 233.60
3640 79.7580 1.201400 54594.00 54550.50 233.65
3641 79.7780 1.201149 54869.00 54562.70 234.24
3642 79.7980 1.200899 54607.00 54579.90 233.68
3643 79.8180 1.200648 55020.00 54601.90 234.56
3644 79.8380 1.200398 54267.00 54628.30 232.95
3645 79.8580 1.200147 54380.00 54656.10 233.20
3646 79.8780 1.199897 55189.00 54689.30 234.92
3647 79.8980 1.199647 54730.00 54724.20 233.94
3648 79.9180 1.199397 54070.00 54759.50 232.53
3649 79.9380 1.199147 55071.00 54793.40 234.67
3650 79.9580 1.198898 54250.00 54825.60 232.92
3651 79.9780 1.198648 54152.00 54852.20 232.71
3652 79.9980 1.198399 54303.00 54873.20 233.03
3653 80.0180 1.198150 54650.00 54887.50 233.77
3654 80.0380 1.197901 54850.00 54895.00 234.20
3655 80.0580 1.197652 54844.00 54896.00 234.19
3656 80.0780 1.197403 54532.00 54891.40 233.52
3657 80.0980 1.197154 54081.00 54882.80 232.55
3658 80.1180 1.196906 54852.00 54872.00 234.21
3659 80.1380 1.196657 54704.00 54861.20 233.89
3660 80.1580 1.196409 54074.00 54852.50 232.54
3661 80.1780 1.196161 53956.00 54848.10 232.28
3662 80.1980 1.195913 54158.00 54847.60 232.72
3663 80.2180 1.195665 54608.00 54856.70 233.68
3664 80.2380 1.195418 53927.00 54874.60 232.22
3665 80.2580 1.195170 55103.00 54902.00 234.74
3666 80.2780 1.194923 54380.00 54939.60 233.20
3667 80.2980 1.194676 54313.00 54987.60 233.05
3668 80.3180 1.194428 53918.00 55045.80 232.20
3669 80.3380 1.194181 54776.00 55113.90 234.04
3670 80.3580 1.193935 54705.00 55191.00 233.89
3671 80.3780 1.193688 54316.00 55276.10 233.06
3672 80.3980 1.193441 55088.00 55367.80 234.71
3673 80.4180 1.193195 55779.00 55464.30 236.18
3674 80.4380 1.192949 55456.00 55563.90 235.49
3675 80.4580 1.192702 56049.00 55664.50 236.75
3676 80.4780 1.192456 55806.00 55764.20 236.23
3677 80.4980 1.192211 55679.00 55861.20 235.96
3678 80.5180 1.191965 55944.00 55953.90 236.52
3679 80.5380 1.191719 55838.00 56041.40 236.30
3680 80.5580 1.191474 55673.00 56122.80 235.95
3681 80.5780 1.191229 56766.00 56197.80 238.26
3682 80.5980 1.190983 57365.00 56266.00 239.51
3683 80.6180 1.190738 56412.00 56327.40 237.51
3684 80.6380 1.190493 56318.00 56382.00 237.31
3685 80.6580 1.190249 56085.00 56429.80 236.82
3686 80.6780 1.190004 57311.00 56473.40 239.40
3687 80.6980 1.189759 56101.00 56507.90 236.86
3688 80.7180 1.189515 56075.00 56536.00 236.80
3689 80.7380 1.189271 56309.00 56555.70 237.29
3690 80.7580 1.189027 56415.00 56572.10 237.52
3691 80.7780 1.188783 56919.00 56583.40 238.58
3692 80.7980 1.188539 56380.00 56590.60 237.45
3693 80.8180 1.188295 57356.00 56594.70 239.49
3694 80.8380 1.188052 57157.00 56594.30 239.07
3695 80.8580 1.187808 56375.00 56594.90 237.43
3696 80.8780 1.187565 56607.00 56595.00 237.92
3697 80.8980 1.187322 56640.00 56595.00 237.99
3698 80.9180 1.187079 57647.00 56595.00 240.10
3699 80.9380 1.186836 56779.00 56594.90 238.28
3700 80.9580 1.186593 56446.00 56594.50 237.58
3701 80.9780 1.186351 55973.00 56593.70 236.59
3702 80.9980 1.186108 57121.00 56591.40 239.00
3703 81.0180 1.185866 55476.00 56590.20 235.53
3704 81.0380 1.185624 56043.00 56589.80 236.73
3705 81.0580 1.185382 56260.00 56591.20 237.19
3706 81.0780 1.185140 56102.00 56595.60 236.86
3707 81.0980 1.184898 56258.00 56604.20 237.19
3708 81.1180 1.184656 57275.00 56617.90 239.32
3709 81.1380 1.184415 56801.00 56637.40 238.33
3710 81.1580 1.184173 56842.00 56663.00 238.42
3711 81.1780 1.183932 57355.00 56694.80 239.49
3712 81.1980 1.183691 56848.00 56732.50 238.43
3713 81.2180 1.183450 57056.00 56775.60 238.86
3714 81.2380 1.183209 56664.00 56823.30 238.04
3715 81.2580 1.182968 56348.00 56874.80 237.38
3716 81.2780 1.182728 56227.00 56929.20 237.12
3717 81.2980 1.182488 56544.00 56985.20 237.79
3718 81.3180 1.182247 56880.00 57042.40 238.49
3719 81.3380 1.182007 56346.00 57099.60 237.37
3720 81.3580 1.181767 56884.00 57156.00 238.50
3721 81.3780 1.181527 57852.00 57211.00 240.52
3722 81.3980 1.181287 57670.00 57264.30 240.15
3723 81.4180 1.181048 57994.00 57315.80 240.82
3724 81.4380 1.180808 57197.00 57365.60 239.16
3725 81.4580 1.180569 57511.00 57414.60 239.82
3726 81.4780 1.180330 58041.00 57463.40 240.92
3727 81.4980 1.180090 59327.00 57513.30 243.57
3728 81.5180 1.179852 59613.00 57565.50 244.16
3729 81.5380 1.179613 59117.00 57617.30 243.14
3730 81.5580 1.179374 59428.00 57677.90 243.78
3731 81.5780 1.179135 58986.00 57744.40 242.87
3732 81.5980 1.178897 59747.00 57817.30 244.43
3733 81.6180 1.178659 59914.00 57903.80 244.77
3734 81.6380 1.178420 59540.00 57991.00 244.01
3735 81.6580 1.178182 58992.00 58084.70 242.88
3736 81.6780 1.177944 59080.00 58184.20 243.06
3737 81.6980 1.177707 59049.00 58288.10 243.00
3738 81.7180 1.177469 59773.00 58394.70 244.49
3739 81.7380 1.177232 59887.00 58502.40 244.72
3740 81.7580 1.176994 59447.00 58609.50 243.82
3741 81.7780 1.176757 59830.00 58714.10 244.60
3742 81.7980 1.176520 59466.00 58815.10 243.86
3743 81.8180 1.176283 59333.00 58911.30 243.58
3744 81.8380 1.176046 59098.00 59002.20 243.10
3745 81.8580 1.175809 59417.00 59087.10 243.76
3746 81.8780 1.175573 59162.00 59167.70 243.23
3747 81.8980 1.175336 58651.00 59239.10 242.18
3748 81.9180 1.175100 57787.00 59301.00 240.39
3749 81.9380 1.174863 57876.00 59351.60 240.57
3750 81.9580 1.174628 58628.00 59395.60 242.13
3751 81.9780 1.174392 58559.00 59427.30 241.99
3752 81.9980 1.174156 59240.00 59444.70 243.39
3753 82.0180 1.173920 59782.00 59445.70 244.50
3754 82.0380 1.173684 58666.00 59428.80 242.21
3755 82.0580 1.173449 58600.00 59392.50 242.07
3756 82.0780 1.173214 59620.00 59336.50 244.17
3757 82.0980 1.172979 58942.00 59260.80 242.78
3758 82.1180 1.172744 58390.00 59161.20 241.64
3759 82.1380 1.172509 58702.00 59050.30 242.29
3760 82.1580 1.172274 57787.00 58925.40 240.39
3761 82.1780 1.172039 58182.00 58789.80 241.21
3762 82.1980 1.171805 57953.00 58650.10 240.73
3763 82.2180 1.171570 58665.00 58503.10 242.21
3764 82.2380 1.171336 57851.00 58355.40 240.52
3765 82.2580 1.171102 57873.00 58209.60 240.57
3766 82.2780 1.170868 57996.00 58068.20 240.82
3767 82.2980 1.170634 57633.00 57932.70 240.07
3768 82.3180 1.170400 57631.00 57804.70 240.07
3769 82.3380 1.170167 58227.00 57685.20 241.30
3770 82.3580 1.169933 58474.00 57574.50 241.81
3771 82.3780 1.169700 58072.00 57473.40 240.98
3772 82.3980 1.169467 58731.00 57382.20 242.35
3773 82.4180 1.169234 58596.00 57306.80 242.07
3774 82.4380 1.169001 57671.00 57236.80 240.15
3775 82.4580 1.168768 57126.00 57178.30 239.01
3776 82.4780 1.168535 58351.00 57131.70 241.56
3777 82.4980 1.168302 57587.00 57097.30 239.97
3778 82.5180 1.168070 56144.00 57075.50 236.95
3779 82.5380 1.167838 56825.00 57066.10 238.38
3780 82.5580 1.167605 56434.00 57068.80 237.56
3781 82.5780 1.167373 55691.00 57082.50 235.99
3782 82.5980 1.167141 56800.00 57105.90 238.33
3783 82.6180 1.166910 56601.00 57136.70 237.91
3784 82.6380 1.166678 56818.00 57172.60 238.37
3785 82.6580 1.166446 56562.00 57210.30 237.83
3786 82.6780 1.166215 57298.00 57246.00 239.37
3787 82.6980 1.165984 57406.00 57277.10 239.60
3788 82.7180 1.165752 56715.00 57299.40 238.15
3789 82.7380 1.165521 56543.00 57309.60 237.79
3790 82.7580 1.165290 57319.00 57304.70 239.41
3791 82.7780 1.165060 57387.00 57282.50 239.56
3792 82.7980 1.164829 57765.00 57241.60 240.34
3793 82.8180 1.164598 57978.00 57181.70 240.79
3794 82.8380 1.164368 57300.00 57103.40 239.37
3795 82.8580 1.164138 58285.00 57007.40 241.42
3796 82.8780 1.163908 58255.00 56897.20 241.36
3797 82.8980 1.163677 57947.00 56777.00 240.72
3798 82.9180 1.163448 58106.00 56650.80 241.05
3799 82.9380 1.163218 57064.00 56519.20 238.88
3800 82.9580 1.162988 57370.00 56387.20 239.52
3801 82.9780 1.162759 57404.00 56257.40 239.59
3802 82.9980 1.162529 56441.00 56132.60 237.57
3803 83.0180 1.162300 56638.00 56014.60 237.99
3804 83.0380 1.162071 56956.00 55904.40 238.65
3805 83.0580 1.161842 56223.00 55803.00 237.11
3806 83.0780 1.161613 55556.00 55710.10 235.70
3807 83.0980 1.161384 55984.00 55625.70 236.61
3808 83.1180 1.161155 55914.00 55549.90 236.46
3809 83.1380 1.160927 54644.00 55479.30 233.76
3810 83.1580 1.160699 54363.00 55413.70 233.16
3811 83.1780 1.160470 54362.00 55351.80 233.16
3812 83.1980 1.160242 54883.00 55292.60 234.27
3813 83.2180 1.160014 54857.00 55234.80 234.22
3814 83.2380 1.159786 54536.00 55178.00 233.53
3815 83.2580 1.159558 54696.00 55121.80 233.87
3816 83.2780 1.159331 55033.00 55061.60 234.59
3817 83.2980 1.159103 54462.00 55006.70 233.37
3818 83.3180 1.158876 55212.00 54952.90 234.97
3819 83.3380 1.158648 54921.00 54900.90 234.35
3820 83.3580 1.158421 54079.00 54850.80 232.55
3821 83.3780 1.158194 54510.00 54803.20 233.47
3822 83.3980 1.157967 53576.00 54759.20 231.46
3823 83.4180 1.157741 53736.00 54719.00 231.81
3824 83.4380 1.157514 54018.00 54682.80 232.42
3825 83.4580 1.157287 53743.00 54651.00 231.82
3826 83.4780 1.157061 53949.00 54623.40 232.27
3827 83.4980 1.156835 53888.00 54599.90 232.14
3828 83.5180 1.156609 54139.00 54579.80 232.68
3829 83.5380 1.156382 53779.00 54561.20 231.90
3830 83.5580 1.156157 54325.00 54545.40 233.08
3831 83.5780 1.155931 54203.00 54523.10 232.82
3832 83.5980 1.155705 54140.00 54506.50 232.68
3833 83.6180 1.155480 53954.00 54487.50 232.28
3834 83.6380 1.155254 54332.00 54463.40 233.09
3835 83.6580 1.155029 54160.00 54435.10 232.72
3836 83.6780 1.154804 54581.00 54398.30 233.63
3837 83.6980 1.154579 55002.00 54357.40 234.52
3838 83.7180 1.154354 54284.00 54309.70 232.99
3839 83.7380 1.154129 54332.00 54255.80 233.09
3840 83.7580 1.153904 54281.00 54196.30 232.98
3841 83.7780 1.153680 53942.00 54132.60 232.25
3842 83.7980 1.153455 54242.00 54066.00 232.90
3843 83.8180 1.153231 53735.00 53998.10 231.81
3844 83.8380 1.153007 53648.00 53925.60 231.62
3845 83.8580 1.152783 52809.00 53859.50 229.80
3846 83.8780 1.152559 53162.00 53799.50 230.57
3847 83.8980 1.152335 53784.00 53740.50 231.91
3848 83.9180 1.152111 54132.00 53686.60 232.66
3849 83.9380 1.151888 53892.00 53638.40 232.15
3850 83.9580 1.151664 54225.00 53596.60 232.86
3851 83.9780 1.151441 53934.00 53561.50 232.24
3852 83.9980 1.151218 53136.00 53533.50 230.51
3853 84.0180 1.150994 53472.00 53512.60 231.24
3854 84.0380 1.150771 53486.00 53499.10 231.27
3855 84.0580 1.150549 53774.00 53492.80 231.89
3856 84.0780 1.150326 53826.00 53493.70 232.00
3857 84.0980 1.150103 53598.00 53501.70 231.51
3858 84.1180 1.149881 53926.00 53516.70 232.22
3859 84.1380 1.149658 54099.00 53538.20 232.59
3860 84.1580 1.149436 53783.00 53566.90 231.91
3861 84.1780 1.149214 54455.00 53601.90 233.36
3862 84.1980 1.148992 54306.00 53643.80 233.04
3863 84.2180 1.148770 54129.00 53692.30 232.66
3864 84.2380 1.148548 53754.00 53745.00 231.85
3865 84.2580 1.148327 54669.00 53806.00 233.81
3866 84.2780 1.148105 54941.00 53873.10 234.40
3867 84.2980 1.147884 55077.00 53945.80 234.68
3868 84.3180 1.147663 54961.00 54022.90 234.44
3869 84.3380 1.147441 55206.00 54105.40 234.96
3870 84.3580 1.147220 54935.00 54192.00 234.38
3871 84.3780 1.146999 54134.00 54281.90 232.67
3872 84.3980 1.146779 55264.00 54374.10 235.08
3873 84.4180 1.146558 55466.00 54467.90 235.51
3874 84.4380 1.146337 55088.00 54562.40 234.71
3875 84.4580 1.146117 54830.00 54654.70 234.16
3876 84.4780 1.145897 57029.00 54747.00 238.81
3877 84.4980 1.145676 57379.00 54834.60 239.54
3878 84.5180 1.145456 57773.00 54918.90 240.36
3879 84.5380 1.145236 57286.00 55001.40 239.35
3880 84.5580 1.145017 56844.00 55078.20 238.42
3881 84.5780 1.144797 56950.00 55148.60 238.64
3882 84.5980 1.144577 57188.00 55211.20 239.14
3883 84.6180 1.144358 57441.00 55265.00 239.67
3884 84.6380 1.144138 57227.00 55308.60 239.22
3885 84.6580 1.143919 56805.00 55341.20 238.34
3886 84.6780 1.143700 56496.00 55361.50 237.69
3887 84.6980 1.143481 56575.00 55368.70 237.85
3888 84.7180 1.143262 56831.00 55360.90 238.39
3889 84.7380 1.143043 56176.00 55340.40 237.01
3890 84.7580 1.142825 57092.00 55305.90 238.94
3891 84.7780 1.142606 56126.00 55259.00 236.91
3892 84.7980 1.142388 55747.00 55200.40 236.11
3893 84.8180 1.142169 55857.00 55131.80 236.34
3894 84.8380 1.141951 55446.00 55054.70 235.47
3895 84.8580 1.141733 54611.00 54971.20 233.69
3896 84.8780 1.141515 54730.00 54883.10 233.94
3897 84.8980 1.141297 54871.00 54792.40 234.25
3898 84.9180 1.141080 55663.00 54700.60 235.93
3899 84.9380 1.140862 55164.00 54609.30 234.87
3900 84.9580 1.140645 54757.00 54519.30 234.00
3901 84.9780 1.140427 54802.00 54432.10 234.10
3902 84.9980 1.140210 54809.00 54348.30 234.11
3903 85.0180 1.139993 54060.00 54268.30 232.51
3904 85.0380 1.139776 52875.00 54192.60 229.95
3905 85.0580 1.139559 52624.00 54121.70 229.40
3906 85.0780 1.139342 52650.00 54056.00 229.46
3907 85.0980 1.139125 53029.00 53995.90 230.28
3908 85.1180 1.138909 52439.00 53941.80 229.00
3909 85.1380 1.138692 52803.00 53894.50 229.79
3910 85.1580 1.138476 52640.00 53854.60 229.43
3911 85.1780 1.138260 52804.00 53822.60 229.79
3912 85.1980 1.138044 53116.00 53799.50 230.47
3913 85.2180 1.137828 52919.00 53785.80 230.04
3914 85.2380 1.137612 52380.00 53782.30 228.87
3915 85.2580 1.137396 51912.00 53789.60 227.84
3916 85.2780 1.137181 51954.00 53808.10 227.93
3917 85.2980 1.136965 51027.00 53838.50 225.89
3918 85.3180 1.136750 51297.00 53881.40 226.49
3919 85.3380 1.136535 51593.00 53936.80 227.14
3920 85.3580 1.136320 51761.00 54004.80 227.51
3921 85.3780 1.136105 52577.00 54084.80 229.30
3922 85.3980 1.135890 52232.00 54182.00 228.54
3923 85.4180 1.135675 51645.00 54284.80 227.26
3924 85.4380 1.135460 52019.00 54397.60 228.08
3925 85.4580 1.135246 52852.00 54518.70 229.90
3926 85.4780 1.135031 52660.00 54646.50 229.48
3927 85.4980 1.134817 52843.00 54774.80 229.88
3928 85.5180 1.134603 51919.00 54910.50 227.86
3929 85.5380 1.134388 52225.00 55047.00 228.53
3930 85.5580 1.134175 53088.00 55182.80 230.41
3931 85.5780 1.133961 53151.00 55316.60 230.54
3932 85.5980 1.133747 53705.00 55447.30 231.74
3933 85.6180 1.133533 54096.00 55574.70 232.59
3934 85.6380 1.133320 53739.00 55699.00 231.82
3935 85.6580 1.133106 53858.00 55821.10 232.07
3936 85.6780 1.132893 54317.00 55942.20 233.06
3937 85.6980 1.132680 54949.00 56063.60 234.41
3938 85.7180 1.132467 53937.00 56186.80 232.24
3939 85.7380 1.132254 53810.00 56312.70 231.97
3940 85.7580 1.132041 54278.00 56439.30 232.98
3941 85.7780 1.131828 55321.00 56571.80 235.20
3942 85.7980 1.131616 54377.00 56706.90 233.19
3943 85.8180 1.131403 54400.00 56843.10 233.24
3944 85.8380 1.131191 55140.00 56978.30 234.82
3945 85.8580 1.130979 55723.00 57110.40 236.06
3946 85.8780 1.130766 55414.00 57236.40 235.40
3947 85.8980 1.130554 54986.00 57359.70 234.49
3948 85.9180 1.130343 55655.00 57467.10 235.91
3949 85.9380 1.130131 55415.00 57556.40 235.40
3950 85.9580 1.129919 55458.00 57627.00 235.49
3951 85.9780 1.129707 55985.00 57675.20 236.61
3952 85.9980 1.129496 56187.00 57696.10 237.04
3953 86.0180 1.129285 55753.00 57690.10 236.12
3954 86.0380 1.129073 56201.00 57653.40 237.07
3955 86.0580 1.128862 55642.00 57584.80 235.89
3956 86.0780 1.128651 55582.00 57484.60 235.76
3957 86.0980 1.128440 55174.00 57354.30 234.89
3958 86.1180 1.128230 54455.00 57196.30 233.36
3959 86.1380 1.128019 55530.00 57014.50 235.65
3960 86.1580 1.127808 55231.00 56812.90 235.01
3961 86.1780 1.127598 54701.00 56595.90 233.88
3962 86.1980 1.127388 54479.00 56368.10 233.41
3963 86.2180 1.127177 54403.00 56133.60 233.24
3964 86.2380 1.126967 53653.00 55896.60 231.63
3965 86.2580 1.126757 53991.00 55659.00 232.36
3966 86.2780 1.126547 54081.00 55424.00 232.55
3967 86.2980 1.126338 54527.00 55193.40 233.51
3968 86.3180 1.126128 53488.00 54968.40 231.27
3969 86.3380 1.125918 53154.00 54750.10 230.55
3970 86.3580 1.125709 52955.00 54539.00 230.12
3971 86.3780 1.125500 53277.00 54335.80 230.82
3972 86.3980 1.125290 52926.00 54140.50 230.06
3973 86.4180 1.125081 52621.00 53953.70 229.39
3974 86.4380 1.124872 53020.00 53776.00 230.26
3975 86.4580 1.124663 52972.00 53606.20 230.16
3976 86.4780 1.124455 53103.00 53446.00 230.44
3977 86.4980 1.124246 52640.00 53295.10 229.43
3978 86.5180 1.124038 53520.00 53154.10 231.34
3979 86.5380 1.123829 53207.00 53023.10 230.67
3980 86.5580 1.123621 52574.00 52902.40 229.29
3981 86.5780 1.123412 52810.00 52791.50 229.80
3982 86.5980 1.123204 52169.00 52692.10 228.40
3983 86.6180 1.122997 51762.00 52603.30 227.51
3984 86.6380 1.122789 51908.00 52525.40 227.83
3985 86.6580 1.122581 52329.00 52459.60 228.76
3986 86.6780 1.122373 52085.00 52403.10 228.22
3987 86.6980 1.122166 51967.00 52357.20 227.96
3988 86.7180 1.121958 51680.00 52321.70 227.33
3989 86.7380 1.121751 52049.00 52296.60 228.14
3990 86.7580 1.121544 52216.00 52281.40 228.51
3991 86.7780 1.121337 53053.00 52276.20 230.33
3992 86.7980 1.121130 52508.00 52280.40 229.15
3993 86.8180 1.120923 52580.00 52293.80 229.30
3994 86.8380 1.120716 52449.00 52315.60 229.02
3995 86.8580 1.120509 52320.00 52344.40 228.74
3996 86.8780 1.120303 51941.00 52381.20 227.91
3997 86.8980 1.120096 52072.00 52424.10 228.19
3998 86.9180 1.119890 52234.00 52476.10 228.55
3999 86.9380 1.119684 52759.00 52533.90 229.69
4000 86.9580 1.119478 52691.00 52596.50 229.54
4001 86.9780 1.119272 52635.00 52663.10 229.42
4002 86.9980 1.119066 53164.00 52732.70 230.57
4003 87.0180 1.118860 53514.00 52804.40 231.33
4004 87.0380 1.118654 53766.00 52877.20 231.88
4005 87.0580 1.118449 53333.00 52950.20 230.94
4006 87.0780 1.118243 53214.00 53022.80 230.68
4007 87.0980 1.118038 54506.00 53094.30 233.46
4008 87.1180 1.117833 54386.00 53163.90 233.21
4009 87.1380 1.117628 53929.00 53231.70 232.23
4010 87.1580 1.117423 53348.00 53297.40 230.97
4011 87.1780 1.117218 54420.00 53360.60 233.28
4012 87.1980 1.117013 54284.00 53421.20 232.99
4013 87.2180 1.116808 54623.00 53483.50 233.72
4014 87.2380 1.116604 54502.00 53538.40 233.46
4015 87.2580 1.116399 53682.00 53590.00 231.69
4016 87.2780 1.116195 54183.00 53637.70 232.77
4017 87.2980 1.115991 54910.00 53680.80 234.33
4018 87.3180 1.115787 54174.00 53718.50 232.75
4019 87.3380 1.115583 54350.00 53749.70 233.13
4020 87.3580 1.115379 55254.00 53773.40 235.06
4021 87.3780 1.115175 54608.00 53788.20 233.68
4022 87.3980 1.114971 54842.00 53793.10 234.18
4023 87.4180 1.114768 53890.00 53786.90 232.14
4024 87.4380 1.114564 53780.00 53768.70 231.90
4025 87.4580 1.114361 53608.00 53737.50 231.53
4026 87.4780 1.114158 53983.00 53692.90 232.34
4027 87.4980 1.113954 53068.00 53634.70 230.37
4028 87.5180 1.113751 53231.00 53562.60 230.72
4029 87.5380 1.113548 52760.00 53477.60 229.70
4030 87.5580 1.113346 53198.00 53380.40 230.65
4031 87.5780 1.113143 52731.00 53271.70 229.63
4032 87.5980 1.112940 53024.00 53152.80 230.27
4033 87.6180 1.112738 53353.00 53025.40 230.98
4034 87.6380 1.112535 52886.00 52891.10 229.97
4035 87.6580 1.112333 53445.00 52751.40 231.18
4036 87.6780 1.112131 52977.00 52609.90 230.17
4037 87.6980 1.111929 53292.00 52464.50 230.85
4038 87.7180 1.111727 52955.00 52318.40 230.12
4039 87.7380 1.111525 51555.00 52173.40 227.06
4040 87.7580 1.111323 51740.00 52030.50 227.46
4041 87.7780 1.111122 52300.00 51889.30 228.69
4042 87.7980 1.110920 51566.00 51754.40 227.08
4043 87.8180 1.110718 51681.00 51625.10 227.34
4044 87.8380 1.110517 51367.00 51502.10 226.64
4045 87.8580 1.110316 52208.00 51386.10 228.49
4046 87.8780 1.110115 51744.00 51277.90 227.47
4047 87.8980 1.109914 51828.00 51177.90 227.66
4048 87.9180 1.109713 51086.00 51086.60 226.02
4049 87.9380 1.109512 51251.00 51004.10 226.39
4050 87.9580 1.109311 50948.00 50929.40 225.72
4051 87.9780 1.109111 51387.00 50864.60 226.69
4052 87.9980 1.108910 51842.00 50809.90 227.69
4053 88.0180 1.108710 51044.00 50764.40 225.93
4054 88.0380 1.108510 50150.00 50728.00 223.94
4055 88.0580 1.108310 50608.00 50700.50 224.96
4056 88.0780 1.108109 51201.00 50681.60 226.28
4057 88.0980 1.107910 51170.00 50670.90 226.21
4058 88.1180 1.107710 51461.00 50667.90 226.85
4059 88.1380 1.107510 50342.00 50672.20 224.37
4060 88.1580 1.107310 50958.00 50682.90 225.74
4061 88.1780 1.107111 50628.00 50699.30 225.01
4062 88.1980 1.106911 50950.00 50720.50 225.72
4063 88.2180 1.106712 50631.00 50745.40 225.01
4064 88.2380 1.106513 51142.00 50772.90 226.15
4065 88.2580 1.106314 50838.00 50801.70 225.47
4066 88.2780 1.106115 50887.00 50830.40 225.58
4067 88.2980 1.105916 51524.00 50858.50 226.99
4068 88.3180 1.105717 51801.00 50884.50 227.60
4069 88.3380 1.105518 50759.00 50907.40 225.30
4070 88.3580 1.105320 50741.00 50926.20 225.26
4071 88.3780 1.105121 50634.00 50939.90 225.02
4072 88.3980 1.104923 51479.00 50947.80 226.89
4073 88.4180 1.104725 51970.00 50948.80 227.97
4074 88.4380 1.104527 51197.00 50942.70 226.27
4075 88.4580 1.104329 51271.00 50928.70 226.43
4076 88.4780 1.104131 51318.00 50906.50 226.54
4077 88.4980 1.103933 51198.00 50877.70 226.27
4078 88.5180 1.103735 51358.00 50838.30 226.62
4079 88.5380 1.103537 51557.00 50792.10 227.06
4080 88.5580 1.103340 50845.00 50739.60 225.49
4081 88.5780 1.103142 51102.00 50681.80 226.06
4082 88.5980 1.102945 51120.00 50620.60 226.10
4083 88.6180 1.102748 51117.00 50557.10 226.09
4084 88.6380 1.102551 51182.00 50494.70 226.23
4085 88.6580 1.102354 51893.00 50433.70 227.80
4086 88.6780 1.102157 51686.00 50376.90 227.35
4087 88.6980 1.101960 52191.00 50324.70 228.45
4088 88.7180 1.101763 51706.00 50279.50 227.39
4089 88.7380 1.101567 51939.00 50240.50 227.90
4090 88.7580 1.101370 51554.00 50208.70 227.05
4091 88.7780 1.101174 51826.00 50184.60 227.65
4092 88.7980 1.100978 51728.00 50167.90 227.44
4093 88.8180 1.100781 51592.00 50158.70 227.14
4094 88.8380 1.100585 51113.00 50156.30 226.08
4095 88.8580 1.100389 51662.00 50160.50 227.29
4096 88.8780 1.100194 51477.00 50171.70 226.88
4097 88.8980 1.099998 51769.00 50187.00 227.53
4098 88.9180 1.099802 51665.00 50207.00 227.30
4099 88.9380 1.099607 52409.00 50231.30 228.93
4100 88.9580 1.099411 51496.00 50258.60 226.93
4101 88.9780 1.099216 52143.00 50290.30 228.35
4102 88.9980 1.099020 52464.00 50325.60 229.05
4103 89.0180 1.098825 52554.00 50364.50 229.25
4104 89.0380 1.098630 52621.00 50407.30 229.39
4105 89.0580 1.098435 51880.00 50454.10 227.77
4106 89.0780 1.098240 51931.00 50505.40 227.88
4107 89.0980 1.098046 50863.00 50561.40 225.53
4108 89.1180 1.097851 52166.00 50622.30 228.40
4109 89.1380 1.097657 52137.00 50688.50 228.34
4110 89.1580 1.097462 52286.00 50757.40 228.66
4111 89.1780 1.097268 52536.00 50834.10 229.21
4112 89.1980 1.097074 52481.00 50916.10 229.09
4113 89.2180 1.096879 52098.00 51003.10 228.25
4114 89.2380 1.096686 53783.00 51094.90 231.91
4115 89.2580 1.096491 52634.00 51191.10 229.42
4116 89.2780 1.096298 53317.00 51294.20 230.90
4117 89.2980 1.096104 53641.00 51398.00 231.60
4118 89.3180 1.095910 53943.00 51504.40 232.26
4119 89.3380 1.095717 53048.00 51612.70 230.32
4120 89.3580 1.095523 53803.00 51721.60 231.96
4121 89.3780 1.095330 53212.00 51829.80 230.68
4122 89.3980 1.095137 53267.00 51935.50 230.80
4123 89.4180 1.094944 53754.00 52036.80 231.85
4124 89.4380 1.094751 54286.00 52131.50 232.99
4125 89.4580 1.094558 54551.00 52214.50 233.56
4126 89.4780 1.094365 54446.00 52288.60 233.34
4127 89.4980 1.094172 54817.00 52349.00 234.13
4128 89.5180 1.093980 55182.00 52393.60 234.91
4129 89.5380 1.093787 54374.00 52421.90 233.18
4130 89.5580 1.093595 53789.00 52432.40 231.93
4131 89.5780 1.093403 54465.00 52424.40 233.38
4132 89.5980 1.093211 55042.00 52398.30 234.61
4133 89.6180 1.093018 56042.00 52354.90 236.73
4134 89.6380 1.092826 54388.00 52295.40 233.21
4135 89.6580 1.092635 54986.00 52221.40 234.49
4136 89.6780 1.092443 55029.00 52134.50 234.58
4137 89.6980 1.092251 55262.00 52036.40 235.08
4138 89.7180 1.092059 53558.00 51928.90 231.43
4139 89.7380 1.091868 54029.00 51813.40 232.44
4140 89.7580 1.091676 54626.00 51689.80 233.72
4141 89.7780 1.091485 54349.00 51562.40 233.13
4142 89.7980 1.091294 54020.00 51431.10 232.42
4143 89.8180 1.091103 54014.00 51296.90 232.41
4144 89.8380 1.090912 54354.00 51161.30 233.14
4145 89.8580 1.090721 53831.00 51025.40 232.01
4146 89.8780 1.090530 54367.00 50890.50 233.17
4147 89.8980 1.090340 54383.00 50757.80 233.20
4148 89.9180 1.090149 54076.00 50628.50 232.54
4149 89.9380 1.089959 53155.00 50503.60 230.55
4150 89.9580 1.089768 53143.00 50382.20 230.53
4151 89.9780 1.089578 52710.00 50268.50 229.59
4152 89.9980 1.089388 51684.00 50161.40 227.34
4153 90.0180 1.089198 51804.00 50061.10 227.60
4154 90.0380 1.089008 50663.00 49967.30 225.08
4155 90.0580 1.088818 50584.00 49880.20 224.91
4156 90.0780 1.088628 50423.00 49799.10 224.55
4157 90.0980 1.088438 50040.00 49723.30 223.70
4158 90.1180 1.088249 50051.00 49651.70 223.72
4159 90.1380 1.088059 50154.00 49583.20 223.95
4160 90.1580 1.087870 49992.00 49516.50 223.59
4161 90.1780 1.087680 50054.00 49450.10 223.73
4162 90.1980 1.087491 49235.00 49382.90 221.89
4163 90.2180 1.087302 49529.00 49313.70 222.55
4164 90.2380 1.087113 48914.00 49241.50 221.16
4165 90.2580 1.086924 49248.00 49163.80 221.92
4166 90.2780 1.086735 49604.00 49084.40 222.72
4167 90.2980 1.086547 48642.00 49001.50 220.55
4168 90.3180 1.086358 48998.00 48914.50 221.35
4169 90.3380 1.086170 48444.00 48826.40 220.10
4170 90.3580 1.085981 48324.00 48735.60 219.83
4171 90.3780 1.085793 48783.00 48648.40 220.87
4172 90.3980 1.085605 49299.00 48559.30 222.03
4173 90.4180 1.085417 48513.00 48467.60 220.26
4174 90.4380 1.085229 47805.00 48381.40 218.64
4175 90.4580 1.085041 47679.00 48296.50 218.35
4176 90.4780 1.084853 48556.00 48213.80 220.35
4177 90.4980 1.084665 48511.00 48132.70 220.25
4178 90.5180 1.084478 48184.00 48052.90 219.51
4179 90.5380 1.084290 47968.00 47973.90 219.02
4180 90.5580 1.084103 48229.00 47901.90 219.61
4181 90.5780 1.083915 48025.00 47824.30 219.15
4182 90.5980 1.083728 48160.00 47747.30 219.45
4183 90.6180 1.083541 47553.00 47671.20 218.07
4184 90.6380 1.083354 47018.00 47596.60 216.84
4185 90.6580 1.083167 47135.00 47524.10 217.11
4186 90.6780 1.082980 46690.00 47453.90 216.08
4187 90.6980 1.082793 46694.00 47387.10 216.09
4188 90.7180 1.082607 46974.00 47324.10 216.74
4189 90.7380 1.082420 46654.00 47265.20 215.99
4190 90.7580 1.082234 46273.00 47211.20 215.11
4191 90.7780 1.082047 46778.00 47162.20 216.28
4192 90.7980 1.081861 45971.00 47118.40 214.41
4193 90.8180 1.081675 46530.00 47080.10 215.71
4194 90.8380 1.081489 47217.00 47047.10 217.29
4195 90.8580 1.081303 46754.00 47019.60 216.23
4196 90.8780 1.081117 46536.00 46997.40 215.72
4197 90.8980 1.080931 46765.00 46980.40 216.25
4198 90.9180 1.080746 46396.00 46968.60 215.40
4199 90.9380 1.080560 45338.00 46961.70 212.93
4200 90.9580 1.080374 45369.00 46965.50 213.00
4201 90.9780 1.080189 46049.00 46967.70 214.59
4202 90.9980 1.080004 45512.00 46973.90 213.34
4203 91.0180 1.079819 46297.00 46983.70 215.17
4204 91.0380 1.079633 46054.00 46996.30 214.60
4205 91.0580 1.079448 45928.00 47011.20 214.31
4206 91.0780 1.079264 45997.00 47027.50 214.47
4207 91.0980 1.079079 45288.00 47044.10 212.81
4208 91.1180 1.078894 45072.00 47060.00 212.30
4209 91.1380 1.078709 44776.00 47074.10 211.60
4210 91.1580 1.078525 44596.00 47084.70 211.18
4211 91.1780 1.078341 45203.00 47091.70 212.61
4212 91.1980 1.078156 45664.00 47093.80 213.69
4213 91.2180 1.077972 46050.00 47090.30 214.59
4214 91.2380 1.077788 45442.00 47081.00 213.17
4215 91.2580 1.077604 45494.00 47065.90 213.29
4216 91.2780 1.077420 45008.00 47045.10 212.15
4217 91.2980 1.077236 46260.00 47019.20 215.08
4218 91.3180 1.077052 45504.00 46989.10 213.32
4219 91.3380 1.076869 45452.00 46953.70 213.20
4220 91.3580 1.076685 45453.00 46918.00 213.20
4221 91.3780 1.076501 45454.00 46881.00 213.20
4222 91.3980 1.076318 45632.00 46843.90 213.62
4223 91.4180 1.076135 45446.00 46807.80 213.18
4224 91.4380 1.075952 45272.00 46773.60 212.77
4225 91.4580 1.075769 45494.00 46742.30 213.29
4226 91.4780 1.075586 45343.00 46726.10 212.94
4227 91.4980 1.075403 45169.00 46703.00 212.53
4228 91.5180 1.075220 45119.00 46684.80 212.41
4229 91.5380 1.075037 45223.00 46671.80 212.66
4230 91.5580 1.074855 44565.00 46664.70 211.10
4231 91.5780 1.074672 44640.00 46663.40 211.28
4232 91.5980 1.074490 44972.00 46668.00 212.07
4233 91.6180 1.074307 44937.00 46678.40 211.98
4234 91.6380 1.074125 45475.00 46694.20 213.25
4235 91.6580 1.073943 45623.00 46715.00 213.60
4236 91.6780 1.073761 45341.00 46740.40 212.93
4237 91.6980 1.073579 45690.00 46769.80 213.75
4238 91.7180 1.073397 45374.00 46802.60 213.01
4239 91.7380 1.073215 45544.00 46838.00 213.41
4240 91.7580 1.073034 45730.00 46875.40 213.85
4241 91.7780 1.072852 44866.00 46914.60 211.82
4242 91.7980 1.072671 45717.00 46955.10 213.82
4243 91.8180 1.072489 45554.00 46996.60 213.43
4244 91.8380 1.072308 44748.00 47039.00 211.54
4245 91.8580 1.072127 45666.00 47082.10 213.70
4246 91.8780 1.071946 45890.00 47125.90 214.22
4247 91.8980 1.071765 46101.00 47170.00 214.71
4248 91.9180 1.071584 46008.00 47214.20 214.49
4249 91.9380 1.071403 45766.00 47257.90 213.93
4250 91.9580 1.071222 46374.00 47300.20 215.35
4251 91.9780 1.071042 46442.00 47340.10 215.50
4252 91.9980 1.070861 45828.00 47376.40 214.07
4253 92.0180 1.070681 46342.00 47407.50 215.27
4254 92.0380 1.070500 47235.00 47432.00 217.34
4255 92.0580 1.070320 46479.00 47448.60 215.59
4256 92.0780 1.070140 46659.00 47455.90 216.01
4257 92.0980 1.069960 46754.00 47452.80 216.23
4258 92.1180 1.069780 47703.00 47439.00 218.41
4259 92.1380 1.069600 47447.00 47414.20 217.82
4260 92.1580 1.069420 47182.00 47378.50 217.21
4261 92.1780 1.069240 46914.00 47332.60 216.60
4262 92.1980 1.069061 47231.00 47277.50 217.33
4263 92.2180 1.068881 47415.00 47214.70 217.75
4264 92.2380 1.068702 47237.00 47145.50 217.34
4265 92.2580 1.068522 47366.00 47072.10 217.64
4266 92.2780 1.068343 46211.00 46996.10 214.97
4267 92.2980 1.068164 46174.00 46919.10 214.88
4268 92.3180 1.067985 46434.00 46843.10 215.49
4269 92.3380 1.067806 46892.00 46768.90 216.55
4270 92.3580 1.067627 46538.00 46700.30 215.73
4271 92.3780 1.067448 46650.00 46635.50 215.99
4272 92.3980 1.067270 46434.00 46576.30 215.49
4273 92.4180 1.067091 46742.00 46524.10 216.20
4274 92.4380 1.066913 46313.00 46478.40 215.21
4275 92.4580 1.066734 46776.00 46441.20 216.28
4276 92.4780 1.066556 46788.00 46412.00 216.30
4277 92.4980 1.066378 46149.00 46390.90 214.82
4278 92.5180 1.066200 45399.00 46378.00 213.07
4279 92.5380 1.066022 46018.00 46373.40 214.52
4280 92.5580 1.065844 45834.00 46378.00 214.09
4281 92.5780 1.065666 45332.00 46389.70 212.91
4282 92.5980 1.065488 45989.00 46409.40 214.45
4283 92.6180 1.065310 45971.00 46436.00 214.41
4284 92.6380 1.065133 45902.00 46472.00 214.25
4285 92.6580 1.064955 45509.00 46516.30 213.33
4286 92.6780 1.064778 45412.00 46569.10 213.10
4287 92.6980 1.064601 45713.00 46630.50 213.81
4288 92.7180 1.064423 46277.00 46700.70 215.12
4289 92.7380 1.064246 45928.00 46779.90 214.31
4290 92.7580 1.064069 46187.00 46867.90 214.91
4291 92.7780 1.063892 45381.00 46964.80 213.03
4292 92.7980 1.063715 45755.00 47070.00 213.90
4293 92.8180 1.063539 46210.00 47183.00 214.96
4294 92.8380 1.063362 46813.00 47303.10 216.36
4295 92.8580 1.063185 46894.00 47424.40 216.55
4296 92.8780 1.063009 47246.00 47554.90 217.36
4297 92.8980 1.062833 46777.00 47688.30 216.28
4298 92.9180 1.062656 47176.00 47820.20 217.20
4299 92.9380 1.062480 46757.00 47953.20 216.23
4300 92.9580 1.062304 46708.00 48082.50 216.12
4301 92.9780 1.062128 48182.00 48205.80 219.50
4302 92.9980 1.061952 48854.00 48320.80 221.03
4303 93.0180 1.061776 48123.00 48425.50 219.37
4304 93.0380 1.061600 48689.00 48518.20 220.66
4305 93.0580 1.061425 47627.00 48597.20 218.24
4306 93.0780 1.061249 48311.00 48662.00 219.80
4307 93.0980 1.061074 47923.00 48711.80 218.91
4308 93.1180 1.060898 48602.00 48746.50 220.46
4309 93.1380 1.060723 48730.00 48766.30 220.75
4310 93.1580 1.060548 48080.00 48771.80 219.27
4311 93.1780 1.060373 48516.00 48758.20 220.26
4312 93.1980 1.060198 48875.00 48737.10 221.08
4313 93.2180 1.060023 48947.00 48704.60 221.24
4314 93.2380 1.059848 48853.00 48660.00 221.03
4315 93.2580 1.059673 49425.00 48605.00 222.32
4316 93.2780 1.059498 49065.00 48540.50 221.51
4317 93.2980 1.059324 49074.00 48467.20 221.53
4318 93.3180 1.059149 49061.00 48386.00 221.50
4319 93.3380 1.058975 48527.00 48305.90 220.29
4320 93.3580 1.058800 48623.00 48210.40 220.51
4321 93.3780 1.058626 49200.00 48108.40 221.81
4322 93.3980 1.058452 49181.00 48000.70 221.77
4323 93.4180 1.058278 48482.00 47887.80 220.19
4324 93.4380 1.058104 48713.00 47770.00 220.71
4325 93.4580 1.057930 48080.00 47648.10 219.27
4326 93.4780 1.057757 48596.00 47522.80 220.45
4327 93.4980 1.057583 48132.00 47395.00 219.39
4328 93.5180 1.057409 47742.00 47265.50 218.50
4329 93.5380 1.057236 47934.00 47135.30 218.94
4330 93.5580 1.057062 48065.00 47005.60 219.24
4331 93.5780 1.056889 47496.00 46877.10 217.94
4332 93.5980 1.056716 46981.00 46751.10 216.75
4333 93.6180 1.056543 47487.00 46628.10 217.91
4334 93.6380 1.056369 46952.00 46508.90 216.68
4335 93.6580 1.056197 46462.00 46393.60 215.55
4336 93.6780 1.056024 46895.00 46283.20 216.55
4337 93.6980 1.055851 47759.00 46177.70 218.54
4338 93.7180 1.055678 47251.00 46077.00 217.37
4339 93.7380 1.055506 46376.00 45981.10 215.35
4340 93.7580 1.055333 46311.00 45889.70 215.20
4341 93.7780 1.055161 46516.00 45802.80 215.68
4342 93.7980 1.054988 46689.00 45720.10 216.08
4343 93.8180 1.054816 46665.00 45641.20 216.02
4344 93.8380 1.054644 46097.00 45565.70 214.70
4345 93.8580 1.054472 45669.00 45491.40 213.70
4346 93.8780 1.054300 46079.00 45421.90 214.66
4347 93.8980 1.054128 45201.00 45354.90 212.60
4348 93.9180 1.053956 45717.00 45290.10 213.82
4349 93.9380 1.053784 45601.00 45227.40 213.54
4350 93.9580 1.053612 45596.00 45166.60 213.53
4351 93.9780 1.053441 45422.00 45107.60 213.12
4352 93.9980 1.053270 45989.00 45050.40 214.45
4353 94.0180 1.053098 45551.00 44995.20 213.43
4354 94.0380 1.052927 45626.00 44943.60 213.60
4355 94.0580 1.052755 46177.00 44892.80 214.89
4356 94.0780 1.052584 44851.00 44844.60 211.78
4357 94.0980 1.052413 44972.00 44799.10 212.07
4358 94.1180 1.052243 45085.00 44756.80 212.33
4359 94.1380 1.052072 45535.00 44717.70 213.39
4360 94.1580 1.051901 45463.00 44682.20 213.22
4361 94.1780 1.051730 45799.00 44649.80 214.01
4362 94.1980 1.051560 45218.00 44621.60 212.65
4363 94.2180 1.051389 45720.00 44597.10 213.82
4364 94.2380 1.051219 45257.00 44576.30 212.74
4365 94.2580 1.051048 44500.00 44559.10 210.95
4366 94.2780 1.050878 44678.00 44545.30 211.37
4367 94.2980 1.050708 45085.00 44534.80 212.33
4368 94.3180 1.050538 45206.00 44527.20 212.62
4369 94.3380 1.050368 44138.00 44522.40 210.09
4370 94.3580 1.050198 44290.00 44520.20 210.45
4371 94.3780 1.050028 44057.00 44520.20 209.90
4372 94.3980 1.049858 44566.00 44529.50 211.11
4373 94.4180 1.049689 44197.00 44533.90 210.23
4374 94.4380 1.049519 44408.00 44540.20 210.73
4375 94.4580 1.049350 43583.00 44548.70 208.76
4376 94.4780 1.049180 44526.00 44559.30 211.01
4377 94.4980 1.049011 43867.00 44572.10 209.45
4378 94.5180 1.048842 44233.00 44587.40 210.32
4379 94.5380 1.048673 44744.00 44605.20 211.53
4380 94.5580 1.048504 44729.00 44625.70 211.49
4381 94.5780 1.048335 44206.00 44648.90 210.25
4382 94.5980 1.048166 44308.00 44675.00 210.49
4383 94.6180 1.047997 44092.00 44703.90 209.98
4384 94.6380 1.047828 44729.00 44735.40 211.49
4385 94.6580 1.047660 43990.00 44769.90 209.74
4386 94.6780 1.047491 44184.00 44807.00 210.20
4387 94.6980 1.047323 44088.00 44846.80 209.97
4388 94.7180 1.047154 44666.00 44888.70 211.34
4389 94.7380 1.046986 43440.00 44932.80 208.42
4390 94.7580 1.046818 44247.00 44978.70 210.35
4391 94.7780 1.046650 43789.00 45025.90 209.26
4392 94.7980 1.046482 43908.00 45074.10 209.54
4393 94.8180 1.046314 44217.00 45122.70 210.28
4394 94.8380 1.046146 44478.00 45170.90 210.90
4395 94.8580 1.045979 45466.00 45218.00 213.23
4396 94.8780 1.045811 45590.00 45263.10 213.52
4397 94.8980 1.045643 45891.00 45311.00 214.22
4398 94.9180 1.045476 45339.00 45349.10 212.93
4399 94.9380 1.045308 45105.00 45382.10 212.38
4400 94.9580 1.045141 44923.00 45409.10 211.95
4401 94.9780 1.044974 45027.00 45429.10 212.20
4402 94.9980 1.044807 44886.00 45441.40 211.86
4403 95.0180 1.044640 45161.00 45445.50 212.51
4404 95.0380 1.044473 44552.00 45440.70 211.07
4405 95.0580 1.044306 44722.00 45428.00 211.48
4406 95.0780 1.044139 45097.00 45407.20 212.36
4407 95.0980 1.043972 44747.00 45378.80 211.54
4408 95.1180 1.043806 44816.00 45344.00 211.70
4409 95.1380 1.043639 44612.00 45303.70 211.22
4410 95.1580 1.043473 44525.00 45259.20 211.01
4411 95.1780 1.043306 44973.00 45211.60 212.07
4412 95.1980 1.043140 45261.00 45162.30 212.75
4413 95.2180 1.042974 44749.00 45112.50 211.54
4414 95.2380 1.042808 44644.00 45063.40 211.29
4415 95.2580 1.042642 44395.00 45015.90 210.70
4416 95.2780 1.042476 45214.00 44970.90 212.64
4417 95.2980 1.042310 44589.00 44927.40 211.16
4418 95.3180 1.042144 44242.00 44888.90 210.34
4419 95.3380 1.041978 44604.00 44854.20 211.20
4420 95.3580 1.041813 44850.00 44823.30 211.78
4421 95.3780 1.041647 44354.00 44796.20 210.60
4422 95.3980 1.041482 44162.00 44772.80 210.15
4423 95.4180 1.041316 44556.00 44752.80 211.08
4424 95.4380 1.041151 44645.00 44733.60 211.29
4425 95.4580 1.040986 44491.00 44719.60 210.93
4426 95.4780 1.040821 44469.00 44707.30 210.88
4427 95.4980 1.040656 44068.00 44697.90 209.92
4428 95.5180 1.040491 44527.00 44690.30 211.01
4429 95.5380 1.040326 43829.00 44684.30 209.35
4430 95.5580 1.040161 43646.00 44679.70 208.92
4431 95.5780 1.039996 43907.00 44678.80 209.54
4432 95.5980 1.039832 44608.00 44676.50 211.21
4433 95.6180 1.039667 44633.00 44675.30 211.26
4434 95.6380 1.039503 44453.00 44674.60 210.84
4435 95.6580 1.039338 44100.00 44674.50 210.00
4436 95.6780 1.039174 43776.00 44674.60 209.23
4437 95.6980 1.039010 44164.00 44674.50 210.15
4438 95.7180 1.038846 44688.00 44673.60 211.40
4439 95.7380 1.038682 44465.00 44671.40 210.87
4440 95.7580 1.038518 44240.00 44667.20 210.33
4441 95.7780 1.038354 43884.00 44660.40 209.49
4442 95.7980 1.038190 44748.00 44650.30 211.54
4443 95.8180 1.038027 44624.00 44636.40 211.24
4444 95.8380 1.037863 44982.00 44618.20 212.09
4445 95.8580 1.037699 45010.00 44595.40 212.16
4446 95.8780 1.037536 44374.00 44567.70 210.65
4447 95.8980 1.037373 44417.00 44535.40 210.75
4448 95.9180 1.037209 44889.00 44498.60 211.87
4449 95.9380 1.037046 44553.00 44460.40 211.08
4450 95.9580 1.036883 44775.00 44416.00 211.60
4451 95.9780 1.036720 45593.00 44368.70 213.52
4452 95.9980 1.036557 45378.00 44318.30 213.02
4453 96.0180 1.036394 46044.00 44267.50 214.58
4454 96.0380 1.036232 45538.00 44215.80 213.40
4455 96.0580 1.036069 45901.00 44164.10 214.24
4456 96.0780 1.035906 46235.00 44112.50 215.02
4457 96.0980 1.035744 46367.00 44062.50 215.33
4458 96.1180 1.035581 46128.00 44013.90 214.77
4459 96.1380 1.035419 46366.00 43973.10 215.33
4460 96.1580 1.035257 45993.00 43928.80 214.46
4461 96.1780 1.035094 45840.00 43885.80 214.10
4462 96.1980 1.034932 45661.00 43846.70 213.68
4463 96.2180 1.034770 45160.00 43810.30 212.51
4464 96.2380 1.034608 45637.00 43776.80 213.63
4465 96.2580 1.034446 45258.00 43746.20 212.74
4466 96.2780 1.034285 45034.00 43718.00 212.21
4467 96.2980 1.034123 44863.00 43693.30 211.81
4468 96.3180 1.033961 44802.00 43671.50 211.66
4469 96.3380 1.033800 45007.00 43652.60 212.15
4470 96.3580 1.033638 44603.00 43636.50 211.19
4471 96.3780 1.033477 44547.00 43621.00 211.06
4472 96.3980 1.033316 44480.00 43610.40 210.90
4473 96.4180 1.033154 44626.00 43602.50 211.25
4474 96.4380 1.032993 44428.00 43597.30 210.78
4475 96.4580 1.032832 43649.00 43593.90 208.92
4476 96.4780 1.032671 43911.00 43593.60 209.55
4477 96.4980 1.032510 44313.00 43595.80 210.51
4478 96.5180 1.032350 43944.00 43600.40 209.63
4479 96.5380 1.032189 43665.00 43607.30 208.96
4480 96.5580 1.032028 43531.00 43616.50 208.64
4481 96.5780 1.031868 43801.00 43627.90 209.29
4482 96.5980 1.031707 43558.00 43640.40 208.71
4483 96.6180 1.031547 43660.00 43656.20 208.95
4484 96.6380 1.031386 43861.00 43678.60 209.43
4485 96.6580 1.031226 43630.00 43698.60 208.88
4486 96.6780 1.031066 43987.00 43720.70 209.73
4487 96.6980 1.030906 44328.00 43744.80 210.54
4488 96.7180 1.030746 44371.00 43770.90 210.64
4489 96.7380 1.030586 43728.00 43798.60 209.11
4490 96.7580 1.030426 43716.00 43828.60 209.08
4491 96.7780 1.030267 43511.00 43860.20 208.59
4492 96.7980 1.030107 43964.00 43893.70 209.68
4493 96.8180 1.029947 43350.00 43928.80 208.21
4494 96.8380 1.029788 42818.00 43965.30 206.93
4495 96.8580 1.029628 43256.00 44001.50 207.98
4496 96.8780 1.029469 43123.00 44040.00 207.66
4497 96.8980 1.029310 43093.00 44080.30 207.59
4498 96.9180 1.029150 43459.00 44121.40 208.47
4499 96.9380 1.028991 43269.00 44163.10 208.01
4500 96.9580 1.028832 43293.00 44205.30 208.07
4501 96.9780 1.028673 43924.00 44247.70 209.58
4502 96.9980 1.028515 43636.00 44290.10 208.89
4503 97.0180 1.028356 43507.00 44332.40 208.58
4504 97.0380 1.028197 42922.00 44374.30 207.18
4505 97.0580 1.028039 42913.00 44415.80 207.15
4506 97.0780 1.027880 43149.00 44456.70 207.72
4507 97.0980 1.027721 43805.00 44496.90 209.30
4508 97.1180 1.027563 43838.00 44536.90 209.38
4509 97.1380 1.027405 44123.00 44575.70 210.05
4510 97.1580 1.027247 43338.00 44615.00 208.18
4511 97.1780 1.027088 44069.00 44654.00 209.93
4512 97.1980 1.026930 43855.00 44693.70 209.42
4513 97.2180 1.026772 43291.00 44734.00 208.07
4514 97.2380 1.026614 44893.00 44775.20 211.88
4515 97.2580 1.026457 44823.00 44817.60 211.71
4516 97.2780 1.026299 44927.00 44861.40 211.96
4517 97.2980 1.026141 44939.00 44907.00 211.99
4518 97.3180 1.025984 44173.00 44954.60 210.17
4519 97.3380 1.025826 45083.00 45004.40 212.33
4520 97.3580 1.025669 45332.00 45059.70 212.91
4521 97.3780 1.025511 45621.00 45114.40 213.59
4522 97.3980 1.025354 45815.00 45171.90 214.04
4523 97.4180 1.025197 45592.00 45232.10 213.52
4524 97.4380 1.025040 45621.00 45293.30 213.59
4525 97.4580 1.024883 45325.00 45359.40 212.90
4526 97.4780 1.024726 46405.00 45428.50 215.42
4527 97.4980 1.024569 45854.00 45500.70 214.13
4528 97.5180 1.024412 45662.00 45576.10 213.69
4529 97.5380 1.024256 46184.00 45654.60 214.90
4530 97.5580 1.024099 46122.00 45736.30 214.76
4531 97.5780 1.023942 45931.00 45821.20 214.32
4532 97.5980 1.023786 47220.00 45909.60 217.30
4533 97.6180 1.023629 46703.00 46001.20 216.11
4534 97.6380 1.023473 46354.00 46095.80 215.30
4535 97.6580 1.023317 46827.00 46192.40 216.40
4536 97.6780 1.023161 46602.00 46293.40 215.88
4537 97.6980 1.023005 46607.00 46397.20 215.89
4538 97.7180 1.022849 46958.00 46503.40 216.70
4539 97.7380 1.022693 46436.00 46611.60 215.49
4540 97.7580 1.022537 46865.00 46721.50 216.48
4541 97.7780 1.022381 47617.00 46832.50 218.21
4542 97.7980 1.022225 47889.00 46944.10 218.84
4543 97.8180 1.022070 47487.00 47056.00 217.91
4544 97.8380 1.021914 47432.00 47167.20 217.79
4545 97.8580 1.021759 47676.00 47277.70 218.35
4546 97.8780 1.021604 47796.00 47386.80 218.62
4547 97.8980 1.021448 48228.00 47494.40 219.61
4548 97.9180 1.021293 47571.00 47599.90 218.11
4549 97.9380 1.021138 47904.00 47703.30 218.87
4550 97.9580 1.020983 47288.00 47804.40 217.46
4551 97.9780 1.020828 47475.00 47903.00 217.89
4552 97.9980 1.020673 47848.00 47999.20 218.74
4553 98.0180 1.020518 48280.00 48091.90 219.73
4554 98.0380 1.020363 48229.00 48183.20 219.61
4555 98.0580 1.020209 48007.00 48271.80 219.10
4556 98.0780 1.020054 48863.00 48357.70 221.05
4557 98.0980 1.019900 48887.00 48440.80 221.10
4558 98.1180 1.019745 49181.00 48520.90 221.77
4559 98.1380 1.019591 49118.00 48597.70 221.63
4560 98.1580 1.019437 48773.00 48670.90 220.85
4561 98.1780 1.019282 49085.00 48740.20 221.55
4562 98.1980 1.019128 49322.00 48803.90 222.09
4563 98.2180 1.018974 49179.00 48864.10 221.76
4564 98.2380 1.018820 49518.00 48919.30 222.53
4565 98.2580 1.018666 49133.00 48968.70 221.66
4566 98.2780 1.018512 49927.00 49012.10 223.44
4567 98.2980 1.018359 49459.00 49048.70 222.39
4568 98.3180 1.018205 50094.00 49077.90 223.82
4569 98.3380 1.018052 50160.00 49099.10 223.96
4570 98.3580 1.017898 49505.00 49115.30 222.50
4571 98.3780 1.017745 49554.00 49117.10 222.61
4572 98.3980 1.017591 50198.00 49109.60 224.05
4573 98.4180 1.017438 50526.00 49091.10 224.78
4574 98.4380 1.017285 50065.00 49061.20 223.75
4575 98.4580 1.017132 49911.00 49019.60 223.41
4576 98.4780 1.016979 49755.00 48966.60 223.06
4577 98.4980 1.016826 49820.00 48902.50 223.20
4578 98.5180 1.016673 49568.00 48828.00 222.64
4579 98.5380 1.016520 49264.00 48744.40 221.96
4580 98.5580 1.016367 49495.00 48652.80 222.48
4581 98.5780 1.016215 49952.00 48554.90 223.50
4582 98.5980 1.016062 49482.00 48452.10 222.45
4583 98.6180 1.015910 49457.00 48345.60 222.39
4584 98.6380 1.015757 49055.00 48238.00 221.48
4585 98.6580 1.015605 48537.00 48130.20 220.31
4586 98.6780 1.015453 48795.00 48023.40 220.90
4587 98.6980 1.015300 48448.00 47918.90 220.11
4588 98.7180 1.015148 48358.00 47817.50 219.90
4589 98.7380 1.014996 48194.00 47720.10 219.53
4590 98.7580 1.014844 47630.00 47627.10 218.24
4591 98.7780 1.014692 47518.00 47539.00 217.99
4592 98.7980 1.014541 47960.00 47455.80 219.00
4593 98.8180 1.014389 48064.00 47377.70 219.24
4594 98.8380 1.014237 47638.00 47304.40 218.26
4595 98.8580 1.014086 47344.00 47235.80 217.59
4596 98.8780 1.013934 46603.00 47171.60 215.88
4597 98.8980 1.013783 46451.00 47111.40 215.52
4598 98.9180 1.013631 46147.00 47054.40 214.82
4599 98.9380 1.013480 45821.00 47001.00 214.06
4600 98.9580 1.013329 46016.00 46950.50 214.51
4601 98.9780 1.013178 46084.00 46902.40 214.67
4602 98.9980 1.013027 46091.00 46856.80 214.69
4603 99.0180 1.012876 46458.00 46813.20 215.54
4604 99.0380 1.012725 45182.00 46771.30 212.56
4605 99.0580 1.012574 44639.00 46730.90 211.28
4606 99.0780 1.012423 45211.00 46691.60 212.63
4607 99.0980 1.012272 45477.00 46653.10 213.25
4608 99.1180 1.012122 45438.00 46615.00 213.16
4609 99.1380 1.011971 46071.00 46580.50 214.64
4610 99.1580 1.011821 45346.00 46542.10 212.95
4611 99.1780 1.011670 45008.00 46502.10 212.15
4612 99.1980 1.011520 44708.00 46461.80 211.44
4613 99.2180 1.011370 45269.00 46419.80 212.76
4614 99.2380 1.011220 45497.00 46375.80 213.30
4615 99.2580 1.011070 45016.00 46329.50 212.17
4616 99.2780 1.010920 45021.00 46280.70 212.18
4617 99.2980 1.010770 45110.00 46227.60 212.39
4618 99.3180 1.010620 45388.00 46173.00 213.04
4619 99.3380 1.010470 45241.00 46115.20 212.70
4620 99.3580 1.010321 45218.00 46054.50 212.65
4621 99.3780 1.010171 44659.00 45990.70 211.33
4622 99.3980 1.010021 44938.00 45923.90 211.99
4623 99.4180 1.009872 44703.00 45854.30 211.43
4624 99.4380 1.009723 44937.00 45782.20 211.98
4625 99.4580 1.009573 44580.00 45708.80 211.14
4626 99.4780 1.009424 44089.00 45631.80 209.97
4627 99.4980 1.009275 43532.00 45552.80 208.64
4628 99.5180 1.009126 44489.00 45471.90 210.92
4629 99.5380 1.008977 44516.00 45389.10 210.99
4630 99.5580 1.008828 44525.00 45304.80 211.01
4631 99.5780 1.008679 44452.00 45218.80 210.84
4632 99.5980 1.008530 43674.00 45132.40 208.98
4633 99.6180 1.008381 44534.00 45043.50 211.03
4634 99.6380 1.008233 44187.00 44953.40 210.21
4635 99.6580 1.008084 44260.00 44862.20 210.38
4636 99.6780 1.007936 44648.00 44769.70 211.30
4637 99.6980 1.007787 44394.00 44676.10 210.70
4638 99.7180 1.007639 44529.00 44581.60 211.02
4639 99.7380 1.007491 45076.00 44486.10 212.31
4640 99.7580 1.007342 43696.00 44389.70 209.04
4641 99.7780 1.007194 43822.00 44292.20 209.34
4642 99.7980 1.007046 43828.00 44193.40 209.35
4643 99.8180 1.006898 44332.00 44093.00 210.55
4644 99.8380 1.006750 44410.00 43994.80 210.74
4645 99.8580 1.006603 45360.00 43889.60 212.98
4646 99.8780 1.006455 44678.00 43781.40 211.37
4647 99.8980 1.006307 44504.00 43667.40 210.96
4648 99.9180 1.006160 43984.00 43550.60 209.72
4649 99.9380 1.006012 43490.00 43427.50 208.54
4650 99.9580 1.005865 43548.00 43298.80 208.68
4651 99.9780 1.005717 43749.00 43168.10 209.16
4652 99.9980 1.005570 43940.00 43025.20 209.62
4653 100.0180 1.005423 43785.00 42874.60 209.25
4654 100.0380 1.005275 43315.00 42716.10 208.12
4655 100.0580 1.005128 43536.00 42549.90 208.65
4656 100.0780 1.004981 43004.00 42376.00 207.37
4657 100.0980 1.004835 42724.00 42194.70 206.70
4658 100.1180 1.004688 42849.00 42006.30 207.00
4659 100.1380 1.004541 42939.00 41811.10 207.22
4660 100.1580 1.004394 42652.00 41609.30 206.52
4661 100.1780 1.004247 42415.00 41400.80 205.95
4662 100.1980 1.004101 41623.00 41185.80 204.02
4663 100.2180 1.003954 41599.00 40961.80 203.96
4664 100.2380 1.003808 41692.00 40732.80 204.19
4665 100.2580 1.003662 41383.00 40496.00 203.43
