#------------------------------------------------------------------------------
#$Date: 2020-06-25 01:19:33 +0300 (Thu, 25 Jun 2020) $
#$Revision: 253406 $
#$URL: file:///home/coder/svn-repositories/cod/cif/4/00/35/4003595.cif $
#------------------------------------------------------------------------------
#
# This file is available in the Crystallography Open Database (COD),
# http://www.crystallography.net/
#
# All data on this site have been placed in the public domain by the
# contributors.
#
data_4003595
loop_
_publ_author_name
'Sharber, Seth A.'
'Thomas, Samuel W.'
_publ_section_title
;
 Side Chain Regioisomers that Dictate Optical Properties and
 Mechanofluorochromism through Crystal Packing
;
_journal_name_full               'Chemistry of Materials'
_journal_paper_doi               10.1021/acs.chemmater.0c01676
_journal_year                    2020
_chemical_formula_sum            'C40 H20 F8 O6'
_chemical_formula_weight         748.56
_space_group_crystal_system      triclinic
_space_group_IT_number           2
_space_group_name_Hall           '-P 1'
_space_group_name_H-M_alt        'P -1'
_atom_sites_solution_hydrogens   geom
_audit_creation_method           SHELXL-2014/7
_cell_angle_alpha                90.762(2)
_cell_angle_beta                 90.770(2)
_cell_angle_gamma                109.465(2)
_cell_formula_units_Z            1
_cell_length_a                   6.8850(7)
_cell_length_b                   7.0203(7)
_cell_length_c                   17.4630(18)
_cell_measurement_temperature    100(2)
_cell_volume                     795.61(14)
_computing_structure_refinement  'SHELXL-2014/7 (Sheldrick, 2014)'
_diffrn_ambient_temperature      100(2)
_diffrn_measured_fraction_theta_full 0.998
_diffrn_measured_fraction_theta_max 0.989
_diffrn_measurement_device_type  'Bruker APEX-II CCD'
_diffrn_measurement_method       '\f and \w scans'
_diffrn_radiation_type           MoK\a
_diffrn_radiation_wavelength     0.71073
_diffrn_reflns_av_R_equivalents  0.0442
_diffrn_reflns_av_unetI/netI     0.0562
_diffrn_reflns_Laue_measured_fraction_full 0.998
_diffrn_reflns_Laue_measured_fraction_max 0.989
_diffrn_reflns_limit_h_max       12
_diffrn_reflns_limit_h_min       -12
_diffrn_reflns_limit_k_max       12
_diffrn_reflns_limit_k_min       -12
_diffrn_reflns_limit_l_max       31
_diffrn_reflns_limit_l_min       -31
_diffrn_reflns_number            28316
_diffrn_reflns_point_group_measured_fraction_full 0.998
_diffrn_reflns_point_group_measured_fraction_max 0.989
_diffrn_reflns_theta_full        25.242
_diffrn_reflns_theta_max         40.291
_diffrn_reflns_theta_min         3.078
_exptl_absorpt_coefficient_mu    0.136
_exptl_absorpt_correction_type   none
_exptl_absorpt_process_details   'SADABS (Sheldrick, 2009)'
_exptl_crystal_colour            green
_exptl_crystal_density_diffrn    1.562
_exptl_crystal_description       plate
_exptl_crystal_F_000             380
_exptl_crystal_size_max          0.300
_exptl_crystal_size_mid          0.300
_exptl_crystal_size_min          0.100
_exptl_transmission_factor_max   0.9870
_exptl_transmission_factor_min   0.9600
_refine_diff_density_max         3.234
_refine_diff_density_min         -0.843
_refine_diff_density_rms         0.170
_refine_ls_extinction_method     none
_refine_ls_goodness_of_fit_ref   1.096
_refine_ls_hydrogen_treatment    constr
_refine_ls_matrix_type           full
_refine_ls_number_parameters     245
_refine_ls_number_reflns         9950
_refine_ls_number_restraints     0
_refine_ls_restrained_S_all      1.096
_refine_ls_R_factor_all          0.1577
_refine_ls_R_factor_gt           0.1257
_refine_ls_shift/su_max          0.000
_refine_ls_shift/su_mean         0.000
_refine_ls_structure_factor_coef Fsqd
_refine_ls_weighting_details
'w=1/[\s^2^(Fo^2^)+(0.1507P)^2^+2.1798P] where P=(Fo^2^+2Fc^2^)/3'
_refine_ls_weighting_scheme      calc
_refine_ls_wR_factor_gt          0.3429
_refine_ls_wR_factor_ref         0.3659
_reflns_Friedel_coverage         0.000
_reflns_number_gt                7107
_reflns_number_total             9950
_reflns_threshold_expression     'I > 2\s(I)'
_cod_data_source_file            cm0c01676_si_011.cif
_cod_data_source_block           020816_2345F3_OMe_0m_a
_cod_database_code               4003595
_shelx_shelxl_version_number     2014/7
_shelx_space_group_comment
;
The symmetry employed for this shelxl refinement is uniquely defined
by the following loop, which should always be used as a source of
symmetry information in preference to the above space-group names.
They are only intended as comments.
;
_shelx_estimated_absorpt_t_min   0.960
_shelx_estimated_absorpt_t_max   0.987
_shelx_res_file
;

    020816_2345F3_OMe_0m_a.res created by SHELXL-2014/7

TITL 020816_2345F3_OMe_0m_a.res in P-1
CELL  0.71073   6.8850   7.0203  17.4630   90.762   90.770  109.465
ZERR    1.000   0.0007   0.0007   0.0018    0.002    0.002    0.002
LATT 1
SFAC C  H  O  F
UNIT 40  20  6  8
REM Old TITL 020816_2345F3_OMe_0m in P-1
REM SHELXT solution in P-1
REM R1 0.175,  Rweak 0.011,  Alpha 0.066,  Orientation as input
REM Formula found by SHELXT:  C21 O2 F4
L.S. 10
ACTA
BOND $H
FMAP 2
PLAN 20
SIZE 0.10 0.30 0.30
TEMP -173.150
WGHT    0.150700    2.179800
FVAR       0.59595
F001  4    0.068531    0.696308    0.693857    11.00000    0.03471    0.01649 =
         0.02914   -0.00403   -0.00458    0.00750
F002  4    0.210177    1.155502    0.902384    11.00000    0.03654    0.04637 =
         0.01828   -0.01128   -0.00297    0.01180
F003  4    0.286657    1.467492    0.804664    11.00000    0.04180    0.02348 =
         0.03784   -0.01588   -0.00095    0.00848
F004  4    0.100770    0.771676    0.846554    11.00000    0.04598    0.03322 =
         0.02509    0.00694    0.00107    0.00885
O005  3    0.299040    0.896249    0.567919    11.00000    0.01784    0.02570 =
         0.02172   -0.00880   -0.00500    0.01629
O006  3    0.107096    0.736642    0.466580    11.00000    0.03363    0.03903 =
         0.02810   -0.01448   -0.01644    0.02929
C007  1    0.464391    0.366904    0.434967    11.00000    0.01207    0.01322 =
         0.01401   -0.00189   -0.00102    0.00648
C008  1    0.168439    1.045620    0.669066    11.00000    0.01391    0.01733 =
         0.01725   -0.00365   -0.00118    0.00875
C009  1    0.249080    0.759437    0.511218    11.00000    0.01487    0.01621 =
         0.01635   -0.00125   -0.00166    0.01011
C00A  1    0.386328    0.632605    0.508291    11.00000    0.01191    0.01339 =
         0.01408   -0.00108   -0.00127    0.00727
C00B  1    0.353811    0.500866    0.445591    11.00000    0.01220    0.01482 =
         0.01410   -0.00173   -0.00196    0.00779
AFIX  43
H00B  2    0.252337    0.501431    0.408272    11.00000   -1.20000
AFIX   0
C00C  1    0.376112    0.142054    0.308924    11.00000    0.01528    0.02078 =
         0.01667   -0.00551   -0.00276    0.00901
C00D  1    0.418699    0.241844    0.367576    11.00000    0.01395    0.01667 =
         0.01599   -0.00429   -0.00224    0.00786
C00E  1    0.127225    0.888269    0.719952    11.00000    0.01679    0.01639 =
         0.02076   -0.00292   -0.00179    0.00581
C00F  1    0.336569    0.005698    0.244904    11.00000    0.01398    0.02473 =
         0.01924   -0.00949   -0.00238    0.00603
O00G  3    0.253055   -0.427978    0.071196    11.00000    0.06741    0.03501 =
         0.02642   -0.01601    0.00507    0.00264
C00H  1    0.196245    1.120733    0.826585    11.00000    0.01873    0.03026 =
         0.01753   -0.00813   -0.00164    0.00741
C00I  1    0.220907    1.242838    0.697743    11.00000    0.01929    0.01686 =
         0.02196   -0.00380    0.00108    0.00838
AFIX  43
H00I  2    0.247641    1.352703    0.663710    11.00000   -1.20000
AFIX   0
C00J  1    0.142008    0.924130    0.798248    11.00000    0.02052    0.02252 =
         0.01974   -0.00005   -0.00033    0.00520
C00K  1    0.153127    0.999974    0.584385    11.00000    0.01806    0.02440 =
         0.01736   -0.00393   -0.00265    0.01589
AFIX  23
H00A  2    0.011540    0.913144    0.569775    11.00000   -1.20000
H00C  2    0.187283    1.126654    0.555296    11.00000   -1.20000
AFIX   0
C00L  1    0.233840    1.277651    0.776335    11.00000    0.01962    0.02211 =
         0.02387   -0.00924   -0.00077    0.00579
C00M  1    0.344921    0.067755    0.170105    11.00000    0.02714    0.04058 =
         0.01767   -0.00845   -0.00437    0.00805
AFIX  43
H00M  2    0.370955    0.206092    0.159045    11.00000   -1.20000
AFIX   0
C00N  1    0.293507   -0.203396    0.259459    11.00000    0.02485    0.02482 =
         0.03015   -0.00925   -0.00052    0.00806
AFIX  43
H00N  2    0.283954   -0.247003    0.310964    11.00000   -1.20000
AFIX   0
C00O  1    0.277032   -0.279680    0.125767    11.00000    0.03192    0.02935 =
         0.02338   -0.00948   -0.00021    0.00289
C00P  1    0.314330   -0.076696    0.110105    11.00000    0.03659    0.03386 =
         0.01895   -0.00596   -0.00114    0.00452
AFIX  43
H00P  2    0.319249   -0.034920    0.058437    11.00000   -1.20000
AFIX   0
C00Q  1    0.265331   -0.344116    0.200983    11.00000    0.03390    0.02582 =
         0.02576   -0.00609    0.00060    0.00575
AFIX  43
H00Q  2    0.238392   -0.482687    0.211867    11.00000   -1.20000
AFIX   0
C00R  1    0.265537   -0.370420   -0.005970    11.00000    0.11528    0.06068 =
         0.02450   -0.01931    0.01410   -0.01313
AFIX 137
H00D  2    0.159075   -0.310259   -0.017440    11.00000   -1.50000
H00E  2    0.244504   -0.489575   -0.039142    11.00000   -1.50000
H00F  2    0.401724   -0.271349   -0.015058    11.00000   -1.50000
AFIX   0
HKLF 4

REM  020816_2345F3_OMe_0m_a.res in P-1
REM R1 =  0.1257 for    7107 Fo > 4sig(Fo)  and  0.1577 for all    9950 data
REM    245 parameters refined using      0 restraints

END

WGHT      0.1505      2.1806

REM Highest difference peak  3.234,  deepest hole -0.843,  1-sigma level  0.170
Q1    1   0.2680 -0.2762  0.0273  11.00000  0.05    3.23
Q2    1   0.2664 -0.2847  0.1676  11.00000  0.05    3.06
Q3    1   0.2865 -0.1862  0.0981  11.00000  0.05    3.02
Q4    1   0.3217  0.0244  0.0976  11.00000  0.05    2.39
Q5    1   0.2886 -0.1733  0.2270  11.00000  0.05    2.07
Q6    1   0.2534 -0.4808  0.0229  11.00000  0.05    1.65
Q7    1   0.3596  0.1531  0.1647  11.00000  0.05    1.63
Q8    1   0.3381  0.0407  0.2166  11.00000  0.05    0.99
Q9    1   0.3981  0.1970  0.3395  11.00000  0.05    0.99
Q10   1   0.1490  0.8990  0.7584  11.00000  0.05    0.93
Q11   1   0.2245  1.1803  0.6843  11.00000  0.05    0.87
Q12   1   0.1809  1.0358  0.8178  11.00000  0.05    0.85
Q13   1   0.2252  1.2448  0.7362  11.00000  0.05    0.79
Q14   1   0.2366  1.2274  0.8039  11.00000  0.05    0.75
Q15   1   0.1972  0.7560  0.4807  11.00000  0.05    0.70
Q16   1   0.3788  0.5534  0.4880  11.00000  0.05    0.69
Q17   1   0.4489  0.6202  0.5374  11.00000  0.05    0.68
Q18   1   0.1613  1.0137  0.6278  11.00000  0.05    0.67
Q19   1   0.2173  1.1123  0.8898  11.00000  0.05    0.65
Q20   1   0.1538  0.9815  0.6932  11.00000  0.05    0.65
;
_shelx_res_checksum              10225
_shelx_hkl_file
;
  -1   0   0   -4.00    0.30
   1   0   0   -3.60    0.30
   1   0   0   -3.30    0.30
  -2   0   0 5387.46  330.57
  -2   0   0 5141.99  330.67
  -2   0   0 5185.58  330.57
  -2   0   0 4855.01  330.77
   2   0   0 5281.37  330.57
   2   0   0 5116.09  330.47
   2   0   0 5063.99  330.47
  -3   0   0   28.80    1.90
  -3   0   0   28.00    1.80
  -3   0   0   27.20    1.80
  -3   0   0   27.00    1.80
   3   0   0   27.40    1.80
  -4   0   0    2.10    0.40
  -4   0   0    2.30    0.30
  -4   0   0    2.90    0.40
  -4   0   0    2.40    0.30
   4   0   0    3.20    0.30
  -5   0   0   67.39    4.50
  -5   0   0   66.19    4.50
  -5   0   0   68.39    4.50
  -5   0   0   71.39    4.50
   5   0   0   69.49    4.50
  -6   0   0   12.20    0.90
  -6   0   0   11.10    1.00
  -7   0   0    0.10    0.30
  -7   0   0    0.40    0.30
  -7   0   0   -0.20    0.50
   7   0   0    0.10    0.40
  -8   0   0    3.40    0.60
  -8   0   0    3.80    0.80
  -8   0   0    3.70    0.50
   8   0   0    3.70    0.70
  -9   0   0   -0.40    0.80
   9   0   0    0.90    0.70
 -10   0   0    1.60    1.10
  10   0   0    3.00    1.00
 -11   0   0    1.60    1.40
  11   0   0    2.60    1.20
  12  -1   0    5.00    1.50
  11  -1   0    8.50    1.40
 -11   1   0    7.20    1.50
  10  -1   0    6.70    1.40
 -10   1   0    3.50    1.00
   9  -1   0    1.50    0.70
  -9   1   0    1.50    0.70
   8  -1   0   56.09    3.90
  -8   1   0   57.69    3.90
   7  -1   0   65.99    4.40
  -7   1   0   67.09    4.50
  -7   1   0   69.79    4.80
   6  -1   0  651.63   41.70
  -6   1   0  652.23   41.70
  -6   1   0  641.14   41.70
   5  -1   0    0.00    0.20
  -5   1   0   -0.30    0.30
  -5   1   0    0.40    0.20
  -4   1   0 2149.69  140.09
  -4   1   0 2203.38  139.89
  -4   1   0 2184.08  139.99
  -3   1   0  301.27   20.30
  -3   1   0  316.17   20.30
  -3   1   0  322.77   20.30
  -2   1   0  861.41   54.39
  -2   1   0  836.02   54.39
  -2   1   0  841.02   54.39
   1  -1   0   90.59    5.10
  -1   1   0   71.69    5.10
  -1   1   0   74.49    5.10
   0  -1   0  478.95   32.60
   0  -1   0  431.26   32.60
   0  -1   0  559.34   32.60
   0   1   0  530.95   32.60
   0   1   0  535.15   32.60
  -1  -1   0 1367.76   85.19
  -1  -1   0 1267.27   85.19
  -1  -1   0 1332.67   85.19
   1   1   0 1331.57   85.29
   1   1   0 1332.07   85.19
  -2  -1   0   64.39    4.20
  -2  -1   0   65.89    4.20
   2   1   0   63.29    4.20
   2   1   0   63.69    4.20
  -3  -1   0    1.90    0.30
  -3  -1   0    1.50    0.20
   3   1   0    1.40    0.30
   3   1   0    1.70    0.20
  -4  -1   0  119.19    7.80
  -4  -1   0  119.59    7.90
  -4  -1   0  128.79    7.90
   4   1   0  116.69    7.90
  -5  -1   0    8.50    0.70
  -5  -1   0    8.20    0.70
  -5  -1   0    7.30    0.80
   5   1   0    7.20    0.70
  -6  -1   0    2.20    0.40
  -6  -1   0    1.60    0.50
  -6  -1   0    1.70    0.40
   6   1   0    1.00    0.40
  -7  -1   0    8.60    1.10
  -7  -1   0    9.00    0.90
   7   1   0    6.90    1.00
  -8  -1   0    4.60    0.80
  -8  -1   0    5.10    0.90
   8   1   0    3.90    0.80
  -9  -1   0    1.10    0.50
  -9  -1   0    0.80    0.90
   9   1   0    1.30    0.80
 -10  -1   0    1.80    1.20
  10   1   0    5.00    1.10
 -11  -1   0    4.00    1.60
  11   1   0    3.20    1.30
  12  -2   0    5.60    1.60
  11  -2   0    2.10    1.20
 -11   2   0    0.10    1.30
  10  -2   0   37.60    2.80
 -10   2   0   33.80    2.90
   9  -2   0    5.00    0.90
  -9   2   0    5.60    0.90
   8  -2   0   26.00    2.00
  -8   2   0   31.50    2.20
  -8   2   0   28.90    2.10
   7  -2   0    1.60    0.40
  -7   2   0    2.20    0.50
  -7   2   0    1.90    0.50
   6  -2   0 1477.35   92.79
  -6   2   0 1433.66   92.79
  -6   2   0 1423.16   92.89
  -5   2   0    0.30    0.20
  -5   2   0    0.90    0.30
  -5   2   0    0.90    0.30
  -4   2   0  308.87   19.50
  -4   2   0  298.27   19.50
  -4   2   0  299.07   19.50
  -3   2   0   83.49    5.60
  -3   2   0   86.49    5.60
  -3   2   0   89.29    5.60
   2  -2   0   87.69    5.60
  -2   2   0   85.89    5.60
  -2   2   0   75.89    5.60
  -2   2   0   87.79    5.60
  -2   2   0   96.49    5.60
   1  -2   0    1.00    0.20
  -1   2   0    1.30    0.20
  -1   2   0    0.90    0.20
  -1   2   0    1.20    0.10
   0  -2   0  315.57   19.10
   0   2   0  286.17   19.10
   0   2   0  300.17   19.10
   0   2   0  313.07   19.10
   0   2   0  266.47   19.00
  -1  -2   0  730.53   50.59
  -1  -2   0  796.92   50.59
   1   2   0  759.32   50.59
   1   2   0  814.42   50.59
   1   2   0  834.02   50.49
  -2  -2   0   19.70    1.40
  -2  -2   0   19.10    1.40
   2   2   0   22.00    1.40
  -3  -2   0   55.89    3.90
  -3  -2   0   70.29    3.90
  -3  -2   0   52.89    3.90
   3   2   0   58.49    3.90
  -4  -2   0    2.70    0.40
  -4  -2   0    2.50    0.50
  -4  -2   0    2.90    0.40
   4   2   0    2.90    0.50
   4   2   0    2.70    0.40
  -5  -2   0    2.20    0.40
  -5  -2   0    1.60    0.50
  -5  -2   0    0.70    0.50
  -6  -2   0    2.10    0.50
  -6  -2   0    3.20    0.60
   6   2   0    3.00    0.50
  -7  -2   0   13.20    1.30
  -7  -2   0   14.20    1.40
   7   2   0   13.50    1.30
  -8  -2   0    0.80    0.70
  -8  -2   0    0.60    0.70
   8   2   0    0.90    0.60
  -9  -2   0   -1.50    0.90
  -9  -2   0   -0.10    0.60
   9   2   0    1.00    0.80
 -10  -2   0   -1.80    1.30
 -10  -2   0   -0.10    0.70
  10   2   0    1.60    1.00
  12  -3   0   28.30    2.90
  11  -3   0    5.00    1.30
 -11   3   0    1.10    1.20
  10  -3   0   63.19    4.30
 -10   3   0   58.89    4.30
   9  -3   0    0.80    0.50
  -9   3   0    0.70    0.60
   8  -3   0   19.00    1.50
  -8   3   0   19.60    1.60
  -8   3   0   19.70    1.60
  -7   3   0    3.90    0.60
  -7   3   0    5.10    0.70
  -6   3   0    1.40    0.40
  -6   3   0    0.80    0.30
  -6   3   0    0.40    0.40
  -5   3   0    4.60    0.50
  -5   3   0    3.80    0.50
  -5   3   0    3.70    0.50
  -4   3   0   16.00    1.10
  -4   3   0   16.00    1.10
  -4   3   0   15.20    1.10
   3  -3   0   30.90    1.90
  -3   3   0   27.10    1.90
  -3   3   0   30.10    1.90
  -3   3   0   26.40    1.90
   2  -3   0  707.63   47.40
  -2   3   0  755.62   47.40
  -2   3   0  749.13   47.40
  -2   3   0  737.63   47.40
   1  -3   0  260.77   14.90
  -1   3   0  195.78   14.90
  -1   3   0  235.28   14.90
   0  -3   0    9.10    0.70
   0   3   0    7.70    0.60
   0   3   0    6.70    0.60
  -1  -3   0   24.20    1.60
   1   3   0   22.40    1.60
  -2  -3   0   26.40    1.70
   2   3   0   22.20    1.50
   2   3   0   21.40    1.60
  -3  -3   0   30.00    2.30
  -3  -3   0   37.10    2.30
   3   3   0   33.90    2.30
  -4  -3   0   32.00    2.50
  -4  -3   0   42.90    2.60
   4   3   0   38.50    2.60
   4   3   0   39.70    2.60
   4   3   0   32.00    2.50
  -5  -3   0    3.40    0.60
  -5  -3   0    3.60    0.60
   5   3   0    3.10    0.50
  -6  -3   0    0.60    0.60
  -6  -3   0    0.60    0.50
   6   3   0    0.30    0.40
  -7  -3   0    1.80    0.70
  -7  -3   0    1.50    0.70
   7   3   0    2.50    0.70
  -8  -3   0    0.80    0.80
  -8  -3   0    1.60    0.90
   8   3   0    1.90    0.80
  -9  -3   0   -1.40    0.70
  -9  -3   0    0.20    1.00
   9   3   0    1.50    0.90
 -10  -3   0    2.50    0.90
 -10  -3   0    3.00    1.50
  10   3   0    5.30    1.20
  12  -4   0   42.80    3.70
  11  -4   0   11.70    1.90
  10  -4   0   18.00    1.80
 -10   4   0   13.30    1.70
   9  -4   0   18.00    1.50
  -9   4   0   17.70    1.60
  -9   4   0   18.90    1.60
   8  -4   0    0.50    0.50
  -8   4   0    0.90    0.50
  -8   4   0    0.80    0.50
  -7   4   0    7.30    0.90
  -6   4   0   11.20    0.90
  -6   4   0   10.80    0.90
  -6   4   0   10.00    0.90
   5  -4   0   65.19    4.30
  -5   4   0   66.39    4.30
  -5   4   0   63.39    4.30
   4  -4   0   61.39    4.10
  -4   4   0   61.59    4.10
  -4   4   0   64.39    4.00
  -4   4   0   62.59    4.00
  -4   4   0   58.99    4.00
   3  -4   0    7.80    0.60
  -3   4   0    6.10    0.60
  -3   4   0    6.20    0.60
  -3   4   0    6.70    0.50
  -3   4   0    6.90    0.60
   2  -4   0   84.19    5.10
  -2   4   0   71.59    5.10
  -2   4   0   77.99    5.10
  -2   4   0   78.29    5.10
  -2   4   0   80.39    5.10
   1  -4   0   -0.30    0.30
   1  -4   0    0.40    0.20
  -1   4   0    0.10    0.20
  -1   4   0    0.00    0.10
  -1   4   0   -0.40    0.30
   0  -4   0  134.29    8.40
   0  -4   0  122.39    8.40
   0   4   0  127.59    8.40
   0   4   0  132.79    8.40
   0   4   0  131.29    8.40
  -1  -4   0  142.89    9.70
  -1  -4   0  151.88    9.70
   1   4   0  151.38    9.70
   1   4   0  154.78    9.70
   1   4   0  148.49    9.70
  -2  -4   0    4.90    0.60
  -2  -4   0    5.30    0.70
   2   4   0    4.40    0.50
   2   4   0    4.10    0.50
   2   4   0    5.10    0.70
  -3  -4   0   15.90    1.40
  -3  -4   0   19.30    1.40
   3   4   0   18.60    1.30
  -4  -4   0   10.50    1.00
   4   4   0    8.90    0.90
  -5  -4   0    0.00    0.60
  -5  -4   0    1.90    0.60
   5   4   0    1.10    0.50
  -6  -4   0    9.40    1.20
  -6  -4   0    7.60    1.20
   6   4   0    8.00    1.00
  -7  -4   0    1.90    0.90
  -7  -4   0    1.80    0.80
   7   4   0    2.20    0.70
  -8  -4   0    0.30    0.90
  -8  -4   0    0.20    0.90
   8   4   0    1.90    0.80
  -9  -4   0    0.00    0.90
  -9  -4   0   -0.80    1.20
   9   4   0    2.80    0.90
  12  -5   0    4.10    1.60
  11  -5   0    5.50    1.30
  10  -5   0   -0.50    0.90
  10  -5   0    0.40    0.80
 -10   5   0    0.30    0.80
   9  -5   0   15.00    1.60
   9  -5   0   17.20    1.50
  -9   5   0   13.30    1.50
   8  -5   0   20.70    1.70
  -8   5   0   19.80    1.60
  -8   5   0   21.20    1.60
   7  -5   0   11.90    1.10
  -7   5   0   10.00    1.20
  -7   5   0   12.00    1.10
   6  -5   0    7.60    0.80
  -6   5   0    7.00    0.80
  -6   5   0    8.70    0.80
   5  -5   0   15.90    1.20
  -5   5   0   15.20    1.20
  -5   5   0   15.50    1.20
   4  -5   0    1.50    0.30
  -4   5   0    1.50    0.30
  -4   5   0    2.10    0.30
  -4   5   0    1.30    0.30
  -4   5   0    1.80    0.30
   3  -5   0   62.89    4.10
  -3   5   0   60.69    4.10
  -3   5   0   61.39    4.00
  -3   5   0   62.49    4.00
  -3   5   0   60.49    4.10
   2  -5   0   24.60    1.70
   2  -5   0   23.00    1.80
  -2   5   0   25.30    1.70
  -2   5   0   26.10    1.70
  -2   5   0   26.70    1.70
   1  -5   0   31.60    2.30
   1  -5   0   33.20    2.20
  -1   5   0   32.20    2.30
  -1   5   0   34.60    2.20
  -1   5   0   32.70    2.30
  -1   5   0   34.70    2.20
   0  -5   0   82.29    5.20
   0  -5   0   73.49    5.20
   0   5   0   74.59    5.10
   0   5   0   82.69    5.20
   0   5   0   82.09    5.20
  -1  -5   0   12.10    1.00
  -1  -5   0   16.20    1.20
   1   5   0   14.30    1.10
   1   5   0   13.60    1.00
   1   5   0   10.60    1.00
  -2  -5   0   55.69    3.90
  -2  -5   0   55.19    4.00
   2   5   0   57.39    3.90
   2   5   0   61.39    3.80
   2   5   0   57.89    3.90
   2   5   0   56.19    3.80
  -3  -5   0    2.20    0.50
   3   5   0    2.40    0.70
  -4  -5   0   -1.00    0.60
  -4  -5   0    0.50    0.50
   4   5   0    0.80    0.50
  -5  -5   0    5.60    0.90
  -5  -5   0    8.80    1.20
   5   5   0    7.60    0.90
  -6  -5   0    1.90    0.80
  -6  -5   0    0.80    0.80
   6   5   0    0.80    0.70
  -7  -5   0    1.10    1.20
  -7  -5   0    1.30    1.30
   7   5   0    0.40    1.30
  -8  -5   0    2.30    1.20
  -8  -5   0    3.00    1.10
   8   5   0    3.30    1.10
  -9  -5   0    0.60    1.40
   9   5   0    1.10    1.20
  11  -6   0    2.80    1.30
  10  -6   0    6.60    1.00
 -10   6   0    6.80    1.10
   9  -6   0   11.00    1.40
  -9   6   0   10.60    1.20
  -9   6   0    9.90    1.30
   8  -6   0    3.90    0.70
  -8   6   0    4.20    0.70
  -8   6   0    4.60    0.70
  -7   6   0    1.00    0.70
  -7   6   0    0.30    0.40
   6  -6   0    0.20    0.50
  -6   6   0    0.10    0.40
  -6   6   0   -0.10    0.40
   5  -6   0   11.90    1.00
  -5   6   0    9.40    0.90
  -5   6   0   10.50    0.90
  -5   6   0   11.50    0.90
  -5   6   0   11.50    0.80
   4  -6   0    0.50    0.30
  -4   6   0    0.30    0.30
  -4   6   0    1.00    0.30
   3  -6   0   78.29    5.70
  -3   6   0   91.69    5.70
  -3   6   0   91.89    5.70
  -3   6   0   81.59    5.60
  -3   6   0   90.19    5.70
   2  -6   0   42.50    3.10
   2  -6   0   49.30    3.20
  -2   6   0   47.10    3.10
  -2   6   0   51.99    3.10
  -2   6   0   40.30    3.00
   1  -6   0   32.00    2.20
  -1   6   0   30.30    2.20
  -1   6   0   29.80    2.20
  -1   6   0   35.00    2.20
   0  -6   0   14.80    1.10
   0  -6   0   11.80    1.40
   0   6   0   14.70    1.30
   0   6   0   16.60    1.10
   0   6   0   15.30    1.10
   0   6   0   13.20    1.20
  -1  -6   0    0.60    0.40
  -1  -6   0    2.20    0.70
   1   6   0    1.80    0.50
   1   6   0    1.90    0.60
   1   6   0    1.80    0.40
  -2  -6   0    1.80    0.60
  -2  -6   0    0.80    0.50
   2   6   0    1.30    0.70
   2   6   0    0.80    0.30
  -3  -6   0    0.20    0.70
  -3  -6   0    0.80    0.50
   3   6   0    1.90    0.40
   3   6   0    2.30    1.00
  -4  -6   0    3.50    0.80
  -4  -6   0    3.30    0.80
   4   6   0    3.20    0.60
  -5  -6   0    1.40    0.80
  -5  -6   0    1.80    0.90
   5   6   0    0.30    0.60
   6   6   0   23.00    2.00
  -7  -6   0   17.80    2.10
  -7  -6   0   13.10    2.10
   7   6   0   15.80    1.80
  -8  -6   0   -1.10    1.30
  -8  -6   0   -2.40    1.10
   8   6   0    1.30    1.10
  11  -7   0    2.10    1.20
  10  -7   0    1.10    1.00
   9  -7   0    3.10    1.40
  -9   7   0    2.80    0.80
  -9   7   0    2.50    0.70
   8  -7   0    3.20    0.80
  -8   7   0    3.80    0.70
  -8   7   0    3.80    0.80
   7  -7   0   13.10    1.30
  -7   7   0   10.90    1.20
  -6   7   0   45.60    3.20
  -6   7   0   47.40    3.20
  -5   7   0   23.80    1.70
  -5   7   0   22.70    1.70
  -5   7   0   26.20    1.80
   4  -7   0   27.70    1.90
  -4   7   0   27.00    1.90
  -4   7   0   22.60    1.80
  -4   7   0   22.60    1.90
  -4   7   0   26.50    1.80
   3  -7   0   13.50    1.10
  -3   7   0   10.80    1.10
  -3   7   0   13.00    1.00
   2  -7   0    0.80    0.60
  -2   7   0    0.80    0.30
  -2   7   0    1.30    0.50
  -2   7   0    1.20    0.40
   1  -7   0   95.59    6.30
  -1   7   0   96.59    6.30
  -1   7   0   96.79    6.30
   0  -7   0    5.40    0.80
   0   7   0    4.20    0.70
   0   7   0    4.10    0.70
  -1  -7   0    0.90    0.90
  -1  -7   0   -0.40    0.50
   1   7   0   -0.10    0.60
   1   7   0    0.00    0.40
   2   7   0    4.30    0.60
   2   7   0    4.80    0.80
   2   7   0    3.00    0.60
  -3  -7   0    0.70    1.00
  -3  -7   0   -0.30    0.60
   3   7   0    0.50    0.50
  -4  -7   0    2.00    1.10
  -4  -7   0    0.70    0.80
   4   7   0    0.50    0.60
  -5  -7   0   13.90    2.50
  -5  -7   0   14.90    2.10
   5   7   0   13.90    1.50
  -6  -7   0    1.20    1.20
  -6  -7   0    1.60    1.30
   6   7   0    1.10    0.90
  -7  -7   0   -1.20    1.40
  -7  -7   0    1.80    1.30
   7   7   0    2.70    1.10
  11  -8   0    3.50    1.30
  10  -8   0    2.90    1.10
  -9   8   0   14.60    1.50
   8  -8   0   27.00    2.40
  -8   8   0   30.60    2.40
   7  -8   0    3.30    0.80
  -7   8   0    1.90    0.60
   6  -8   0    0.60    0.60
  -6   8   0    0.40    0.40
  -6   8   0    1.10    0.50
  -6   8   0    1.40    0.40
  -6   8   0    0.50    0.60
   5  -8   0    0.40    0.50
  -5   8   0    0.80    0.50
  -5   8   0    0.20    0.40
  -5   8   0    0.30    0.40
   4  -8   0   10.30    1.10
  -4   8   0   10.10    1.10
  -4   8   0   10.90    1.00
  -4   8   0   12.40    1.10
   3  -8   0    6.90    1.00
  -3   8   0    6.90    0.90
  -3   8   0    6.70    0.80
  -3   8   0    8.80    0.90
   2  -8   0    1.20    0.50
  -2   8   0    2.80    0.60
  -2   8   0    1.30    0.40
  -2   8   0    2.20    0.50
   1  -8   0    0.10    0.50
  -1   8   0    0.30    0.40
  -1   8   0    0.90    0.50
  -1   8   0    1.00    0.40
   0  -8   0   48.70    3.80
   0   8   0   56.49    3.70
   0   8   0   58.89    3.90
  -1  -8   0   56.09    3.80
   1   8   0   49.70    3.60
   1   8   0   49.80    3.70
   1   8   0   52.69    3.50
  -2  -8   0    2.30    1.10
  -2  -8   0    2.20    0.80
   2   8   0    2.00    0.90
   2   8   0    1.30    0.60
  -3  -8   0    2.40    0.90
   3   8   0    1.70    0.70
  -4  -8   0    2.40    1.40
  -4  -8   0    2.40    1.00
   4   8   0    1.40    1.20
  -5  -8   0   23.30    2.80
  -5  -8   0   18.20    2.20
   5   8   0   16.00    1.90
  -6  -8   0   -0.20    1.30
  -6  -8   0    0.40    1.70
   6   8   0   -0.80    1.10
  11  -9   0    8.60    1.60
  10  -9   0    0.10    1.10
  -9   9   0    5.90    1.00
  -8   9   0    1.20    1.00
   7  -9   0   67.59    4.70
  -7   9   0   70.39    4.80
   6  -9   0    7.40    1.20
  -6   9   0    5.00    0.80
   5  -9   0    0.30    0.70
  -5   9   0    0.80    0.50
   4  -9   0    0.70    0.60
  -4   9   0    0.40    0.50
  -4   9   0    0.70    0.60
   3  -9   0    0.80    0.60
  -3   9   0    2.10    0.60
  -3   9   0    1.50    0.60
  -2   9   0    5.90    0.90
  -2   9   0    4.50    0.80
   1  -9   0   44.20    3.30
  -1   9   0   40.60    3.10
  -1   9   0   48.60    3.40
  -1   9   0   49.00    3.20
   0  -9   0    0.10    0.80
   0   9   0    0.50    0.60
   0   9   0    0.60    0.50
   0   9   0    0.20    0.80
  -1  -9   0    8.50    1.50
   1   9   0   10.50    1.80
   1   9   0   11.20    1.30
  -2  -9   0    0.00    0.90
   2   9   0    0.50    0.80
  -3  -9   0    1.90    1.10
   3   9   0    0.20    0.90
  -4  -9   0    1.20    1.10
   4   9   0   -1.00    1.10
  -5  -9   0   -2.60    1.30
   5   9   0   -1.50    1.30
  10 -10   0    2.20    1.20
  -9  10   0    5.50    1.00
  -8  10   0    1.90    0.70
  -7  10   0   -0.90    0.60
   6 -10   0   29.30    2.60
  -6  10   0   31.80    2.30
  -6  10   0   33.30    2.50
   5 -10   0   57.89    4.10
  -5  10   0   55.49    4.10
  -5  10   0   59.09    4.00
   4 -10   0    5.70    1.00
  -4  10   0    7.20    1.10
  -4  10   0    6.10    0.90
   3 -10   0   22.70    1.90
  -3  10   0   17.90    1.70
  -3  10   0   18.50    1.80
   2 -10   0    0.90    0.80
  -2  10   0    1.10    0.80
  -2  10   0    2.10    0.70
  -1  10   0    8.60    1.20
  -1  10   0    9.70    1.20
   0 -10   0    0.00    1.00
   0  10   0    0.40    1.00
  -1 -10   0    0.20    1.10
  -2 -10   0    1.00    1.20
  -3 -10   0    1.10    1.30
  -4 -10   0   -0.70    1.50
  -9  11   0    3.10    1.00
  -8  11   0    0.10    0.80
  -7  11   0    8.10    1.30
  -6  11   0    0.00    0.70
  -6  11   0    1.20    0.60
   5 -11   0    3.20    1.20
  -5  11   0    5.10    0.80
  -5  11   0    5.30    0.90
   4 -11   0    0.00    1.00
  -4  11   0   -0.30    0.70
  -4  11   0    0.60    0.70
   3 -11   0    5.10    2.00
  -3  11   0    7.00    1.00
  -3  11   0    5.10    1.10
   2 -11   0   -0.80    1.10
  -2  11   0    0.10    0.90
  -2  11   0   -1.10    1.10
   1 -11   0    2.00    1.20
  -1  11   0    1.40    1.10
   0 -11   0    0.90    1.20
   0  11   0   -1.00    1.10
  -1 -11   0    0.00    1.30
  -2 -11   0   -0.40    1.50
  -7  12   0    1.50    0.90
  -6  12   0    1.20    0.80
  -6  12   0    2.30    0.70
  -5  12   0    3.70    1.00
  -5  12   0    3.50    0.90
   4 -12   0   -0.20    1.50
  -4  12   0    1.50    0.90
  -4  12   0    0.10    0.80
   3 -12   0    2.00    1.50
  -3  12   0    1.10    0.90
  -3  12   0    0.50    0.90
   2 -12   0    1.50    1.50
  -2  12   0    0.60    1.10
   1 -12   0    4.30    1.60
  -1  12   0    6.80    1.50
   0 -12   0   -2.10    1.50
   0 -12   1    0.10    1.60
  -1  12  -1    1.90    1.30
   1 -12   1   -1.60    1.40
  -2  12  -1    3.30    1.10
   2 -12   1    1.10    1.50
  -3  12  -1    0.50    0.90
  -3  12  -1   -0.10    1.00
   3 -12   1    0.00    1.40
  -4  12  -1   -0.60    0.90
  -4  12  -1    0.40    0.80
   4 -12   1   -1.50    1.40
  -5  12  -1    2.70    0.80
  -5  12  -1    0.40    0.90
  -6  12  -1    2.40    0.90
  -6  12  -1    2.90    0.70
  -7  12  -1   -0.40    0.80
  -2 -11   1    0.60    1.50
  -1 -11   1   -1.80    1.30
   0  11  -1   -0.10    1.20
  -1  11  -1    6.50    1.20
  -1  11  -1    6.50    1.60
   1 -11   1    5.40    1.30
  -2  11  -1   12.20    2.00
  -2  11  -1   11.10    1.70
   2 -11   1   10.10    1.40
  -3  11  -1    3.50    0.90
  -3  11  -1    2.90    0.80
   3 -11   1   -1.80    1.80
  -4  11  -1    1.40    0.70
  -4  11  -1    1.60    0.80
   4 -11   1    0.50    1.20
  -5  11  -1    5.70    0.90
  -5  11  -1    3.70    0.80
   5 -11   1    3.30    1.20
  -6  11  -1    0.50    0.50
  -6  11  -1    0.40    0.70
   6 -11   1    1.70    1.60
  -7  11  -1    6.20    1.00
  -8  11  -1    6.30    1.00
  -9  11  -1    0.70    0.90
  -4 -10   1    1.10    1.50
  -3 -10   1   -0.20    1.30
  -2 -10   1   -1.00    1.10
  -1 -10   1   -1.50    0.90
   0  10  -1    4.60    1.10
   0 -10   1    3.60    1.30
  -1  10  -1    1.30    0.80
  -1  10  -1    1.40    0.70
   1 -10   1    0.40    0.90
  -2  10  -1    0.90    0.60
  -2  10  -1    0.50    0.70
   2 -10   1   -0.10    0.80
  -3  10  -1    4.10    0.80
  -3  10  -1    4.60    0.80
   3 -10   1    2.30    0.90
  -4  10  -1    1.80    0.60
  -4  10  -1    1.70    0.60
   4 -10   1    2.00    0.80
  -5  10  -1    8.00    1.00
  -5  10  -1    5.70    0.90
   5 -10   1    8.10    1.50
  -6  10  -1   49.80    3.70
  -6  10  -1   50.29    3.60
   6 -10   1   52.89    3.80
  -7  10  -1    3.70    0.80
   7 -10   1    3.30    1.10
  -8  10  -1    7.30    1.30
  -9  10  -1    4.80    0.90
 -10  10  -1   -0.80    0.90
  -5  -9   1    1.10    1.40
   4   9  -1    6.00    1.30
  -4  -9   1   11.20    1.90
   3   9  -1    2.90    1.00
  -3  -9   1    3.70    1.10
   2   9  -1    4.70    0.90
  -2  -9   1    4.30    1.20
   1   9  -1   29.40    2.50
   1   9  -1   38.40    2.80
  -1  -9   1   29.00    3.10
   0   9  -1    3.00    0.60
   0   9  -1    2.70    0.80
   0  -9   1    3.60    0.90
  -1   9  -1    4.10    0.90
  -1   9  -1    5.20    0.70
   1  -9   1    5.50    0.90
  -2   9  -1   20.10    1.70
  -2   9  -1   19.80    1.60
   2  -9   1   17.70    1.70
  -3   9  -1    3.90    0.60
  -3   9  -1    2.50    0.70
   3  -9   1    2.80    0.70
  -4   9  -1    1.90    0.60
  -4   9  -1    2.70    0.60
   4  -9   1    0.50    0.70
  -5   9  -1    2.70    0.80
  -5   9  -1    3.00    0.60
   5  -9   1    2.50    0.70
  -6   9  -1    0.70    0.40
  -6   9  -1    0.60    0.60
   6  -9   1    2.60    0.80
  -7   9  -1   34.10    2.70
   7  -9   1   38.20    2.80
  -8   9  -1    3.30    1.10
   8  -9   1    3.40    1.40
  -9   9  -1    8.40    1.30
 -10   9  -1   -0.30    0.80
  11  -9   1   17.40    2.40
   6   8  -1    0.00    1.10
  -6  -8   1   -0.90    1.70
  -6  -8   1    0.00    1.40
   5   8  -1    1.30    0.90
  -5  -8   1    2.20    1.60
  -5  -8   1    2.30    1.10
   4   8  -1    3.30    0.90
  -4  -8   1    3.70    1.40
  -4  -8   1    2.90    1.00
   3   8  -1   13.50    1.40
  -3  -8   1   15.80    1.70
  -3  -8   1   15.50    2.10
   2   8  -1    4.40    0.90
   2   8  -1    2.30    0.70
  -2  -8   1    3.10    0.80
  -2  -8   1    5.30    1.20
   1   8  -1    1.40    0.50
   1   8  -1    0.90    0.80
   1   8  -1    1.30    0.60
  -1  -8   1    1.60    0.70
   0   8  -1   61.89    4.20
   0   8  -1   61.09    4.30
   0   8  -1   64.29    4.20
   0  -8   1   60.29    4.20
  -1   8  -1    4.30    0.70
  -1   8  -1    3.00    0.50
   1  -8   1    3.00    0.60
  -2   8  -1   24.90    1.90
  -2   8  -1   29.80    2.10
  -2   8  -1   30.80    2.00
   2  -8   1   25.10    2.10
  -3   8  -1    2.40    0.50
  -3   8  -1    3.10    0.50
  -3   8  -1    2.10    0.50
   3  -8   1    2.60    0.60
  -4   8  -1    3.00    0.60
  -4   8  -1    4.80    0.70
  -4   8  -1    3.20    0.60
   4  -8   1    5.00    0.80
  -5   8  -1    1.10    0.40
  -5   8  -1    0.20    0.40
   5  -8   1    0.90    0.50
  -6   8  -1    0.70    0.30
  -6   8  -1    0.30    0.40
  -6   8  -1    1.10    0.50
   6  -8   1    0.00    0.60
  -7   8  -1   17.60    1.60
   7  -8   1   15.40    1.60
  -8   8  -1   41.90    3.10
   8  -8   1   44.90    3.20
  -9   8  -1    9.10    1.20
 -10   8  -1   17.50    1.80
  10  -8   1   20.20    2.00
  11  -8   1    4.80    1.40
   7   7  -1   18.30    2.20
  -7  -7   1   23.60    2.70
  -7  -7   1   24.40    2.50
   6   7  -1    1.00    1.00
  -6  -7   1    0.30    1.10
  -6  -7   1    0.70    1.40
   5   7  -1    0.50    0.80
  -5  -7   1    0.80    1.30
  -5  -7   1    2.20    1.10
   4   7  -1    7.70    1.10
  -4  -7   1    9.20    1.70
  -4  -7   1    9.70    1.40
   3   7  -1    0.50    0.50
  -3  -7   1   -0.40    0.90
  -3  -7   1   -0.70    0.60
   2   7  -1    1.10    0.50
   2   7  -1    1.50    0.80
   2   7  -1    0.60    0.40
  -2  -7   1    1.30    0.60
  -2  -7   1    0.90    0.80
   1   7  -1    6.30    0.90
   1   7  -1    6.00    0.80
   1   7  -1    7.20    0.80
  -1  -7   1    4.40    1.00
  -1  -7   1    6.40    1.00
   0   7  -1    0.30    0.50
   0   7  -1    1.20    0.40
   0   7  -1    0.40    0.40
   0   7  -1    0.80    0.50
   0  -7   1    0.90    0.40
   0  -7   1   -0.40    0.80
  -1   7  -1   17.20    1.40
  -1   7  -1   20.00    1.40
   1  -7   1   18.50    1.40
  -2   7  -1    2.30    0.40
  -2   7  -1    1.50    0.40
  -2   7  -1    1.50    0.50
  -3   7  -1    6.70    0.70
  -3   7  -1    9.30    0.90
  -3   7  -1    9.30    0.90
   3  -7   1    7.70    1.00
  -4   7  -1   16.00    1.20
  -4   7  -1   12.90    1.10
  -4   7  -1   13.00    1.20
   4  -7   1   14.90    1.30
  -5   7  -1  129.69    8.20
  -5   7  -1  123.49    8.20
  -5   7  -1  125.89    8.30
  -5   7  -1  127.29    8.20
  -6   7  -1    6.30    0.80
  -6   7  -1    4.90    0.80
   6  -7   1    5.30    0.90
  -7   7  -1   33.10    2.40
  -7   7  -1   34.80    2.40
   7  -7   1   30.80    2.40
  -8   7  -1    3.00    0.70
  -8   7  -1    2.10    0.60
   8  -7   1    3.20    0.80
  -9   7  -1    4.20    1.20
  -9   7  -1    4.80    0.80
   9  -7   1    3.10    0.90
  10  -7   1    0.40    0.90
  11  -7   1    3.30    1.20
   8   6  -1    6.50    1.30
  -8  -6   1    2.70    1.30
  -8  -6   1    5.20    1.40
   7   6  -1    3.70    1.10
  -7  -6   1    2.40    1.10
  -7  -6   1    2.60    1.20
   6   6  -1   18.20    1.80
  -6  -6   1   22.30    2.20
  -6  -6   1   17.50    2.70
   5   6  -1    0.10    0.60
  -5  -6   1    0.20    0.80
  -5  -6   1    0.10    0.90
   4   6  -1   21.10    1.80
  -4  -6   1   27.40    2.10
  -4  -6   1   21.70    1.90
   3   6  -1    3.90    0.60
   3   6  -1    2.60    0.90
  -3  -6   1    2.30    0.80
  -3  -6   1    2.30    0.60
   2   6  -1    1.50    0.60
   2   6  -1    0.40    0.60
   2   6  -1    1.70    0.40
   2   6  -1    1.30    0.40
  -2  -6   1    1.40    0.50
  -2  -6   1    0.60    0.60
   1   6  -1   21.50    1.60
   1   6  -1   18.60    1.40
   1   6  -1   20.00    1.40
  -1  -6   1   18.50    1.50
  -1  -6   1   19.60    1.70
   0   6  -1    2.80    0.50
   0   6  -1    1.30    0.40
   0   6  -1    1.50    0.50
   0  -6   1    0.00    0.60
   0  -6   1    2.40    0.40
  -1   6  -1  119.99    7.30
  -1   6  -1  110.79    7.30
   1  -6   1  123.79    7.30
   1  -6   1   91.29    7.20
  -2   6  -1  133.69    8.40
  -2   6  -1  129.19    8.40
  -2   6  -1  137.99    8.40
  -2   6  -1  131.39    8.40
   2  -6   1  111.29    8.40
   2  -6   1  131.59    8.40
  -3   6  -1   15.90    1.20
  -3   6  -1   14.20    1.30
  -3   6  -1   16.30    1.20
  -3   6  -1   18.50    1.20
   3  -6   1   20.00    1.30
  -4   6  -1   49.10    3.10
  -4   6  -1   44.80    3.10
   4  -6   1   45.50    3.10
  -5   6  -1    2.30    0.40
  -5   6  -1    1.70    0.40
  -5   6  -1    1.80    0.30
  -5   6  -1    2.30    0.40
   5  -6   1    3.80    0.70
  -6   6  -1    2.40    0.50
  -6   6  -1    3.00    0.50
   6  -6   1    2.50    0.50
  -7   6  -1    5.00    0.80
  -7   6  -1    6.00    0.80
   7  -6   1    5.50    0.90
  -8   6  -1   10.70    1.20
  -8   6  -1   12.20    1.20
   8  -6   1   12.00    1.30
  -9   6  -1   15.30    1.50
  -9   6  -1   14.30    1.50
   9  -6   1   17.70    1.60
  10  -6   1    5.90    1.10
  10  -6   1    5.50    1.00
  10  -6   1    5.00    1.10
  11  -6   1    9.00    2.10
   9   5  -1    1.50    1.20
  -9  -5   1   -1.80    1.00
  -9  -5   1   -0.50    1.30
   8   5  -1    1.50    1.00
  -8  -5   1    1.00    1.10
  -8  -5   1    0.20    1.00
   7   5  -1    0.40    0.90
  -7  -5   1    1.00    1.30
  -7  -5   1    0.50    1.40
   6   5  -1   -0.20    0.60
  -6  -5   1    1.60    0.80
  -6  -5   1   -0.30    0.70
   5   5  -1    4.70    0.90
  -5  -5   1    6.90    1.10
  -5  -5   1    6.90    1.00
   4   5  -1    9.30    0.90
  -4  -5   1    9.00    1.10
  -4  -5   1    8.50    1.20
   3   5  -1   13.90    1.10
   3   5  -1   15.10    1.40
  -3  -5   1   12.10    1.20
  -3  -5   1   17.00    1.40
   2   5  -1   33.30    2.60
   2   5  -1   40.00    2.80
   2   5  -1   40.70    2.60
  -2  -5   1   42.10    2.80
   1   5  -1  148.49   10.20
   1   5  -1  166.18   10.10
   1   5  -1  163.98   10.10
  -1  -5   1  159.78   10.20
  -1  -5   1  143.09   10.20
   0   5  -1   12.10    0.90
  -1   5  -1   29.30    2.20
  -1   5  -1   35.10    2.20
  -1   5  -1   35.50    2.30
   1  -5   1   29.50    2.20
   1  -5   1   36.70    2.30
  -2   5  -1    7.90    0.60
  -2   5  -1    7.90    0.60
  -2   5  -1    7.50    0.60
   2  -5   1    7.10    0.70
   2  -5   1    8.40    0.80
  -3   5  -1   20.70    1.40
  -3   5  -1   18.20    1.40
  -3   5  -1   20.50    1.40
  -3   5  -1   20.10    1.40
   3  -5   1   20.00    1.40
  -4   5  -1   23.10    1.50
  -4   5  -1   22.10    1.60
  -4   5  -1   23.10    1.50
  -4   5  -1   21.00    1.50
   4  -5   1   20.40    1.60
  -5   5  -1   27.50    1.90
  -5   5  -1   26.90    1.80
   5  -5   1   25.30    1.90
  -6   5  -1    5.30    0.80
  -6   5  -1    6.00    0.70
   6  -5   1    5.90    0.80
  -7   5  -1   14.80    1.30
  -7   5  -1   16.70    1.30
  -8   5  -1   34.70    2.40
  -8   5  -1   32.80    2.40
   8  -5   1   33.90    2.50
  -9   5  -1   63.39    4.40
   9  -5   1   64.99    4.40
  10  -5   1    0.90    0.90
  10  -5   1    2.20    0.80
  11  -5   1    3.50    1.20
  12  -5   1    7.80    1.70
   9   4  -1    4.60    1.00
  -9  -4   1    1.70    1.20
  -9  -4   1    1.70    0.90
   8   4  -1    0.70    0.80
  -8  -4   1    0.10    0.90
  -8  -4   1    0.10    0.90
   7   4  -1   13.00    2.00
  -7  -4   1   14.90    1.70
  -7  -4   1   15.30    1.90
   6   4  -1    2.50    0.70
  -6  -4   1    2.20    0.70
  -6  -4   1    3.00    0.70
   5   4  -1   78.99    5.40
  -5  -4   1   83.09    5.40
  -5  -4   1   80.79    5.40
   4   4  -1    8.30    0.80
  -4  -4   1    8.80    0.90
   3   4  -1   14.60    1.20
   3   4  -1   18.80    1.50
  -3  -4   1   15.30    1.20
   2   4  -1    2.30    0.30
   2   4  -1    1.50    0.40
  -2  -4   1    1.20    0.40
   1   4  -1   15.20    1.10
   1   4  -1   15.60    1.00
  -1  -4   1   13.40    1.10
  -1  -4   1   14.20    1.10
   0   4  -1   65.69    4.40
   0   4  -1   62.99    4.40
   0  -4   1   71.99    4.40
  -1   4  -1   19.40    1.30
  -1   4  -1   19.30    1.30
  -1   4  -1   16.50    1.20
  -1   4  -1   19.50    1.30
   1  -4   1   19.20    1.30
   1  -4   1   16.20    1.20
  -2   4  -1   55.79    3.50
  -2   4  -1   49.60    3.50
  -2   4  -1   58.89    3.50
  -2   4  -1   49.10    3.50
  -3   4  -1  363.66   23.30
  -3   4  -1  366.76   23.20
  -3   4  -1  389.36   23.30
  -3   4  -1  340.87   23.20
   3  -4   1  345.57   23.30
  -4   4  -1   65.49    4.20
  -4   4  -1   63.89    4.20
   4  -4   1   62.09    4.20
  -5   4  -1   44.50    3.20
  -5   4  -1   50.29    3.20
   5  -4   1   49.60    3.20
  -6   4  -1   10.70    0.90
  -6   4  -1   10.30    0.90
  -6   4  -1   10.40    0.90
  -7   4  -1    5.30    0.80
  -7   4  -1    4.90    0.70
  -7   4  -1    4.30    0.60
  -8   4  -1   17.40    1.50
  -8   4  -1   18.00    1.40
  -8   4  -1   17.40    1.50
  -9   4  -1    1.10    0.70
  -9   4  -1    1.50    0.60
   9  -4   1    0.60    0.60
 -10   4  -1   -1.30    0.80
  10  -4   1    1.00    0.90
 -11   4  -1   -1.20    1.10
  11  -4   1    0.80    1.10
  12  -4   1   38.00    3.40
  10   3  -1    4.10    1.10
 -10  -3   1   -0.30    0.80
 -10  -3   1    1.80    1.40
   9   3  -1   19.50    1.80
  -9  -3   1   15.00    2.10
  -9  -3   1   14.30    1.60
   8   3  -1    1.70    0.70
  -8  -3   1    1.70    0.90
  -8  -3   1    1.40    0.80
   7   3  -1    0.80    0.70
  -7  -3   1    0.60    0.70
  -7  -3   1    1.00    0.60
   6   3  -1    3.50    0.60
  -6  -3   1    2.00    0.60
  -6  -3   1    3.30    0.70
   5   3  -1   -0.10    0.40
  -5  -3   1    0.50    0.40
  -5  -3   1    0.20    0.40
   4   3  -1    2.20    0.60
   4   3  -1    2.00    0.30
  -4  -3   1    2.00    0.40
   3   3  -1    3.20    0.40
   3   3  -1    4.70    0.70
  -3  -3   1    3.60    0.50
   2   3  -1   10.20    0.80
   2   3  -1    9.80    0.80
  -2  -3   1    9.40    0.80
   1   3  -1   66.29    4.80
  -1  -3   1   82.69    4.90
   0   3  -1   59.09    3.80
   0   3  -1   57.99    3.80
   0   3  -1   57.79    3.80
   0  -3   1   59.69    3.80
   0  -3   1   55.89    3.80
  -1   3  -1  289.57   17.50
   1  -3   1  253.97   17.50
  -2   3  -1  387.36   23.50
  -2   3  -1  350.66   23.50
  -2   3  -1  363.46   23.50
  -2   3  -1  361.16   23.50
   2  -3   1  362.56   23.50
  -3   3  -1  719.83   45.50
  -3   3  -1  685.03   45.50
  -3   3  -1  723.03   45.50
  -3   3  -1  713.63   45.50
   3  -3   1  700.23   45.50
  -4   3  -1   10.10    0.80
  -4   3  -1    9.70    0.80
  -4   3  -1   12.30    0.80
  -5   3  -1   56.19    3.70
  -5   3  -1   56.29    3.70
  -5   3  -1   54.49    3.70
  -6   3  -1   59.79    4.10
  -6   3  -1   59.89    4.00
  -6   3  -1   63.49    4.00
  -7   3  -1    0.30    0.40
  -7   3  -1    0.20    0.40
  -8   3  -1  116.79    7.70
  -8   3  -1  117.89    7.70
   8  -3   1  118.49    7.70
  -9   3  -1    0.60    0.70
   9  -3   1    0.30    0.50
   9  -3   1    0.20    0.70
 -10   3  -1   19.60    1.90
  10  -3   1   15.10    1.80
 -11   3  -1    0.30    2.00
  11  -3   1    2.10    1.10
  12  -3   1   10.50    1.70
  10   2  -1    1.50    1.00
 -10  -2   1   -0.10    1.30
 -10  -2   1    1.50    0.70
   9   2  -1    5.20    1.00
  -9  -2   1    3.80    1.00
  -9  -2   1    3.60    0.70
   8   2  -1    0.30    1.00
  -8  -2   1    0.80    0.70
  -8  -2   1    0.00    0.80
   7   2  -1    0.80    0.50
  -7  -2   1    1.70    0.50
  -7  -2   1    1.80    0.60
   6   2  -1   15.40    1.40
  -6  -2   1   18.10    1.40
  -6  -2   1   17.30    1.40
  -5  -2   1   55.49    3.50
  -5  -2   1   50.49    3.50
  -5  -2   1   48.30    3.50
   4   2  -1    8.00    0.90
   4   2  -1   10.70    0.80
  -4  -2   1   10.10    0.80
   3   2  -1  564.44   36.00
   3   2  -1  545.65   36.00
  -3  -2   1  566.64   36.00
  -3  -2   1  555.54   36.00
  -3  -2   1  567.54   36.00
   2   2  -1    3.80    0.50
   2   2  -1    3.30    0.30
  -2  -2   1    3.30    0.50
  -2  -2   1    4.00    0.40
  -2  -2   1    2.70    0.40
   1   2  -1  444.66   28.70
   1   2  -1  433.76   28.70
   1   2  -1  464.65   28.70
  -1  -2   1  461.35   28.80
  -1  -2   1  430.16   28.70
   0   2  -1  300.27   20.80
   0   2  -1  363.96   20.80
   0   2  -1  331.07   20.80
   0   2  -1  304.87   20.80
   0  -2   1  313.27   20.80
   0  -2   1  330.27   20.80
  -1   2  -1   82.99    4.90
  -1   2  -1   66.09    5.00
   1  -2   1   78.19    5.00
   1  -2   1   78.59    4.90
   1  -2   1   76.39    5.00
  -2   2  -1  155.08    9.60
  -2   2  -1  138.59    9.70
  -2   2  -1  149.49    9.60
  -2   2  -1  158.28    9.70
  -2   2  -1  147.09    9.60
  -3   2  -1  126.99    8.30
  -3   2  -1  127.29    8.30
  -3   2  -1  132.09    8.30
  -4   2  -1  119.19    7.60
  -4   2  -1  119.39    7.60
  -4   2  -1  113.09    7.60
  -5   2  -1    8.10    0.70
  -5   2  -1    7.70    0.70
  -5   2  -1    8.00    0.70
  -6   2  -1  415.66   26.90
  -6   2  -1  413.66   26.90
  -6   2  -1  423.36   26.90
  -7   2  -1   45.60    3.70
  -7   2  -1   53.29    3.40
   7  -2   1   52.99    3.40
  -8   2  -1  195.08   12.40
   8  -2   1  190.48   12.40
   8  -2   1  185.28   12.30
  -9   2  -1    1.80    0.80
   9  -2   1    1.00    0.70
 -10   2  -1    7.40    1.20
  10  -2   1    7.30    1.10
 -11   2  -1    2.30    1.20
  11  -2   1    0.90    1.10
  12  -2   1    3.90    1.40
  11   1  -1    3.10    1.20
 -11  -1   1    2.60    1.60
  10   1  -1    1.50    1.00
 -10  -1   1    0.50    1.20
   9   1  -1    1.20    0.80
  -9  -1   1    0.30    0.90
  -9  -1   1    1.30    0.50
   8   1  -1    0.40    0.60
  -8  -1   1    0.00    0.50
  -8  -1   1   -0.10    0.60
   7   1  -1    8.80    1.00
  -7  -1   1   10.80    1.20
  -7  -1   1   11.50    1.00
   6   1  -1    0.20    0.40
  -6  -1   1    0.10    0.30
  -6  -1   1    0.10    0.40
   5   1  -1    5.00    0.60
  -5  -1   1    5.60    0.60
  -5  -1   1    6.00    0.60
  -5  -1   1    5.70    0.70
  -4  -1   1  144.09    9.30
  -4  -1   1  143.79    9.30
  -4  -1   1  142.79    9.30
   3   1  -1   25.50    1.80
   3   1  -1   28.00    1.70
  -3  -1   1   26.90    1.80
  -3  -1   1   26.10    1.80
  -3  -1   1   23.20    1.80
  -3  -1   1   26.90    1.80
   2   1  -1  136.89    9.60
   2   1  -1  155.98    9.50
  -2  -1   1  148.49    9.60
  -2  -1   1  156.38    9.60
  -2  -1   1  143.29    9.60
   1   1  -1  226.38   14.40
   1   1  -1  216.48   14.40
  -1  -1   1  231.58   14.40
  -1  -1   1  226.88   14.40
  -1  -1   1  220.08   14.40
  -1  -1   1  221.88   14.40
  -1  -1   1  227.08   14.40
   0   1  -1   29.70    2.00
   0  -1   1   29.80    2.00
   0  -1   1   33.70    2.00
  -1   1  -1    5.70    0.40
  -2   1  -1 9999.00  623.34
  -2   1  -1 9613.74  623.34
  -2   1  -1 9512.25  623.34
  -3   1  -1   28.40    2.10
  -3   1  -1   31.60    2.00
  -3   1  -1   32.30    2.00
  -4   1  -1 1890.61  121.29
  -4   1  -1 1892.81  121.39
  -4   1  -1 1884.91  121.39
  -5   1  -1   15.00    1.10
  -5   1  -1   15.10    1.10
  -6   1  -1   13.00    1.00
  -6   1  -1   14.50    1.10
   6  -1   1   10.50    1.00
  -7   1  -1   64.49    4.20
   7  -1   1   62.09    4.20
   7  -1   1   61.79    4.10
  -8   1  -1    6.30    1.10
   8  -1   1    6.40    0.90
  -9   1  -1   10.30    1.40
   9  -1   1    8.40    1.30
 -10   1  -1    3.50    1.10
  10  -1   1    3.30    1.00
 -11   1  -1    2.90    1.30
  11  -1   1    3.60    1.10
 -12   1  -1    0.40    1.80
  12  -1   1    2.50    1.30
  11   0  -1    2.40    1.20
 -11   0   1    2.30    1.40
  10   0  -1    1.10    0.90
 -10   0   1    0.80    1.10
   9   0  -1    5.80    1.10
  -9   0   1    5.30    1.00
   8   0  -1    4.20    0.70
  -8   0   1    3.50    0.80
  -8   0   1    3.00    0.50
  -8   0   1    3.40    0.50
   7   0  -1    0.20    0.40
  -7   0   1    0.10    0.40
  -7   0   1    0.60    0.30
  -7   0   1   -0.50    0.40
   6   0  -1    2.40    0.40
  -6   0   1    1.60    0.40
  -6   0   1    1.60    0.30
   5   0  -1   10.90    0.80
  -5   0   1   10.80    0.80
  -5   0   1   10.40    0.80
  -5   0   1   11.10    0.90
  -5   0   1   10.90    0.90
   4   0  -1  472.45   30.00
  -4   0   1  468.15   30.00
  -4   0   1  471.15   30.00
  -4   0   1  456.65   30.00
  -4   0   1  462.45   30.00
   3   0  -1    6.20    0.50
  -3   0   1    6.20    0.50
  -3   0   1    5.20    0.50
  -3   0   1    6.40    0.50
   2   0  -1 7239.38  488.25
  -2   0   1 7789.82  488.35
  -2   0   1 7631.34  488.35
  -2   0   1 7718.53  488.25
  -2   0   1 7642.54  488.25
   1   0  -1  132.49    8.20
   1   0  -1  135.19    8.20
  -1   0   1  116.59    8.20
  -1   0   1  125.59    8.20
  -1   0  -1  546.35   38.80
   1   0   1  627.54   38.80
   1   0   1  636.74   38.80
  -2   0  -1 1176.88   75.89
  -2   0  -1 1094.99   75.89
  -2   0  -1 1181.38   75.79
  -2   0  -1 1217.88   75.79
  -2   0  -1 1217.08   75.79
   2   0   1 1192.58   75.79
  -3   0  -1    2.50    0.30
  -3   0  -1    1.80    0.30
  -3   0  -1    2.50    0.30
  -3   0  -1    1.90    0.30
  -4   0  -1   10.50    1.00
  -4   0  -1   13.70    0.90
  -4   0  -1   12.80    0.90
  -4   0  -1   10.80    0.90
   4   0   1   13.80    0.90
  -5   0  -1    1.50    0.30
  -5   0  -1    1.00    0.30
  -5   0  -1    1.30    0.30
   5   0   1    1.40    0.30
  -6   0  -1    1.70    0.40
  -7   0  -1    1.30    0.40
  -7   0  -1    1.10    0.50
  -7   0  -1    1.30    0.40
   7   0   1    1.40    0.50
  -8   0  -1    2.10    0.70
  -8   0  -1    2.80    0.50
   8   0   1    3.40    0.70
  -9   0  -1   -0.80    0.80
   9   0   1    0.50    0.80
 -10   0  -1    9.50    1.60
  10   0   1    6.80    1.20
 -11   0  -1    1.30    1.30
  11   0   1    0.80    1.00
  12  -1  -1    5.00    1.60
  11  -1  -1    3.40    1.20
 -11   1   1    2.10    1.30
  10  -1  -1    4.60    1.40
 -10   1   1    1.80    1.00
   9  -1  -1    1.80    0.80
  -9   1   1    2.40    0.80
   8  -1  -1   14.90    1.30
  -8   1   1   12.70    1.40
   7  -1  -1   64.79    4.20
  -7   1   1   63.79    4.30
   6  -1  -1   44.90    3.10
  -6   1   1   49.40    3.20
  -6   1   1   47.40    3.20
   5  -1  -1   50.99    3.20
  -5   1   1   48.90    3.30
  -5   1   1   48.40    3.20
  -5   1   1   48.10    3.30
   4  -1  -1 1288.67   81.99
  -4   1   1 1370.56   81.99
  -4   1   1 1217.88   81.99
  -4   1   1 1253.17   81.99
  -4   1   1 1251.47   81.99
  -3   1   1    1.00    0.20
  -3   1   1    1.60    0.20
  -2   1   1 2737.53  178.08
  -2   1   1 2769.92  178.18
  -2   1   1 2812.32  178.18
   1  -1  -1  280.07   17.40
   1  -1  -1  269.97   17.40
  -1   1   1  251.87   17.40
  -1   1   1  283.57   17.40
   0  -1  -1   10.30    0.60
   0  -1  -1    8.20    0.60
   0  -1  -1    8.10    0.60
   0  -1  -1    9.30    0.60
   0  -1  -1    7.40    0.60
   0   1   1    8.30    0.60
  -1  -1  -1  221.28   14.20
  -1  -1  -1  222.38   14.20
  -1  -1  -1  210.48   14.20
   1   1   1  222.98   14.20
   1   1   1  222.98   14.20
   1   1   1  225.48   14.20
  -2  -1  -1   10.30    0.80
  -2  -1  -1   11.50    0.80
   2   1   1   11.30    0.80
   2   1   1   10.50    0.80
  -3  -1  -1    0.20    0.20
  -3  -1  -1    0.10    0.20
  -3  -1  -1    0.20    0.20
   3   1   1    0.00    0.20
   3   1   1    0.10    0.20
   3   1   1    0.60    0.20
  -4  -1  -1    9.10    0.90
  -4  -1  -1    9.30    0.80
  -4  -1  -1   11.70    0.80
   4   1   1   11.60    0.80
  -5  -1  -1   49.20    3.30
  -5  -1  -1   48.40    3.30
  -5  -1  -1   50.69    3.30
   5   1   1   48.10    3.30
  -6  -1  -1   16.60    1.40
  -6  -1  -1   18.20    1.40
  -6  -1  -1   20.10    1.40
   6   1   1   15.60    1.40
  -7  -1  -1   15.20    1.40
  -7  -1  -1   15.70    1.30
   7   1   1   15.20    1.30
  -8  -1  -1    7.00    1.30
  -8  -1  -1    7.60    0.90
   8   1   1    7.70    1.10
  -9  -1  -1   11.80    1.80
  -9  -1  -1   12.80    1.20
   9   1   1   11.10    1.50
 -10  -1  -1    0.00    1.20
  10   1   1    1.30    0.90
 -11  -1  -1    3.00    1.60
  11   1   1    2.10    1.10
  12  -2  -1    4.00    1.40
  11  -2  -1    2.60    1.20
 -11   2   1    1.60    2.00
  10  -2  -1   36.10    2.90
 -10   2   1   37.90    3.00
   9  -2  -1    7.50    1.20
  -9   2   1    7.20    1.30
   8  -2  -1  305.27   19.80
  -8   2   1  311.97   19.90
  -8   2   1  302.37   19.80
   7  -2  -1    0.60    0.40
  -7   2   1    1.70    0.50
  -7   2   1    1.10    0.50
   6  -2  -1    9.30    0.80
  -6   2   1    7.40    0.80
  -6   2   1   10.50    0.90
  -5   2   1  156.68    9.80
  -5   2   1  149.39    9.80
  -5   2   1  146.39    9.80
  -4   2   1  144.29    9.40
  -4   2   1  142.89    9.40
  -4   2   1  149.99    9.40
  -3   2   1  381.46   25.00
  -3   2   1  398.86   25.00
  -3   2   1  384.06   25.00
   2  -2  -1  183.28   11.70
  -2   2   1  184.88   11.70
  -2   2   1  182.88   11.70
  -2   2   1  182.88   11.70
  -2   2   1  169.58   11.70
   1  -2  -1  419.66   25.40
   1  -2  -1  384.86   25.40
  -1   2   1  345.47   25.50
  -1   2   1  437.36   25.40
  -1   2   1  388.36   25.50
   0  -2  -1   29.80    2.00
   0  -2  -1   29.90    2.10
   0   2   1   31.30    2.10
   0   2   1   32.50    2.00
   0   2   1   30.60    2.10
   0   2   1   32.60    2.00
   0   2   1   31.60    2.10
  -1  -2  -1  154.58   10.10
   1   2   1  166.88   10.10
   1   2   1  148.09   10.10
  -2  -2  -1    3.00    0.40
  -2  -2  -1    3.40    0.50
  -2  -2  -1    3.80    0.40
   2   2   1    2.70    0.30
   2   2   1    3.90    0.40
  -3  -2  -1   17.00    1.40
   3   2   1   20.00    1.40
   3   2   1   20.70    1.40
  -4  -2  -1   30.90    1.90
  -4  -2  -1   25.90    2.00
  -4  -2  -1   27.30    2.00
   4   2   1   27.20    1.90
   4   2   1   29.80    2.00
  -5  -2  -1    8.40    1.00
  -6  -2  -1   55.59    3.90
  -6  -2  -1   61.89    3.90
   6   2   1   54.79    3.90
  -7  -2  -1   21.20    1.90
  -7  -2  -1   25.70    1.80
   7   2   1   22.10    2.00
  -8  -2  -1   19.70    1.70
  -8  -2  -1   18.30    1.90
   8   2   1   20.60    2.00
  -9  -2  -1   -2.30    1.50
  -9  -2  -1   -1.20    0.60
   9   2   1    0.20    0.80
 -10  -2  -1   -0.40    0.70
 -10  -2  -1   -2.20    1.30
  10   2   1    0.60    1.00
  12  -3  -1   20.30    2.60
  11  -3  -1   17.40    2.10
  10  -3  -1   13.30    1.70
 -10   3   1   16.30    1.80
   9  -3  -1   23.50    1.80
  -9   3   1   25.20    1.90
  -9   3   1   23.00    2.00
  -8   3   1   13.00    1.20
  -8   3   1   11.20    1.20
   7  -3  -1    2.20    0.40
  -7   3   1    3.30    0.50
  -7   3   1    2.60    0.50
  -6   3   1   18.10    1.30
  -6   3   1   16.30    1.30
  -6   3   1   18.00    1.30
  -5   3   1    3.50    0.50
  -5   3   1    3.30    0.50
  -5   3   1    4.30    0.50
  -4   3   1   12.80    0.90
  -4   3   1   11.80    0.90
  -4   3   1   13.90    0.90
   3  -3  -1   16.00    1.20
  -3   3   1   15.20    1.20
  -3   3   1   18.50    1.20
  -3   3   1   19.20    1.20
   2  -3  -1   76.59    5.60
   2  -3  -1   91.39    5.50
  -2   3   1   87.89    5.50
  -2   3   1   78.29    5.50
  -2   3   1   91.49    5.50
  -2   3   1   86.69    5.50
   1  -3  -1   60.69    3.60
  -1   3   1   57.19    3.60
  -1   3   1   53.39    3.60
  -1   3   1   46.20    3.60
   0  -3  -1  188.98   11.40
   0  -3  -1  155.88   11.30
   0   3   1  184.08   11.40
   0   3   1  180.28   11.30
   0   3   1  186.18   11.40
   0   3   1  159.68   11.30
  -1  -3  -1   73.79    4.90
   1   3   1   74.19    4.90
   1   3   1   83.39    5.00
   1   3   1   71.49    4.90
  -2  -3  -1  124.59    8.60
  -2  -3  -1  135.99    8.60
   2   3   1  130.79    8.60
   2   3   1  138.79    8.60
  -3  -3  -1  177.78   11.20
  -3  -3  -1  160.88   11.20
   3   3   1  179.78   11.20
   3   3   1  176.58   11.20
   3   3   1  167.48   11.20
  -4  -3  -1    1.50    0.40
  -4  -3  -1    1.20    0.40
   4   3   1    1.60    0.60
   4   3   1    0.50    0.30
  -5  -3  -1    0.00    0.40
  -5  -3  -1   -0.50    0.40
   5   3   1    0.10    0.40
  -6  -3  -1    1.30    0.50
  -6  -3  -1    0.30    0.50
   6   3   1    0.40    0.50
  -7  -3  -1    1.20    0.70
  -7  -3  -1    0.20    0.70
   7   3   1    1.00    0.60
  -8  -3  -1    4.90    0.90
  -8  -3  -1    3.60    0.90
   8   3   1    3.60    0.80
  -9  -3  -1    2.90    1.10
   9   3   1    4.40    1.00
 -10  -3  -1    0.90    1.50
 -10  -3  -1   -0.10    0.80
  10   3   1    3.80    1.20
  12  -4  -1    5.80    1.70
  11  -4  -1    7.30    1.30
 -10   4   1   30.40    2.20
 -10   4   1   24.30    2.30
   9  -4  -1   45.60    3.10
  -9   4   1   43.00    3.20
  -9   4   1   45.30    3.20
   8  -4  -1    0.90    0.50
  -8   4   1    1.20    0.50
  -8   4   1    0.60    0.60
  -7   4   1    4.70    0.80
  -7   4   1    5.50    0.80
  -6   4   1    4.40    0.60
  -6   4   1    4.70    0.60
  -6   4   1    4.30    0.60
   5  -4  -1    8.70    0.80
  -5   4   1    8.00    0.70
  -5   4   1    8.70    0.80
   4  -4  -1   40.40    2.70
  -4   4   1   41.40    2.70
  -4   4   1   40.00    2.60
  -4   4   1   38.10    2.70
  -4   4   1   41.30    2.60
   3  -4  -1   98.99    6.20
  -3   4   1   91.09    6.30
  -3   4   1  102.29    6.20
  -3   4   1   88.69    6.20
  -3   4   1  100.49    6.20
   2  -4  -1   25.20    1.70
   2  -4  -1   23.40    1.70
  -2   4   1   25.20    1.70
  -2   4   1   24.70    1.70
  -2   4   1   24.90    1.70
  -2   4   1   26.90    1.70
   1  -4  -1  139.89    8.30
   1  -4  -1  114.79    8.30
  -1   4   1  109.89    8.30
  -1   4   1  147.19    8.30
  -1   4   1  131.09    8.30
  -1   4   1  127.09    8.30
   0  -4  -1  215.18   14.30
   0  -4  -1  210.38   14.30
   0   4   1  227.88   14.30
   0   4   1  224.08   14.30
   0   4   1  225.38   14.30
   0   4   1  227.38   14.30
  -1  -4  -1   55.99    4.10
  -1  -4  -1   68.29    4.20
   1   4   1   53.89    4.10
   1   4   1   67.19    4.20
   1   4   1   63.79    4.10
   1   4   1   67.49    4.20
  -2  -4  -1   62.59    4.10
  -2  -4  -1   57.09    4.10
   2   4   1   62.19    4.10
   2   4   1   61.09    4.10
   2   4   1   63.49    4.00
   2   4   1   61.89    4.00
  -3  -4  -1    9.40    1.00
  -3  -4  -1   11.90    0.90
   3   4   1   11.10    0.90
  -4  -4  -1    2.80    0.50
   4   4   1    2.80    0.50
  -5  -4  -1    7.90    1.10
  -5  -4  -1    8.40    1.10
   5   4   1    8.10    0.90
  -6  -4  -1   -0.50    0.70
  -6  -4  -1    0.30    0.60
   6   4   1    0.30    0.50
  -7  -4  -1   -0.30    0.80
  -7  -4  -1    0.20    0.80
   7   4   1    1.90    0.70
  -8  -4  -1   -0.20    0.80
  -8  -4  -1    0.30    1.00
   8   4   1    1.30    0.90
  -9  -4  -1   -2.00    1.10
  -9  -4  -1   -1.00    0.90
   9   4   1    0.10    0.90
  12  -5  -1    4.20    1.60
  11  -5  -1    5.00    1.30
  10  -5  -1    4.50    0.90
 -10   5   1    6.10    1.00
   9  -5  -1    4.90    0.80
   9  -5  -1    5.80    0.90
  -9   5   1    5.70    0.90
   8  -5  -1    7.40    1.00
  -8   5   1    5.90    0.90
  -8   5   1    5.80    0.90
   7  -5  -1    4.60    0.80
  -7   5   1    3.60    0.60
   6  -5  -1   46.00    3.10
  -6   5   1   46.90    3.20
  -6   5   1   47.10    3.20
   5  -5  -1    4.30    0.60
  -5   5   1    5.00    0.60
  -5   5   1    4.80    0.60
   4  -5  -1  103.79    6.70
  -4   5   1   99.59    6.70
  -4   5   1  109.99    6.70
  -4   5   1   98.79    6.70
  -4   5   1  103.79    6.70
   3  -5  -1   58.69    4.10
  -3   5   1   65.69    4.10
  -3   5   1   59.09    4.10
  -3   5   1   67.79    4.10
  -3   5   1   64.19    4.20
   2  -5  -1   12.60    0.90
  -2   5   1   13.70    0.90
  -2   5   1   10.60    0.90
  -2   5   1   11.00    0.90
   1  -5  -1   26.20    1.80
   1  -5  -1   23.10    1.90
  -1   5   1   26.80    1.90
  -1   5   1   27.40    1.80
  -1   5   1   30.20    1.80
   0  -5  -1   31.60    2.20
   0  -5  -1   31.20    2.30
   0   5   1   32.50    2.20
   0   5   1   33.00    2.30
   0   5   1   33.50    2.20
  -1  -5  -1    6.10    0.60
   1   5   1    6.60    0.60
   1   5   1    5.50    0.80
   1   5   1    5.80    0.60
  -2  -5  -1   13.80    1.20
   2   5   1   15.60    1.10
   2   5   1   14.70    1.10
   2   5   1   15.30    1.40
  -3  -5  -1   13.80    1.20
  -3  -5  -1   11.80    1.40
   3   5   1   14.50    1.10
   3   5   1   16.60    1.40
  -4  -5  -1    6.10    1.10
  -4  -5  -1    6.30    1.00
   4   5   1    6.20    0.80
  -5  -5  -1   15.40    1.50
  -5  -5  -1   17.30    1.60
   5   5   1   14.40    1.40
  -6  -5  -1    7.90    1.40
  -6  -5  -1   10.40    1.50
   6   5   1    7.10    1.20
  -7  -5  -1    7.00    1.40
  -7  -5  -1    9.40    1.60
   7   5   1    7.50    1.70
  -8  -5  -1    1.90    1.00
  -8  -5  -1    3.50    1.20
   8   5   1    4.20    1.10
  -9  -5  -1   -1.80    1.30
   9   5   1    2.50    1.30
  11  -6  -1    1.80    1.30
  10  -6  -1   11.30    1.50
 -10   6   1    9.50    1.50
   9  -6  -1    9.90    1.30
   9  -6  -1   10.40    1.30
  -9   6   1    9.70    1.30
   8  -6  -1    3.60    0.70
  -8   6   1    1.90    0.60
  -8   6   1    1.00    0.50
   7  -6  -1    5.30    1.00
  -7   6   1    5.40    0.80
  -7   6   1    6.00    0.80
   6  -6  -1    0.40    0.50
  -6   6   1    0.40    0.40
  -6   6   1    0.30    0.40
   5  -6  -1   20.40    1.50
  -5   6   1   19.20    1.50
  -5   6   1   19.60    1.40
  -5   6   1   20.60    1.50
  -5   6   1   19.30    1.40
   4  -6  -1    0.20    0.30
  -4   6   1   -0.50    0.30
  -4   6   1    0.40    0.30
   3  -6  -1   10.20    0.90
  -3   6   1   10.60    0.80
  -3   6   1   10.00    0.80
  -3   6   1   11.40    1.00
  -3   6   1    9.70    0.90
   2  -6  -1    4.70    0.90
   2  -6  -1    6.40    0.70
  -2   6   1    6.50    0.70
  -2   6   1    7.20    0.60
  -2   6   1    6.40    1.10
  -2   6   1    5.90    0.60
   1  -6  -1   14.00    1.20
   1  -6  -1   15.80    1.50
  -1   6   1   16.60    1.20
  -1   6   1   16.70    1.30
  -1   6   1   15.30    1.20
   0  -6  -1    2.70    0.40
   0  -6  -1    0.80    0.70
   0   6   1    3.10    0.50
   0   6   1    2.50    0.40
   0   6   1    1.90    0.50
  -1  -6  -1    7.10    0.90
   1   6   1    5.80    1.00
   1   6   1    8.80    0.70
   1   6   1    6.70    0.70
  -2  -6  -1   12.30    1.30
  -2  -6  -1   18.40    1.50
   2   6   1   15.30    1.10
   2   6   1   16.40    1.50
   2   6   1   12.40    1.20
  -3  -6  -1    3.20    0.80
   3   6   1    2.80    1.30
  -4  -6  -1    1.30    0.80
  -4  -6  -1    0.40    0.70
   4   6   1    0.60    0.50
  -5  -6  -1    4.20    1.00
  -5  -6  -1    5.70    1.10
   5   6   1    5.10    0.80
  -6  -6  -1    8.20    1.40
  -6  -6  -1    9.20    1.90
   6   6   1    9.60    1.30
  -7  -6  -1   12.40    2.00
  -7  -6  -1   16.30    2.10
   7   6   1   15.50    1.70
  -8  -6  -1   -1.10    1.20
  -8  -6  -1   -1.00    1.20
   8   6   1    0.60    1.10
  11  -7  -1    1.00    1.20
  10  -7  -1   -0.10    1.10
 -10   7   1   -0.90    0.90
  -9   7   1    3.30    0.70
  -9   7   1    3.20    0.90
   8  -7  -1   -0.70    0.70
  -8   7   1    0.00    0.50
  -8   7   1    0.20    0.60
   7  -7  -1   19.70    1.80
  -7   7   1   23.90    1.80
  -7   7   1   23.20    1.70
   6  -7  -1    2.20    0.60
  -6   7   1    2.20    0.50
  -6   7   1    3.10    0.60
   5  -7  -1    2.90    0.50
  -5   7   1    3.40    0.60
  -5   7   1    3.80    0.60
  -5   7   1    2.50    0.50
   4  -7  -1    2.30    0.50
  -4   7   1    2.00    0.40
  -4   7   1    1.10    0.70
  -4   7   1    2.00    0.40
   3  -7  -1   19.30    1.50
  -3   7   1   17.40    1.50
  -3   7   1   20.90    1.40
  -3   7   1   16.80    1.30
   2  -7  -1   26.20    2.00
  -2   7   1   29.70    2.00
  -2   7   1   27.00    1.90
  -2   7   1   27.30    2.20
   1  -7  -1   79.59    5.60
  -1   7   1   88.49    5.60
  -1   7   1   84.49    5.50
   0  -7  -1   44.30    3.20
   0  -7  -1   51.29    3.40
   0   7   1   47.40    3.20
   0   7   1   43.40    3.20
   0   7   1   49.10    3.30
  -1  -7  -1   11.40    1.50
  -1  -7  -1    8.40    1.10
   1   7   1    9.10    0.90
   1   7   1    9.70    1.30
   1   7   1   10.20    0.90
  -2  -7  -1    2.70    0.90
  -2  -7  -1    2.50    0.70
   2   7   1    2.20    0.80
   2   7   1    2.50    0.50
  -3  -7  -1    3.70    0.80
  -3  -7  -1    5.50    1.10
   3   7   1    5.90    0.80
  -4  -7  -1    0.80    1.10
   4   7   1    1.10    0.60
  -5  -7  -1    0.90    1.20
  -5  -7  -1    2.40    1.30
   5   7   1    1.60    0.70
  -6  -7  -1   -0.40    1.30
  -6  -7  -1    0.50    1.10
   6   7   1    0.60    0.90
  -7  -7  -1    6.10    1.40
  -7  -7  -1    5.70    1.50
   7   7   1    5.20    1.20
  11  -8  -1    9.90    1.60
  10  -8  -1    1.60    1.00
  -9   8   1    0.80    0.70
  -8   8   1   38.10    3.00
   7  -8  -1    0.40    0.70
  -7   8   1    1.00    0.60
  -7   8   1    1.60    0.60
   6  -8  -1    6.80    1.00
  -6   8   1    5.50    0.90
  -6   8   1    6.20    0.70
  -6   8   1    4.70    0.80
  -6   8   1    4.20    0.80
   5  -8  -1    1.90    0.60
  -5   8   1    1.50    0.60
  -5   8   1    2.00    0.50
  -5   8   1    1.40    0.50
   4  -8  -1    0.70    0.50
  -4   8   1    0.80    0.50
  -4   8   1    1.20    0.40
  -4   8   1    0.80    0.40
   3  -8  -1    5.10    0.90
  -3   8   1    4.50    0.60
  -3   8   1    5.70    0.90
  -3   8   1    6.70    0.80
   2  -8  -1    9.30    1.10
  -2   8   1    8.70    1.00
  -2   8   1   11.30    0.90
  -2   8   1    8.20    1.10
   1  -8  -1    6.70    1.10
  -1   8   1    9.10    1.10
  -1   8   1    9.60    0.90
  -1   8   1    8.30    0.90
   0  -8  -1   39.10    2.90
   0   8   1   39.50    2.70
   0   8   1   39.00    2.90
   0   8   1   39.70    2.70
  -1  -8  -1   59.69    4.10
   1   8   1   54.39    4.00
   1   8   1   62.59    4.20
  -2  -8  -1    3.50    1.20
  -2  -8  -1    1.10    0.80
   2   8   1    1.90    0.70
   2   8   1    2.20    1.00
  -3  -8  -1   88.49    5.70
  -3  -8  -1   84.69    5.90
   3   8   1   75.69    5.50
  -4  -8  -1    1.30    1.00
  -4  -8  -1    1.60    1.50
   4   8   1    0.90    0.80
  -5  -8  -1   -1.60    1.10
  -5  -8  -1   -0.40    1.50
   5   8   1   -0.50    0.90
  -6  -8  -1    0.30    1.60
  -6  -8  -1   -2.40    1.30
   6   8   1    1.10    1.10
  11  -9  -1    3.00    1.40
  10  -9  -1    1.70    1.10
  -9   9   1    2.30    0.80
  -7   9   1   53.99    3.90
   6  -9  -1    5.60    0.90
  -6   9   1    6.10    0.90
  -6   9   1    7.30    0.80
   5  -9  -1   -0.30    0.60
  -5   9   1    0.90    0.50
  -5   9   1    0.20    0.50
   4  -9  -1    1.70    0.70
  -4   9   1    1.90    0.50
  -4   9   1    2.00    0.80
   3  -9  -1   28.30    2.20
  -3   9   1   29.30    2.10
  -3   9   1   26.10    2.20
  -3   9   1   28.00    2.20
   2  -9  -1    0.30    0.70
  -2   9   1   -0.30    0.60
  -2   9   1   -0.10    0.70
  -2   9   1    0.20    0.50
   1  -9  -1   25.30    2.00
  -1   9   1   21.10    1.80
  -1   9   1   21.40    2.00
  -1   9   1   23.30    1.80
   0  -9  -1    1.70    0.80
   0   9   1    0.80    0.50
   0   9   1    2.20    0.70
   0   9   1    0.30    0.80
  -1  -9  -1    5.90    1.10
   1   9   1    7.30    1.20
   1   9   1    5.70    0.90
  -2  -9  -1    2.80    1.00
   2   9   1    1.60    0.80
  -3  -9  -1    1.00    1.10
   3   9   1    0.00    0.90
  -4  -9  -1    0.10    1.20
   4   9   1    1.00    1.10
  -5  -9  -1   -1.60    1.40
   5   9   1   -0.50    1.30
  10 -10  -1    3.80    1.30
  -9  10   1    0.50    0.80
  -8  10   1    0.30    0.70
  -7  10   1   11.90    1.40
   6 -10  -1    7.20    1.40
  -6  10   1   10.50    1.20
  -6  10   1    8.00    1.30
   5 -10  -1   17.10    2.00
  -5  10   1   19.10    1.70
  -5  10   1   24.60    1.80
   4 -10  -1    0.80    0.80
  -4  10   1    4.20    0.80
  -4  10   1    2.50    0.70
   3 -10  -1   77.89    5.60
  -3  10   1   90.19    5.60
  -3  10   1   80.59    5.60
   2 -10  -1   -0.60    0.90
  -2  10   1    0.00    0.70
  -2  10   1    0.70    0.60
   1 -10  -1    0.60    0.90
  -1  10   1    0.30    0.70
  -1  10   1    0.50    0.80
   0 -10  -1    1.30    1.00
   0  10   1    1.80    1.00
  -1 -10  -1    0.60    1.00
  -2 -10  -1    2.60    1.20
  -3 -10  -1    1.60    1.30
  -4 -10  -1   -0.10    1.50
   9 -11  -1   14.40    2.00
  -9  11   1    9.90    1.70
  -8  11   1   -0.90    0.80
  -7  11   1    7.40    1.30
  -6  11   1    1.20    0.50
  -6  11   1    0.70    0.70
  -5  11   1    4.50    0.80
  -5  11   1    4.20    0.90
   4 -11  -1   -0.20    1.10
  -4  11   1    1.90    0.70
  -4  11   1    0.80    0.70
   3 -11  -1    5.10    1.30
  -3  11   1    5.70    1.00
  -3  11   1    5.60    1.00
   2 -11  -1    1.10    1.20
  -2  11   1    2.90    0.90
  -2  11   1    2.50    1.00
   1 -11  -1   -0.70    1.10
  -1  11   1   -0.60    1.00
   0 -11  -1   -1.50    1.20
   0  11   1   -0.40    1.20
  -1 -11  -1    4.80    1.40
  -2 -11  -1    6.30    1.70
  -7  12   1    2.50    0.90
  -6  12   1    1.80    0.90
  -6  12   1    1.50    0.70
  -5  12   1    1.90    0.90
  -5  12   1   -0.10    0.70
  -4  12   1    1.30    0.90
  -4  12   1    1.50    0.90
   3 -12  -1    6.80    1.70
  -3  12   1    5.60    1.10
  -3  12   1    6.80    1.20
   2 -12  -1   -1.90    1.50
  -2  12   1    2.40    1.10
   1 -12  -1   -0.40    1.50
  -1  12   1    1.00    1.30
   0 -12  -1   -0.80    1.70
   0 -12   2   -2.80    1.50
  -1  12  -2    0.80    1.30
   1 -12   2    0.40    1.50
  -2  12  -2    1.70    1.10
  -2  12  -2   -0.90    1.10
   2 -12   2    1.70    1.50
  -3  12  -2    0.50    1.00
  -3  12  -2    1.30    1.00
   3 -12   2    1.80    1.40
  -4  12  -2    1.20    1.00
  -4  12  -2    0.30    0.80
   4 -12   2   -0.20    1.40
  -5  12  -2    0.70    0.80
  -5  12  -2   -0.10    0.90
   5 -12   2    1.10    1.50
  -6  12  -2    0.50    0.60
  -6  12  -2   -1.70    0.80
  -7  12  -2   -0.20    0.90
  -1 -11   2   -0.80    1.30
   0  11  -2   -0.10    1.10
   0 -11   2   -1.20    1.20
  -1  11  -2    2.60    1.00
   1 -11   2    1.90    1.20
  -2  11  -2   17.50    2.40
  -2  11  -2   18.80    2.00
   2 -11   2   17.80    2.20
  -3  11  -2   -0.50    0.70
  -3  11  -2   -0.70    0.80
   3 -11   2   -0.60    1.00
  -4  11  -2    6.80    1.00
  -4  11  -2    5.40    1.00
  -5  11  -2   19.90    1.80
  -5  11  -2   15.20    1.70
  -6  11  -2    1.50    0.60
  -6  11  -2    1.00    0.70
   6 -11   2    1.50    1.40
  -7  11  -2    1.20    0.80
  -8  11  -2    7.90    1.10
  -9  11  -2    2.10    0.90
  -4 -10   2    1.20    1.40
  -3 -10   2    1.40    1.30
  -2 -10   2    1.50    1.20
   1  10  -2    3.20    2.00
  -1 -10   2    0.60    1.00
   0  10  -2    1.20    0.80
   0  10  -2   -0.20    0.90
  -1  10  -2    6.60    1.20
  -1  10  -2    5.40    1.00
  -2  10  -2    5.20    0.80
  -2  10  -2    5.20    1.00
   2 -10   2    4.90    1.00
  -3  10  -2    2.50    0.70
  -3  10  -2    2.90    0.70
   3 -10   2    3.00    0.80
  -4  10  -2    7.20    1.10
  -4  10  -2    5.90    0.90
   4 -10   2    5.70    1.00
  -5  10  -2    2.40    0.60
  -5  10  -2    2.70    0.70
   5 -10   2    1.20    0.90
  -6  10  -2   24.40    2.10
  -6  10  -2   27.20    2.40
   6 -10   2   28.20    2.40
  -7  10  -2    5.00    0.80
   7 -10   2    5.60    1.10
  -8  10  -2    6.00    1.00
  -9  10  -2    1.30    0.80
 -10  10  -2   -0.10    0.90
  -5  -9   2    1.50    1.30
  -4  -9   2    4.90    1.30
  -3  -9   2   -0.30    1.00
  -2  -9   2    0.90    1.30
   1   9  -2   47.60    3.60
  -1  -9   2   45.80    3.50
   0   9  -2    4.80    0.90
   0   9  -2    5.90    0.90
   0  -9   2    2.30    1.10
  -1   9  -2    4.80    0.90
  -1   9  -2    5.30    0.70
  -2   9  -2    5.20    0.70
  -2   9  -2    4.00    0.80
   2  -9   2    4.70    0.80
  -3   9  -2    0.40    0.50
  -3   9  -2   -0.10    0.70
   3  -9   2    0.00    0.60
  -4   9  -2    3.60    0.60
  -4   9  -2    3.20    0.70
   4  -9   2    3.30    0.80
  -5   9  -2    0.00    0.50
  -5   9  -2    0.30    0.60
   5  -9   2    0.50    0.70
  -6   9  -2    1.10    0.40
  -6   9  -2    1.60    0.80
   6  -9   2    1.10    0.70
  -7   9  -2   13.20    1.40
   7  -9   2   15.30    1.70
   8  -9   2    3.00    1.00
  -9   9  -2   16.70    1.70
 -10   9  -2   -0.50    0.80
  11  -9   2    6.00    1.40
   6   8  -2    0.20    1.10
  -6  -8   2   -1.10    1.30
  -6  -8   2   -0.90    1.80
  -5  -8   2    6.90    1.30
  -5  -8   2    8.30    1.70
   4   8  -2    2.30    0.80
  -4  -8   2    3.20    1.00
  -4  -8   2    2.70    1.30
   3   8  -2    0.90    0.70
  -3  -8   2    1.80    1.10
  -3  -8   2    0.60    1.10
   2   8  -2   10.80    1.70
   2   8  -2   11.00    1.20
  -2  -8   2   12.00    1.50
   1   8  -2   13.90    1.20
   1   8  -2   10.40    1.10
   1   8  -2   11.60    1.60
  -1  -8   2   13.30    1.40
   0   8  -2   23.40    1.90
   0   8  -2   21.80    1.60
   0   8  -2   19.10    1.60
   0  -8   2   19.50    1.70
  -1   8  -2    0.50    0.60
  -1   8  -2    1.00    0.40
  -1   8  -2    1.00    0.50
   1  -8   2    0.60    0.50
  -2   8  -2   18.60    1.30
  -2   8  -2   17.00    1.40
  -2   8  -2   15.20    1.50
   2  -8   2   18.60    1.50
  -3   8  -2   12.10    1.10
  -3   8  -2   11.60    1.10
   3  -8   2   10.80    1.20
  -4   8  -2    0.70    0.50
  -4   8  -2    0.50    0.40
   4  -8   2    0.90    0.50
  -5   8  -2    1.30    0.50
  -5   8  -2    1.50    0.50
   5  -8   2    1.30    0.60
  -6   8  -2   14.70    1.40
  -6   8  -2   15.00    1.10
  -6   8  -2   14.60    1.20
   6  -8   2   14.60    1.50
  -7   8  -2   31.20    2.50
   7  -8   2   37.50    2.60
  -8   8  -2    6.30    1.10
   8  -8   2    5.10    1.00
  -9   8  -2   28.30    2.20
   9  -8   2   25.90    2.40
 -10   8  -2    3.30    0.90
  11  -8   2   10.00    1.50
   7   7  -2   14.20    2.00
  -7  -7   2   14.60    2.30
  -7  -7   2   14.20    2.50
   6   7  -2    5.10    1.00
  -6  -7   2    6.30    1.40
  -6  -7   2    4.60    1.30
   5   7  -2    2.50    0.80
  -5  -7   2    3.70    1.20
  -5  -7   2    4.60    1.40
   4   7  -2   -0.10    0.60
  -4  -7   2   -0.60    1.00
  -4  -7   2   -0.50    0.70
   3   7  -2    1.90    0.50
  -3  -7   2    0.80    0.80
  -3  -7   2    0.60    0.90
   2   7  -2    1.00    0.80
   2   7  -2    1.20    0.60
   2   7  -2    1.70    0.50
   2   7  -2    0.70    0.50
  -2  -7   2    0.80    0.70
  -2  -7   2    2.00    0.60
   1   7  -2    1.80    0.50
   1   7  -2    1.90    0.50
   1   7  -2    1.80    0.60
   1   7  -2    1.20    0.60
  -1  -7   2    1.60    0.50
  -1  -7   2    1.80    0.80
   0   7  -2    5.40    0.70
   0   7  -2    6.50    0.80
   0  -7   2    6.80    0.90
  -1   7  -2    9.80    0.90
   1  -7   2   10.20    1.00
  -2   7  -2   15.50    1.30
  -2   7  -2   16.40    1.30
  -2   7  -2   16.90    1.20
  -2   7  -2   16.10    1.30
   2  -7   2   17.20    1.30
  -3   7  -2  113.19    7.30
  -3   7  -2  110.49    7.30
  -4   7  -2    5.80    0.70
  -4   7  -2    4.30    0.60
  -4   7  -2    4.00    0.60
  -5   7  -2   32.10    2.00
  -5   7  -2   27.70    1.90
  -5   7  -2   25.40    1.90
  -5   7  -2   26.60    1.90
   5  -7   2   26.20    2.00
  -6   7  -2   82.29    5.40
  -6   7  -2   79.79    5.40
   6  -7   2   81.69    5.40
  -7   7  -2   24.20    2.00
  -7   7  -2   24.50    2.00
   7  -7   2   30.60    2.10
  -8   7  -2   31.70    2.60
  -8   7  -2   31.90    2.40
   8  -7   2   30.60    2.40
  -9   7  -2   22.00    1.90
   9  -7   2   24.30    2.10
 -10   7  -2    6.10    1.00
  11  -7   2    2.00    1.20
   8   6  -2    5.30    1.30
  -8  -6   2    6.10    1.50
   7   6  -2    5.80    1.10
  -7  -6   2    2.90    1.20
  -7  -6   2    3.60    1.30
   6   6  -2    4.40    0.90
  -6  -6   2    4.10    1.10
  -6  -6   2    3.00    1.60
   5   6  -2    0.30    0.60
  -5  -6   2   -1.10    0.90
  -5  -6   2    0.00    0.80
   4   6  -2   22.30    1.60
  -4  -6   2   20.30    1.80
  -4  -6   2   15.90    1.80
   3   6  -2   15.70    1.60
   3   6  -2   16.50    1.20
   3   6  -2   15.60    1.70
  -3  -6   2   13.30    1.70
  -3  -6   2   15.00    1.40
   2   6  -2    3.70    0.60
   2   6  -2    5.20    0.80
   2   6  -2    4.90    0.60
  -2  -6   2    5.40    0.90
  -2  -6   2    3.50    0.80
   1   6  -2    5.00    0.60
   1   6  -2    4.70    0.90
   1   6  -2    4.10    0.60
  -1  -6   2    5.20    0.70
  -1  -6   2    6.30    1.10
   0   6  -2  101.59    6.70
   0   6  -2  104.39    6.80
   0   6  -2  105.59    6.70
   0  -6   2   99.29    6.80
   0  -6   2  102.79    6.80
  -1   6  -2  126.29    9.00
   1  -6   2  149.49    9.00
  -2   6  -2  250.97   17.40
  -2   6  -2  274.67   17.40
   2  -6   2  281.87   17.40
  -3   6  -2  295.37   19.40
  -3   6  -2  315.97   19.50
  -3   6  -2  301.27   19.40
  -3   6  -2  297.17   19.40
   3  -6   2  296.77   19.40
  -4   6  -2    7.80    0.70
  -4   6  -2    7.10    0.70
   4  -6   2    7.20    0.80
  -5   6  -2   43.40    2.90
  -5   6  -2   45.20    3.00
  -5   6  -2   46.90    3.00
  -5   6  -2   42.60    2.90
   5  -6   2   43.40    3.00
  -6   6  -2    4.30    0.70
  -6   6  -2    3.80    0.70
  -7   6  -2    4.70    0.70
  -7   6  -2    3.10    0.60
   7  -6   2    3.70    0.70
  -8   6  -2   19.80    1.60
  -8   6  -2   18.90    1.60
   8  -6   2   21.50    1.70
  -9   6  -2    3.70    0.70
  -9   6  -2    4.60    0.80
   9  -6   2    4.20    0.90
  10  -6   2    2.80    1.10
  10  -6   2    3.40    1.00
  10  -6   2    4.70    0.90
   9   5  -2    1.40    1.30
  -9  -5   2    2.20    1.30
  -9  -5   2    0.70    1.10
   8   5  -2    1.10    0.90
  -8  -5   2    2.50    1.20
  -8  -5   2   -0.20    1.10
   7   5  -2    3.80    1.00
  -7  -5   2    0.40    1.50
  -7  -5   2    4.00    1.40
   6   5  -2   -0.10    0.60
  -6  -5   2   -0.10    0.80
  -6  -5   2   -0.50    0.80
   5   5  -2   15.70    1.30
  -5  -5   2   13.10    1.60
  -5  -5   2   15.40    1.50
   4   5  -2   31.00    2.30
  -4  -5   2   32.50    2.40
  -4  -5   2   36.30    2.50
   3   5  -2  281.57   18.60
   3   5  -2  302.37   18.50
   3   5  -2  285.97   18.60
  -3  -5   2  276.87   18.60
  -3  -5   2  289.07   18.60
   2   5  -2   28.90    2.10
   2   5  -2   32.00    2.20
   1   5  -2  312.67   20.20
   1   5  -2  305.97   20.30
  -1  -5   2  321.67   20.30
   0   5  -2  173.78   10.50
   0   5  -2  157.58   10.60
   0   5  -2  166.68   10.50
   0  -5   2  167.68   10.50
   0  -5   2  145.79   10.60
  -1   5  -2    6.40    0.60
  -1   5  -2    5.80    0.90
  -1   5  -2    5.90    0.60
  -1   5  -2    6.00    0.50
   1  -5   2    6.20    0.50
   1  -5   2    5.90    0.80
  -2   5  -2    6.60    0.50
  -2   5  -2    6.20    0.60
  -2   5  -2    6.70    0.60
   2  -5   2    4.90    0.80
   2  -5   2    6.70    0.60
  -3   5  -2   12.50    0.90
  -3   5  -2   11.50    0.90
  -3   5  -2   10.80    0.90
  -3   5  -2   12.10    0.90
   3  -5   2   12.50    0.90
  -4   5  -2    4.90    0.50
  -4   5  -2    4.90    0.50
  -4   5  -2    5.10    0.60
  -4   5  -2    4.00    0.50
   4  -5   2    5.60    0.60
  -5   5  -2   10.60    0.90
  -5   5  -2    9.50    0.80
   5  -5   2   11.20    0.90
  -6   5  -2    0.40    0.40
  -6   5  -2    0.40    0.40
   6  -5   2   -0.10    0.40
  -7   5  -2    8.60    0.90
  -7   5  -2    9.10    1.00
   7  -5   2    8.60    1.00
  -8   5  -2   44.50    3.10
  -8   5  -2   44.90    3.10
  -9   5  -2   24.40    1.90
  -9   5  -2   23.80    2.00
 -10   5  -2    9.80    1.70
  10  -5   2   14.90    1.50
  10  -5   2   13.10    1.60
  11  -5   2   19.90    2.20
  12  -5   2    9.10    2.20
   9   4  -2    3.50    1.00
  -9  -4   2    1.00    1.20
  -9  -4   2    0.30    0.90
   8   4  -2    2.70    0.80
  -8  -4   2    2.40    1.00
  -8  -4   2    3.60    1.00
   7   4  -2   16.00    1.60
  -7  -4   2   17.60    1.90
   6   4  -2   20.50    1.70
  -6  -4   2   22.40    1.90
  -6  -4   2   20.00    1.80
   5   4  -2    6.80    0.90
  -5  -4   2    8.70    1.00
  -5  -4   2    6.20    1.00
   4   4  -2  118.49    7.70
  -4  -4   2  117.19    7.70
   3   4  -2  107.39    6.80
   3   4  -2  104.39    6.80
  -3  -4   2   97.59    6.90
  -3  -4   2  107.69    6.80
   2   4  -2    4.80    0.50
   2   4  -2    4.60    0.80
  -2  -4   2    6.40    0.70
  -2  -4   2    4.50    0.60
   1   4  -2    0.90    0.20
  -1  -4   2    1.00    0.40
  -1  -4   2    0.80    0.20
   0  -4   2   32.70    2.20
  -1   4  -2   25.20    1.70
  -1   4  -2   23.70    1.70
  -1   4  -2   26.50    1.70
   1  -4   2   22.60    1.70
  -2   4  -2   25.80    1.90
  -2   4  -2   29.80    1.90
  -2   4  -2   30.80    1.90
   2  -4   2   25.60    1.90
   2  -4   2   29.90    1.90
  -3   4  -2   29.70    2.20
  -3   4  -2   34.20    2.20
  -3   4  -2   30.50    2.20
  -3   4  -2   33.50    2.20
   3  -4   2   35.80    2.20
  -4   4  -2    7.20    0.60
  -4   4  -2    6.30    0.60
   4  -4   2    5.60    0.60
  -5   4  -2   81.89    5.30
  -5   4  -2   78.99    5.30
  -6   4  -2    6.10    0.70
  -6   4  -2    5.50    0.70
  -6   4  -2    7.50    0.70
  -7   4  -2   21.00    1.60
  -7   4  -2   21.00    1.60
  -8   4  -2   49.20    3.50
  -8   4  -2   49.90    3.40
  -8   4  -2   51.99    3.40
  -9   4  -2    0.10    0.70
   9  -4   2   -0.20    0.50
   9  -4   2    0.70    0.70
 -10   4  -2    1.20    0.90
  10  -4   2    2.30    0.90
 -11   4  -2   -0.50    1.80
  11  -4   2    0.90    1.10
  12  -4   2    9.80    1.70
 -10  -3   2    3.30    1.60
 -10  -3   2    5.30    1.00
   9   3  -2   28.90    2.50
  -9  -3   2   29.50    2.70
  -9  -3   2   31.20    2.40
   8   3  -2   14.50    1.50
  -8  -3   2   13.20    1.50
  -8  -3   2   10.50    1.70
   7   3  -2   39.70    3.00
  -7  -3   2   41.70    3.00
  -7  -3   2   42.70    3.00
   6   3  -2   10.70    1.10
  -6  -3   2   11.60    1.20
  -6  -3   2   13.60    1.20
   5   3  -2    1.70    0.50
  -5  -3   2    2.60    0.50
  -5  -3   2    1.50    0.50
   4   3  -2   10.20    0.80
   4   3  -2    9.00    1.10
  -4  -3   2   11.50    0.90
  -4  -3   2    8.90    0.90
   3   3  -2    7.80    1.00
   3   3  -2    9.90    0.70
   3   3  -2   12.20    0.80
   2   3  -2    0.90    0.20
   2   3  -2    1.00    0.20
   2   3  -2    1.00    0.30
  -2  -3   2    1.00    0.30
  -2  -3   2    0.50    0.20
   1   3  -2  188.58   13.40
  -1  -3   2  228.78   13.50
   0   3  -2  122.19    7.80
   0   3  -2  127.29    7.70
   0   3  -2  113.09    7.80
   0  -3   2  120.19    7.80
   0  -3   2  116.99    7.80
  -1   3  -2 1310.67   82.89
  -1   3  -2 1253.77   82.89
   1  -3   2 1326.47   82.79
   1  -3   2 1268.17   82.89
  -2   3  -2  446.76   28.20
  -2   3  -2  410.06   28.20
  -2   3  -2  438.56   28.30
   2  -3   2  461.85   28.30
  -3   3  -2    1.90    0.30
  -3   3  -2    1.80    0.20
  -3   3  -2    2.70    0.30
   3  -3   2    2.30    0.30
  -4   3  -2  266.07   16.90
  -4   3  -2  256.37   16.90
  -4   3  -2  262.07   16.90
  -5   3  -2  112.59    7.40
  -5   3  -2  117.49    7.40
  -5   3  -2  111.09    7.40
  -6   3  -2   41.00    2.80
  -6   3  -2   42.00    2.90
  -6   3  -2   44.00    2.90
  -7   3  -2   -0.10    0.30
  -8   3  -2   11.00    1.20
   8  -3   2   12.30    1.20
  -9   3  -2    0.60    0.70
   9  -3   2   -0.10    0.60
 -10   3  -2   22.20    2.20
  10  -3   2   24.20    2.10
 -11   3  -2    1.10    1.30
  11  -3   2    0.90    1.10
  12  -3   2    2.40    1.40
 -10  -2   2    6.30    1.10
 -10  -2   2    4.40    1.40
   9   2  -2    6.00    1.00
  -9  -2   2    4.60    0.80
  -9  -2   2    6.30    1.10
   8   2  -2    0.70    0.70
  -8  -2   2    1.30    0.80
  -8  -2   2    0.50    0.70
   7   2  -2   11.90    1.20
  -7  -2   2    9.00    1.10
  -7  -2   2   11.40    1.30
   6   2  -2    9.40    0.90
  -6  -2   2    8.70    1.00
  -6  -2   2    6.30    0.90
  -5  -2   2   12.60    1.00
  -5  -2   2   10.90    1.10
   4   2  -2    1.30    0.30
   4   2  -2    2.10    0.50
  -4  -2   2    1.50    0.30
  -4  -2   2    2.00    0.30
   3   2  -2  148.69    8.90
   3   2  -2  119.69    8.80
   3   2  -2  133.19    8.80
  -3  -2   2  123.39    8.80
  -3  -2   2  139.79    8.80
  -3  -2   2  152.98    8.90
   2   2  -2   86.79    5.10
   2   2  -2   75.19    5.10
   2   2  -2   66.09    5.10
  -2  -2   2   68.19    5.10
  -2  -2   2   90.39    5.20
  -2  -2   2   85.99    5.20
   1   2  -2   18.10    1.10
   1   2  -2   15.40    1.10
   0   2  -2   18.50    1.10
   0   2  -2   16.10    1.10
   0   2  -2   15.00    1.10
   0   2  -2   14.60    1.10
   0  -2   2   15.70    1.10
   0  -2   2   16.50    1.10
  -1   2  -2    1.10    0.20
  -1   2  -2    0.40    0.20
   1  -2   2    0.80    0.20
   1  -2   2    0.60    0.20
  -2   2  -2   58.89    3.70
  -2   2  -2   56.69    3.70
  -2   2  -2   54.69    3.70
  -2   2  -2   57.69    3.70
  -2   2  -2   57.29    3.70
  -3   2  -2  169.38   10.90
  -3   2  -2  170.08   11.00
  -3   2  -2  169.58   10.90
  -4   2  -2   59.09    4.00
  -4   2  -2   65.59    4.00
  -4   2  -2   60.79    4.00
  -5   2  -2    5.90    0.60
  -5   2  -2    6.20    0.70
  -5   2  -2    7.10    0.60
  -6   2  -2   11.20    0.90
  -6   2  -2   12.50    1.00
  -6   2  -2    8.40    0.90
  -7   2  -2   51.19    3.40
   7  -2   2   47.60    3.20
   7  -2   2   46.90    3.30
   8  -2   2    3.20    0.50
   8  -2   2    2.50    0.60
  -9   2  -2    1.80    0.80
   9  -2   2    1.30    0.70
 -10   2  -2    5.80    1.10
  10  -2   2    8.30    1.40
 -11   2  -2    4.00    1.30
  11  -2   2    4.50    1.20
 -12   2  -2    0.40    1.70
  12  -2   2    3.90    1.40
  11   1  -2   14.40    2.10
  10   1  -2    2.60    1.10
 -10  -1   2    0.70    1.20
   9   1  -2    3.70    0.80
  -9  -1   2    2.90    0.60
  -9  -1   2    2.20    0.90
   8   1  -2    4.30    0.70
  -8  -1   2    3.70    0.60
  -8  -1   2    2.00    0.70
   7   1  -2    2.40    0.60
  -7  -1   2    1.90    0.50
  -7  -1   2    3.20    0.60
   6   1  -2    0.10    0.40
  -6  -1   2   -0.10    0.40
  -6  -1   2   -0.40    0.30
   5   1  -2  106.49    6.70
  -5  -1   2  102.69    6.80
  -5  -1   2  105.39    6.80
  -5  -1   2  102.39    6.80
  -5  -1   2  104.49    6.80
   4   1  -2   10.80    0.80
  -4  -1   2   12.00    0.80
  -4  -1   2   11.10    0.90
  -4  -1   2   10.50    0.90
  -4  -1   2   11.10    0.80
   3   1  -2  150.58    9.40
   3   1  -2  145.59    9.40
  -3  -1   2  152.08    9.40
  -3  -1   2  134.19    9.40
  -3  -1   2  146.39    9.40
   2   1  -2  108.09    6.90
   2   1  -2  103.49    6.90
  -2  -1   2  107.79    6.90
  -2  -1   2  110.19    6.90
  -2  -1   2  101.49    6.90
   1   1  -2 3652.23  223.48
   1   1  -2 3448.35  223.38
  -1  -1   2 3390.56  223.48
  -1  -1   2 3583.34  223.48
  -1  -1   2 3315.77  223.38
  -1  -1   2 3473.95  223.48
   0   1  -2 3133.59  211.58
   0   1  -2 3376.36  211.58
   0   1  -2 3351.36  211.58
   0   1  -2 3052.59  211.48
   0  -1   2 3318.77  211.58
   0  -1   2 3528.85  211.58
  -1   1  -2  173.98   10.70
  -1   1  -2  177.08   10.70
  -1   1  -2  164.28   10.70
   1  -1   2  151.18   10.70
  -2   1  -2 1463.75   91.59
  -2   1  -2 1379.96   91.79
  -2   1  -2 1435.26   91.59
  -3   1  -2   30.40    2.10
  -3   1  -2   32.50    2.10
  -4   1  -2   13.90    1.00
  -5   1  -2    0.50    0.30
  -5   1  -2    0.10    0.30
  -5   1  -2    0.50    0.20
  -6   1  -2    1.80    0.40
   6  -1   2    0.90    0.30
   6  -1   2    0.30    0.30
  -7   1  -2    2.40    0.50
   7  -1   2    2.10    0.50
   7  -1   2    1.90    0.40
  -8   1  -2    0.30    0.60
   8  -1   2    0.20    0.50
  -9   1  -2    1.60    0.80
   9  -1   2    2.40    0.80
 -10   1  -2    0.50    1.00
  10  -1   2    0.70    1.00
 -11   1  -2    0.90    1.30
  11  -1   2    1.70    1.10
 -12   1  -2    3.10    1.80
  12  -1   2    3.70    1.40
  11   0  -2    1.40    1.10
 -11   0   2    1.10    1.40
  10   0  -2    2.00    1.00
 -10   0   2    1.50    1.30
   9   0  -2    1.20    0.80
  -9   0   2   -0.50    0.80
   8   0  -2   26.20    2.00
  -8   0   2   26.20    2.20
  -8   0   2   22.00    1.80
  -8   0   2   27.80    1.80
   7   0  -2    5.70    0.80
  -7   0   2    5.30    0.70
  -7   0   2    5.00    0.90
  -7   0   2    6.10    0.70
   6   0  -2   23.00    1.50
  -6   0   2   19.60    1.50
  -6   0   2   19.60    1.70
  -6   0   2   20.80    1.50
  -6   0   2   18.50    1.50
   5   0  -2    1.20    0.30
  -5   0   2    1.10    0.30
  -5   0   2    0.90    0.30
  -5   0   2    0.50    0.20
  -5   0   2    0.80    0.30
   4   0  -2  244.18   15.40
  -4   0   2  237.68   15.40
  -4   0   2  228.38   15.40
  -4   0   2  249.58   15.40
  -4   0   2  234.28   15.40
  -3   0   2  232.98   14.20
  -3   0   2  213.58   14.20
  -3   0   2  206.58   14.20
  -3   0   2  230.68   14.30
   2   0  -2    4.70    0.40
  -2   0   2    5.10    0.40
  -2   0   2    4.70    0.40
  -2   0   2    4.50    0.40
  -2   0   2    5.20    0.40
   1   0  -2   21.40    1.40
   1   0  -2   21.70    1.40
  -1   0   2   21.00    1.40
  -1   0   2   21.20    1.40
  -1   0  -2  596.84   37.60
   1   0   2  588.14   37.60
   1   0   2  620.54   37.60
   1   0   2  534.55   37.60
  -2   0  -2  128.39    8.40
  -2   0  -2  134.89    8.40
  -2   0  -2  130.29    8.40
  -2   0  -2  134.69    8.40
   2   0   2  129.99    8.40
   2   0   2  126.59    8.40
   2   0   2  129.99    8.40
  -3   0  -2  177.38   11.50
  -3   0  -2  181.08   11.50
  -3   0  -2  185.28   11.50
  -3   0  -2  178.98   11.50
   3   0   2  169.38   11.50
  -4   0  -2   87.29    5.50
  -4   0  -2   89.19    5.60
  -4   0  -2   77.29    5.50
   4   0   2   86.39    5.50
  -5   0  -2    5.70    0.60
  -5   0  -2    6.20    0.60
  -5   0  -2    7.10    0.60
   5   0   2    6.10    0.60
  -6   0  -2    1.70    0.40
  -6   0  -2    1.70    0.50
  -6   0  -2    3.00    0.50
  -7   0  -2    4.00    0.60
  -7   0  -2    4.40    0.60
  -7   0  -2    4.10    0.60
   7   0   2    3.90    0.60
  -8   0  -2    5.60    0.70
  -8   0  -2    6.40    0.90
   8   0   2    5.50    0.90
  -9   0  -2    1.10    0.90
   9   0   2    1.70    0.80
 -10   0  -2    4.30    2.00
  10   0   2    2.40    1.10
 -11   0  -2    8.50    1.60
  11   0   2    8.00    1.40
  12  -1  -2    3.10    1.50
  11  -1  -2   10.70    1.80
 -11   1   2    2.90    1.40
 -10   1   2    0.60    1.00
   9  -1  -2    8.90    1.20
  -9   1   2    8.50    1.40
  -8   1   2    3.60    0.70
   7  -1  -2  210.58   13.60
  -7   1   2  204.48   13.60
  -7   1   2  213.98   13.60
   6  -1  -2  380.76   24.30
  -6   1   2  386.26   24.20
  -6   1   2  367.76   24.20
  -6   1   2  374.36   24.30
  -6   1   2  374.76   24.30
   5  -1  -2   63.09    4.10
  -5   1   2   60.79    4.10
  -5   1   2   65.39    4.00
  -5   1   2   60.49    4.00
  -5   1   2   60.39    4.10
   4  -1  -2 1347.07   88.89
  -4   1   2 1381.36   88.89
  -4   1   2 1402.26   88.79
  -4   1   2 1378.46   88.89
  -4   1   2 1408.66   88.79
   3  -1  -2  379.46   24.60
  -3   1   2  397.36   24.60
  -3   1   2  382.36   24.60
  -3   1   2  354.66   24.60
  -3   1   2  399.36   24.60
  -2   1   2  263.27   16.00
  -2   1   2  239.48   16.00
  -2   1   2  242.68   16.00
  -2   1   2  247.08   16.00
  -2   1   2  252.57   16.00
   1  -1  -2  273.77   17.80
  -1   1   2  271.17   17.80
  -1   1   2  282.37   17.80
  -1   1   2  280.87   17.80
   0  -1  -2   17.70    1.20
   0  -1  -2   16.80    1.20
   0  -1  -2   17.00    1.20
   0   1   2   19.10    1.20
   0   1   2   18.60    1.20
   0   1   2   19.60    1.20
   0   1   2   16.10    1.20
  -1  -1  -2    4.00    0.30
  -1  -1  -2    3.40    0.30
  -1  -1  -2    3.90    0.30
   1   1   2    3.40    0.30
   1   1   2    3.70    0.30
  -2  -1  -2  101.39    6.90
  -2  -1  -2  110.19    6.90
   2   1   2  107.39    6.90
   2   1   2  107.19    6.90
  -3  -1  -2   16.70    1.20
  -3  -1  -2   17.30    1.20
  -3  -1  -2   16.80    1.20
   3   1   2   17.60    1.20
   3   1   2   16.90    1.20
  -4  -1  -2  112.09    7.20
  -4  -1  -2  119.09    7.20
  -4  -1  -2  107.99    7.30
   4   1   2  106.69    7.20
  -5  -1  -2   30.80    2.00
  -5  -1  -2   26.50    2.00
  -5  -1  -2   28.80    2.00
   5   1   2   28.80    2.00
  -6  -1  -2    8.30    0.80
  -6  -1  -2    7.30    0.90
  -6  -1  -2    8.60    1.00
   6   1   2    8.70    0.80
  -7  -1  -2   15.30    1.20
  -7  -1  -2   16.10    1.40
   7   1   2   15.30    1.30
  -8  -1  -2   28.00    2.30
  -8  -1  -2   29.30    2.10
   8   1   2   27.20    2.20
  -9  -1  -2   10.90    1.40
  -9  -1  -2    9.10    1.10
   9   1   2   12.40    1.40
 -10  -1  -2    7.30    1.50
  10   1   2    9.00    1.30
 -11  -1  -2    1.70    1.60
  11   1   2    0.80    1.10
  12  -2  -2   21.00    2.60
  11  -2  -2    3.50    1.10
  10  -2  -2   52.99    3.70
 -10   2   2   47.00    3.70
  -9   2   2    1.70    0.70
  -9   2   2    0.90    0.70
   8  -2  -2    3.40    0.60
  -8   2   2    4.30    0.70
   7  -2  -2   53.59    3.60
  -7   2   2   53.89    3.60
  -7   2   2   52.79    3.60
   6  -2  -2   23.70    1.50
  -6   2   2   20.90    1.50
  -6   2   2   19.20    1.50
   5  -2  -2    0.50    0.20
  -5   2   2    1.10    0.30
  -5   2   2    0.80    0.20
  -4   2   2   25.50    1.70
  -4   2   2   24.40    1.70
  -4   2   2   26.60    1.70
  -3   2   2  183.08   12.00
  -3   2   2  183.88   12.00
  -3   2   2  191.68   12.00
  -3   2   2  187.08   12.00
   2  -2  -2   49.00    3.20
  -2   2   2   48.80    3.20
  -2   2   2   51.19    3.30
  -2   2   2   49.80    3.30
  -2   2   2   51.29    3.20
   1  -2  -2  301.37   18.40
   1  -2  -2  266.47   18.40
  -1   2   2  318.87   18.40
  -1   2   2  289.77   18.50
  -1   2   2  255.67   18.50
   0  -2  -2    6.50    0.50
   0   2   2    5.60    0.40
   0   2   2    5.10    0.40
  -1  -2  -2  219.88   14.40
   1   2   2  220.38   14.40
   1   2   2  206.78   14.40
   1   2   2  248.28   14.40
  -2  -2  -2  321.27   22.10
  -2  -2  -2  360.06   22.10
  -2  -2  -2  334.17   22.10
   2   2   2  355.86   22.10
   2   2   2  342.27   22.10
  -3  -2  -2   16.50    1.40
  -3  -2  -2   21.30    1.50
   3   2   2   22.10    1.50
  -4  -2  -2   84.09    5.70
  -4  -2  -2   89.69    5.70
   4   2   2   89.79    5.70
   4   2   2   84.09    5.70
  -5  -2  -2  126.79    8.00
   5   2   2  115.99    8.00
  -6  -2  -2    1.50    0.50
  -6  -2  -2    2.30    0.50
   6   2   2    1.60    0.50
  -7  -2  -2    0.20    0.50
  -7  -2  -2    0.40    0.60
   7   2   2    0.50    0.50
  -8  -2  -2   11.50    1.30
  -8  -2  -2   11.10    1.50
   8   2   2   12.50    1.40
  -9  -2  -2    1.60    1.70
  -9  -2  -2    0.60    0.70
   9   2   2    0.30    0.80
 -10  -2  -2   -1.50    1.30
 -10  -2  -2    0.50    0.70
  10   2   2    1.20    0.90
  12  -3  -2   35.30    3.30
  11  -3  -2    4.10    1.30
  10  -3  -2   53.69    3.80
 -10   3   2   51.69    3.80
   9  -3  -2   14.30    1.30
  -9   3   2   13.60    1.40
  -9   3   2   13.80    1.40
   8  -3  -2    0.20    0.50
  -8   3   2    0.60    0.50
   7  -3  -2    4.70    0.60
  -7   3   2    4.20    0.70
  -7   3   2    3.80    0.60
   6  -3  -2    3.30    0.60
  -6   3   2    2.40    0.50
  -6   3   2    3.60    0.50
  -5   3   2   50.89    3.50
  -5   3   2   55.79    3.60
  -5   3   2   53.99    3.50
  -4   3   2  125.09    7.90
  -4   3   2  120.39    8.00
  -4   3   2  122.49    8.00
   3  -3  -2   14.00    0.90
  -3   3   2   12.50    0.90
   2  -3  -2  269.57   18.10
   2  -3  -2  273.37   18.10
  -2   3   2  282.47   18.10
  -2   3   2  284.47   18.10
  -2   3   2  293.07   18.10
  -2   3   2  280.47   18.10
   1  -3  -2  400.86   24.80
   1  -3  -2  370.26   24.80
  -1   3   2  381.36   24.80
  -1   3   2  398.66   24.80
  -1   3   2  389.46   24.80
  -1   3   2  369.96   24.80
   0  -3  -2  223.08   14.40
   0  -3  -2  217.48   14.40
   0   3   2  220.08   14.30
   0   3   2  229.78   14.30
   0   3   2  222.08   14.40
  -1  -3  -2  351.76   22.30
  -1  -3  -2  348.77   22.30
   1   3   2  305.27   22.40
   1   3   2  371.66   22.30
   1   3   2  353.36   22.30
  -2  -3  -2  341.87   21.90
  -2  -3  -2  330.87   21.90
   2   3   2  333.57   21.90
   2   3   2  354.36   21.90
  -3  -3  -2    4.30    0.60
   3   3   2    4.20    0.50
   3   3   2    6.00    0.70
  -4  -3  -2   32.90    2.30
  -4  -3  -2   30.70    2.20
   4   3   2   31.30    2.30
   4   3   2   33.90    2.20
  -5  -3  -2    8.20    1.00
  -5  -3  -2    8.80    1.00
   5   3   2    7.20    0.80
  -6  -3  -2    3.00    0.70
  -6  -3  -2    4.40    0.70
   6   3   2    3.30    0.60
  -7  -3  -2   14.10    1.50
  -7  -3  -2   13.40    1.50
   7   3   2   12.90    1.30
  -8  -3  -2    3.50    0.90
  -8  -3  -2    2.20    1.00
   8   3   2    3.10    0.80
  -9  -3  -2    4.10    1.20
  -9  -3  -2    5.00    0.90
   9   3   2    8.60    1.40
 -10  -3  -2    1.90    1.60
 -10  -3  -2    3.50    0.90
  10   3   2    4.90    1.10
  12  -4  -2    4.10    1.50
  11  -4  -2    0.70    1.10
  10  -4  -2   18.90    1.90
 -10   4   2   17.60    2.10
 -10   4   2   19.50    1.80
   9  -4  -2   23.00    1.80
  -9   4   2   23.00    1.90
  -9   4   2   22.80    1.90
   8  -4  -2   14.20    1.20
  -8   4   2   12.40    1.20
  -8   4   2   13.10    1.40
   7  -4  -2    5.60    0.80
  -7   4   2    6.70    0.80
  -7   4   2    4.80    0.80
  -6   4   2    4.70    0.60
  -6   4   2    4.00    0.60
  -6   4   2    5.80    0.60
   5  -4  -2   13.10    1.00
  -5   4   2   13.10    1.00
  -5   4   2   13.50    1.00
   4  -4  -2  300.27   19.40
  -4   4   2  305.57   19.50
  -4   4   2  302.77   19.40
  -4   4   2  296.27   19.40
  -4   4   2  302.97   19.40
   3  -4  -2   22.50    1.50
  -3   4   2   20.50    1.50
  -3   4   2   21.30    1.50
   2  -4  -2  420.96   26.60
   2  -4  -2  374.86   26.60
  -2   4   2  403.06   26.60
  -2   4   2  444.36   26.60
  -2   4   2  426.16   26.60
   1  -4  -2  106.19    7.60
  -1   4   2  128.19    7.60
  -1   4   2  126.19    7.60
  -1   4   2  119.29    7.60
  -1   4   2  106.99    7.60
   0  -4  -2   58.79    3.40
   0   4   2   47.40    3.50
   0   4   2   50.69    3.40
  -1  -4  -2   70.39    4.50
  -1  -4  -2   63.79    4.50
   1   4   2   67.79    4.40
   1   4   2   68.09    4.50
   1   4   2   71.69    4.50
  -2  -4  -2    0.50    0.40
  -2  -4  -2    0.60    0.20
   2   4   2   -0.30    0.40
   2   4   2    0.10    0.20
   2   4   2   -0.30    0.20
  -3  -4  -2    3.30    0.50
  -3  -4  -2    2.30    0.40
   3   4   2    2.30    0.40
  -4  -4  -2    3.80    0.60
   4   4   2    3.50    0.50
  -5  -4  -2   26.90    2.10
  -5  -4  -2   28.20    2.10
   5   4   2   27.00    2.00
  -6  -4  -2    8.20    1.40
  -6  -4  -2    8.60    1.30
   6   4   2    7.90    1.00
  -7  -4  -2    1.60    0.90
  -7  -4  -2    0.00    0.80
   7   4   2    0.80    0.70
  -8  -4  -2    3.30    1.00
  -8  -4  -2    2.20    0.90
   8   4   2    2.50    0.80
  -9  -4  -2    4.30    1.00
  -9  -4  -2    4.20    1.30
   9   4   2    3.50    1.10
  12  -5  -2    2.10    1.70
  11  -5  -2    8.20    1.50
  10  -5  -2   12.50    1.50
 -10   5   2   10.50    1.50
   9  -5  -2    2.80    0.80
   9  -5  -2    3.80    0.70
  -9   5   2    2.60    0.70
   8  -5  -2   27.20    2.10
   8  -5  -2   28.20    2.30
  -8   5   2   28.30    2.10
   7  -5  -2   19.70    1.60
  -7   5   2   21.00    1.60
  -7   5   2   21.20    1.60
   6  -5  -2    2.10    0.50
  -6   5   2    3.60    0.50
  -6   5   2    3.10    0.50
   5  -5  -2   79.79    5.30
  -5   5   2   80.49    5.20
  -5   5   2   79.59    5.30
  -5   5   2   80.79    5.30
  -5   5   2   82.59    5.20
   4  -5  -2    8.40    0.80
  -4   5   2   10.60    0.80
  -4   5   2    7.70    0.70
  -4   5   2    9.60    0.80
   3  -5  -2   21.70    1.60
  -3   5   2   23.90    1.60
  -3   5   2   22.70    1.60
  -3   5   2   21.80    1.60
  -3   5   2   23.30    1.60
   2  -5  -2    6.30    0.60
  -2   5   2    6.20    0.50
  -2   5   2    5.20    0.50
  -2   5   2    4.80    0.50
   1  -5  -2  137.99    8.60
   1  -5  -2  122.39    8.50
  -1   5   2  130.39    8.50
  -1   5   2  128.79    8.50
  -1   5   2  136.39    8.50
   0   5   2    8.60    0.70
   0   5   2   10.30    0.90
  -1  -5  -2   79.89    5.20
  -1  -5  -2   73.69    5.30
   1   5   2   79.79    5.10
   1   5   2   82.69    5.20
   1   5   2   78.49    5.20
  -2  -5  -2    4.50    0.70
  -2  -5  -2    5.80    1.00
   2   5   2    6.20    0.90
   2   5   2    4.70    0.50
   2   5   2    3.70    0.60
  -3  -5  -2   14.20    1.20
  -3  -5  -2   10.40    1.30
   3   5   2   14.50    1.10
   3   5   2   15.00    1.40
  -4  -5  -2   47.50    3.30
  -4  -5  -2   43.90    3.30
   4   5   2   48.50    3.20
  -5  -5  -2   45.20    3.10
   5   5   2   41.20    3.00
  -6  -5  -2   63.19    5.00
  -6  -5  -2   69.49    4.70
   6   5   2   66.89    4.70
  -7  -5  -2    9.50    1.70
   7   5   2    8.10    1.50
  -8  -5  -2   -1.50    1.00
  -8  -5  -2    1.20    1.10
   8   5   2    0.80    1.00
  -9  -5  -2   -1.60    1.30
  -9  -5  -2   -1.60    1.10
   9   5   2    1.90    1.10
  12  -6  -2    3.40    1.70
  11  -6  -2    1.30    1.10
 -11   6   2    3.10    1.10
 -10   6   2    4.90    1.00
   9  -6  -2    0.70    0.70
  -9   6   2    1.40    0.70
  -8   6   2   16.20    1.40
  -8   6   2   16.00    1.50
   7  -6  -2    4.20    0.70
  -7   6   2    3.90    0.60
  -7   6   2    4.60    0.80
   6  -6  -2   20.00    1.50
  -6   6   2   18.70    1.50
  -6   6   2   18.90    1.50
   5  -6  -2   80.89    5.30
  -5   6   2   82.29    5.30
  -5   6   2   77.49    5.30
  -5   6   2   80.89    5.30
  -5   6   2   81.69    5.40
   4  -6  -2   10.50    0.90
  -4   6   2   10.80    0.90
   3  -6  -2   19.00    1.40
  -3   6   2   18.50    1.40
  -3   6   2   15.40    1.40
  -3   6   2   21.10    1.30
  -3   6   2   19.10    1.40
   2  -6  -2  149.79    9.40
   2  -6  -2  135.19    9.50
  -2   6   2  150.28    9.40
  -2   6   2  128.19    9.50
  -2   6   2  155.68    9.40
  -2   6   2  151.38    9.50
   1  -6  -2   24.50    1.50
  -1   6   2   18.70    1.60
  -1   6   2   19.90    1.50
   0  -6  -2  136.39    9.70
   0  -6  -2  154.18    9.70
   0   6   2  147.99    9.70
   0   6   2  154.58    9.60
   0   6   2  150.48    9.70
  -1  -6  -2   14.40    1.40
   1   6   2   12.10    1.20
   1   6   2   11.00    1.00
  -2  -6  -2   21.00    1.70
  -2  -6  -2   19.30    1.80
   2   6   2   22.40    1.50
   2   6   2   21.70    1.80
   2   6   2   22.10    1.60
  -3  -6  -2   24.90    2.20
  -3  -6  -2   26.90    2.10
   3   6   2   27.90    1.90
  -4  -6  -2    0.70    0.70
  -4  -6  -2    3.30    0.90
   4   6   2    1.90    0.60
  -5  -6  -2    0.50    1.00
  -5  -6  -2    0.10    0.80
   5   6   2    0.70    0.60
  -6  -6  -2   15.80    2.60
  -6  -6  -2   18.10    2.00
   6   6   2   14.20    1.60
  -7  -6  -2   -0.60    1.10
  -7  -6  -2    0.70    1.10
   7   6   2   -1.20    0.80
  -8  -6  -2   -2.20    1.20
  -8  -6  -2    1.30    1.30
   8   6   2    0.50    1.10
  11  -7  -2    1.40    1.20
 -10   7   2    0.80    1.00
   9  -7  -2    2.70    0.80
  -9   7   2    2.20    0.90
  -8   7   2    0.30    0.50
  -8   7   2    0.90    0.70
   7  -7  -2   -0.20    0.80
  -7   7   2    0.30    0.50
  -7   7   2    0.20    0.50
   6  -7  -2   18.30    1.40
  -6   7   2   14.60    1.40
  -6   7   2   17.20    1.40
  -6   7   2   15.00    1.20
   5  -7  -2    0.20    0.50
  -5   7   2    0.40    0.40
  -5   7   2    0.30    0.40
  -5   7   2    0.10    0.40
  -5   7   2   -0.40    0.30
   4  -7  -2   21.60    1.60
  -4   7   2   21.00    1.50
  -4   7   2   19.70    1.50
  -4   7   2   19.30    1.60
   3  -7  -2    6.50    0.80
  -3   7   2    4.70    0.60
  -3   7   2    5.00    0.60
  -3   7   2    5.30    0.70
   2  -7  -2    0.00    0.40
  -2   7   2    0.40    0.40
  -2   7   2    0.50    0.40
  -2   7   2    0.50    0.60
  -1   7   2  142.29    9.60
  -1   7   2  152.48    9.60
   0  -7  -2   14.00    1.60
   0  -7  -2   14.90    1.30
   0   7   2   13.40    1.20
   0   7   2   15.80    1.40
   0   7   2   13.90    1.20
  -1  -7  -2    4.20    0.70
  -1  -7  -2    6.50    1.00
   1   7   2    4.00    0.60
   1   7   2    4.50    0.80
  -2  -7  -2    6.20    1.10
   2   7   2    6.30    0.80
   2   7   2    6.60    1.10
  -3  -7  -2    2.50    0.90
  -3  -7  -2    3.00    1.00
   3   7   2    2.80    0.60
  -4  -7  -2    2.30    1.00
  -4  -7  -2    0.00    1.20
   4   7   2    2.10    0.60
  -5  -7  -2   38.40    3.10
  -5  -7  -2   36.00    3.10
   5   7   2   32.20    2.60
  -6  -7  -2   -0.30    1.30
  -6  -7  -2   -1.30    1.10
   6   7   2    0.10    0.90
  -7  -7  -2    5.00    1.40
  -7  -7  -2    4.00    1.40
   7   7   2    5.30    1.20
  11  -8  -2    5.00    1.40
  10  -8  -2    1.70    1.00
   9  -8  -2    9.10    1.60
  -8   8   2   40.80    3.00
  -8   8   2   41.40    3.00
   7  -8  -2    2.00    0.70
  -7   8   2    2.30    0.70
  -7   8   2    2.60    0.70
   6  -8  -2    8.50    1.10
  -6   8   2    7.60    1.00
  -6   8   2    8.40    0.90
  -6   8   2    8.10    0.80
  -6   8   2    6.30    1.00
   5  -8  -2    0.20    0.50
  -5   8   2    0.20    0.50
  -5   8   2   -0.10    0.40
  -5   8   2    0.60    0.40
   4  -8  -2    1.40    0.60
  -4   8   2    2.40    0.50
  -4   8   2    1.60    0.50
  -4   8   2    1.60    0.50
   3  -8  -2   23.40    1.90
  -3   8   2   27.50    1.90
  -3   8   2   24.60    1.90
  -3   8   2   24.10    1.80
   2  -8  -2    6.40    0.90
  -2   8   2    4.30    0.80
  -2   8   2    5.00    0.90
  -2   8   2    6.30    0.80
   1  -8  -2    6.30    1.10
  -1   8   2    7.20    0.80
  -1   8   2    7.50    1.10
   0  -8  -2   20.30    1.80
   0   8   2   20.60    1.60
   0   8   2   20.40    1.80
   0   8   2   19.40    1.60
  -1  -8  -2   25.50    2.10
   1   8   2   26.20    1.90
   1   8   2   23.20    2.20
   1   8   2   24.40    1.90
  -2  -8  -2   -0.60    1.20
  -2  -8  -2    0.00    0.80
   2   8   2    0.50    0.60
  -3  -8  -2   10.50    1.60
   3   8   2    6.80    1.20
  -4  -8  -2    1.00    1.00
  -4  -8  -2    0.30    1.40
   4   8   2   -0.60    0.80
  -5  -8  -2   -1.90    1.50
  -5  -8  -2   -2.30    1.10
   5   8   2   -1.30    0.80
  -6  -8  -2    1.40    1.60
  -6  -8  -2    1.00    1.30
   6   8   2    0.60    1.00
  11  -9  -2    2.40    1.40
  10  -9  -2   -0.10    1.10
   9  -9  -2    1.10    1.00
  -8   9   2    2.30    1.20
  -7   9   2   37.80    2.90
   6  -9  -2   11.20    1.40
  -6   9   2   10.30    1.20
  -6   9   2   12.30    1.00
   5  -9  -2    9.00    1.20
  -5   9   2    7.50    1.30
  -5   9   2    9.90    1.00
   4  -9  -2    0.90    0.70
  -4   9   2    1.80    0.60
  -4   9   2    2.10    0.60
   3  -9  -2   14.30    1.40
  -3   9   2   14.00    1.20
  -3   9   2   12.00    1.30
  -3   9   2   14.40    1.40
   2  -9  -2    0.30    0.70
  -2   9   2    0.20    0.50
  -2   9   2   -0.80    0.60
  -2   9   2    0.10    0.50
   1  -9  -2   45.70    3.30
  -1   9   2   46.80    3.40
  -1   9   2   40.40    3.20
  -1   9   2   52.19    3.20
   0  -9  -2    3.30    0.90
   0   9   2    4.90    0.90
   0   9   2    5.50    0.90
   0   9   2    2.90    0.70
  -1  -9  -2    3.70    1.00
   1   9   2    4.80    1.10
   1   9   2    4.90    0.90
  -2  -9  -2    0.70    0.90
   2   9   2    0.70    0.80
  -3  -9  -2    1.70    1.10
   3   9   2    1.40    1.00
  -4  -9  -2    0.80    1.30
   4   9   2   -0.90    1.00
  -5  -9  -2    3.00    1.60
   5   9   2    2.40    1.40
  10 -10  -2    0.10    1.20
   9 -10  -2    8.50    1.40
  -8  10   2    1.30    0.70
  -7  10   2    7.90    1.20
  -6  10   2    0.40    0.70
  -6  10   2    2.00    0.80
   5 -10  -2   13.00    1.70
  -5  10   2   12.80    1.40
  -5  10   2   13.50    1.40
   4 -10  -2   -1.00    0.80
  -4  10   2   -0.60    0.60
  -4  10   2    0.40    0.70
   3 -10  -2    8.90    1.60
  -3  10   2   11.60    1.30
  -3  10   2   11.50    1.40
   2 -10  -2    1.40    0.90
  -2  10   2    1.30    0.80
  -2  10   2    1.40    0.70
   1 -10  -2    1.60    1.00
  -1  10   2    1.80    0.90
  -1  10   2    2.70    0.70
   0 -10  -2    1.50    1.00
   0  10   2    1.70    1.00
  -1 -10  -2    1.90    1.10
  -2 -10  -2   -0.30    1.20
  -3 -10  -2    2.40    1.40
   9 -11  -2    4.20    1.30
  -8  11   2   -0.80    0.80
  -7  11   2    6.40    1.00
  -6  11   2    1.20    0.60
  -6  11   2    1.40    0.80
  -5  11   2    0.90    0.60
  -5  11   2    2.30    0.70
   4 -11  -2   -0.50    1.20
  -4  11   2    1.70    0.70
  -4  11   2    0.90    0.70
   3 -11  -2    0.00    1.10
  -3  11   2    0.60    0.70
  -3  11   2    1.30    0.90
   2 -11  -2    1.20    1.50
  -2  11   2    2.10    1.00
  -2  11   2    1.30    0.90
   1 -11  -2    6.10    1.40
  -1  11   2   10.40    1.90
   0 -11  -2    2.60    1.40
   0  11   2    6.10    1.50
  -1 -11  -2    1.50    1.40
  -2 -11  -2    3.40    1.60
  -7  12   2    1.00    0.90
  -7  12   2    2.50    0.70
  -6  12   2    0.90    0.70
  -6  12   2    0.00    0.90
  -5  12   2    0.90    0.90
  -5  12   2    1.90    0.80
  -4  12   2   -0.10    0.90
  -4  12   2    0.70    0.80
  -3  12   2    6.60    1.20
  -3  12   2    7.10    1.20
   2 -12  -2    5.80    1.70
  -2  12   2    8.00    1.40
   1 -12  -2    2.90    1.70
  -1  12   2    5.30    1.40
  -1  12  -3    4.00    1.40
   1 -12   3    4.70    1.60
  -2  12  -3    0.90    1.10
  -2  12  -3    1.90    1.20
   2 -12   3    0.90    1.40
  -3  12  -3    2.60    1.00
  -3  12  -3    2.80    1.00
   3 -12   3    2.50    1.40
  -4  12  -3    6.80    1.10
  -4  12  -3    5.70    1.10
   4 -12   3    6.00    1.50
  -5  12  -3    3.80    0.90
  -5  12  -3    3.30    0.90
   5 -12   3    1.70    1.40
  -6  12  -3    4.60    0.80
  -6  12  -3    3.30    1.00
  -7  12  -3   -0.70    0.80
  -2 -11   3   -2.00    1.40
  -1 -11   3    1.60    1.30
   0  11  -3    7.70    1.40
   0 -11   3    6.40    1.40
  -1  11  -3    5.40    1.10
  -1  11  -3    5.40    1.20
   1 -11   3    4.30    1.20
  -2  11  -3   10.10    1.50
  -2  11  -3    8.80    1.30
   2 -11   3    9.60    1.40
  -3  11  -3    2.40    0.80
  -3  11  -3    2.40    0.90
   3 -11   3    1.90    1.00
  -4  11  -3    6.30    1.10
  -4  11  -3   10.10    1.30
   4 -11   3    6.50    1.20
  -5  11  -3   34.30    2.70
  -5  11  -3   34.70    2.60
   5 -11   3   33.60    3.00
  -6  11  -3   10.40    1.40
  -6  11  -3    9.90    1.20
   6 -11   3    9.40    1.50
  -7  11  -3    5.30    0.90
   7 -11   3    4.60    1.60
  -8  11  -3    0.20    0.80
  -9  11  -3    2.00    0.90
  -4 -10   3    2.80    1.50
  -3 -10   3    5.40    1.40
  -2 -10   3    0.50    1.10
   1  10  -3   -0.30    1.50
  -1 -10   3   -0.90    1.00
   0  10  -3    0.60    0.70
   0  10  -3   -1.20    0.90
   0 -10   3   -0.10    1.70
  -1  10  -3    9.20    1.30
  -1  10  -3    7.30    1.10
   1 -10   3    7.30    1.10
  -2  10  -3    2.80    0.70
  -2  10  -3    1.70    0.80
   2 -10   3    1.90    0.90
  -3  10  -3    2.60    0.70
  -3  10  -3    1.90    0.70
   3 -10   3    0.40    0.80
  -4  10  -3    1.20    0.60
  -4  10  -3    1.30    0.60
   4 -10   3    1.00    0.80
  -5  10  -3    1.50    0.60
  -5  10  -3    1.80    0.60
   5 -10   3    2.10    0.90
  -6  10  -3   25.90    2.50
  -6  10  -3   25.70    2.70
   6 -10   3   30.50    2.40
  -7  10  -3    9.40    1.30
   7 -10   3   14.50    1.90
  -8  10  -3    5.00    0.90
   8 -10   3    8.00    1.70
  -9  10  -3    0.60    0.80
 -10  10  -3    2.60    1.00
  -5  -9   3    2.00    1.30
  -4  -9   3    1.90    1.10
  -3  -9   3    0.10    1.00
   1   9  -3   35.70    3.10
  -1  -9   3   42.40    3.10
   0   9  -3   11.40    1.60
   0   9  -3   13.70    1.30
  -1   9  -3   12.20    1.50
  -1   9  -3   13.70    1.40
   1  -9   3   14.40    1.50
  -2   9  -3    2.50    0.60
  -2   9  -3    2.00    0.70
   2  -9   3    1.60    0.70
  -3   9  -3    4.40    0.70
  -3   9  -3    3.10    0.80
   3  -9   3    2.70    0.70
  -4   9  -3    2.30    0.60
  -4   9  -3    2.60    0.60
   4  -9   3    3.40    0.70
  -5   9  -3    0.40    0.50
  -5   9  -3   -0.40    0.50
   5  -9   3    1.10    0.70
  -6   9  -3    0.40    0.50
  -6   9  -3   -0.30    0.40
   6  -9   3    0.90    0.70
  -7   9  -3    8.80    1.10
   7  -9   3    8.50    1.10
  -8   9  -3    1.30    0.80
   8  -9   3    1.60    1.00
  -9   9  -3   10.00    1.40
 -10   9  -3    7.80    1.20
  11  -9   3    2.80    1.40
   6   8  -3   -0.10    1.10
  -6  -8   3   -0.60    1.20
  -6  -8   3    0.40    1.80
   5   8  -3    4.40    1.10
  -5  -8   3    5.10    1.20
  -5  -8   3    4.30    1.60
   4   8  -3    6.60    1.00
  -4  -8   3    3.70    1.40
  -4  -8   3    7.20    1.20
   3   8  -3   -0.10    0.70
  -3  -8   3   -1.40    1.10
  -3  -8   3   -1.10    1.10
   2   8  -3    0.00    0.90
   2   8  -3   -0.50    0.60
  -2  -8   3    1.20    0.70
   1   8  -3    0.50    0.60
   1   8  -3    0.10    0.50
   1   8  -3   -1.00    0.50
   1   8  -3    0.00    0.80
  -1  -8   3    0.40    0.60
   0   8  -3   39.70    2.90
   0   8  -3   41.90    2.90
   0   8  -3   41.40    2.80
   0   8  -3   36.60    2.70
   0  -8   3   38.00    2.80
  -1   8  -3    0.00    0.60
  -1   8  -3   -0.40    0.50
  -1   8  -3    0.20    0.40
  -1   8  -3    0.10    0.50
   1  -8   3   -0.30    0.50
  -2   8  -3    3.20    0.60
  -2   8  -3    4.00    0.70
  -2   8  -3    3.80    0.60
   2  -8   3    3.20    0.60
  -3   8  -3   10.40    1.00
  -3   8  -3    9.00    1.10
   3  -8   3   10.00    1.10
  -4   8  -3    1.40    0.50
  -4   8  -3    1.80    0.50
   4  -8   3    1.30    0.50
  -5   8  -3    1.50    0.50
  -5   8  -3    1.10    0.40
   5  -8   3    1.30    0.60
  -6   8  -3    3.40    0.80
  -6   8  -3    1.70    0.60
  -6   8  -3    2.20    0.40
   6  -8   3    1.90    0.70
  -7   8  -3   19.50    1.60
   7  -8   3   14.50    1.70
  -8   8  -3   20.40    1.80
   8  -8   3   21.30    1.90
  -9   8  -3    8.50    1.30
   9  -8   3    9.60    1.70
 -10   8  -3   15.70    1.70
  11  -8   3   16.20    2.20
   7   7  -3    9.40    1.50
  -7  -7   3    8.30    1.80
  -7  -7   3    7.60    1.50
   6   7  -3    1.60    0.90
  -6  -7   3    2.60    1.30
  -6  -7   3   -0.30    1.10
   5   7  -3    9.60    1.30
  -5  -7   3    6.70    1.40
  -5  -7   3    5.50    1.30
   4   7  -3    0.40    0.60
  -4  -7   3    0.80    1.00
  -4  -7   3    0.00    0.90
   3   7  -3    0.20    0.50
  -3  -7   3   -0.90    0.70
  -3  -7   3    0.20    0.90
   2   7  -3    4.10    0.90
   2   7  -3    3.10    0.50
   2   7  -3    3.90    0.60
  -2  -7   3    2.90    0.70
  -2  -7   3    4.90    0.90
   1   7  -3   11.10    1.00
   1   7  -3   11.00    1.30
   1   7  -3   11.60    1.00
  -1  -7   3   10.50    1.10
  -1  -7   3    9.20    1.50
   0   7  -3   12.40    0.90
   0   7  -3    8.90    1.00
   0  -7   3   11.20    1.10
  -1   7  -3    7.10    1.00
  -1   7  -3    7.30    0.70
   1  -7   3    8.10    0.90
  -2   7  -3    2.80    0.50
  -2   7  -3    2.20    0.50
   2  -7   3    3.50    0.50
  -3   7  -3   22.60    1.80
  -3   7  -3   23.70    1.80
  -3   7  -3   27.80    1.80
  -4   7  -3  214.28   13.40
  -4   7  -3  201.68   13.40
  -4   7  -3  208.18   13.40
   4  -7   3  201.48   13.40
  -5   7  -3  161.28   10.30
  -5   7  -3  148.69   10.40
  -5   7  -3  154.38   10.30
   5  -7   3  171.28   10.40
  -6   7  -3   10.50    1.00
   6  -7   3    8.20    1.10
  -7   7  -3   73.59    4.80
   7  -7   3   69.29    4.80
  -8   7  -3   22.80    1.90
   8  -7   3   24.90    2.00
  -9   7  -3    2.70    0.70
   9  -7   3    4.60    1.00
 -10   7  -3   12.70    1.50
  10  -7   3   13.50    1.90
  11  -7   3   -0.90    1.20
   8   6  -3    2.00    1.20
  -8  -6   3   -2.10    1.20
   7   6  -3    2.60    1.00
  -7  -6   3    1.60    1.20
  -7  -6   3    3.00    1.20
   6   6  -3    1.20    0.80
  -6  -6   3    2.60    1.10
   5   6  -3    7.90    1.10
  -5  -6   3    7.40    1.30
  -5  -6   3    6.30    1.20
   4   6  -3    2.20    0.60
  -4  -6   3    2.90    0.80
  -4  -6   3    1.50    0.80
   3   6  -3    1.60    0.50
   3   6  -3    1.90    0.80
   3   6  -3    2.00    0.50
  -3  -6   3    0.40    0.50
  -3  -6   3    2.60    0.80
   2   6  -3   20.90    1.90
   2   6  -3   24.20    1.60
   2   6  -3   22.20    1.60
  -2  -6   3   20.60    1.90
  -2  -6   3   21.20    1.70
   1   6  -3   67.19    3.90
   1   6  -3   54.89    3.90
   1   6  -3   55.09    4.00
  -1  -6   3   64.59    4.00
  -1  -6   3   52.19    4.10
   0   6  -3   68.29    4.50
  -1   6  -3  385.86   27.40
  -1   6  -3  452.85   27.50
  -1   6  -3  445.56   27.50
   1  -6   3  398.06   27.50
   1  -6   3  451.45   27.50
  -2   6  -3  170.38   11.60
  -2   6  -3  193.88   11.60
   2  -6   3  151.28   11.60
   2  -6   3  200.68   11.60
  -3   6  -3   36.00    2.50
  -3   6  -3   36.90    2.50
  -4   6  -3  118.59    7.60
  -4   6  -3  109.59    7.40
   4  -6   3  111.89    7.40
  -5   6  -3   33.70    2.10
  -5   6  -3   29.90    2.10
  -5   6  -3   28.70    2.20
  -5   6  -3   29.40    2.10
   5  -6   3   31.60    2.20
  -6   6  -3    1.20    0.50
  -6   6  -3    0.60    0.40
   6  -6   3    0.20    0.50
  -7   6  -3   12.90    1.20
  -7   6  -3   14.90    1.20
   7  -6   3   11.90    1.30
  -8   6  -3   34.80    2.50
  -8   6  -3   33.00    2.50
   8  -6   3   34.70    2.60
  -9   6  -3    0.50    0.60
   9  -6   3    0.60    0.80
   9  -6   3    0.00    0.70
  10  -6   3    1.90    1.00
  10  -6   3    0.90    0.80
   9   5  -3    0.80    1.20
  -9  -5   3   -0.30    1.20
  -9  -5   3    2.00    1.40
   8   5  -3    0.10    0.90
  -8  -5   3    1.40    1.10
  -8  -5   3    0.50    1.10
   7   5  -3    0.40    0.90
  -7  -5   3    0.00    1.50
  -7  -5   3    2.50    1.40
   6   5  -3    5.00    0.80
  -6  -5   3    4.10    1.00
  -6  -5   3    4.80    0.90
   5   5  -3   22.90    1.90
  -5  -5   3   30.40    2.10
  -5  -5   3   24.20    2.10
   4   5  -3    7.00    0.80
  -4  -5   3    4.90    0.80
  -4  -5   3    6.40    0.90
   3   5  -3   24.90    1.90
   3   5  -3   23.50    1.60
  -3  -5   3   17.70    1.70
   2   5  -3  430.56   27.90
   2   5  -3  412.46   27.80
   2   5  -3  443.96   27.80
  -2  -5   3  438.86   27.90
   1   5  -3  168.68   10.80
   1   5  -3  155.38   10.90
  -1  -5   3  192.78   10.90
  -1  -5   3  150.38   10.90
   0   5  -3   20.90    1.50
   0   5  -3   17.90    1.40
   0  -5   3   21.90    1.60
  -1   5  -3  114.49    7.30
  -1   5  -3  107.49    7.50
  -1   5  -3  118.49    7.30
   1  -5   3  113.29    7.30
   1  -5   3  105.39    7.30
  -2   5  -3   41.60    2.80
  -2   5  -3   37.40    2.80
  -2   5  -3   46.50    2.80
   2  -5   3   38.70    2.80
   2  -5   3   45.90    2.90
  -3   5  -3   40.30    2.60
  -3   5  -3   39.40    2.60
  -3   5  -3   37.90    2.60
   3  -5   3   36.90    2.60
  -4   5  -3    2.60    0.30
  -4   5  -3    2.30    0.40
  -4   5  -3    2.00    0.40
  -4   5  -3    1.50    0.30
   4  -5   3    2.50    0.40
  -5   5  -3    8.00    0.70
  -5   5  -3    8.30    0.80
   5  -5   3    7.50    0.80
  -6   5  -3    2.70    0.50
  -6   5  -3    1.90    0.50
   6  -5   3    2.40    0.50
  -7   5  -3    3.80    0.70
  -7   5  -3    4.30    0.60
   7  -5   3    3.20    0.60
  -8   5  -3   13.20    1.20
  -8   5  -3   10.60    1.10
  -9   5  -3    8.90    1.10
  -9   5  -3    9.10    1.40
   9  -5   3    9.50    1.20
 -10   5  -3   13.00    1.90
  10  -5   3   20.10    1.70
  10  -5   3   15.50    1.60
  11  -5   3   28.80    2.70
   9   4  -3    3.00    1.10
  -9  -4   3    3.50    1.20
  -9  -4   3    5.60    1.10
   8   4  -3   14.20    1.70
  -8  -4   3   18.20    1.80
  -8  -4   3   15.00    2.00
   7   4  -3   19.50    1.90
  -7  -4   3   16.50    2.00
  -7  -4   3   21.70    1.90
   6   4  -3   38.50    3.00
  -6  -4   3   40.50    3.10
  -6  -4   3   46.80    3.10
   5   4  -3  145.29    9.30
  -5  -4   3  139.39    9.30
  -5  -4   3  140.09    9.30
   4   4  -3   48.00    3.20
  -4  -4   3   46.30    3.20
   3   4  -3   15.80    1.30
   3   4  -3   14.60    1.10
   3   4  -3   11.50    1.10
  -3  -4   3   15.80    1.20
  -3  -4   3   13.80    1.20
   2   4  -3   26.80    1.80
   2   4  -3   26.30    1.70
  -2  -4   3   21.70    1.70
   1   4  -3    8.70    0.60
   1   4  -3    6.40    0.70
   1   4  -3    8.20    0.60
  -1  -4   3    8.60    0.70
  -1  -4   3    6.20    0.80
   0   4  -3   29.50    2.20
   0   4  -3   32.70    2.20
   0   4  -3   36.00    2.10
   0  -4   3   30.60    2.20
   0  -4   3   33.70    2.20
  -1   4  -3  298.27   19.10
  -1   4  -3  277.37   19.10
  -1   4  -3  282.67   19.00
   1  -4   3  323.97   19.10
  -2   4  -3    8.70    0.70
  -2   4  -3    7.70    0.70
  -2   4  -3    9.10    0.60
   2  -4   3    7.90    0.60
  -3   4  -3   82.69    5.60
  -3   4  -3   86.99    5.50
   3  -4   3   86.19    5.60
  -4   4  -3    9.30    0.80
  -4   4  -3    7.90    0.70
  -4   4  -3   10.40    0.70
  -4   4  -3   10.00    0.70
   4  -4   3   10.30    0.80
  -5   4  -3   68.19    4.40
  -5   4  -3   66.99    4.50
  -5   4  -3   68.49    4.50
  -6   4  -3   51.29    3.40
  -6   4  -3   50.69    3.40
  -6   4  -3   51.39    3.40
  -7   4  -3   11.80    1.10
  -7   4  -3   12.20    1.10
  -7   4  -3   11.20    1.10
  -8   4  -3    0.60    0.50
  -8   4  -3    0.30    0.40
   8  -4   3    1.00    0.50
  -9   4  -3    2.70    0.70
   9  -4   3    2.70    0.80
   9  -4   3    3.00    0.60
 -10   4  -3    0.60    0.90
  10  -4   3    1.70    0.90
 -11   4  -3    4.90    1.50
  11  -4   3    4.10    1.20
  12  -4   3    7.40    1.60
  10   3  -3    3.00    1.10
 -10  -3   3   -2.10    1.50
 -10  -3   3   -0.70    0.80
   9   3  -3   11.80    1.60
  -9  -3   3    8.10    1.40
  -9  -3   3   11.00    1.50
   8   3  -3   48.00    3.60
  -8  -3   3   48.80    3.70
  -8  -3   3   55.39    3.60
   7   3  -3    4.80    0.80
  -7  -3   3    3.80    0.80
  -7  -3   3    7.00    1.20
   6   3  -3    1.20    0.50
  -6  -3   3    1.30    0.60
  -6  -3   3    1.10    0.50
   5   3  -3   24.00    1.70
  -5  -3   3   23.00    1.80
   4   3  -3    2.20    0.40
   4   3  -3    3.70    0.60
   4   3  -3    2.80    0.40
  -4  -3   3    3.40    0.60
  -4  -3   3    3.10    0.50
   3   3  -3    5.40    0.50
   3   3  -3    4.70    0.50
  -3  -3   3    5.20    0.60
   2   3  -3   78.69    4.80
   2   3  -3   69.29    4.90
   2   3  -3   75.29    4.80
  -2  -3   3   69.29    4.90
  -2  -3   3   78.89    4.90
   1   3  -3  447.66   29.80
   1   3  -3  483.35   29.80
   1   3  -3  455.05   29.80
  -1  -3   3  459.45   29.80
  -1  -3   3  470.95   29.80
   0   3  -3    1.30    0.20
   0   3  -3    1.10    0.20
   0  -3   3    1.20    0.20
  -1   3  -3   45.70    2.90
  -1   3  -3   39.60    2.90
   1  -3   3   45.10    2.90
  -2   3  -3   21.80    1.50
  -2   3  -3   22.30    1.50
  -2   3  -3   22.40    1.50
   2  -3   3   21.30    1.50
  -3   3  -3   53.49    3.30
  -3   3  -3   46.00    3.30
   3  -3   3   52.59    3.30
  -4   3  -3   22.80    1.50
  -4   3  -3   21.80    1.50
  -4   3  -3   21.30    1.50
  -5   3  -3  519.85   33.30
  -5   3  -3  522.25   33.20
  -5   3  -3  508.15   33.30
  -6   3  -3   31.20    2.10
  -6   3  -3   31.00    2.10
  -6   3  -3   29.20    2.10
  -7   3  -3   13.40    1.20
  -7   3  -3   13.10    1.10
  -8   3  -3    2.30    0.60
  -8   3  -3    1.90    0.50
   8  -3   3    2.30    0.60
  -9   3  -3    2.10    0.70
   9  -3   3    2.10    0.70
 -10   3  -3    1.10    0.90
  10  -3   3    1.10    0.90
 -11   3  -3   -0.40    1.20
  11  -3   3    1.10    1.10
 -12   3  -3    1.50    1.60
  12  -3   3    3.70    1.50
 -10  -2   3   -0.10    1.30
 -10  -2   3    0.00    0.70
   9   2  -3    5.60    1.00
  -9  -2   3    3.90    1.00
  -9  -2   3    3.70    0.80
   8   2  -3    1.00    0.60
  -8  -2   3    0.80    0.70
  -8  -2   3    0.30    0.70
   7   2  -3    1.00    0.60
  -7  -2   3    0.60    0.50
  -7  -2   3    0.80    0.60
   6   2  -3    2.90    0.50
  -6  -2   3    2.90    0.60
  -5  -2   3   56.39    3.70
  -5  -2   3   50.99    3.60
   4   2  -3    6.50    0.50
   4   2  -3    6.00    0.60
  -4  -2   3    5.70    0.60
   3   2  -3   48.30    3.40
   3   2  -3   60.19    3.30
  -3  -2   3   47.80    3.40
  -3  -2   3   48.70    3.40
   2   2  -3  102.89    6.30
   2   2  -3   93.69    6.40
  -2  -2   3  103.09    6.40
  -2  -2   3   92.99    6.40
   1   2  -3  167.88   10.50
   1   2  -3  149.49   10.50
   1   2  -3  162.28   10.50
  -1  -2   3  157.08   10.60
  -1  -2   3  177.58   10.50
   0   2  -3  121.39    7.60
   0   2  -3  113.49    7.60
   0   2  -3  114.19    7.60
   0   2  -3  115.29    7.60
   0  -2   3  122.99    7.60
   0  -2   3  117.99    7.60
  -1   2  -3  484.15   30.10
  -1   2  -3  460.85   30.10
   1  -2   3  452.35   30.10
   1  -2   3  478.45   30.10
  -2   2  -3   77.59    5.80
  -2   2  -3   90.49    5.80
  -2   2  -3   89.59    5.80
  -2   2  -3   97.79    5.80
  -2   2  -3   93.59    5.80
  -3   2  -3   87.99    5.50
  -3   2  -3   71.69    5.50
  -3   2  -3   93.29    5.50
  -4   2  -3   15.60    1.10
  -4   2  -3   16.50    1.10
  -4   2  -3   15.00    1.10
  -5   2  -3   22.70    1.50
  -5   2  -3   22.80    1.60
  -5   2  -3   21.90    1.60
  -6   2  -3   52.59    3.50
  -6   2  -3   55.09    3.60
   6  -2   3   51.09    3.50
  -7   2  -3   21.40    1.60
  -7   2  -3   20.00    1.50
   7  -2   3   20.20    1.50
  -8   2  -3    3.60    0.70
   8  -2   3    1.70    0.50
   8  -2   3    1.70    0.60
  -9   2  -3    7.50    1.10
   9  -2   3    7.70    1.20
 -10   2  -3    5.80    1.10
  10  -2   3    7.30    1.10
 -11   2  -3    1.10    1.20
  11  -2   3    1.70    1.10
 -12   2  -3    0.30    1.60
  12  -2   3    1.20    1.40
  11   1  -3    5.40    1.40
 -11  -1   3    2.60    1.70
  10   1  -3    3.50    1.10
 -10  -1   3   -0.20    1.20
   9   1  -3   14.00    1.80
  -9  -1   3    9.60    1.40
  -9  -1   3   11.50    1.20
   8   1  -3    0.70    0.60
  -8  -1   3    0.90    0.60
   7   1  -3   33.20    2.50
  -7  -1   3   35.10    2.60
  -7  -1   3   37.30    2.50
  -6  -1   3    0.10    0.40
  -6  -1   3    0.10    0.40
  -6  -1   3    0.30    0.40
   5   1  -3    0.40    0.20
  -5  -1   3    0.10    0.30
  -5  -1   3    0.30    0.30
  -5  -1   3   -0.40    0.20
  -5  -1   3    0.00    0.30
   4   1  -3    5.90    0.50
   4   1  -3    5.60    0.70
  -4  -1   3    5.80    0.50
  -4  -1   3    5.40    0.60
  -4  -1   3    5.70    0.50
  -4  -1   3    5.50    0.60
   3   1  -3   33.70    2.10
   3   1  -3   28.40    2.10
  -3  -1   3   36.70    2.10
  -3  -1   3   29.40    2.10
   2   1  -3   77.99    5.50
   2   1  -3   83.19    5.50
  -2  -1   3   89.29    5.50
  -2  -1   3   87.69    5.50
  -2  -1   3   87.69    5.50
  -2  -1   3   81.39    5.50
   1   1  -3 4786.02  299.17
   1   1  -3 4576.64  299.17
  -1  -1   3 4754.92  299.17
  -1  -1   3 4808.92  299.17
  -1  -1   3 4371.96  299.17
  -1  -1   3 4651.43  299.27
   0   1  -3    9.30    0.70
   0   1  -3   10.30    0.70
   0   1  -3   10.80    0.70
   0  -1   3   11.20    0.70
   0  -1   3   10.10    0.70
   0  -1   3   10.20    0.70
  -1   1  -3  381.66   24.00
  -1   1  -3  373.46   24.10
  -1   1  -3  357.26   24.00
   1  -1   3  382.46   24.00
  -2   1  -3  136.99    9.30
  -2   1  -3  135.79    9.30
  -2   1  -3  161.68    9.30
  -2   1  -3  135.59    9.30
   2  -1   3  150.98    9.30
  -3   1  -3   35.60    2.20
  -3   1  -3   35.70    2.20
  -3   1  -3   33.50    2.20
  -3   1  -3   29.50    2.20
   3  -1   3   31.50    2.20
  -4   1  -3   61.09    3.90
  -4   1  -3   52.19    3.80
  -4   1  -3   57.79    3.90
   4  -1   3   66.29    3.90
  -5   1  -3    1.60    0.30
  -5   1  -3    2.00    0.30
   5  -1   3    1.80    0.30
  -6   1  -3   16.70    1.30
   6  -1   3   16.80    1.20
   6  -1   3   14.80    1.20
  -7   1  -3    0.10    0.50
   7  -1   3    0.20    0.40
  -8   1  -3    3.40    0.70
   8  -1   3    3.00    0.60
  -9   1  -3    0.50    0.80
   9  -1   3    0.60    0.70
 -10   1  -3    2.50    1.00
  10  -1   3    2.60    1.20
 -11   1  -3    0.00    1.20
  11  -1   3    1.20    1.00
 -12   1  -3    0.70    1.70
  11   0  -3    3.30    1.20
 -11   0   3    2.00    1.50
  10   0  -3    2.50    1.00
 -10   0   3    1.10    1.10
   9   0  -3    1.40    0.80
  -9   0   3    1.00    0.80
   8   0  -3   27.40    2.00
  -8   0   3   26.40    2.10
  -8   0   3   21.90    1.90
  -8   0   3   28.00    1.90
   7   0  -3    5.20    0.80
  -7   0   3    5.30    0.70
  -7   0   3    4.80    0.90
  -7   0   3    7.20    0.80
  -7   0   3    5.30    0.70
   6   0  -3    6.10    0.70
  -6   0   3    5.20    0.70
  -6   0   3    4.00    0.80
  -6   0   3    5.30    0.60
  -6   0   3    6.20    0.60
   5   0  -3  175.18   11.00
  -5   0   3  172.88   11.10
  -5   0   3  169.38   11.10
  -5   0   3  174.98   11.00
  -5   0   3  161.68   11.00
   4   0  -3    0.80    0.20
  -4   0   3    0.50    0.20
  -4   0   3    0.20    0.20
  -4   0   3    0.50    0.20
  -4   0   3    0.90    0.20
   3   0  -3    7.50    0.60
  -3   0   3    8.20    0.60
  -3   0   3    7.60    0.60
  -3   0   3    7.10    0.60
  -3   0   3    6.00    0.60
   2   0  -3  486.75   32.20
   2   0  -3  487.15   32.20
  -2   0   3  505.45   32.20
  -2   0   3  514.55   32.20
  -2   0   3  510.35   32.20
   1   0  -3  121.69    7.50
   1   0  -3   99.49    7.40
   1   0  -3  127.89    7.50
  -1   0   3  113.19    7.40
  -1   0   3  115.09    7.50
  -1   0   3  114.49    7.50
   0   0  -3 1356.66   82.19
   0   0  -3 1372.26   82.29
   0   0  -3 1274.47   82.19
   0   0  -3 1130.09   82.19
   0   0   3 1342.67   82.29
   0   0   3 1325.87   82.29
   0   0   3 1159.68   82.19
  -1   0  -3   37.70    2.30
  -1   0  -3   34.80    2.30
  -1   0  -3   35.60    2.20
   1   0   3   32.10    2.30
   1   0   3   33.20    2.30
  -2   0  -3  185.78   12.10
  -2   0  -3  187.48   12.10
  -2   0  -3  195.58   12.00
  -2   0  -3  187.68   12.10
   2   0   3  189.68   12.10
   2   0   3  177.18   12.10
  -3   0  -3  182.18   11.60
  -3   0  -3  180.18   11.70
  -3   0  -3  177.88   11.60
   3   0   3  182.38   11.70
  -4   0  -3    0.30    0.20
  -4   0  -3    0.60    0.20
  -4   0  -3   -0.20    0.20
   4   0   3    0.30    0.10
  -5   0  -3    4.50    0.50
  -5   0  -3    3.90    0.50
  -5   0  -3    5.20    0.50
   5   0   3    3.60    0.40
  -6   0  -3    5.80    0.60
  -6   0  -3    5.60    0.70
  -7   0  -3    6.90    1.00
  -7   0  -3    5.90    0.70
  -7   0  -3    6.40    0.70
   7   0   3    7.10    0.80
  -8   0  -3   -0.60    0.60
  -8   0  -3   -0.30    0.60
   8   0   3    0.20    0.60
  -9   0  -3   11.50    1.70
   9   0   3   11.30    1.40
 -10   0  -3    1.50    1.20
  10   0   3    0.70    0.90
 -11   0  -3    1.50    1.40
  11   0   3    3.50    1.30
  12  -1  -3    4.30    1.50
  11  -1  -3   11.40    2.00
  10  -1  -3    0.90    1.30
 -10   1   3    0.60    0.90
   9  -1  -3   11.70    1.80
  -9   1   3    9.20    1.40
   8  -1  -3   57.09    3.80
  -8   1   3   55.19    3.80
  -8   1   3   53.39    3.80
   7  -1  -3  101.09    6.60
  -7   1   3  102.89    6.60
  -7   1   3   98.39    6.60
   6  -1  -3    5.40    0.60
  -6   1   3    6.20    0.70
  -6   1   3    4.80    0.70
  -6   1   3    6.60    0.60
  -6   1   3    5.40    0.50
   5  -1  -3    0.60    0.20
  -5   1   3    0.20    0.30
  -5   1   3    0.30    0.20
  -5   1   3    1.00    0.20
  -5   1   3    0.50    0.20
   4  -1  -3  232.08   14.80
  -4   1   3  227.68   14.80
  -4   1   3  222.38   14.80
  -4   1   3  245.88   14.80
  -4   1   3  220.88   14.80
   3  -1  -3  112.89    7.50
  -3   1   3  116.99    7.50
  -3   1   3  120.79    7.50
  -3   1   3  113.49    7.50
  -3   1   3  115.79    7.50
   2  -1  -3  197.48   13.10
   2  -1  -3  200.08   13.10
  -2   1   3  204.58   13.10
  -2   1   3  203.38   13.10
  -2   1   3  209.48   13.10
   1  -1  -3   18.70    1.20
   1  -1  -3   16.40    1.20
  -1   1   3   18.50    1.20
  -1   1   3   19.00    1.20
   0  -1  -3   -0.10    0.20
   0  -1  -3    0.20    0.30
   0  -1  -3   -0.50    0.20
   0   1   3   -0.20    0.20
   0   1   3    0.20    0.20
   0   1   3   -0.10    0.20
  -1  -1  -3  395.06   26.50
  -1  -1  -3  427.46   26.40
  -1  -1  -3  393.56   26.40
   1   1   3  415.56   26.50
   1   1   3  424.86   26.40
  -2  -1  -3   30.20    1.90
  -2  -1  -3   27.80    1.90
   2   1   3   29.20    1.90
   2   1   3   28.50    1.90
  -3  -1  -3  184.68   12.30
  -3  -1  -3  178.58   12.30
  -3  -1  -3  193.58   12.30
   3   1   3  189.08   12.30
   3   1   3  204.68   12.30
  -4  -1  -3   12.80    1.10
  -4  -1  -3   13.40    1.10
  -4  -1  -3   16.10    1.10
   4   1   3   17.10    1.10
  -5  -1  -3    4.90    0.80
  -5  -1  -3    7.30    0.70
  -5  -1  -3    7.60    0.60
   5   1   3    6.20    0.60
  -6  -1  -3    6.90    0.70
  -6  -1  -3    6.90    0.90
  -6  -1  -3    7.10    0.90
   6   1   3    7.10    0.80
  -7  -1  -3   65.79    4.50
  -7  -1  -3   66.29    4.40
   7   1   3   67.99    4.50
  -8  -1  -3    0.90    0.50
  -8  -1  -3    0.60    0.70
   8   1   3    0.40    0.70
  -9  -1  -3    5.60    1.20
  -9  -1  -3    7.30    1.00
   9   1   3    6.20    1.10
 -10  -1  -3    0.90    1.30
  10   1   3    1.00    0.90
 -11  -1  -3    1.10    1.50
  11   1   3    1.80    1.10
  12  -2  -3    4.90    1.60
  11  -2  -3    3.30    1.30
  10  -2  -3   20.30    2.00
 -10   2   3   18.70    2.00
  -9   2   3    5.20    0.80
  -9   2   3    5.60    0.90
   8  -2  -3   54.79    3.60
  -8   2   3   53.69    3.60
  -8   2   3   50.79    3.70
   7  -2  -3    1.60    0.40
  -7   2   3    1.30    0.40
  -7   2   3    0.60    0.40
   6  -2  -3   27.90    1.80
  -6   2   3   25.40    1.80
  -6   2   3   25.70    1.80
   5  -2  -3   11.30    0.90
  -5   2   3   12.10    0.90
  -5   2   3   13.00    0.90
   4  -2  -3   26.90    1.80
  -4   2   3   25.20    1.80
  -4   2   3   26.00    1.70
  -3   2   3 1024.00   65.29
  -3   2   3  996.70   65.29
  -3   2   3  999.60   65.29
  -3   2   3 1032.80   65.29
  -3   2   3 1028.60   65.29
   2  -2  -3   55.49    3.40
  -2   2   3   49.70    3.40
  -2   2   3   48.60    3.40
  -2   2   3   51.39    3.40
  -2   2   3   55.39    3.40
   1  -2  -3  270.47   17.00
   1  -2  -3  229.38   17.00
  -1   2   3  256.07   17.00
  -1   2   3  285.67   17.00
  -1   2   3  278.27   17.00
   0  -2  -3   80.09    5.50
   0  -2  -3   96.49    5.60
   0   2   3   81.19    5.50
   0   2   3   83.99    5.60
   0   2   3   87.39    5.50
  -1  -2  -3   29.60    2.10
   1   2   3   35.50    2.10
   1   2   3   28.60    2.10
  -2  -2  -3    3.60    0.40
  -2  -2  -3    3.60    0.50
  -2  -2  -3    3.80    0.40
   2   2   3    3.10    0.40
   2   2   3    3.10    0.50
  -3  -2  -3  222.68   14.20
  -3  -2  -3  217.98   14.20
  -3  -2  -3  214.48   14.20
   3   2   3  220.48   14.20
   3   2   3  221.38   14.20
  -4  -2  -3   63.99    3.90
  -4  -2  -3   57.79    3.90
   4   2   3   57.19    4.00
   4   2   3   57.69    3.90
  -5  -2  -3    0.10    0.40
  -5  -2  -3    0.40    0.70
  -5  -2  -3   -0.20    0.60
   5   2   3    0.00    0.30
  -6  -2  -3    5.00    0.80
  -6  -2  -3    4.80    0.70
   6   2   3    5.80    0.80
  -7  -2  -3    1.10    0.50
  -7  -2  -3    0.40    0.60
   7   2   3    0.20    0.50
  -8  -2  -3    9.10    1.20
   8   2   3   10.70    1.30
  -9  -2  -3   -0.60    1.10
   9   2   3   -0.50    0.70
 -10  -2  -3   -1.40    1.30
  10   2   3    1.50    1.00
  12  -3  -3    4.00    1.60
  11  -3  -3    2.60    1.10
 -10   3   3   31.10    2.40
 -10   3   3   28.90    2.50
   9  -3  -3    0.80    0.50
  -9   3   3   -0.10    0.60
  -9   3   3   -0.20    0.60
   8  -3  -3    0.90    0.40
  -8   3   3   -0.50    0.50
  -8   3   3    0.50    0.50
   7  -3  -3    2.90    0.50
  -7   3   3    3.30    0.50
  -7   3   3    2.60    0.50
   6  -3  -3   12.00    1.00
  -6   3   3   12.60    1.00
  -6   3   3   11.00    1.00
  -5   3   3   60.49    4.00
  -5   3   3   62.19    4.00
  -5   3   3   60.49    4.00
  -4   3   3    0.50    0.20
  -4   3   3    1.00    0.20
  -4   3   3    0.50    0.20
  -4   3   3    0.40    0.20
   3  -3  -3   60.49    4.20
  -3   3   3   62.89    4.20
  -3   3   3   70.49    4.20
  -3   3   3   62.89    4.20
  -3   3   3   67.09    4.20
   2  -3  -3  173.98   11.70
   2  -3  -3  182.28   11.70
  -2   3   3  183.58   11.70
  -2   3   3  188.68   11.70
  -2   3   3  180.88   11.70
  -2   3   3  180.38   11.70
   1  -3  -3   -0.20    0.20
   1  -3  -3   -0.10    0.20
  -1   3   3    0.00    0.20
  -1   3   3   -0.20    0.10
  -1   3   3   -0.10    0.10
   0  -3  -3  230.28   17.10
   0  -3  -3  271.27   17.10
   0   3   3  291.57   17.10
   0   3   3  265.47   17.00
  -1  -3  -3  462.35   31.30
  -1  -3  -3  496.15   31.40
   1   3   3  490.65   31.30
   1   3   3  499.15   31.30
  -2  -3  -3  101.09    6.50
   2   3   3  107.39    6.40
   2   3   3   88.99    6.50
  -3  -3  -3   42.30    2.90
  -3  -3  -3   42.00    2.90
   3   3   3   42.70    2.80
   3   3   3   42.90    2.90
  -4  -3  -3    5.10    0.80
  -4  -3  -3    5.10    0.70
   4   3   3    4.90    0.70
   4   3   3    6.20    0.60
  -5  -3  -3    0.10    0.50
  -5  -3  -3   -0.10    0.50
   5   3   3   -0.20    0.40
  -6  -3  -3    1.30    0.60
  -6  -3  -3    1.00    0.60
   6   3   3    0.40    0.50
  -7  -3  -3   12.00    1.40
  -7  -3  -3   10.70    1.70
   7   3   3   10.30    1.30
  -8  -3  -3    8.00    1.40
  -8  -3  -3    7.70    1.40
   8   3   3   10.60    1.30
  -9  -3  -3    5.10    1.00
  -9  -3  -3    6.90    1.40
   9   3   3    7.30    1.10
 -10  -3  -3   -1.70    1.50
 -10  -3  -3    2.10    0.90
  10   3   3    1.20    1.20
  12  -4  -3    1.80    1.50
  11  -4  -3    1.50    1.20
  10  -4  -3    3.00    0.80
 -10   4   3    2.80    0.90
   9  -4  -3   35.40    2.40
  -9   4   3   30.70    2.40
  -9   4   3   31.60    2.40
   8  -4  -3    6.40    0.90
  -8   4   3    5.00    0.90
  -8   4   3    5.10    0.80
   7  -4  -3    0.20    0.40
  -7   4   3    1.00    0.40
  -7   4   3    1.10    0.50
  -6   4   3   11.00    0.90
  -6   4   3   10.10    0.90
   5  -4  -3   40.50    2.80
  -5   4   3   42.30    2.80
  -5   4   3   44.00    2.80
   4  -4  -3   15.90    1.20
  -4   4   3   19.00    1.10
  -4   4   3   17.10    1.20
  -4   4   3   14.00    1.20
   3  -4  -3  337.17   22.00
  -3   4   3  351.36   22.10
  -3   4   3  355.66   22.00
  -3   4   3  345.47   22.00
  -3   4   3  321.87   22.00
   2  -4  -3   18.70    1.40
  -2   4   3   25.10    1.50
  -2   4   3   20.80    1.50
  -2   4   3   23.30    1.50
  -2   4   3   18.70    1.40
   1  -4  -3  177.78   11.20
   1  -4  -3  178.08   11.20
  -1   4   3  173.38   11.20
  -1   4   3  184.28   11.20
  -1   4   3  178.78   11.20
  -1   4   3  147.79   11.20
   0  -4  -3    7.10    0.60
   0  -4  -3    6.90    0.80
   0   4   3    7.10    0.70
   0   4   3    7.10    0.60
   0   4   3    7.70    0.60
  -1  -4  -3  214.88   12.80
  -1  -4  -3  186.38   12.80
   1   4   3  205.48   12.70
   1   4   3  203.28   12.80
   1   4   3  177.08   12.70
  -2  -4  -3   96.09    6.90
  -2  -4  -3  104.69    6.90
   2   4   3  115.99    6.90
   2   4   3  104.39    6.90
  -3  -4  -3   95.59    6.50
  -3  -4  -3  104.19    6.60
   3   4   3   99.49    6.50
  -4  -4  -3    7.50    0.90
  -4  -4  -3    5.20    1.00
   4   4   3    6.70    0.70
  -5  -4  -3   -0.10    0.70
  -5  -4  -3    1.00    0.60
   5   4   3    0.40    0.50
  -6  -4  -3    2.60    0.80
  -6  -4  -3    5.30    1.00
   6   4   3    3.90    0.70
  -7  -4  -3    7.50    1.10
  -7  -4  -3   11.00    1.50
   7   4   3   10.10    1.40
  -8  -4  -3   36.40    2.90
  -8  -4  -3   39.10    3.20
   8   4   3   38.40    2.90
  -9  -4  -3   -1.30    0.90
  -9  -4  -3   -1.10    1.20
   9   4   3    0.10    1.00
  12  -5  -3    1.50    1.60
 -11   5   3    9.90    1.60
  10  -5  -3    1.40    0.80
 -10   5   3    0.80    0.80
   9  -5  -3   11.40    1.30
  -9   5   3    9.90    1.30
   8  -5  -3    5.80    0.80
   8  -5  -3    7.70    1.00
  -8   5   3    6.10    1.00
   7  -5  -3   29.30    2.10
  -7   5   3   29.60    2.10
  -7   5   3   29.60    2.10
   6  -5  -3   10.20    1.00
  -6   5   3   12.50    1.00
  -6   5   3   10.80    1.00
   5  -5  -3    2.10    0.40
  -5   5   3    2.60    0.40
  -5   5   3    2.90    0.40
  -5   5   3    2.60    0.40
  -5   5   3    2.30    0.30
   4  -5  -3   41.40    2.90
  -4   5   3   45.40    2.90
  -4   5   3   43.00    2.90
  -4   5   3   44.00    3.00
  -4   5   3   45.40    2.90
   3  -5  -3    3.30    0.50
  -3   5   3    4.10    0.40
  -3   5   3    4.20    0.40
  -3   5   3    4.10    0.40
   2  -5  -3    8.00    0.70
  -2   5   3    7.50    0.60
   1  -5  -3  111.89    6.90
   1  -5  -3   89.69    6.90
  -1   5   3  119.09    6.90
  -1   5   3  105.09    6.90
  -1   5   3  103.59    6.90
   0  -5  -3    4.40    0.80
   0  -5  -3    5.30    0.60
   0   5   3    3.90    0.70
   0   5   3    4.70    0.50
  -1  -5  -3    1.40    0.30
  -1  -5  -3    1.50    0.60
   1   5   3    1.90    0.50
   1   5   3    2.10    0.30
   1   5   3    1.50    0.30
  -2  -5  -3  117.99    8.80
  -2  -5  -3  135.69    8.90
   2   5   3  131.19    8.80
   2   5   3  136.49    8.60
   2   5   3  145.99    8.70
  -3  -5  -3    5.30    0.90
   3   5   3    4.20    0.70
  -4  -5  -3   73.59    4.90
  -4  -5  -3   66.19    5.00
   4   5   3   78.79    4.90
  -5  -5  -3   51.29    4.10
  -5  -5  -3   49.50    3.70
   5   5   3   54.99    3.70
  -6  -5  -3   17.10    1.90
  -6  -5  -3   16.90    1.90
   6   5   3   17.80    1.70
  -7  -5  -3    1.60    0.90
  -7  -5  -3   -0.20    1.10
   7   5   3    0.80    0.80
  -8  -5  -3    0.20    1.10
  -8  -5  -3   -1.90    1.00
   8   5   3    1.40    1.00
  -9  -5  -3    0.30    1.40
  -9  -5  -3   -0.30    1.10
   9   5   3    2.30    1.10
  12  -6  -3    4.90    1.80
  11  -6  -3   -0.60    1.10
 -11   6   3    2.70    1.10
  10  -6  -3    6.70    1.10
 -10   6   3    8.10    1.20
   9  -6  -3    4.40    0.90
  -9   6   3    3.90    0.90
   8  -6  -3    2.50    0.70
   8  -6  -3    2.30    0.90
  -8   6   3    3.70    0.70
   7  -6  -3    2.50    0.60
  -7   6   3    3.30    0.60
  -7   6   3    3.30    0.60
   6  -6  -3   13.90    1.20
  -6   6   3   13.70    1.20
  -6   6   3   12.40    1.20
   5  -6  -3    5.50    0.80
  -5   6   3    6.20    0.70
  -5   6   3    5.80    0.70
  -5   6   3    5.20    0.60
   4  -6  -3    4.20    0.70
  -4   6   3    4.50    0.60
  -4   6   3    5.00    0.70
   3  -6  -3   26.40    1.90
  -3   6   3   27.00    1.80
  -3   6   3   26.60    1.80
  -3   6   3   25.80    1.90
  -3   6   3   26.40    1.80
  -2   6   3    7.80    0.70
  -2   6   3    7.30    0.70
  -2   6   3    8.30    0.80
   1  -6  -3   12.90    1.10
  -1   6   3   17.20    1.20
  -1   6   3   12.80    1.10
   0  -6  -3   12.20    1.10
   0   6   3   10.20    1.10
   0   6   3   13.40    1.00
   0   6   3    9.90    0.90
  -1  -6  -3   12.40    1.30
   1   6   3   11.90    1.30
   1   6   3   15.70    1.10
   1   6   3   14.40    1.10
  -2  -6  -3   12.60    1.50
  -2  -6  -3   12.70    1.20
   2   6   3   15.20    1.10
   2   6   3   13.60    1.40
   2   6   3   13.30    1.10
  -3  -6  -3    1.60    0.60
  -3  -6  -3    1.10    0.80
   3   6   3    1.10    0.40
  -4  -6  -3    1.50    0.70
  -4  -6  -3    2.00    1.00
   4   6   3    1.00    0.50
  -5  -6  -3    2.40    1.00
  -5  -6  -3    2.10    0.80
   5   6   3    2.10    0.70
  -6  -6  -3    1.80    1.00
  -6  -6  -3   -0.80    1.00
   6   6   3    0.50    1.00
  -7  -6  -3   -0.50    1.10
  -7  -6  -3    0.80    1.10
   7   6   3    0.90    0.90
  -8  -6  -3    1.00    1.30
  -8  -6  -3   -0.80    1.20
   8   6   3    1.10    1.00
  11  -7  -3    2.70    1.20
 -11   7   3    1.90    1.20
  10  -7  -3    5.70    1.50
 -10   7   3    5.70    1.10
   9  -7  -3   12.80    1.60
  -9   7   3   13.00    1.60
  -8   7   3    8.50    1.10
  -8   7   3    6.90    1.10
   7  -7  -3   12.40    1.30
  -7   7   3   10.80    1.20
  -7   7   3   10.90    1.10
   6  -7  -3    3.60    0.60
  -6   7   3    2.20    0.50
  -6   7   3    3.20    0.40
  -6   7   3    3.00    0.70
   5  -7  -3    9.20    1.00
  -5   7   3    7.90    1.00
  -5   7   3    8.70    1.00
  -5   7   3   11.00    0.90
  -5   7   3   10.40    1.00
   4  -7  -3    7.90    0.90
  -4   7   3    6.40    0.80
  -4   7   3    7.40    0.80
  -4   7   3    6.30    0.80
   3  -7  -3   -0.20    0.40
  -3   7   3    0.00    0.30
  -3   7   3    0.10    0.40
  -3   7   3    0.30    0.40
   2  -7  -3   38.20    2.60
  -2   7   3   39.70    2.70
  -2   7   3   38.40    2.60
  -2   7   3   34.00    2.70
  -1   7   3   59.79    4.20
  -1   7   3   67.49    4.20
   0  -7  -3   50.19    3.20
   0  -7  -3   39.60    3.40
   0   7   3   47.60    3.30
   0   7   3   49.30    3.20
  -1  -7  -3    2.80    0.90
   1   7   3    2.60    0.50
   1   7   3    2.70    0.70
  -2  -7  -3    3.50    0.70
  -2  -7  -3    2.00    1.20
   2   7   3    3.30    0.60
   2   7   3    2.30    0.80
  -3  -7  -3   43.10    3.30
  -3  -7  -3   42.40    3.10
   3   7   3   41.20    2.90
  -4  -7  -3    3.50    1.50
  -4  -7  -3    2.80    1.20
   4   7   3    2.80    0.70
  -5  -7  -3    0.70    1.00
  -5  -7  -3    2.20    1.20
   5   7   3    2.70    0.80
  -6  -7  -3   -0.90    1.20
  -6  -7  -3   -0.40    1.00
   6   7   3    0.10    0.80
  -7  -7  -3    1.00    1.30
  -7  -7  -3   -0.70    1.40
   7   7   3    1.70    1.00
  11  -8  -3    0.80    1.30
  10  -8  -3    3.60    1.10
  -9   8   3    1.50    0.90
  -8   8   3   19.20    1.70
  -8   8   3   20.10    1.80
  -7   8   3   11.90    1.30
  -7   8   3   10.80    1.30
  -6   8   3    3.80    0.70
  -6   8   3    3.60    0.60
  -6   8   3    4.60    0.70
  -5   8   3    5.60    0.70
  -5   8   3    3.80    0.60
  -4   8   3    0.40    0.40
  -4   8   3    0.50    0.50
  -4   8   3    0.30    0.50
   3  -8  -3   15.40    1.40
  -3   8   3   17.60    1.40
  -3   8   3   17.40    1.40
  -3   8   3   17.40    1.40
   2  -8  -3   21.30    1.70
  -2   8   3   23.10    1.70
  -2   8   3   21.60    1.80
   1  -8  -3   23.50    1.90
  -1   8   3   23.00    1.70
  -1   8   3   22.80    1.90
  -1   8   3   22.90    1.70
   0  -8  -3    7.10    1.10
   0   8   3    5.30    0.90
   0   8   3    4.30    0.80
   0   8   3    6.50    0.80
  -1  -8  -3    3.60    0.80
   1   8   3    5.50    0.90
   1   8   3    3.80    0.90
   1   8   3    4.70    0.80
  -2  -8  -3    1.20    1.30
  -2  -8  -3    0.30    1.00
   2   8   3    0.30    0.60
  -3  -8  -3    2.00    0.90
  -3  -8  -3    1.20    1.30
   3   8   3    2.20    0.80
  -4  -8  -3   10.70    1.80
  -4  -8  -3    9.90    1.60
   4   8   3    7.10    1.10
  -5  -8  -3    0.00    1.40
  -5  -8  -3   -0.80    1.20
   5   8   3   -0.90    0.90
  -6  -8  -3    0.70    1.30
  -6  -8  -3   -1.50    1.60
   6   8   3   -1.10    1.10
  11  -9  -3    2.50    1.50
  10  -9  -3    2.70    1.20
   9  -9  -3    2.60    1.00
  -8   9   3    3.80    1.00
  -7   9   3   46.00    3.30
  -6   9   3   38.30    2.80
  -6   9   3   34.60    2.90
  -6   9   3   40.70    2.70
   5  -9  -3    4.60    0.80
  -5   9   3    5.20    0.70
  -5   9   3    4.10    0.70
   4  -9  -3   47.80    3.40
  -4   9   3   49.60    3.30
  -4   9   3   46.50    3.30
  -4   9   3   47.30    3.40
   3  -9  -3   43.10    3.10
  -3   9   3   45.50    3.10
  -3   9   3   43.90    3.10
  -3   9   3   40.20    3.00
   2  -9  -3    3.30    0.80
  -2   9   3    5.00    0.70
  -2   9   3    3.90    0.70
  -2   9   3    4.80    0.80
   1  -9  -3    7.80    1.30
  -1   9   3    5.30    0.90
  -1   9   3    6.00    0.80
  -1   9   3    5.40    0.80
   0  -9  -3    7.20    1.10
   0   9   3    8.80    1.00
   0   9   3    8.00    1.10
   0   9   3    7.20    1.10
   1   9   3   -1.80    0.90
   1   9   3   -0.50    0.70
  -2  -9  -3    0.60    1.10
   2   9   3    1.40    0.90
  -3  -9  -3    1.20    1.10
   4   9   3   -1.00    1.10
  -5  -9  -3    0.70    1.50
   5   9   3   -1.50    1.40
  10 -10  -3    5.50    1.40
   9 -10  -3   10.80    1.80
  -8  10   3   -0.30    0.70
  -7  10   3    6.80    1.00
  -7  10   3    8.40    0.90
  -6  10   3    0.10    1.10
  -5  10   3    1.50    0.90
  -5  10   3    2.80    0.70
   4 -10  -3    3.90    1.00
  -4  10   3    4.40    0.80
  -4  10   3    5.10    0.90
   3 -10  -3   -0.60    0.90
  -3  10   3    0.90    0.70
  -3  10   3    0.70    0.60
   2 -10  -3    1.40    0.90
  -2  10   3    1.00    0.70
  -2  10   3    2.00    0.70
   1 -10  -3   -1.40    0.90
  -1  10   3    0.80    0.60
  -1  10   3    0.90    0.80
   0 -10  -3   -1.10    1.00
   0  10   3    2.00    1.00
   0  10   3    1.10    1.10
  -1 -10  -3    0.30    1.10
   1  10   3    0.00    1.10
  -2 -10  -3   -0.10    1.30
   2  10   3    0.70    1.50
  -3 -10  -3    1.20    1.40
   9 -11  -3   11.20    1.90
   8 -11  -3    0.50    1.10
  -7  11   3   -0.60    0.80
  -7  11   3    2.10    0.60
  -6  11   3    0.80    0.80
  -6  11   3    1.30    0.60
  -5  11   3    1.30    0.60
  -5  11   3    1.50    0.80
  -4  11   3    0.00    0.70
  -4  11   3    1.70    0.70
   3 -11  -3    0.10    1.20
  -3  11   3    0.70    0.80
  -3  11   3    0.80    0.80
   2 -11  -3    0.20    1.80
  -2  11   3    0.80    0.90
  -2  11   3   -0.10    0.90
   1 -11  -3    2.40    1.30
  -1  11   3    3.10    1.10
   0 -11  -3    7.50    1.50
   0  11   3    7.80    1.60
  -1 -11  -3   18.00    2.70
  -2 -11  -3    3.80    1.60
   7 -12  -3    0.70    1.30
  -7  12   3    1.00    0.70
  -6  12   3   -0.30    0.70
  -6  12   3   -0.10    0.90
  -5  12   3   -0.10    0.90
  -5  12   3    1.70    0.80
  -4  12   3    4.90    1.00
  -4  12   3    5.00    1.10
  -3  12   3    2.30    1.00
  -3  12   3    1.50    1.00
   2 -12  -3   -1.30    2.40
  -2  12   3    3.30    1.20
   1 -12  -3    0.10    1.70
  -1  12   3    0.70    1.40
  -1  12  -4    4.80    1.50
   1 -12   4    5.10    1.60
  -2  12  -4   18.00    2.20
  -2  12  -4   15.00    2.00
   2 -12   4   11.10    1.80
  -3  12  -4   12.80    2.00
  -3  12  -4   16.40    1.90
   3 -12   4   13.30    1.80
  -4  12  -4    6.50    1.20
  -4  12  -4    8.10    1.20
   4 -12   4    5.40    1.40
  -5  12  -4   -0.40    0.80
  -5  12  -4    2.50    0.90
   5 -12   4    0.10    1.30
  -6  12  -4    9.20    1.50
  -6  12  -4   10.90    1.30
   6 -12   4    8.40    1.70
  -7  12  -4    2.90    1.00
  -2 -11   4   -2.30    1.40
  -1 -11   4    5.50    1.30
   0  11  -4   15.70    2.40
   0 -11   4   19.30    2.30
  -1  11  -4    3.30    1.10
  -1  11  -4    3.70    1.00
   1 -11   4    1.20    1.10
  -2  11  -4    3.50    1.00
  -2  11  -4    3.00    0.90
   2 -11   4    1.20    1.00
  -3  11  -4    0.80    0.70
  -3  11  -4    0.00    0.80
   3 -11   4    0.30    1.00
  -4  11  -4   13.60    1.70
  -4  11  -4   14.90    1.60
   4 -11   4   12.10    1.90
  -5  11  -4   25.00    2.10
  -5  11  -4   23.80    2.10
   5 -11   4   24.40    2.40
  -6  11  -4    5.00    0.80
  -6  11  -4    2.90    0.70
   6 -11   4    1.20    1.10
  -7  11  -4   17.70    1.80
   7 -11   4   19.10    2.40
  -8  11  -4    1.40    0.80
  -9  11  -4    2.40    1.00
  -3 -10   4   12.90    2.20
  -2 -10   4    6.80    1.30
   1  10  -4   -0.50    1.50
  -1 -10   4    1.10    1.00
   0  10  -4    4.20    0.90
   0  10  -4    2.10    1.00
   0 -10   4    4.10    1.10
  -1  10  -4   11.80    1.40
  -1  10  -4    7.80    1.20
   1 -10   4   11.20    1.60
  -2  10  -4    2.20    0.70
  -2  10  -4    2.10    0.80
   2 -10   4    2.40    0.90
  -3  10  -4   22.10    1.90
  -3  10  -4   19.70    1.90
   3 -10   4   23.80    2.00
  -4  10  -4    1.50    0.70
  -4  10  -4    1.10    0.70
   4 -10   4    0.40    0.80
  -5  10  -4    1.90    0.70
  -5  10  -4    1.30    0.60
   5 -10   4    2.20    0.90
  -6  10  -4   36.10    3.30
   6 -10   4   43.70    3.10
  -7  10  -4    9.80    1.20
   7 -10   4   10.10    1.90
  -8  10  -4   13.50    1.50
   8 -10   4   16.90    2.80
  -9  10  -4    1.00    0.80
 -10  10  -4    4.20    1.00
  -5  -9   4    3.30    1.40
  -4  -9   4    1.00    1.20
  -3  -9   4    5.80    1.20
  -2  -9   4   27.10    2.90
   1   9  -4   11.10    1.30
   1   9  -4    9.40    1.80
  -1  -9   4   10.30    1.50
   0   9  -4    2.70    0.70
   0   9  -4    2.60    0.90
   0  -9   4    1.60    0.80
  -1   9  -4   46.40    3.10
  -1   9  -4   40.80    3.20
   1  -9   4   42.90    3.20
  -2   9  -4    5.00    0.90
  -2   9  -4    7.00    1.00
   2  -9   4    8.20    1.20
  -3   9  -4    5.80    1.00
  -3   9  -4    3.80    0.90
   3  -9   4    5.10    0.80
  -4   9  -4    0.50    0.50
  -4   9  -4    0.50    0.50
   4  -9   4    0.50    0.60
  -5   9  -4    1.60    0.60
  -5   9  -4    1.90    0.60
   5  -9   4    1.60    0.70
  -6   9  -4    3.70    0.60
  -6   9  -4    4.60    0.80
   6  -9   4    3.60    0.80
  -7   9  -4    5.70    0.90
   7  -9   4    4.90    1.00
  -8   9  -4    0.10    0.80
   8  -9   4   -0.20    1.00
  -9   9  -4   -0.80    0.70
   9  -9   4   -0.10    1.50
 -10   9  -4    4.30    1.00
 -11   9  -4    0.90    1.10
  11  -9   4    1.40    1.40
   6   8  -4    3.10    1.30
  -6  -8   4    1.70    1.30
  -6  -8   4    3.00    1.80
   5   8  -4    3.40    1.00
  -5  -8   4    3.70    1.20
  -5  -8   4    2.80    1.50
   4   8  -4    0.90    0.80
  -4  -8   4   -1.00    0.90
  -4  -8   4   -1.20    1.20
   3   8  -4   15.90    1.50
  -3  -8   4   14.20    2.20
  -3  -8   4   15.50    1.70
   2   8  -4    3.50    1.00
   2   8  -4    1.00    0.80
   2   8  -4    1.00    0.60
  -2  -8   4    1.90    0.80
   1   8  -4    5.90    0.90
   1   8  -4    6.80    1.10
  -1  -8   4    6.10    0.90
   0   8  -4   19.60    1.80
   0   8  -4   20.90    1.60
   0  -8   4   20.60    1.70
  -1   8  -4    0.70    0.50
  -1   8  -4    0.30    0.40
   1  -8   4    0.50    0.50
  -2   8  -4   19.50    1.50
  -2   8  -4   20.30    1.60
   2  -8   4   15.00    1.50
  -3   8  -4   -0.20    0.40
  -3   8  -4    0.50    0.50
  -3   8  -4    0.10    0.40
   3  -8   4    0.60    0.50
  -4   8  -4    8.40    1.00
  -4   8  -4    9.70    1.00
   4  -8   4   11.70    1.10
  -5   8  -4    1.20    0.40
  -5   8  -4    0.50    0.50
   5  -8   4    0.20    0.60
  -6   8  -4   13.90    1.30
  -6   8  -4   12.40    1.00
  -6   8  -4   10.10    1.50
   6  -8   4   11.50    1.40
  -7   8  -4   36.20    2.80
   7  -8   4   42.10    2.90
  -8   8  -4    1.40    0.60
   8  -8   4    1.30    0.80
  -9   8  -4   31.70    2.60
   9  -8   4   31.70    2.70
 -10   8  -4    6.50    1.10
  11  -8   4    1.00    1.30
   7   7  -4    1.90    1.30
  -7  -7   4    0.60    1.30
  -7  -7   4    1.10    1.50
   6   7  -4    1.30    1.00
  -6  -7   4    0.30    1.10
  -6  -7   4    0.60    1.30
   5   7  -4    7.50    1.30
  -5  -7   4    4.90    1.20
  -5  -7   4    6.50    1.30
   4   7  -4    0.40    0.60
  -4  -7   4   -1.30    1.00
  -4  -7   4    0.40    1.00
   3   7  -4    0.20    0.50
  -3  -7   4   -0.50    0.90
  -3  -7   4   -1.20    0.60
   2   7  -4    0.20    0.80
   2   7  -4    1.40    0.50
   2   7  -4    1.90    0.50
  -2  -7   4   -0.10    0.80
  -2  -7   4    1.40    0.60
   1   7  -4    3.50    0.60
   1   7  -4    3.60    0.50
   1   7  -4    2.30    0.70
  -1  -7   4    3.00    0.60
  -1  -7   4    1.50    0.90
   0   7  -4    5.50    0.70
   0   7  -4    8.20    1.10
   0  -7   4    6.10    0.80
   0  -7   4    6.30    1.10
  -1   7  -4    2.60    0.70
  -1   7  -4    2.50    0.50
   1  -7   4    4.20    0.70
  -2   7  -4   24.10    1.80
  -2   7  -4   24.00    1.80
   2  -7   4   23.80    1.80
  -3   7  -4   92.19    6.10
  -3   7  -4   91.59    6.10
   3  -7   4   94.29    6.10
  -4   7  -4   21.50    1.70
  -4   7  -4   25.00    1.80
  -4   7  -4   25.10    1.70
  -5   7  -4   24.60    1.60
  -5   7  -4   22.90    1.70
  -5   7  -4   18.10    1.60
   5  -7   4   18.80    1.70
  -6   7  -4   23.40    1.80
   6  -7   4   24.00    1.90
  -7   7  -4   44.60    3.20
   7  -7   4   47.60    3.30
   8  -7   4    2.60    0.80
  -9   7  -4   -1.10    0.60
   9  -7   4    0.40    0.80
 -10   7  -4   12.70    1.70
  10  -7   4   16.00    2.00
   8   6  -4    0.60    1.30
  -8  -6   4   -0.30    1.20
  -8  -6   4   -2.00    1.40
   7   6  -4   -0.10    0.90
  -7  -6   4    0.30    1.20
  -7  -6   4    1.90    1.20
   6   6  -4    1.70    0.90
  -6  -6   4    1.20    1.80
  -6  -6   4    0.80    1.10
   5   6  -4    0.50    0.70
  -5  -6   4    0.40    0.70
  -5  -6   4    0.80    0.90
   4   6  -4    3.40    0.60
  -4  -6   4    2.80    0.70
   3   6  -4   16.90    1.80
   3   6  -4   18.80    1.40
   3   6  -4   16.90    1.40
  -3  -6   4   17.70    1.80
  -3  -6   4   17.10    1.60
   2   6  -4    6.50    1.20
   2   6  -4    7.90    0.90
   2   6  -4    8.80    0.80
  -2  -6   4    6.70    1.00
  -2  -6   4    7.70    1.20
   1   6  -4   46.30    3.20
   1   6  -4   50.09    3.40
   0   6  -4  116.19    7.60
   0   6  -4  118.89    7.50
   0   6  -4  118.59    7.60
   0  -6   4  112.79    7.80
   0  -6   4  113.69    7.70
  -1   6  -4   36.10    2.40
  -1   6  -4   36.20    2.40
   1  -6   4   30.50    2.50
  -2   6  -4   42.90    2.80
   2  -6   4   40.20    2.80
  -3   6  -4  122.79    8.50
  -3   6  -4  135.49    8.60
  -3   6  -4  131.89    8.60
   3  -6   4  135.39    8.60
  -4   6  -4   21.70    1.50
  -4   6  -4   18.80    1.50
   4  -6   4   21.80    1.60
  -5   6  -4    1.20    0.30
  -5   6  -4    1.00    0.40
  -5   6  -4    0.90    0.30
  -6   6  -4    0.30    0.40
  -6   6  -4    0.50    0.40
   6  -6   4   -0.50    0.40
  -7   6  -4   20.80    1.70
  -7   6  -4   23.10    1.70
   7  -6   4   23.40    1.80
  -8   6  -4   60.19    3.90
   8  -6   4   61.29    4.00
   8  -6   4   49.50    3.90
  -9   6  -4    1.00    0.60
   9  -6   4    1.60    0.80
   9  -6   4    0.90    0.90
 -10   6  -4   13.90    1.60
  10  -6   4   16.40    2.10
  11  -6   4    6.70    1.50
   9   5  -4    1.10    1.10
  -9  -5   4    0.20    1.40
  -9  -5   4    1.10    1.20
   8   5  -4    3.50    1.00
  -8  -5   4    3.00    1.10
  -8  -5   4    1.30    1.10
   7   5  -4   -0.10    0.90
  -7  -5   4    0.00    1.70
  -7  -5   4    0.20    1.40
   6   5  -4    1.40    0.70
  -6  -5   4    0.80    0.80
  -6  -5   4    1.10    0.80
   5   5  -4   11.30    1.10
  -5  -5   4    9.40    1.30
  -5  -5   4    7.60    1.30
   4   5  -4   27.10    1.90
  -4  -5   4   26.20    2.00
   3   5  -4  159.58    9.60
   3   5  -4  137.29    9.60
   3   5  -4  147.49    9.50
  -3  -5   4  155.98    9.60
  -3  -5   4  134.19    9.60
   2   5  -4   13.50    1.30
   2   5  -4   14.50    1.10
  -2  -5   4   11.90    1.30
   1   5  -4  148.69    9.40
   1   5  -4  135.09    9.20
   1   5  -4  148.69    9.30
  -1  -5   4  148.99    9.40
  -1  -5   4  133.89    9.30
   0   5  -4   46.40    2.70
   0   5  -4   40.00    2.70
   0   5  -4   35.50    2.80
   0  -5   4   34.10    2.80
   0  -5   4   44.90    2.70
  -1   5  -4   40.70    2.70
  -1   5  -4   38.80    2.70
   1  -5   4   41.70    2.80
   1  -5   4   38.20    2.70
  -2   5  -4   18.20    1.40
  -2   5  -4   20.20    1.40
   2  -5   4   16.60    1.50
   2  -5   4   21.70    1.40
  -3   5  -4   14.60    1.10
  -3   5  -4   14.40    1.10
   3  -5   4   15.60    1.10
  -4   5  -4   18.20    1.30
  -4   5  -4   17.30    1.20
  -4   5  -4   16.00    1.20
   4  -5   4   15.50    1.30
  -5   5  -4    3.70    0.50
  -5   5  -4    3.60    0.60
   5  -5   4    3.20    0.50
  -6   5  -4    1.40    0.40
  -6   5  -4    1.10    0.40
  -7   5  -4   15.90    1.40
  -7   5  -4   17.80    1.30
   7  -5   4   17.00    1.50
  -8   5  -4   10.90    1.10
   8  -5   4   11.50    1.10
  -9   5  -4    2.90    0.80
  -9   5  -4    3.20    0.70
   9  -5   4    4.20    0.80
 -10   5  -4    4.20    1.00
  10  -5   4    4.30    1.00
  11  -5   4   36.00    3.60
   9   4  -4   16.20    2.00
  -9  -4   4   17.60    2.30
  -9  -4   4   17.70    2.00
   8   4  -4    0.20    0.90
  -8  -4   4    1.90    0.90
  -8  -4   4    0.70    0.90
   7   4  -4   30.70    2.50
  -7  -4   4   32.60    2.60
  -7  -4   4   34.10    2.70
   6   4  -4   57.59    3.90
  -6  -4   4   52.69    3.90
  -6  -4   4   58.99    4.00
   5   4  -4    2.70    0.60
  -5  -4   4    3.40    0.70
  -5  -4   4    4.10    0.70
   4   4  -4   55.39    3.30
   4   4  -4   45.00    3.40
  -4  -4   4   48.70    3.40
   3   4  -4   16.90    1.50
   3   4  -4   19.00    1.30
   3   4  -4   16.90    1.30
  -3  -4   4   19.90    1.40
  -3  -4   4   16.00    1.40
   2   4  -4    4.00    0.50
   2   4  -4    2.90    0.50
  -2  -4   4    3.00    0.50
   1   4  -4   17.70    1.30
   1   4  -4   21.20    1.40
   1   4  -4   22.30    1.50
  -1  -4   4   17.30    1.40
   0   4  -4    7.30    0.70
   0   4  -4    8.90    0.60
   0   4  -4    7.80    0.60
   0  -4   4    6.80    0.80
   0  -4   4    8.60    0.70
  -1   4  -4  159.78   10.10
  -1   4  -4  138.49   10.10
  -1   4  -4  160.68   10.10
   1  -4   4  141.99   10.10
   1  -4   4  177.48   10.10
  -2   4  -4  284.07   19.10
  -2   4  -4  306.37   19.10
  -2   4  -4  298.67   19.10
   2  -4   4  287.37   19.10
   2  -4   4  304.67   19.10
  -3   4  -4   39.50    3.00
  -3   4  -4   49.10    3.00
  -3   4  -4   44.80    3.00
   3  -4   4   47.10    3.00
  -4   4  -4  262.57   16.60
  -4   4  -4  263.37   16.60
  -4   4  -4  239.78   16.60
  -4   4  -4  269.87   16.60
   4  -4   4  252.97   16.60
  -5   4  -4   12.70    1.00
  -5   4  -4   11.80    1.00
  -5   4  -4   13.50    1.00
  -6   4  -4    2.80    0.50
  -6   4  -4    1.90    0.40
  -6   4  -4    2.40    0.50
  -7   4  -4   69.09    5.00
  -7   4  -4   80.29    5.00
   7  -4   4   72.79    4.90
  -8   4  -4    1.10    0.50
  -8   4  -4    1.30    0.60
   8  -4   4    1.20    0.50
  -9   4  -4    4.80    0.70
  -9   4  -4    6.60    1.20
   9  -4   4    6.30    1.10
 -10   4  -4    0.30    0.90
  10  -4   4    0.10    0.80
 -11   4  -4    6.20    1.30
  11  -4   4    6.50    1.30
 -12   4  -4    3.50    1.60
  10   3  -4   12.60    1.90
 -10  -3   4    8.30    1.40
 -10  -3   4    4.30    1.60
   9   3  -4   17.00    1.90
  -9  -3   4   14.40    2.00
  -9  -3   4   14.80    1.70
   8   3  -4    1.10    0.90
  -8  -3   4    2.90    0.90
  -8  -3   4    1.30    0.70
   7   3  -4   29.90    2.30
  -7  -3   4   31.40    2.40
  -7  -3   4   28.00    2.40
   6   3  -4    0.30    0.50
  -6  -3   4    0.20    0.50
  -6  -3   4   -0.40    0.50
   5   3  -4    4.90    0.70
  -5  -3   4    5.40    0.80
  -5  -3   4    7.40    0.80
   4   3  -4   31.70    2.10
   4   3  -4   30.60    2.00
   4   3  -4   28.20    2.30
  -4  -3   4   32.10    2.10
  -4  -3   4   29.60    2.20
   3   3  -4    0.20    0.40
   3   3  -4    1.10    0.20
   3   3  -4    1.50    0.30
  -3  -3   4    0.50    0.30
   2   3  -4   35.90    2.30
   2   3  -4   32.70    2.40
   2   3  -4   34.90    2.30
  -2  -3   4   37.40    2.30
  -2  -3   4   32.20    2.40
   1   3  -4   25.60    1.70
   1   3  -4   27.70    1.70
   1   3  -4   22.10    1.80
  -1  -3   4   27.80    1.80
   0   3  -4    6.80    0.50
   0   3  -4    7.20    0.50
   0   3  -4    7.80    0.60
   0  -3   4    6.60    0.60
   0  -3   4    7.80    0.60
  -1   3  -4   40.30    2.70
  -1   3  -4   42.60    2.70
   1  -3   4   38.00    2.70
  -2   3  -4  160.98   10.30
  -2   3  -4  159.28   10.30
  -2   3  -4  165.48   10.40
   2  -3   4  156.38   10.30
   2  -3   4  158.08   10.30
  -3   3  -4   11.80    0.80
  -3   3  -4   11.50    0.80
  -3   3  -4   11.00    0.90
   3  -3   4   11.40    0.80
  -4   3  -4  149.88    9.60
  -4   3  -4  144.29    9.60
  -4   3  -4  150.18    9.60
  -5   3  -4  367.46   23.50
  -5   3  -4  358.16   23.60
  -5   3  -4  370.96   23.60
  -6   3  -4  104.59    6.80
  -6   3  -4  104.19    6.80
   6  -3   4  102.39    6.80
  -7   3  -4   37.70    2.50
  -7   3  -4   36.40    2.60
   7  -3   4   36.30    2.60
  -8   3  -4   12.30    1.10
  -8   3  -4   12.20    1.30
   8  -3   4   12.40    1.20
  -9   3  -4    2.50    0.80
   9  -3   4    2.30    0.70
 -10   3  -4    0.30    0.90
  10  -3   4    0.20    0.80
 -11   3  -4   -0.70    1.20
  11  -3   4    1.10    1.10
 -12   3  -4    1.40    1.50
  12  -3   4    0.90    1.40
  10   2  -4    3.80    1.20
 -10  -2   4    3.70    0.80
 -10  -2   4    4.30    1.40
   9   2  -4    1.20    0.80
  -9  -2   4    1.30    0.70
  -9  -2   4    0.50    0.90
   8   2  -4    2.90    0.80
  -8  -2   4    2.00    0.70
  -8  -2   4    2.30    0.80
   7   2  -4    0.20    0.50
  -7  -2   4   -0.20    0.40
  -7  -2   4    0.50    0.60
   6   2  -4    8.80    0.90
  -6  -2   4    7.00    0.90
  -6  -2   4    9.50    1.00
   5   2  -4   70.99    4.70
  -5  -2   4   72.29    4.80
   4   2  -4   56.19    3.90
   4   2  -4   58.59    3.80
  -4  -2   4   56.59    3.80
  -4  -2   4   56.39    3.80
  -4  -2   4   59.69    3.80
   3   2  -4  140.99    8.60
   3   2  -4  122.19    8.70
  -3  -2   4  138.19    8.70
  -3  -2   4  129.49    8.70
  -3  -2   4  128.09    8.70
  -3  -2   4  144.29    8.70
   2   2  -4 1073.99   70.19
   2   2  -4 1113.99   70.19
  -2  -2   4 1089.49   70.19
  -2  -2   4 1058.19   70.19
  -2  -2   4 1125.69   70.19
   1   2  -4    0.50    0.20
  -1  -2   4    0.10    0.30
  -1  -2   4    0.30    0.20
  -1  -2   4    0.80    0.20
   0   2  -4  360.66   22.80
   0   2  -4  343.27   22.70
   0  -2   4  380.06   22.80
   0  -2   4  331.07   22.80
  -1   2  -4 1195.28   78.69
  -1   2  -4 1273.27   78.69
   1  -2   4 1231.88   78.69
   1  -2   4 1202.08   78.79
  -2   2  -4    5.20    0.40
  -2   2  -4    5.50    0.40
  -2   2  -4    4.30    0.40
  -2   2  -4    5.50    0.50
  -3   2  -4   30.40    1.90
  -3   2  -4   29.60    2.00
  -3   2  -4   29.90    2.00
  -3   2  -4   29.50    2.00
   3  -2   4   29.00    2.00
  -4   2  -4   34.60    2.10
  -4   2  -4   32.90    2.20
   4  -2   4   28.30    2.10
  -5   2  -4    8.10    0.70
  -5   2  -4    7.50    0.70
   5  -2   4    7.60    0.70
  -6   2  -4   24.20    1.70
  -6   2  -4   21.10    1.60
   6  -2   4   22.60    1.60
  -7   2  -4    9.00    1.00
  -7   2  -4    7.30    0.80
   7  -2   4    9.20    0.90
  -8   2  -4    1.30    0.70
   8  -2   4    0.70    0.50
  -9   2  -4   11.00    1.40
   9  -2   4    9.30    1.30
 -10   2  -4    1.80    1.00
  10  -2   4    1.60    0.90
 -11   2  -4   -0.60    1.20
  11  -2   4    1.70    1.10
 -12   2  -4    1.50    1.70
  12  -2   4    2.30    1.50
  11   1  -4    0.70    1.20
  10   1  -4    3.00    1.10
 -10  -1   4   -0.50    1.30
   9   1  -4    2.10    0.90
  -9  -1   4   -1.10    0.90
  -9  -1   4    0.90    0.60
   8   1  -4    6.20    1.00
  -8  -1   4    5.50    0.90
  -8  -1   4    4.90    0.90
   7   1  -4    0.30    0.50
  -7  -1   4    0.50    0.40
  -7  -1   4   -0.10    0.50
   6   1  -4    6.20    0.70
  -6  -1   4    5.00    0.80
  -6  -1   4    5.40    0.70
  -6  -1   4    6.40    0.80
  -6  -1   4    6.00    0.80
   5   1  -4   17.60    1.20
  -5  -1   4   16.90    1.30
  -5  -1   4   19.00    1.30
  -5  -1   4   16.00    1.30
  -5  -1   4   16.60    1.30
   4   1  -4   76.19    4.80
   4   1  -4   66.99    4.80
  -4  -1   4   74.09    4.80
  -4  -1   4   75.79    4.80
  -4  -1   4   70.19    4.80
  -4  -1   4   75.19    4.80
   3   1  -4  176.88   11.70
   3   1  -4  182.48   11.70
  -3  -1   4  184.48   11.70
  -3  -1   4  182.48   11.70
  -3  -1   4  182.48   11.70
   2   1  -4  136.19    9.10
   2   1  -4  145.79    9.10
  -2  -1   4  148.79    9.10
  -2  -1   4  128.99    9.10
  -2  -1   4  147.69    9.10
  -2  -1   4  141.89    9.10
   1   1  -4 1100.59   66.59
  -1  -1   4 1046.30   66.59
  -1  -1   4  974.20   66.69
  -1  -1   4  998.70   66.59
  -1  -1   4 1062.39   66.59
   0   1  -4  487.65   35.20
   0   1  -4  566.44   35.20
   0   1  -4  576.74   35.30
   0   1  -4  530.95   35.20
   0  -1   4  560.74   35.20
   0  -1   4  565.24   35.30
   0  -1   4  551.14   35.20
  -1   1  -4  156.48   10.40
  -1   1  -4  164.88   10.40
  -1   1  -4  150.98   10.40
  -1   1  -4  166.78   10.40
   1  -1   4  171.08   10.40
   1  -1   4  159.98   10.40
  -2   1  -4  522.65   33.10
  -2   1  -4  470.85   33.10
  -2   1  -4  558.94   33.10
  -2   1  -4  494.95   33.10
   2  -1   4  527.65   33.10
  -3   1  -4   98.79    6.40
  -3   1  -4  101.59    6.40
  -3   1  -4   98.19    6.40
  -3   1  -4   95.89    6.40
   3  -1   4  101.09    6.40
  -4   1  -4    6.40    0.60
  -4   1  -4    7.20    0.50
  -4   1  -4    7.80    0.50
  -4   1  -4    5.80    0.50
   4  -1   4    5.10    0.50
  -5   1  -4    2.90    0.40
  -5   1  -4    3.50    0.30
  -5   1  -4    3.90    0.40
  -5   1  -4    2.70    0.40
   5  -1   4    2.50    0.40
  -6   1  -4   10.70    1.00
  -6   1  -4   12.00    0.90
   6  -1   4   11.10    0.90
  -7   1  -4    0.70    0.50
   7  -1   4    0.40    0.40
  -8   1  -4    1.10    0.70
   8  -1   4    1.00    0.60
  -9   1  -4    0.30    0.80
   9  -1   4    0.00    0.70
 -10   1  -4   -1.60    1.00
  10  -1   4    1.40    1.50
 -11   1  -4    0.70    1.40
  11  -1   4    2.20    1.10
  11   0  -4    2.70    1.10
  10   0  -4    2.60    0.90
 -10   0   4    0.70    1.20
   9   0  -4    1.60    0.80
  -9   0   4    0.90    0.50
  -9   0   4    0.00    0.90
  -8   0   4  127.19    7.90
  -8   0   4  113.09    7.90
  -8   0   4  120.89    8.00
   7   0  -4   13.20    1.10
  -7   0   4   12.40    1.10
  -7   0   4   11.20    1.40
  -7   0   4   11.30    1.00
  -7   0   4   13.90    1.20
   6   0  -4   45.10    2.90
  -6   0   4   47.30    2.90
  -6   0   4   42.90    3.00
  -6   0   4   40.10    2.90
  -6   0   4   41.90    3.00
   5   0  -4   25.80    1.70
  -5   0   4   26.40    1.70
  -5   0   4   22.60    1.70
  -5   0   4   22.60    1.70
   4   0  -4   20.40    1.30
  -4   0   4   17.80    1.30
  -4   0   4   18.60    1.30
  -4   0   4   16.80    1.30
   3   0  -4   28.90    1.90
   3   0  -4   28.30    1.90
  -3   0   4   27.60    1.90
  -3   0   4   29.10    1.90
  -3   0   4   28.20    1.90
  -3   0   4   32.20    1.90
   2   0  -4  274.27   17.00
   2   0  -4  271.97   17.00
  -2   0   4  258.27   17.00
  -2   0   4  261.27   17.00
  -2   0   4  252.27   17.00
   1   0  -4  105.59    6.30
   1   0  -4   89.39    6.30
   1   0  -4  102.29    6.30
  -1   0   4   98.19    6.30
  -1   0   4   94.99    6.30
  -1   0   4   98.89    6.30
  -1   0   4   95.49    6.30
   0   0  -4  104.79    6.70
   0   0  -4  110.09    6.70
   0   0   4   99.19    6.70
   0   0   4   96.59    6.70
  -1   0  -4  154.88    9.80
  -1   0  -4  145.19    9.80
  -1   0  -4  154.98    9.80
   1   0   4  149.19    9.80
   1   0   4  157.18    9.80
  -2   0  -4   19.80    1.30
  -2   0  -4   19.50    1.30
  -2   0  -4   20.10    1.30
  -2   0  -4   19.70    1.40
   2   0   4   20.80    1.30
   2   0   4   19.80    1.30
  -3   0  -4  458.95   29.60
  -3   0  -4  456.85   29.60
  -3   0  -4  431.46   29.60
  -3   0  -4  472.55   29.60
   3   0   4  481.25   29.60
  -4   0  -4   12.40    1.00
  -4   0  -4   12.80    1.00
  -4   0  -4   14.10    1.00
   4   0   4   15.40    1.00
  -5   0  -4    4.80    0.60
  -5   0  -4    4.20    0.50
  -5   0  -4    3.90    0.50
   5   0   4    4.70    0.50
  -6   0  -4    4.40    0.60
  -6   0  -4    4.60    0.60
  -6   0  -4    4.40    0.70
   6   0   4    4.00    0.70
  -7   0  -4   -0.10    0.30
  -7   0  -4   -0.30    0.40
  -7   0  -4   -0.50    0.50
   7   0   4    0.30    0.50
  -8   0  -4    1.60    0.80
  -8   0  -4    1.70    0.60
   8   0   4    2.30    0.60
  -9   0  -4   10.30    1.70
   9   0   4   11.20    1.60
 -10   0  -4    2.80    1.20
  10   0   4    1.40    0.90
 -11   0  -4    4.80    1.50
  11   0   4    5.90    1.30
  12  -1  -4    2.40    1.50
  11  -1  -4    2.00    1.20
  10  -1  -4    6.50    1.20
 -10   1   4    4.40    1.10
  -9   1   4   23.50    2.10
   8  -1  -4    5.50    1.00
  -8   1   4    4.70    0.80
  -8   1   4    5.50    0.90
   7  -1  -4   29.50    2.10
  -7   1   4   30.70    2.00
  -7   1   4   30.00    2.00
  -7   1   4   29.40    2.10
  -7   1   4   27.30    2.10
   6  -1  -4    2.50    0.40
  -6   1   4    2.90    0.40
  -6   1   4    2.40    0.40
  -6   1   4    2.20    0.40
   5  -1  -4   38.70    2.70
  -5   1   4   39.90    2.60
  -5   1   4   42.20    2.60
  -5   1   4   40.10    2.70
  -5   1   4   39.20    2.70
   4  -1  -4  138.39    8.80
  -4   1   4  141.99    8.80
  -4   1   4  140.09    8.90
  -4   1   4  127.99    8.90
  -4   1   4  134.09    8.80
   3  -1  -4   22.60    1.50
  -3   1   4   22.10    1.50
  -3   1   4   21.40    1.50
  -3   1   4   24.20    1.50
  -3   1   4   23.10    1.50
   2  -1  -4    0.50    0.10
  -2   1   4    0.60    0.20
  -2   1   4    0.90    0.20
  -2   1   4    0.50    0.10
   1  -1  -4  508.25   30.00
  -1   1   4  487.35   30.00
  -1   1   4  403.16   30.00
   0  -1  -4  185.58   12.20
   0  -1  -4  193.78   12.20
   0  -1  -4  188.78   12.20
   0   1   4  187.68   12.20
   0   1   4  187.98   12.20
  -1  -1  -4   13.10    1.00
  -1  -1  -4   13.80    1.00
  -1  -1  -4   14.80    1.00
  -1  -1  -4   14.10    1.00
   1   1   4   16.20    1.00
   1   1   4   14.60    1.00
  -2  -1  -4   14.40    1.00
  -2  -1  -4   15.80    1.00
   2   1   4   14.70    1.00
   2   1   4   13.40    1.00
  -3  -1  -4   48.10    3.20
  -3  -1  -4   49.10    3.30
  -3  -1  -4   50.79    3.20
   3   1   4   49.40    3.20
   3   1   4   48.00    3.20
  -4  -1  -4    0.30    0.30
  -4  -1  -4    0.40    0.20
  -4  -1  -4    0.70    0.30
   4   1   4    0.30    0.20
  -5  -1  -4   -0.30    0.40
  -5  -1  -4    0.80    0.30
  -5  -1  -4    0.50    0.40
   5   1   4    1.50    0.30
  -6  -1  -4   17.80    1.50
  -6  -1  -4   18.60    1.40
  -6  -1  -4   19.30    1.50
   6   1   4   17.70    1.40
  -7  -1  -4    1.00    0.50
  -7  -1  -4    0.90    0.60
   7   1   4    2.00    0.50
  -8  -1  -4    1.70    0.60
  -8  -1  -4    1.90    0.80
   8   1   4    1.60    0.60
  -9  -1  -4    1.20    1.00
  -9  -1  -4    2.30    0.80
   9   1   4    3.10    0.90
 -10  -1  -4    1.50    1.20
  10   1   4    0.90    0.90
 -11  -1  -4    1.30    1.50
  11   1   4    3.40    1.30
  12  -2  -4    4.00    1.60
  11  -2  -4    0.60    1.20
  10  -2  -4    1.00    0.90
 -10   2   4   -0.50    0.90
  -9   2   4    2.50    0.80
  -9   2   4    3.30    0.80
   8  -2  -4    4.40    0.70
  -8   2   4    4.70    0.80
   7  -2  -4    0.90    0.40
  -7   2   4    1.00    0.50
  -7   2   4    1.10    0.40
   6  -2  -4    7.10    0.70
  -6   2   4    6.70    0.70
  -6   2   4    6.60    0.70
   5  -2  -4    0.80    0.30
  -5   2   4    0.70    0.20
  -5   2   4    0.60    0.20
  -5   2   4    0.00    0.20
  -5   2   4    1.00    0.20
   4  -2  -4   30.50    2.10
  -4   2   4   33.10    2.20
  -4   2   4   33.80    2.10
  -4   2   4   31.00    2.10
  -4   2   4   31.50    2.10
   3  -2  -4  210.68   13.80
  -3   2   4  214.08   13.80
  -3   2   4  214.38   13.80
  -3   2   4  215.18   13.80
   2  -2  -4    5.90    0.50
   2  -2  -4    6.20    0.50
  -2   2   4    6.40    0.50
  -2   2   4    5.40    0.50
  -2   2   4    5.60    0.50
   1  -2  -4  157.98   10.60
   1  -2  -4  142.49   10.60
   1  -2  -4  173.98   10.60
  -1   2   4  176.88   10.60
  -1   2   4  149.29   10.60
  -1   2   4  183.98   10.60
   0  -2  -4  150.68   10.30
   0  -2  -4  166.58   10.30
   0  -2  -4  154.08   10.30
   0   2   4  163.58   10.30
   0   2   4  164.08   10.30
  -1  -2  -4   11.10    0.80
   1   2   4   11.70    0.80
  -2  -2  -4   12.80    0.90
  -2  -2  -4   12.20    0.90
  -2  -2  -4   11.40    1.00
   2   2   4   12.50    0.90
   2   2   4   12.90    0.90
  -3  -2  -4   46.30    3.50
  -3  -2  -4   48.50    3.50
  -3  -2  -4   52.19    3.50
   3   2   4   59.79    3.50
   3   2   4   55.09    3.50
  -4  -2  -4   77.09    4.90
  -4  -2  -4   70.79    4.90
   4   2   4   71.99    4.90
   4   2   4   75.99    4.90
  -5  -2  -4   83.99    6.00
  -5  -2  -4   88.09    5.90
  -5  -2  -4   90.59    5.90
   5   2   4   92.79    5.90
  -6  -2  -4    6.50    1.00
  -6  -2  -4    5.00    0.80
   6   2   4    6.00    0.80
  -7  -2  -4    8.60    1.30
  -7  -2  -4    9.70    1.10
   7   2   4   10.90    1.10
  -8  -2  -4   15.50    2.40
  -8  -2  -4   19.30    1.70
   8   2   4   17.90    1.60
  -9  -2  -4    0.40    1.10
  -9  -2  -4    1.40    0.70
   9   2   4    2.50    0.80
 -10  -2  -4    1.80    0.70
 -10  -2  -4   -0.90    1.40
  10   2   4    3.50    1.00
  12  -3  -4    4.50    1.50
  11  -3  -4   10.90    1.90
 -10   3   4   18.10    1.80
   9  -3  -4    0.70    0.60
  -9   3   4    2.10    0.70
  -9   3   4    0.80    0.70
   8  -3  -4    2.00    0.50
  -8   3   4    1.40    0.60
  -8   3   4    2.40    0.50
   7  -3  -4   11.60    1.00
  -7   3   4   10.40    1.00
  -7   3   4    9.20    1.00
   6  -3  -4   -0.50    0.30
  -6   3   4    0.20    0.30
  -6   3   4    0.10    0.30
   5  -3  -4   13.20    1.10
  -5   3   4   14.50    1.10
  -5   3   4   16.00    1.10
   4  -3  -4   41.30    2.80
  -4   3   4   43.20    2.90
  -4   3   4   44.80    2.90
  -4   3   4   45.20    2.80
  -4   3   4   40.50    2.80
  -3   3   4    1.70    0.20
  -3   3   4    1.00    0.20
  -3   3   4    1.30    0.20
   2  -3  -4   34.70    2.20
   2  -3  -4   32.10    2.30
  -2   3   4   34.70    2.20
  -2   3   4   35.30    2.20
  -2   3   4   32.70    2.20
   1  -3  -4  218.88   13.40
   1  -3  -4  188.28   13.40
  -1   3   4  222.88   13.40
  -1   3   4  218.58   13.40
  -1   3   4  184.28   13.40
  -1   3   4  215.48   13.40
   0  -3  -4  478.75   30.40
   0   3   4  469.95   30.40
   0   3   4  440.36   30.40
   0   3   4  499.65   30.40
  -1  -3  -4  139.19    8.90
  -1  -3  -4  129.69    9.00
   1   3   4  149.59    8.90
   1   3   4  134.69    9.00
  -2  -3  -4   35.20    2.30
   2   3   4   29.10    2.30
   2   3   4   38.40    2.40
  -3  -3  -4    4.70    0.50
   3   3   4    4.00    0.70
   3   3   4    3.90    0.50
  -4  -3  -4    1.50    0.40
   4   3   4    1.10    0.60
  -5  -3  -4    9.00    1.00
  -5  -3  -4   10.50    1.00
   5   3   4    7.40    0.80
  -6  -3  -4    1.00    0.60
  -6  -3  -4   -0.40    0.50
   6   3   4    0.10    0.50
  -7  -3  -4    5.10    1.20
  -7  -3  -4    3.00    0.80
   7   3   4    4.50    0.90
  -8  -3  -4    0.10    0.70
  -8  -3  -4    1.00    0.90
   8   3   4    1.30    0.80
  -9  -3  -4    2.30    1.10
  -9  -3  -4   -1.00    0.80
   9   3   4    1.00    1.00
 -10  -3  -4    9.70    1.80
 -10  -3  -4   11.10    1.60
  10   3   4   14.80    1.90
  12  -4  -4    3.10    1.60
 -11   4   4    0.40    0.90
  10  -4  -4   -0.30    0.70
 -10   4   4   -0.50    0.80
   9  -4  -4   15.90    1.50
  -9   4   4   15.40    1.50
   8  -4  -4    0.20    0.50
  -8   4   4    0.30    0.50
  -8   4   4    0.50    0.50
   7  -4  -4    0.60    0.40
  -7   4   4    0.00    0.40
  -7   4   4    1.00    0.40
   6  -4  -4    8.40    0.80
   6  -4  -4    6.40    0.80
  -6   4   4    9.40    0.80
   5  -4  -4   43.20    2.80
  -5   4   4   45.20    2.90
  -5   4   4   45.80    2.80
  -5   4   4   44.40    2.90
  -5   4   4   36.20    2.80
  -4   4   4    7.20    0.60
  -4   4   4    8.10    0.70
   3  -4  -4   24.50    1.60
  -3   4   4   25.40    1.70
  -3   4   4   20.40    1.70
  -3   4   4   27.20    1.70
   2  -4  -4  256.27   15.80
   2  -4  -4  238.48   15.80
  -2   4   4  230.68   15.80
  -2   4   4  239.98   15.80
  -2   4   4  258.87   15.80
   1  -4  -4   74.99    5.20
   1  -4  -4   86.09    5.20
  -1   4   4   75.89    5.20
  -1   4   4   85.39    5.30
  -1   4   4   78.39    5.20
  -1   4   4   77.99    5.20
   0  -4  -4    2.70    0.70
   0  -4  -4    2.30    0.30
   0   4   4    2.20    0.40
   0   4   4    2.30    0.30
   0   4   4    2.80    0.30
  -1  -4  -4   43.40    3.10
  -1  -4  -4   45.50    3.00
   1   4   4   45.80    3.00
   1   4   4   46.90    3.00
   1   4   4   44.70    3.10
  -2  -4  -4   38.60    2.60
   2   4   4   34.40    2.60
   2   4   4   45.60    2.70
  -3  -4  -4   83.79    5.70
  -3  -4  -4   85.09    5.80
   3   4   4   90.19    5.70
  -4  -4  -4    5.10    0.80
   4   4   4    3.50    0.60
  -5  -4  -4   32.30    2.50
  -5  -4  -4   36.40    2.50
   5   4   4   33.10    2.40
  -6  -4  -4  114.29    8.10
  -6  -4  -4  125.09    8.20
   6   4   4  128.09    8.10
  -7  -4  -4    0.70    0.80
  -7  -4  -4    1.50    1.10
   7   4   4    3.50    0.80
  -8  -4  -4    3.30    1.00
  -8  -4  -4    3.90    1.20
   8   4   4    4.90    1.00
  -9  -4  -4   -1.60    1.30
  -9  -4  -4   -1.20    0.90
   9   4   4    1.50    1.00
  12  -5  -4    3.50    1.60
 -11   5   4    1.20    1.00
  10  -5  -4    0.00    0.80
 -10   5   4    1.50    0.80
   9  -5  -4   -0.10    0.60
  -9   5   4    0.40    0.70
   8  -5  -4    7.80    1.10
   8  -5  -4    6.60    1.20
  -8   5   4    7.90    1.00
   7  -5  -4   29.50    2.00
   7  -5  -4   24.10    1.90
  -7   5   4   25.90    1.90
   6  -5  -4   59.09    3.80
  -6   5   4   56.59    3.90
  -6   5   4   55.99    3.80
   5  -5  -4    3.90    0.60
  -5   5   4    5.40    0.60
  -5   5   4    4.90    0.70
  -5   5   4    4.70    0.50
  -5   5   4    6.30    0.60
   4  -5  -4   23.00    1.60
  -4   5   4   19.20    1.60
  -4   5   4   24.30    1.60
  -4   5   4   23.80    1.60
  -4   5   4   23.60    1.60
   3  -5  -4  164.08   10.70
  -3   5   4  167.58   10.70
  -3   5   4  159.18   10.70
  -3   5   4  172.08   10.70
   2  -5  -4   10.30    0.80
   2  -5  -4    7.60    0.90
  -2   5   4    9.60    0.80
  -2   5   4   10.90    0.80
  -2   5   4   10.60    0.80
  -1   5   4    8.30    0.80
  -1   5   4   10.70    0.90
  -1   5   4   11.70    0.80
   0  -5  -4   17.00    1.30
   0   5   4   16.90    1.20
   0   5   4   19.30    1.30
   0   5   4   15.90    1.30
  -1  -5  -4   58.89    3.90
  -1  -5  -4   53.99    3.90
   1   5   4   63.49    3.80
   1   5   4   57.59    3.90
   1   5   4   55.99    3.80
  -2  -5  -4   83.49    6.30
   2   5   4  105.89    6.30
   2   5   4   96.49    6.30
  -3  -5  -4    9.40    1.10
   3   5   4   10.70    0.90
   3   5   4    7.40    1.30
  -4  -5  -4   23.80    1.90
   4   5   4   21.70    1.70
  -5  -5  -4    5.30    0.90
   5   5   4    4.40    0.70
  -6  -5  -4   -0.50    0.90
  -6  -5  -4   -0.70    0.80
   6   5   4    0.60    0.60
  -7  -5  -4   -0.30    0.90
  -7  -5  -4    1.10    0.90
   7   5   4    1.60    0.80
  -8  -5  -4   -0.40    1.00
  -8  -5  -4   -0.30    1.10
   8   5   4    0.50    0.90
  -9  -5  -4    0.80    1.50
  -9  -5  -4    0.80    1.20
   9   5   4    1.60    1.10
  12  -6  -4    3.60    1.70
  11  -6  -4    6.50    1.30
 -11   6   4    6.10    1.20
  10  -6  -4    8.50    1.40
 -10   6   4    6.90    1.10
   9  -6  -4    1.30    0.70
  -9   6   4    0.80    0.70
   8  -6  -4   27.00    2.20
  -8   6   4   28.10    2.10
   7  -6  -4    4.30    0.70
  -7   6   4    3.70    0.60
  -7   6   4    4.50    0.70
   6  -6  -4    3.50    0.60
  -6   6   4    4.00    0.70
   5  -6  -4   52.69    3.60
  -5   6   4   55.39    3.60
  -5   6   4   50.89    3.60
  -5   6   4   54.59    3.60
  -5   6   4   54.79    3.60
   4  -6  -4   63.09    4.20
  -4   6   4   63.99    4.20
  -4   6   4   63.99    4.30
  -4   6   4   63.59    4.20
   3  -6  -4  148.59    9.60
  -3   6   4  156.88    9.60
  -3   6   4  134.59    9.60
  -3   6   4  149.19    9.60
   2  -6  -4  110.99    7.10
   2  -6  -4   96.69    7.20
  -2   6   4  106.29    7.10
  -2   6   4  115.39    7.10
  -2   6   4  115.49    7.20
   1  -6  -4  103.39    8.10
   1  -6  -4  129.09    8.00
  -1   6   4  127.29    8.10
  -1   6   4  120.79    8.00
  -1   6   4  134.09    8.00
   0  -6  -4  214.18   14.00
   0  -6  -4  213.28   14.00
   0   6   4  213.88   14.00
   0   6   4  220.98   13.90
   0   6   4  215.38   13.90
  -1  -6  -4   27.70    2.30
  -1  -6  -4   27.40    2.10
   1   6   4   28.60    2.10
   1   6   4   28.70    1.90
  -2  -6  -4   16.80    1.40
  -2  -6  -4   13.70    1.70
   2   6   4   16.20    1.60
  -3  -6  -4    2.20    0.70
  -3  -6  -4    1.70    0.90
   3   6   4    2.30    0.50
  -4  -6  -4    3.00    1.00
  -4  -6  -4    2.40    0.80
   4   6   4    2.90    0.60
  -5  -6  -4    2.80    1.00
  -5  -6  -4    4.10    1.10
   5   6   4    4.50    0.70
  -6  -6  -4    0.80    1.00
  -6  -6  -4   -0.30    0.90
   6   6   4    1.00    1.30
  -7  -6  -4    1.20    1.10
  -7  -6  -4    1.90    1.20
   7   6   4    1.70    0.90
  -8  -6  -4   -0.10    1.30
  -8  -6  -4    0.50    1.20
   8   6   4   -0.20    1.00
  11  -7  -4    2.60    1.20
 -11   7   4    0.60    1.20
  10  -7  -4    0.60    1.00
 -10   7   4    2.00    1.00
   9  -7  -4   76.29    5.30
  -9   7   4   78.29    5.30
   8  -7  -4    2.30    0.80
  -8   7   4    2.10    0.70
  -7   7   4   15.30    1.40
  -7   7   4   15.20    1.40
   6  -7  -4   17.10    1.40
  -6   7   4   17.30    1.40
  -6   7   4   16.70    1.40
  -6   7   4   16.20    1.30
  -6   7   4   18.10    1.30
   5  -7  -4    0.50    0.50
  -5   7   4    1.00    0.30
  -5   7   4    0.50    0.50
  -5   7   4    0.50    0.40
  -5   7   4    0.40    0.50
   4  -7  -4  168.58   10.40
  -4   7   4  150.18   10.50
  -4   7   4  161.58   10.40
  -4   7   4  162.18   10.50
   3  -7  -4   22.30    1.70
  -3   7   4   23.90    1.70
  -3   7   4   24.80    1.70
  -3   7   4   22.10    1.70
   2  -7  -4    1.50    0.50
  -2   7   4    2.70    0.50
  -2   7   4    3.30    0.50
  -2   7   4    2.40    0.50
  -1   7   4   50.79    3.40
  -1   7   4   49.90    3.40
   0  -7  -4   28.00    2.10
   0   7   4   26.30    2.00
   0   7   4   28.00    2.20
   0   7   4   32.20    2.00
  -1  -7  -4    5.60    1.10
  -1  -7  -4    5.80    0.80
   1   7   4    5.60    0.80
   1   7   4    6.20    0.80
   1   7   4    4.90    0.80
  -2  -7  -4   66.79    4.50
   2   7   4   67.39    4.60
   2   7   4   60.79    4.30
  -3  -7  -4    5.30    0.90
   3   7   4    5.40    0.90
  -4  -7  -4    0.70    1.10
  -4  -7  -4    0.50    0.90
   4   7   4    1.30    0.70
  -5  -7  -4    1.30    1.00
  -5  -7  -4    1.60    1.20
   5   7   4    0.70    1.20
  -6  -7  -4   -0.10    1.20
  -6  -7  -4    0.50    1.10
   6   7   4    0.80    0.90
  -7  -7  -4   -2.50    1.30
  -7  -7  -4   -1.40    1.40
   7   7   4   -0.60    1.00
  11  -8  -4    1.00    1.30
  10  -8  -4   14.20    1.90
   9  -8  -4    1.20    1.10
  -9   8   4    0.00    0.90
   8  -8  -4   64.09    4.70
  -8   8   4   69.19    4.60
  -7   8   4    4.50    0.90
  -7   8   4    5.60    0.80
  -6   8   4   11.20    1.20
  -6   8   4    9.30    0.90
  -6   8   4    9.60    1.10
   5  -8  -4    2.60    0.70
  -5   8   4    4.50    0.80
  -5   8   4    4.20    0.60
  -5   8   4    4.60    0.70
   4  -8  -4    0.80    0.60
  -4   8   4    0.90    0.50
  -4   8   4    1.00    0.40
  -4   8   4    1.40    0.50
   3  -8  -4    0.30    0.60
  -3   8   4    0.70    0.50
  -3   8   4    1.40    0.50
  -3   8   4    0.50    0.50
   2  -8  -4   42.10    2.80
  -2   8   4   39.00    2.70
  -2   8   4   41.30    2.80
  -2   8   4   36.30    2.80
   1  -8  -4    2.20    0.60
  -1   8   4    1.80    0.60
  -1   8   4    2.40    0.50
  -1   8   4    1.80    0.50
   0  -8  -4    3.10    0.70
   0   8   4    3.60    0.60
   0   8   4    4.70    0.80
   0   8   4    1.90    0.70
  -1  -8  -4    7.60    1.30
   1   8   4    6.90    1.10
   1   8   4    9.80    1.10
  -2  -8  -4   14.30    2.30
  -2  -8  -4   14.40    1.60
   2   8   4   11.70    1.30
  -3  -8  -4    2.60    0.90
  -3  -8  -4    0.30    1.30
   3   8   4    1.40    0.80
  -4  -8  -4   -0.10    1.00
  -4  -8  -4    0.60    1.30
   4   8   4   -1.30    1.50
  -5  -8  -4   -1.60    1.40
  -5  -8  -4    1.50    1.30
   5   8   4   -2.00    0.90
  -6  -8  -4    0.30    1.40
  -6  -8  -4   -0.80    1.60
  11  -9  -4    0.90    1.40
  10  -9  -4   20.90    2.30
   9  -9  -4    0.90    1.00
   8  -9  -4    4.00    1.00
  -7   9   4    8.70    1.50
  -7   9   4   11.50    1.50
  -6   9   4    3.40    0.60
  -6   9   4    5.90    1.00
  -6   9   4    3.70    0.80
   5  -9  -4    9.00    1.30
  -5   9   4   11.20    1.10
  -5   9   4    9.80    1.10
  -5   9   4    9.40    1.10
   4  -9  -4   34.40    2.60
  -4   9   4   33.60    2.50
  -4   9   4   37.60    2.60
  -4   9   4   34.80    2.60
   3  -9  -4    3.80    0.80
  -3   9   4    3.00    0.60
  -3   9   4    3.90    0.70
  -3   9   4    5.20    0.90
   2  -9  -4    5.70    0.90
  -2   9   4    7.40    0.90
  -2   9   4    5.90    1.10
  -2   9   4    5.80    1.00
   1  -9  -4    3.30    0.80
  -1   9   4    1.80    0.70
  -1   9   4    3.30    0.80
  -1   9   4    4.00    0.60
   0  -9  -4   -1.30    0.80
   0   9   4    0.10    0.80
   0   9   4    0.50    0.60
   0   9   4    0.20    0.60
  -1  -9  -4   -0.20    0.90
   1   9   4    0.30    1.00
   1   9   4   -0.20    0.80
  -2  -9  -4   -1.30    1.10
   2   9   4    1.20    0.90
  -3  -9  -4    2.20    1.20
   3   9   4    2.00    1.00
  -4  -9  -4   -0.40    1.30
   4   9   4   -2.00    1.10
  -5  -9  -4   -0.90    1.50
   5   9   4   -2.60    1.30
  10 -10  -4    4.10    1.40
   9 -10  -4    0.40    1.10
   8 -10  -4    5.00    1.20
  -7  10   4    6.80    1.00
  -6  10   4    4.20    0.90
  -6  10   4    3.30    1.30
  -5  10   4    7.70    1.20
  -5  10   4    8.30    1.10
   4 -10  -4    3.10    1.00
  -4  10   4    4.80    0.80
  -4  10   4    4.60    0.80
   3 -10  -4    0.40    0.90
  -3  10   4    0.90    0.60
  -3  10   4    0.10    0.70
   2 -10  -4   -0.30    1.00
  -2  10   4   -1.00    0.80
  -2  10   4    0.30    0.60
  -2  10   4    0.20    0.70
   1 -10  -4   -0.40    0.90
  -1  10   4    0.60    0.80
  -1  10   4   -0.20    0.70
  -1  10   4    0.70    0.80
   0 -10  -4   -0.80    1.00
   0  10   4    0.40    0.80
   0  10   4    0.10    1.00
  -1 -10  -4   -0.70    1.10
   1  10   4    0.00    1.00
  -2 -10  -4    3.40    1.30
   2  10   4    3.00    1.20
  -3 -10  -4    2.40    1.50
   3  10   4    1.40    1.40
   9 -11  -4    2.20    1.30
   8 -11  -4    4.30    1.20
   7 -11  -4    0.90    1.20
  -6  11   4   -0.50    0.70
  -6  11   4    0.60    0.60
  -5  11   4   -0.50    0.70
  -5  11   4    0.60    0.60
  -4  11   4    3.80    0.80
  -4  11   4    2.90    0.80
   3 -11  -4    1.20    1.50
  -3  11   4    1.00    0.80
  -3  11   4   -0.80    0.80
  -2  11   4    2.30    0.90
   1 -11  -4    0.30    1.20
  -1  11   4    0.90    1.00
   0 -11  -4    3.60    1.40
   0  11   4    2.90    1.30
  -1 -11  -4   18.20    2.60
  -2 -11  -4    0.60    1.60
   7 -12  -4    5.00    1.40
  -7  12   4    2.70    0.70
   6 -12  -4    0.60    1.40
  -6  12   4    1.10    0.70
   5 -12  -4    0.70    1.40
  -5  12   4    0.90    0.70
   4 -12  -4    0.20    1.40
  -4  12   4    1.60    0.80
   3 -12  -4    4.70    1.60
  -3  12   4    3.80    1.10
  -2  12   4    2.20    1.20
   1 -12  -4    1.30    2.20
  -1  12   4    0.50    1.40
  -1  12  -5   -0.50    1.20
   1 -12   5   -1.30    1.40
  -2  12  -5   11.80    2.00
  -2  12  -5    9.40    1.40
   2 -12   5    9.90    1.70
  -3  12  -5    4.60    1.10
  -3  12  -5    3.80    1.20
   3 -12   5    3.20    1.40
  -4  12  -5   53.39    3.60
  -4  12  -5   45.20    3.70
   4 -12   5   43.80    3.90
  -5  12  -5    2.10    0.90
  -5  12  -5    2.60    0.90
   5 -12   5    1.20    1.40
  -6  12  -5    2.30    0.70
  -6  12  -5    3.10    0.90
   6 -12   5    1.50    1.50
  -7  12  -5    3.20    1.00
  -2 -11   5    6.80    1.60
  -1 -11   5    7.60    1.50
   0  11  -5   16.10    2.30
   0 -11   5   14.50    2.20
  -1  11  -5   11.60    1.70
  -1  11  -5   10.50    1.80
   1 -11   5    9.90    1.50
  -2  11  -5    5.30    1.00
  -2  11  -5    5.00    1.10
   2 -11   5    6.50    1.20
  -3  11  -5    4.10    1.00
  -3  11  -5    3.90    0.90
   3 -11   5    1.30    1.00
  -4  11  -5    0.50    0.80
  -4  11  -5    0.60    0.80
   4 -11   5   -0.50    1.00
  -5  11  -5    7.80    1.30
  -5  11  -5    5.40    0.90
   5 -11   5    4.40    1.20
  -6  11  -5    4.70    0.80
   6 -11   5    4.60    1.30
  -7  11  -5    2.10    0.80
   7 -11   5    3.90    1.30
  -8  11  -5    2.30    0.90
  -9  11  -5    0.20    0.90
  -3 -10   5    0.30    1.20
  -2 -10   5   41.50    3.40
  -1 -10   5    3.80    1.10
   0  10  -5    2.70    0.90
   0  10  -5    0.20    1.00
   0 -10   5    2.40    1.00
  -1  10  -5    1.30    0.80
  -1  10  -5    0.20    0.80
   1 -10   5    1.80    0.90
  -2  10  -5    6.60    1.00
  -2  10  -5    5.60    1.00
   2 -10   5    7.80    1.40
  -3  10  -5    4.40    0.90
  -3  10  -5    3.30    0.80
   3 -10   5    5.40    0.90
  -4  10  -5    9.40    1.40
  -4  10  -5    8.80    1.30
   4 -10   5    8.60    1.20
  -5  10  -5   11.70    1.50
  -5  10  -5   11.00    1.40
   5 -10   5   12.40    1.60
  -6  10  -5    4.90    0.80
  -6  10  -5    4.60    0.90
  -7  10  -5    2.50    0.70
   7 -10   5    0.10    1.10
  -8  10  -5   13.90    1.50
   8 -10   5   12.60    2.20
  -9  10  -5   -0.10    0.80
 -10  10  -5    0.80    0.90
  -5  -9   5    1.90    1.40
  -4  -9   5    9.80    1.50
  -3  -9   5    4.00    1.10
  -2  -9   5    1.10    0.90
   1   9  -5    3.10    1.10
   1   9  -5    2.90    0.70
   1   9  -5    2.00    1.00
  -1  -9   5    2.80    0.90
   0   9  -5    5.00    1.00
   0   9  -5    4.40    0.80
   0   9  -5    5.40    1.00
   0  -9   5    5.10    1.00
  -1   9  -5    1.90    0.60
  -1   9  -5    1.60    0.70
  -1   9  -5    1.80    0.80
   1  -9   5    1.00    0.70
  -2   9  -5    3.80    0.70
  -2   9  -5    4.90    0.80
  -2   9  -5    5.30    0.80
   2  -9   5    3.70    0.80
  -3   9  -5    3.70    0.70
  -3   9  -5    2.60    0.70
   3  -9   5    2.80    0.70
  -4   9  -5    2.90    0.70
  -4   9  -5    3.60    0.70
   4  -9   5    3.60    0.70
  -5   9  -5    4.00    0.70
  -5   9  -5    4.20    0.70
   5  -9   5    3.30    0.80
  -6   9  -5    2.70    0.70
  -6   9  -5    2.20    0.50
   6  -9   5    2.50    0.90
  -7   9  -5    0.50    0.60
   7  -9   5    0.10    0.90
  -8   9  -5    0.90    0.60
   8  -9   5   -1.90    1.00
  -9   9  -5    1.50    0.80
   9  -9   5    1.40    1.40
 -10   9  -5    0.40    0.90
 -11   9  -5    2.50    1.20
  -6  -8   5    0.30    1.30
  -6  -8   5    3.50    1.80
   5   8  -5   12.60    2.00
  -5  -8   5   10.60    1.50
   4   8  -5    0.90    0.80
  -4  -8   5   -0.30    1.00
  -4  -8   5    1.70    1.40
   3   8  -5    2.50    0.70
  -3  -8   5    0.20    1.30
  -3  -8   5    3.30    1.30
   2   8  -5    3.50    1.10
   2   8  -5    4.80    0.90
  -2  -8   5    4.00    1.00
   1   8  -5    2.20    0.60
   1   8  -5    2.00    0.70
  -1  -8   5    1.90    0.70
   0   8  -5    0.00    0.70
   0   8  -5   -0.40    0.50
   0  -8   5    0.20    0.50
  -1   8  -5    1.60    0.60
  -1   8  -5    1.00    0.50
   1  -8   5    1.00    0.50
  -2   8  -5   25.90    2.00
  -2   8  -5   25.30    2.00
   2  -8   5   26.60    2.00
  -3   8  -5    6.30    0.90
  -3   8  -5    6.90    1.10
   3  -8   5    8.00    1.00
  -4   8  -5    0.90    0.50
  -4   8  -5    0.60    0.50
  -4   8  -5    0.60    0.50
   4  -8   5    0.80    0.50
  -5   8  -5    3.40    0.50
  -5   8  -5    3.40    0.60
   5  -8   5    4.40    0.70
  -6   8  -5    1.40    0.40
  -6   8  -5    1.80    0.60
   6  -8   5    2.30    0.70
  -7   8  -5    0.40    0.60
   7  -8   5   -0.20    0.70
  -8   8  -5    1.40    0.60
   8  -8   5    0.10    0.80
  -9   8  -5   19.60    2.30
   9  -8   5   25.00    2.20
 -10   8  -5    0.10    0.80
  10  -8   5    1.50    1.20
 -11   8  -5   -0.80    1.00
   7   7  -5    1.70    1.20
  -7  -7   5    2.80    1.50
  -7  -7   5    0.20    1.30
   6   7  -5    2.90    1.00
  -6  -7   5    0.30    1.30
  -6  -7   5    1.60    1.10
   5   7  -5    2.50    0.80
  -5  -7   5    1.50    1.20
  -5  -7   5    1.30    0.90
   4   7  -5    9.50    1.10
  -4  -7   5    7.30    1.10
  -4  -7   5    8.40    1.30
   3   7  -5    1.40    0.50
  -3  -7   5    0.50    0.90
  -3  -7   5    0.40    0.70
   2   7  -5    0.00    0.80
  -2  -7   5    0.50    0.50
  -2  -7   5   -0.10    1.00
   1   7  -5    0.20    0.50
   1   7  -5    0.30    0.70
   1   7  -5    0.50    0.40
  -1  -7   5    0.10    0.90
  -1  -7   5    0.60    0.50
   0   7  -5   19.70    1.40
   0  -7   5   20.20    1.60
  -1   7  -5    1.20    0.40
  -1   7  -5    2.10    0.60
   1  -7   5    0.80    0.50
  -2   7  -5    1.20    0.50
  -2   7  -5    1.60    0.50
   2  -7   5    2.30    0.50
  -3   7  -5    9.40    1.00
  -3   7  -5   11.20    1.00
   3  -7   5   12.60    1.10
  -4   7  -5    2.20    0.40
  -4   7  -5    1.00    0.50
   4  -7   5    1.40    0.50
  -5   7  -5   22.20    1.90
  -5   7  -5   24.10    2.00
  -5   7  -5   30.50    1.90
   5  -7   5   28.60    2.00
  -6   7  -5    3.00    0.60
   6  -7   5    2.30    0.60
  -7   7  -5   16.30    1.50
   7  -7   5   16.80    1.60
  -8   7  -5    0.60    0.60
   8  -7   5    0.60    0.70
  -9   7  -5   -0.10    0.70
   9  -7   5    1.00    0.90
 -10   7  -5    7.00    1.30
  10  -7   5   10.70    1.60
  11  -7   5    4.20    1.80
   8   6  -5    0.20    1.20
  -8  -6   5    1.10    1.30
  -8  -6   5   -1.80    1.30
   7   6  -5   -0.80    0.90
  -7  -6   5    0.90    1.20
  -7  -6   5   -0.70    1.10
   6   6  -5    2.50    0.80
  -6  -6   5    1.90    1.10
  -6  -6   5    2.50    1.60
   5   6  -5    0.50    0.60
  -5  -6   5    1.10    0.90
  -5  -6   5   -0.50    0.70
   4   6  -5   38.00    2.50
  -4  -6   5   37.60    2.70
  -4  -6   5   31.70    2.80
   3   6  -5   14.90    1.90
   3   6  -5   15.30    1.30
   3   6  -5   16.80    1.30
  -3  -6   5   14.40    1.60
  -3  -6   5   15.80    1.50
   2   6  -5    4.90    0.70
   2   6  -5    3.40    0.80
   2   6  -5    3.90    0.60
  -2  -6   5    3.80    0.60
  -2  -6   5    3.50    0.80
   1   6  -5   27.10    1.90
   1   6  -5   23.30    2.10
  -1  -6   5   31.30    2.00
   0   6  -5    2.10    0.40
   0   6  -5    2.20    0.50
   0  -6   5    1.30    0.70
   0  -6   5    3.30    0.50
  -1   6  -5   56.29    3.70
  -1   6  -5   56.19    3.70
   1  -6   5   54.09    3.80
   1  -6   5   55.29    3.80
  -2   6  -5    6.60    0.70
  -2   6  -5    5.70    0.70
  -3   6  -5    1.30    0.50
  -3   6  -5    1.00    0.40
   3  -6   5    1.40    0.30
  -4   6  -5    0.70    0.40
  -4   6  -5    0.90    0.30
  -4   6  -5    1.20    0.40
  -5   6  -5    0.90    0.30
  -5   6  -5    0.60    0.40
   5  -6   5    0.80    0.40
  -6   6  -5    2.50    0.50
   6  -6   5    1.90    0.50
  -7   6  -5   25.70    1.90
   7  -6   5   25.80    1.90
   7  -6   5   23.40    1.80
  -8   6  -5   18.30    1.60
   8  -6   5   20.80    1.80
  -9   6  -5    4.40    0.80
   9  -6   5    6.10    1.00
 -10   6  -5   39.20    3.00
  10  -6   5   42.60    3.30
  11  -6   5   24.30    2.90
   9   5  -5    3.00    1.20
  -9  -5   5    2.30    1.20
  -9  -5   5   -0.30    1.40
   8   5  -5    1.60    1.00
  -8  -5   5    2.10    1.10
  -8  -5   5    3.60    1.10
   7   5  -5    4.80    1.30
  -7  -5   5    2.60    1.50
  -7  -5   5    3.70    1.30
   6   5  -5    0.50    0.70
  -6  -5   5   -0.50    0.80
  -6  -5   5    0.90    1.00
   5   5  -5    9.90    1.10
  -5  -5   5   10.80    1.40
  -5  -5   5    9.80    1.40
   4   5  -5    4.70    0.80
   4   5  -5    5.60    0.70
  -4  -5   5    4.40    0.70
  -4  -5   5    3.70    0.80
   3   5  -5   11.70    1.10
   3   5  -5   14.80    1.10
   3   5  -5   15.50    1.50
  -3  -5   5   14.10    1.40
  -3  -5   5   11.40    1.20
   2   5  -5   52.99    3.50
   2   5  -5   52.09    3.60
   2   5  -5   54.59    3.50
  -2  -5   5   48.60    3.60
  -2  -5   5   52.19    3.50
   1   5  -5    5.40    0.90
   1   5  -5    7.70    0.60
   1   5  -5    5.80    0.70
  -1  -5   5    7.40    1.00
  -1  -5   5    6.70    0.70
   0   5  -5   86.79    5.30
   0   5  -5   69.39    5.30
   0   5  -5   86.99    5.40
   0  -5   5   92.09    5.40
   0  -5   5   72.59    5.30
  -1   5  -5   46.40    3.10
  -1   5  -5   44.90    3.10
   1  -5   5   48.00    3.10
   1  -5   5   43.90    3.10
  -2   5  -5    3.60    0.40
  -2   5  -5    2.20    0.50
  -2   5  -5    3.90    0.40
   2  -5   5    3.20    0.40
   2  -5   5    5.10    0.80
  -3   5  -5    8.10    0.70
  -3   5  -5    6.80    0.60
  -3   5  -5    8.00    0.70
  -4   5  -5    9.40    0.80
  -4   5  -5   11.10    0.90
  -4   5  -5    8.40    0.80
   4  -5   5   10.30    0.80
  -5   5  -5    6.60    0.60
  -5   5  -5    6.70    0.60
   5  -5   5    5.30    0.70
  -6   5  -5   76.19    5.00
   6  -5   5   74.19    5.00
  -7   5  -5   25.00    1.70
   7  -5   5   19.70    1.70
   7  -5   5   23.90    1.80
  -8   5  -5    5.20    0.80
   8  -5   5    3.80    0.70
  -9   5  -5    4.20    0.70
  -9   5  -5    4.40    0.90
   9  -5   5    4.40    0.80
 -10   5  -5   10.00    1.30
  10  -5   5    8.80    1.50
  12  -5   5   20.00    3.60
   9   4  -5    2.20    1.10
  -9  -4   5    1.40    1.20
  -9  -4   5    0.70    1.00
   8   4  -5    5.00    1.00
  -8  -4   5    5.60    1.20
  -8  -4   5    5.30    1.10
   7   4  -5    5.50    0.90
  -7  -4   5    5.40    1.00
  -7  -4   5    4.20    0.90
   6   4  -5    4.30    0.80
  -6  -4   5    7.20    1.20
   5   4  -5   29.10    2.10
  -5  -4   5   31.00    2.30
  -5  -4   5   28.50    2.20
   4   4  -5    2.50    0.60
   4   4  -5    3.10    0.50
  -4  -4   5    3.00    0.60
  -4  -4   5    5.70    1.10
   3   4  -5   -0.10    0.50
   3   4  -5   -0.30    0.30
  -3  -4   5    0.00    0.40
  -3  -4   5    0.00    0.30
   2   4  -5    7.30    0.70
   2   4  -5    9.30    0.70
   2   4  -5   10.20    1.00
  -2  -4   5    7.90    0.80
  -2  -4   5   10.80    0.90
   1   4  -5   18.50    1.30
  -1  -4   5   18.20    1.30
   0   4  -5  157.08   10.00
   0   4  -5  157.78    9.90
   0  -4   5  141.49    9.90
   0  -4   5  157.88   10.00
  -1   4  -5  220.18   12.80
  -1   4  -5  202.88   12.80
  -1   4  -5  178.68   12.80
   1  -4   5  171.98   12.80
   1  -4   5  215.88   12.80
  -2   4  -5   13.10    1.00
   2  -4   5   13.70    1.00
  -3   4  -5    5.50    0.60
  -3   4  -5    6.00    0.60
  -3   4  -5    6.70    0.50
   3  -4   5    6.00    0.50
  -4   4  -5  326.47   21.90
  -4   4  -5  358.36   21.90
  -4   4  -5  327.37   21.90
   4  -4   5  347.87   21.90
  -5   4  -5  179.18   11.80
  -5   4  -5  183.48   11.80
  -6   4  -5   94.09    6.60
  -6   4  -5  105.69    6.50
   6  -4   5   97.79    6.50
  -7   4  -5   23.20    1.80
   7  -4   5   25.10    1.80
  -8   4  -5    1.40    0.50
  -8   4  -5    2.40    0.70
   8  -4   5    2.60    0.60
  -9   4  -5   19.10    1.60
  -9   4  -5   20.70    1.90
   9  -4   5   20.00    1.70
 -10   4  -5    0.80    0.90
  10  -4   5    0.90    0.90
 -11   4  -5    1.80    1.20
  11  -4   5    3.10    1.20
 -12   4  -5    6.20    1.70
  10   3  -5   -0.80    1.00
 -10  -3   5   -0.50    0.90
 -10  -3   5   -2.70    1.40
   9   3  -5    5.60    1.10
  -9  -3   5    5.10    0.90
  -9  -3   5    4.50    1.20
   8   3  -5    3.20    0.90
  -8  -3   5    0.80    0.70
  -8  -3   5    2.20    0.90
   7   3  -5    6.20    1.10
  -7  -3   5    8.00    1.10
  -7  -3   5    7.30    1.30
   6   3  -5    3.50    0.60
  -6  -3   5    4.00    0.70
  -6  -3   5    2.80    0.70
   5   3  -5    2.50    0.40
   5   3  -5    3.00    0.50
  -5  -3   5    3.20    0.60
   4   3  -5    7.90    1.10
   4   3  -5    9.20    0.80
   4   3  -5    8.60    0.80
  -4  -3   5   10.10    0.90
  -4  -3   5    9.80    0.90
   3   3  -5   25.40    1.70
   3   3  -5   23.70    1.80
   3   3  -5   26.10    1.70
  -3  -3   5   23.90    1.80
  -3  -3   5   25.60    1.70
   2   3  -5    0.90    0.20
   2   3  -5    0.80    0.20
  -2  -3   5    0.70    0.20
  -2  -3   5    0.20    0.30
   1   3  -5    8.40    0.60
  -1  -3   5    9.10    0.70
   0   3  -5  615.84   41.00
   0   3  -5  672.63   41.00
   0  -3   5  589.04   41.00
   0  -3   5  671.73   41.00
  -1   3  -5   18.30    1.30
  -1   3  -5   21.80    1.30
   1  -3   5   16.10    1.30
  -2   3  -5  149.29    8.60
  -2   3  -5  137.59    8.70
  -2   3  -5  120.19    8.60
   2  -3   5  122.29    8.60
   2  -3   5  138.69    8.60
  -3   3  -5  459.15   28.80
  -3   3  -5  429.46   28.70
  -3   3  -5  449.76   28.70
   3  -3   5  448.96   28.80
  -4   3  -5   21.70    1.50
  -4   3  -5   18.50    1.40
  -4   3  -5   19.50    1.50
   4  -3   5   23.30    1.40
  -5   3  -5   13.40    1.10
  -5   3  -5   15.60    1.10
   5  -3   5   15.20    1.10
  -6   3  -5   11.50    1.00
  -6   3  -5    9.80    0.90
   6  -3   5   12.20    0.90
  -7   3  -5    9.70    1.00
  -7   3  -5    9.30    0.90
   7  -3   5    9.60    0.90
  -8   3  -5    0.90    0.50
  -8   3  -5    1.50    0.60
   8  -3   5    2.00    0.60
  -9   3  -5    6.20    1.00
   9  -3   5    5.70    0.90
 -10   3  -5    1.50    0.90
  10  -3   5    1.10    0.90
 -11   3  -5    0.30    1.20
  11  -3   5    1.70    1.10
 -12   3  -5    2.10    1.60
  12  -3   5    1.80    1.40
  10   2  -5    1.70    1.10
 -10  -2   5    0.40    0.70
 -10  -2   5    1.40    1.40
   9   2  -5    1.50    0.90
  -9  -2   5    2.20    1.00
  -9  -2   5    3.20    0.70
   8   2  -5    0.60    0.80
  -8  -2   5   -0.10    0.70
  -8  -2   5   -0.30    0.60
   7   2  -5    0.60    0.60
  -7  -2   5    0.50    0.50
  -7  -2   5    1.20    0.60
   6   2  -5   35.90    2.70
  -6  -2   5   37.40    2.70
  -6  -2   5   40.60    2.70
   5   2  -5    1.40    0.30
  -5  -2   5    1.10    0.40
  -5  -2   5    2.10    0.70
  -5  -2   5    1.40    0.50
   4   2  -5   19.70    1.50
   4   2  -5   19.70    1.30
  -4  -2   5   18.10    1.40
  -4  -2   5   18.90    1.40
  -4  -2   5   17.20    1.50
  -4  -2   5   19.50    1.40
   3   2  -5   12.90    1.00
   3   2  -5   12.60    0.90
  -3  -2   5   12.60    0.90
  -3  -2   5   12.30    0.90
  -3  -2   5   11.20    0.90
  -3  -2   5   11.50    1.00
   2   2  -5  884.01   57.19
   2   2  -5  895.01   57.19
  -2  -2   5  884.31   57.19
  -2  -2   5  895.91   57.19
  -2  -2   5  888.11   57.19
   1   2  -5 1112.59   72.39
   1   2  -5 1167.78   72.49
  -1  -2   5 1143.69   72.39
  -1  -2   5 1150.08   72.49
  -1  -2   5 1064.69   72.39
   0   2  -5  789.52   51.39
   0   2  -5  769.22   51.39
   0  -2   5  824.62   51.39
   0  -2   5  815.82   51.39
  -1   2  -5    4.90    0.50
  -1   2  -5    5.50    0.50
   1  -2   5    6.40    0.50
   1  -2   5    6.40    0.50
  -2   2  -5   12.50    0.80
  -2   2  -5   11.70    0.80
  -2   2  -5   10.90    0.80
   2  -2   5    9.60    0.80
  -3   2  -5   12.30    0.80
  -3   2  -5   12.50    0.80
  -3   2  -5   11.10    0.90
  -3   2  -5   11.20    0.90
   3  -2   5   11.40    0.80
  -4   2  -5  106.29    6.70
  -4   2  -5  110.09    6.70
  -4   2  -5   94.49    6.80
   4  -2   5  106.59    6.80
  -5   2  -5   45.40    2.90
  -5   2  -5   42.80    2.90
   5  -2   5   42.70    2.90
  -6   2  -5  100.49    6.50
  -6   2  -5   97.69    6.40
   6  -2   5   96.19    6.40
  -7   2  -5    0.60    0.40
  -7   2  -5    0.80    0.50
   7  -2   5    1.00    0.40
  -8   2  -5    0.20    0.60
   8  -2   5   -0.10    0.50
  -9   2  -5    8.20    1.40
   9  -2   5    8.20    1.30
 -10   2  -5    6.60    1.20
  10  -2   5    8.60    1.50
 -11   2  -5    0.50    1.30
  11  -2   5    1.20    1.20
 -12   2  -5    2.10    1.70
  12  -2   5    1.20    1.40
  11   1  -5    0.80    1.30
  10   1  -5    2.80    1.10
 -10  -1   5   -0.70    0.60
 -10  -1   5   -1.10    1.40
   9   1  -5   13.10    1.60
  -9  -1   5   10.50    1.40
  -9  -1   5   14.20    1.40
   8   1  -5    0.70    0.60
  -8  -1   5    0.60    0.70
  -8  -1   5    0.20    0.50
  -7  -1   5    6.60    0.80
  -7  -1   5    6.50    1.00
   6   1  -5   78.29    5.20
  -6  -1   5   79.09    5.30
  -6  -1   5   81.29    5.30
  -6  -1   5   79.39    5.30
   5   1  -5    0.50    0.30
  -5  -1   5    0.40    0.30
  -5  -1   5    0.10    0.20
  -5  -1   5    0.40    0.40
  -5  -1   5    0.30    0.30
   4   1  -5   66.29    4.70
   4   1  -5   74.59    4.70
  -4  -1   5   69.29    4.70
  -4  -1   5   71.79    4.70
  -4  -1   5   75.79    4.70
  -4  -1   5   73.09    4.70
   3   1  -5  184.48   11.80
   3   1  -5  192.98   11.80
  -3  -1   5  186.78   11.80
  -3  -1   5  179.88   11.80
  -3  -1   5  169.38   11.80
   2   1  -5  176.78   11.10
   2   1  -5  184.98   11.20
  -2  -1   5  172.68   11.10
  -2  -1   5  171.68   11.10
  -2  -1   5  158.48   11.10
  -2  -1   5  170.88   11.10
   1   1  -5  232.48   14.90
   1   1  -5  231.38   15.00
  -1  -1   5  233.18   15.00
  -1  -1   5  233.78   14.90
  -1  -1   5  229.58   14.90
   0   1  -5  596.04   36.30
   0   1  -5  578.64   36.30
   0  -1   5  576.74   36.30
   0  -1   5  557.24   36.30
   0  -1   5  515.75   36.30
  -1   1  -5  157.68   10.20
  -1   1  -5  155.68   10.20
  -1   1  -5  158.58   10.20
   1  -1   5  156.38   10.20
   1  -1   5  160.88   10.10
  -2   1  -5    8.60    0.60
  -2   1  -5    9.50    0.70
  -2   1  -5    9.60    0.60
   2  -1   5    7.70    0.60
   2  -1   5    8.10    0.60
  -3   1  -5   87.69    5.80
  -3   1  -5   95.99    5.80
  -3   1  -5   93.89    5.70
  -3   1  -5   80.39    5.70
   3  -1   5   86.39    5.80
  -4   1  -5  142.79    9.10
  -4   1  -5  140.49    9.10
  -4   1  -5  142.79    9.10
  -4   1  -5  134.79    9.20
   4  -1   5  145.89    9.10
  -5   1  -5   71.59    4.70
  -5   1  -5   75.29    4.70
  -5   1  -5   69.89    4.80
  -5   1  -5   72.69    4.70
   5  -1   5   73.69    4.80
  -6   1  -5    1.00    0.30
   6  -1   5    0.80    0.40
  -7   1  -5    2.70    0.60
   7  -1   5    2.10    0.50
  -8   1  -5    2.60    0.70
   8  -1   5    1.80    0.60
  -9   1  -5   -0.60    0.80
   9  -1   5    0.40    0.70
 -10   1  -5    2.80    1.80
 -11   1  -5   -0.70    1.30
  11  -1   5    1.10    1.20
  11   0  -5    3.20    1.20
 -10   0   5    9.90    1.40
   9   0  -5    2.50    0.90
  -9   0   5    0.00    0.80
  -9   0   5   -0.10    0.60
  -8   0   5   39.20    2.80
  -8   0   5   37.50    2.80
  -8   0   5   39.20    2.70
   7   0  -5   86.49    5.60
  -7   0   5   82.89    5.70
  -7   0   5   81.19    5.60
  -7   0   5   89.49    5.60
   6   0  -5   10.90    1.00
  -6   0   5   13.10    1.00
  -6   0   5   10.70    1.00
  -6   0   5   11.90    1.00
  -6   0   5   12.90    1.10
   5   0  -5   38.50    2.50
  -5   0   5   37.70    2.50
  -5   0   5   37.10    2.50
  -5   0   5   32.40    2.60
  -5   0   5   36.90    2.50
   4   0  -5   47.80    2.90
  -4   0   5   40.80    2.90
  -4   0   5   43.00    2.90
  -4   0   5   41.30    2.90
  -4   0   5   48.80    2.90
   3   0  -5   44.70    2.90
   3   0  -5   45.60    2.90
  -3   0   5   43.20    2.90
  -3   0   5   44.70    2.90
  -3   0   5   43.60    2.90
  -3   0   5   45.10    2.90
   2   0  -5   80.79    5.80
   2   0  -5   82.69    5.80
  -2   0   5   95.19    5.80
  -2   0   5   95.39    5.80
  -2   0   5   93.19    5.80
   1   0  -5    1.40    0.30
   1   0  -5    2.00    0.30
  -1   0   5    1.40    0.30
  -1   0   5    2.00    0.30
  -1   0   5    2.40    0.20
   0   0  -5   73.69    5.20
   0   0  -5   77.19    5.20
   0   0  -5   77.09    5.20
   0   0   5   84.79    5.20
   0   0   5   85.39    5.20
  -1   0  -5  436.16   26.90
  -1   0  -5  398.96   26.90
  -1   0  -5  419.26   26.90
   1   0   5  414.36   26.90
   1   0   5  421.46   26.90
  -2   0  -5  340.87   21.40
  -2   0  -5  332.77   21.40
   2   0   5  324.67   21.40
   2   0   5  330.57   21.40
  -3   0  -5   38.10    2.50
  -3   0  -5   36.10    2.50
  -3   0  -5   36.50    2.50
  -3   0  -5   37.60    2.50
   3   0   5   42.30    2.50
  -4   0  -5    0.80    0.30
  -4   0  -5    0.70    0.30
  -4   0  -5    1.00    0.20
   4   0   5    0.90    0.20
  -5   0  -5    5.30    0.60
  -5   0  -5    5.60    0.70
  -5   0  -5    6.40    0.60
   5   0   5    5.90    0.50
  -6   0  -5   28.40    2.10
  -6   0  -5   29.90    2.00
  -6   0  -5   30.50    2.00
   6   0   5   28.10    2.10
  -7   0  -5    7.80    1.10
  -7   0  -5    8.80    0.90
  -7   0  -5    8.90    0.80
   7   0   5    7.30    0.90
  -8   0  -5    8.00    1.50
   8   0   5    7.40    1.10
  -9   0  -5    0.50    0.90
   9   0   5    0.40    0.70
 -10   0  -5   -0.80    1.10
  10   0   5    0.30    0.90
 -11   0  -5   -1.00    1.30
  11   0   5    3.30    1.20
  11  -1  -5   11.10    2.00
  10  -1  -5    1.30    0.90
 -10   1   5   -0.40    1.00
  -9   1   5    3.60    0.80
  -9   1   5    5.00    0.90
   8  -1  -5    3.80    0.70
  -8   1   5    3.80    0.70
  -8   1   5    4.00    0.70
   7  -1  -5    3.10    0.50
  -7   1   5    3.00    0.60
  -7   1   5    2.90    0.50
  -7   1   5    3.10    0.50
  -7   1   5    2.50    0.50
   6  -1  -5   11.80    1.00
  -6   1   5   11.10    0.90
  -6   1   5   12.00    1.00
  -6   1   5   10.50    1.30
   5  -1  -5    6.00    0.60
  -5   1   5    6.60    0.60
  -5   1   5    6.90    0.60
  -5   1   5    6.80    0.60
  -5   1   5    7.70    0.60
   4  -1  -5  158.78   10.20
  -4   1   5  146.69   10.20
  -4   1   5  160.18   10.20
  -4   1   5  168.78   10.20
  -4   1   5  156.18   10.20
   3  -1  -5   57.69    3.80
  -3   1   5   59.29    3.80
  -3   1   5   57.29    3.80
  -3   1   5   60.59    3.80
   2  -1  -5  594.14   38.30
   2  -1  -5  598.74   38.30
  -2   1   5  591.14   38.30
  -2   1   5  598.64   38.30
   1  -1  -5   89.59    5.90
   1  -1  -5   95.49    5.90
  -1   1   5   98.59    5.90
  -1   1   5   86.99    5.90
  -1   1   5   81.89    5.90
   0  -1  -5   19.90    1.30
   0  -1  -5   20.20    1.30
   0  -1  -5   20.10    1.30
   0   1   5   20.00    1.30
   0   1   5   19.90    1.30
  -1  -1  -5  417.96   28.30
  -1  -1  -5  459.05   28.30
  -1  -1  -5  441.66   28.30
  -1  -1  -5  438.56   28.30
   1   1   5  442.86   28.30
   1   1   5  443.46   28.30
  -2  -1  -5   51.19    3.50
  -2  -1  -5   52.49    3.40
  -2  -1  -5   52.69    3.50
   2   1   5   53.69    3.40
   2   1   5   51.19    3.40
  -3  -1  -5  117.29    7.20
  -3  -1  -5  101.39    7.20
  -3  -1  -5  114.59    7.20
   3   1   5  115.19    7.20
   3   1   5  108.29    7.20
  -4  -1  -5  225.48   14.90
  -4  -1  -5  229.98   14.90
  -4  -1  -5  231.18   14.90
   4   1   5  235.48   14.90
  -5  -1  -5    6.90    0.90
  -5  -1  -5    9.20    0.70
   5   1   5    7.80    0.70
  -6  -1  -5    8.70    1.00
  -6  -1  -5    8.30    1.00
  -6  -1  -5   10.00    0.90
   6   1   5    8.30    0.90
  -7  -1  -5    0.30    0.50
  -7  -1  -5   -0.30    0.50
   7   1   5    0.60    0.50
  -8  -1  -5    0.30    0.60
  -8  -1  -5    0.10    0.80
   8   1   5    0.40    0.60
  -9  -1  -5    6.30    1.20
  -9  -1  -5    6.50    0.90
   9   1   5    5.90    1.00
 -10  -1  -5    1.70    1.20
  10   1   5    1.80    1.00
 -11  -1  -5    0.90    1.50
  11   1   5    1.00    1.20
  12  -2  -5    7.70    1.70
  11  -2  -5   13.10    2.00
 -10   2   5    0.10    0.90
   9  -2  -5    0.60    0.70
  -9   2   5    0.30    0.70
  -9   2   5   -0.20    0.90
   8  -2  -5    2.80    0.70
  -8   2   5    2.90    0.70
  -8   2   5    2.90    0.60
   7  -2  -5    0.20    0.40
  -7   2   5    0.10    0.40
  -7   2   5   -0.40    0.40
   6  -2  -5    0.30    0.30
  -6   2   5   -0.50    0.40
  -6   2   5   -0.10    0.30
   5  -2  -5   18.20    1.30
  -5   2   5   17.50    1.30
  -5   2   5   19.20    1.20
  -5   2   5   18.80    1.30
  -5   2   5   17.60    1.30
   4  -2  -5   16.80    1.20
  -4   2   5   15.50    1.10
  -4   2   5   17.10    1.20
  -4   2   5   16.80    1.10
   3  -2  -5  135.19    9.10
  -3   2   5  146.59    9.10
  -3   2   5  137.19    9.10
  -3   2   5  142.19    9.10
   2  -2  -5  430.16   28.60
   2  -2  -5  459.55   28.60
  -2   2   5  445.66   28.60
  -2   2   5  440.76   28.60
   1  -2  -5   47.30    3.10
   1  -2  -5   50.29    3.10
  -1   2   5   50.49    3.10
  -1   2   5   39.60    3.10
   0  -2  -5  571.54   38.40
   0  -2  -5  597.74   38.40
   0  -2  -5  597.54   38.40
   0   2   5  598.24   38.50
   0   2   5  624.14   38.40
  -1  -2  -5   24.90    1.60
   1   2   5   23.50    1.70
  -2  -2  -5  159.98   11.00
  -2  -2  -5  171.38   10.90
  -2  -2  -5  163.78   10.90
   2   2   5  174.18   11.00
   2   2   5  176.98   10.90
  -3  -2  -5  163.58   11.70
  -3  -2  -5  168.98   11.70
  -3  -2  -5  183.18   11.70
   3   2   5  196.38   11.70
   3   2   5  193.88   11.70
  -4  -2  -5    5.40    0.70
  -4  -2  -5    4.70    0.70
   4   2   5    4.70    0.80
   4   2   5    4.40    0.50
  -5  -2  -5    4.50    0.80
  -5  -2  -5    3.40    0.50
   5   2   5    4.00    0.60
  -6  -2  -5    6.20    1.00
  -6  -2  -5    6.80    0.80
   6   2   5    4.40    0.70
  -7  -2  -5    9.60    1.10
  -7  -2  -5    6.50    1.20
   7   2   5    8.00    1.00
  -8  -2  -5    4.60    1.00
  -8  -2  -5    3.70    0.90
   8   2   5    6.60    1.10
  -9  -2  -5    1.70    0.70
  -9  -2  -5    0.00    1.10
   9   2   5    2.70    0.80
 -10  -2  -5   14.10    2.50
 -10  -2  -5   14.00    1.50
  10   2   5   15.80    2.00
  12  -3  -5    1.20    1.50
  11  -3  -5    4.00    1.30
 -10   3   5   15.20    1.60
   9  -3  -5    0.70    0.60
  -9   3   5    0.70    0.70
  -9   3   5   -0.10    0.70
   8  -3  -5    3.90    0.60
  -8   3   5    3.40    0.70
  -8   3   5    3.30    0.60
  -7   3   5    1.00    0.40
  -7   3   5    1.10    0.50
   6  -3  -5    4.00    0.50
  -6   3   5    3.90    0.60
  -6   3   5    4.50    0.60
   5  -3  -5   55.19    3.60
  -5   3   5   55.69    3.60
  -5   3   5   54.09    3.60
  -5   3   5   54.79    3.60
  -5   3   5   52.19    3.50
   4  -3  -5   34.00    2.10
  -4   3   5   29.90    2.10
  -4   3   5   27.80    2.00
  -3   3   5    5.40    0.50
  -3   3   5    5.50    0.50
   2  -3  -5  231.78   16.20
  -2   3   5  243.78   16.20
  -2   3   5  267.87   16.20
  -2   3   5  262.07   16.20
   1  -3  -5  184.58   13.70
  -1   3   5  228.68   13.70
  -1   3   5  216.88   13.70
  -1   3   5  222.68   13.80
   0  -3  -5  426.66   28.80
   0  -3  -5  484.55   28.80
   0  -3  -5  499.05   28.80
   0   3   5  424.76   28.80
   0   3   5  402.16   28.80
  -1  -3  -5    3.80    0.40
   1   3   5    4.30    0.50
   1   3   5    3.20    0.40
  -2  -3  -5    3.60    0.40
  -2  -3  -5    3.00    0.50
   2   3   5    4.80    0.60
  -3  -3  -5   11.50    0.90
  -3  -3  -5    9.20    0.80
   3   3   5   10.40    1.00
   3   3   5    8.50    0.80
  -4  -3  -5   43.40    3.20
  -4  -3  -5   47.00    3.10
   4   3   5   44.80    3.10
  -5  -3  -5   42.80    2.80
  -5  -3  -5   40.70    2.90
   5   3   5   38.60    2.80
  -6  -3  -5    1.10    0.60
  -6  -3  -5    1.80    0.70
   6   3   5    1.00    0.50
  -7  -3  -5   19.50    1.70
  -7  -3  -5   21.80    2.30
   7   3   5   19.40    1.70
  -8  -3  -5   46.70    3.60
  -8  -3  -5   43.50    3.40
   8   3   5   43.10    3.70
  -9  -3  -5    1.20    1.20
  -9  -3  -5   -0.80    0.80
   9   3   5    3.30    1.00
 -10  -3  -5    9.50    1.80
 -10  -3  -5    9.20    1.50
  12  -4  -5    5.30    1.60
 -11   4   5    0.30    1.00
  10  -4  -5   -0.50    0.80
 -10   4   5   -0.20    0.80
   9  -4  -5    0.70    0.60
  -9   4   5    0.40    0.60
   8  -4  -5    6.50    0.90
  -8   4   5    5.50    1.00
  -8   4   5    6.20    0.90
   7  -4  -5   13.70    1.20
  -7   4   5   14.50    1.20
   6  -4  -5   17.20    1.40
  -6   4   5   20.40    1.50
   5  -4  -5    4.30    0.50
  -5   4   5    3.20    0.50
  -5   4   5    3.60    0.50
  -4   4   5   22.40    1.40
  -4   4   5   16.70    1.30
  -4   4   5   19.00    1.40
  -4   4   5   21.10    1.40
  -3   4   5  237.18   15.10
  -3   4   5  232.08   15.10
  -3   4   5  226.88   15.10
  -3   4   5  237.18   15.10
   2  -4  -5  100.39    6.70
   2  -4  -5  104.99    6.60
  -2   4   5  102.79    6.60
  -2   4   5  102.39    6.60
  -2   4   5  100.59    6.60
   1  -4  -5   10.90    0.80
  -1   4   5    9.90    0.80
  -1   4   5   10.70    0.80
   0  -4  -5   48.50    3.30
   0   4   5   51.49    3.30
   0   4   5   45.30    3.20
   0   4   5   52.79    3.30
  -1  -4  -5   80.59    5.00
  -1  -4  -5   65.59    5.00
  -1  -4  -5   72.39    5.10
   1   4   5   83.59    5.00
   1   4   5   81.69    5.10
  -2  -4  -5    9.90    0.90
   2   4   5   11.80    0.80
   2   4   5   10.40    1.00
  -3  -4  -5   65.59    4.00
   3   4   5   51.89    4.10
  -4  -4  -5  216.78   14.40
  -4  -4  -5  219.38   14.40
   4   4   5  229.48   14.40
  -5  -4  -5   93.79    6.30
  -5  -4  -5   93.09    6.30
   5   4   5   94.39    6.20
  -6  -4  -5   19.40    1.70
  -6  -4  -5   19.70    1.90
   6   4   5   13.50    1.50
  -7  -4  -5    3.90    1.00
   7   4   5    5.20    1.30
  -8  -4  -5   37.30    2.80
  -8  -4  -5   34.60    3.00
   8   4   5   33.00    2.70
  -9  -4  -5   -0.60    0.90
  -9  -4  -5    1.90    1.40
   9   4   5    0.50    1.00
  12  -5  -5    2.70    1.60
 -11   5   5    0.50    1.10
  10  -5  -5    0.70    0.80
 -10   5   5    1.20    0.80
   9  -5  -5    7.60    1.10
  -9   5   5    5.40    0.90
   8  -5  -5    0.20    0.60
  -8   5   5    1.20    0.60
   7  -5  -5    4.70    0.60
   7  -5  -5    3.50    0.60
  -7   5   5    4.60    0.80
   6  -5  -5  108.99    7.20
  -5   5   5    2.20    0.40
  -5   5   5    1.80    0.40
   4  -5  -5    7.00    0.70
  -4   5   5    7.30    0.70
  -4   5   5    6.40    0.70
  -4   5   5    8.80    0.70
   3  -5  -5  290.07   19.40
  -3   5   5  312.67   19.40
  -3   5   5  290.57   19.40
  -3   5   5  315.47   19.40
  -3   5   5  297.17   19.40
   2  -5  -5   27.70    1.90
  -2   5   5   26.20    1.90
  -2   5   5   28.10    2.00
  -2   5   5   31.40    1.90
   1  -5  -5  553.04   35.50
   1  -5  -5  512.35   35.50
  -1   5   5  574.94   35.50
  -1   5   5  541.45   35.50
  -1   5   5  574.34   35.50
   0  -5  -5   39.40    2.60
   0   5   5   34.90    2.60
   0   5   5   41.30    2.60
   0   5   5   40.80    2.70
  -1  -5  -5  120.09    8.20
   1   5   5  132.89    8.20
   1   5   5  123.29    8.20
  -2  -5  -5  264.87   16.10
   2   5   5  230.88   16.10
  -3  -5  -5   30.20    2.50
  -3  -5  -5   35.10    2.50
   3   5   5   35.30    2.30
   3   5   5   34.60    2.60
  -4  -5  -5   96.69    6.60
  -4  -5  -5   98.99    6.60
   4   5   5  100.49    6.50
  -5  -5  -5   35.00    2.70
  -5  -5  -5   36.60    2.70
   5   5   5   34.40    2.60
  -6  -5  -5    5.90    1.10
   6   5   5    6.30    1.00
  -7  -5  -5    0.20    1.00
  -7  -5  -5   -0.90    0.90
   7   5   5    0.40    0.80
  -8  -5  -5   -0.30    1.10
  -8  -5  -5   -0.40    1.20
   8   5   5   -0.10    0.90
  -9  -5  -5   -0.60    1.10
  -9  -5  -5   -1.30    1.50
 -12   6   5    1.40    1.40
  11  -6  -5    1.90    1.10
 -11   6   5   -0.10    1.10
  10  -6  -5    2.10    0.90
 -10   6   5   -0.60    0.90
   9  -6  -5    2.80    0.90
  -9   6   5    2.50    0.80
   8  -6  -5    2.40    0.70
  -8   6   5    2.40    0.70
   7  -6  -5   41.10    3.00
  -7   6   5   42.10    2.90
  -6   6   5    3.10    0.50
  -6   6   5    3.10    0.60
  -6   6   5    2.50    0.50
   5  -6  -5   98.19    6.10
  -5   6   5   84.99    6.20
  -5   6   5   91.59    6.20
  -5   6   5  100.49    6.10
   4  -6  -5   13.70    1.10
  -4   6   5   13.40    1.10
  -4   6   5   11.60    1.50
  -4   6   5   14.60    1.10
  -4   6   5   12.70    1.10
   3  -6  -5   21.30    1.50
  -3   6   5   17.90    1.40
  -3   6   5   20.20    1.40
  -3   6   5   20.70    1.50
   2  -6  -5  578.44   42.40
   2  -6  -5  679.03   42.40
  -2   6   5  667.63   42.40
  -2   6   5  689.63   42.50
  -2   6   5  680.63   42.40
   1  -6  -5    5.40    0.90
   1  -6  -5    4.40    0.70
  -1   6   5    2.70    0.40
  -1   6   5    4.30    0.60
  -1   6   5    3.50    0.50
   0  -6  -5   20.30    1.80
   0  -6  -5   22.20    1.60
   0   6   5   23.50    1.50
   0   6   5   17.50    1.50
   0   6   5   20.90    1.70
  -1  -6  -5    4.30    0.80
  -1  -6  -5    3.40    0.80
   1   6   5    6.00    1.00
   1   6   5    5.10    0.60
  -2  -6  -5   41.60    3.00
  -2  -6  -5   49.70    3.00
   2   6   5   44.40    3.10
   2   6   5   37.50    2.90
  -3  -6  -5   -0.30    0.70
  -3  -6  -5    0.30    0.60
   3   6   5    0.50    0.50
  -4  -6  -5    6.90    1.10
  -4  -6  -5    5.30    0.90
   4   6   5    4.70    0.80
  -5  -6  -5    0.00    1.20
  -5  -6  -5    2.80    1.00
   5   6   5    1.90    0.70
  -6  -6  -5    3.90    1.00
  -6  -6  -5    2.70    1.30
   6   6   5    2.60    0.90
  -7  -6  -5    2.20    1.20
  -7  -6  -5    0.00    1.10
   7   6   5    0.60    0.80
  -8  -6  -5    1.10    1.30
  -8  -6  -5   -1.80    1.30
   8   6   5    0.20    1.00
  11  -7  -5    1.20    1.30
 -11   7   5    1.10    1.20
  10  -7  -5    5.40    1.20
 -10   7   5    6.50    1.30
   9  -7  -5   51.69    3.60
  -9   7   5   44.50    3.50
   8  -7  -5   -0.30    0.70
  -8   7   5    2.00    0.70
   7  -7  -5   10.80    1.30
  -7   7   5   10.20    1.20
  -6   7   5   18.50    1.50
  -6   7   5   17.90    1.60
  -6   7   5   20.30    1.40
   5  -7  -5    3.00    0.60
  -5   7   5    2.70    0.50
  -5   7   5    2.80    0.60
  -5   7   5    3.10    0.50
   4  -7  -5  110.29    7.40
  -4   7   5  124.79    7.40
  -4   7   5  113.19    7.40
  -4   7   5  102.99    7.40
   3  -7  -5    2.10    0.50
  -3   7   5    2.30    0.50
  -3   7   5    2.40    0.50
  -3   7   5    2.60    0.50
   2  -7  -5   31.50    2.20
  -2   7   5   30.10    2.10
  -2   7   5   31.30    2.20
  -2   7   5   29.40    2.20
   1  -7  -5   16.60    1.40
  -1   7   5   15.40    1.60
  -1   7   5   18.40    1.30
   0  -7  -5   12.30    1.60
   0  -7  -5   10.20    1.10
   0   7   5   10.00    1.00
   0   7   5    9.40    1.20
   0   7   5   10.80    1.00
  -1  -7  -5    0.30    0.60
  -1  -7  -5    1.80    0.60
  -1  -7  -5    1.90    1.00
   1   7   5    0.70    0.60
   1   7   5    0.80    0.40
  -2  -7  -5    2.50    0.70
   2   7   5    1.60    0.50
   2   7   5    2.60    0.90
  -3  -7  -5    1.70    1.00
  -3  -7  -5    2.50    0.80
   3   7   5    1.70    0.70
  -4  -7  -5    5.60    1.10
   4   7   5    5.80    0.90
  -5  -7  -5    0.70    1.10
  -5  -7  -5    0.50    1.00
   5   7   5    0.10    0.90
  -6  -7  -5   -0.60    1.20
  -6  -7  -5   -1.30    1.30
   6   7   5    0.40    0.90
  -7  -7  -5    0.20    1.40
  -7  -7  -5    0.50    1.30
   7   7   5    1.80    1.10
  11  -8  -5    3.60    1.40
  10  -8  -5    6.40    1.30
 -10   8   5    5.30    1.30
   9  -8  -5    3.50    1.10
  -9   8   5    3.30    1.00
   8  -8  -5  141.79    9.10
  -8   8   5  130.69    9.00
   7  -8  -5    4.90    0.90
  -7   8   5    6.80    1.10
  -6   8   5    4.00    0.70
  -6   8   5    3.90    0.70
  -6   8   5    4.10    0.70
   5  -8  -5    8.00    1.20
  -5   8   5    8.20    0.90
  -5   8   5    6.90    0.90
  -5   8   5    8.60    1.00
   4  -8  -5   36.80    2.50
  -4   8   5   32.10    2.40
  -4   8   5   31.80    2.40
  -4   8   5   34.00    2.40
  -3   8   5    1.00    0.50
  -3   8   5    1.00    0.50
  -3   8   5    2.00    0.50
   2  -8  -5    6.30    1.00
  -2   8   5    6.60    1.00
  -2   8   5    6.30    0.80
   1  -8  -5    2.50    0.70
  -1   8   5    2.80    0.50
  -1   8   5    2.20    0.60
   0  -8  -5    4.50    0.80
   0   8   5    5.00    0.90
   0   8   5    4.90    0.70
   0   8   5    4.00    0.60
  -1  -8  -5    3.60    0.80
   1   8   5    5.60    0.90
   1   8   5    3.70    0.90
  -2  -8  -5    0.50    0.80
  -2  -8  -5   -1.20    1.40
   2   8   5    1.10    0.70
  -3  -8  -5    0.00    0.90
  -3  -8  -5   -0.30    1.20
   3   8   5   -1.20    0.70
  -4  -8  -5    1.60    1.20
  -4  -8  -5    1.50    1.40
   4   8   5   -0.40    0.90
  -5  -8  -5    0.20    1.50
  -5  -8  -5    2.20    1.20
   5   8   5    1.90    1.10
  -6  -8  -5    3.40    1.50
  -6  -8  -5   -2.40    1.60
   6   8   5   -2.60    1.20
  11  -9  -5    2.00    1.40
  10  -9  -5   18.00    2.20
   9  -9  -5    2.60    1.10
   8  -9  -5    1.60    0.90
  -8   9   5    2.40    1.20
   7  -9  -5    1.30    0.80
  -7   9   5    0.30    0.80
  -6   9   5    0.50    0.50
  -6   9   5    1.50    0.60
  -6   9   5    1.40    0.70
  -5   9   5    3.30    0.70
  -5   9   5    3.60    0.60
  -5   9   5    5.40    0.90
   4  -9  -5   14.00    1.60
  -4   9   5   15.80    1.40
  -4   9   5   14.60    1.40
  -4   9   5   18.30    1.50
   3  -9  -5    1.10    0.70
  -3   9   5    0.80    0.50
  -3   9   5    0.90    0.60
  -3   9   5    1.30    0.60
   2  -9  -5    1.80    0.80
  -2   9   5    1.60    0.60
  -2   9   5    1.50    0.60
  -2   9   5    1.90    0.70
   1  -9  -5   -0.90    0.80
  -1   9   5    0.50    0.70
  -1   9   5   -0.10    0.60
  -1   9   5    1.10    0.50
   0  -9  -5    0.20    0.80
   0  -9  -5   -0.60    0.80
   0   9   5    0.80    0.80
   0   9   5    1.30    0.70
  -1  -9  -5    0.50    0.90
   1   9   5    0.90    1.00
   1   9   5    0.50    0.80
  -2  -9  -5    4.80    1.50
   2   9   5    6.10    1.10
  -3  -9  -5    2.60    1.20
   3   9   5    2.70    1.10
  -4  -9  -5    1.60    1.40
   4   9   5   -0.40    1.10
  -5  -9  -5    1.30    1.50
   5   9   5   -2.30    1.30
  10 -10  -5    4.60    1.40
   9 -10  -5    0.20    1.20
   8 -10  -5    2.70    1.00
   7 -10  -5    3.10    1.10
  -6  10   5    8.30    1.10
  -6  10   5    8.60    1.50
  -5  10   5    4.80    0.80
  -5  10   5    6.40    0.90
  -4  10   5    0.40    0.80
  -4  10   5    0.30    0.60
  -4  10   5    0.70    1.20
   3 -10  -5    0.20    1.00
  -3  10   5    1.00    0.60
  -3  10   5    0.30    0.70
  -3  10   5   -0.50    0.60
   2 -10  -5    1.70    1.00
  -2  10   5    4.60    0.90
  -2  10   5    4.70    0.90
  -2  10   5    4.10    0.80
   1 -10  -5    7.40    1.30
   1 -10  -5    7.50    1.30
  -1  10   5    9.60    1.40
  -1  10   5   10.50    1.60
   0 -10  -5    1.10    1.10
   0  10   5    2.80    0.90
   0  10   5    1.80    1.10
  -1 -10  -5    1.70    1.20
   1  10   5    1.30    1.20
  -2 -10  -5    1.20    1.30
   2  10   5    1.00    1.20
  -3 -10  -5    1.40    1.50
   3  10   5    0.00    1.30
   9 -11  -5    4.10    1.40
   8 -11  -5    4.90    1.30
   7 -11  -5    2.30    1.20
  -7  11   5    0.90    0.60
   6 -11  -5   -0.30    1.10
  -6  11   5    0.00    0.60
   5 -11  -5    4.40    1.20
  -5  11   5    4.10    0.80
  -4  11   5    6.90    1.30
   3 -11  -5   -0.60    1.20
  -3  11   5    1.20    0.80
   2 -11  -5    2.70    1.70
  -2  11   5    1.10    0.90
   1 -11  -5    2.80    1.40
  -1  11   5    3.30    1.20
   0 -11  -5    0.20    1.40
   0  11   5   -0.50    1.30
  -1 -11  -5    2.30    1.50
  -2 -11  -5    0.20    1.70
   7 -12  -5    5.00    1.50
  -7  12   5    2.50    0.70
   6 -12  -5    6.20    1.50
  -6  12   5    3.80    0.90
   5 -12  -5    5.20    1.50
  -5  12   5    4.20    0.90
   4 -12  -5    6.70    1.60
  -4  12   5    6.60    1.10
   3 -12  -5    2.30    1.60
  -3  12   5   -0.20    1.00
  -2  12   5    0.20    1.10
  -1  12   5    3.10    1.50
  -1  12  -6    1.30    1.20
   1 -12   6    0.40    1.40
  -2  12  -6   15.80    2.20
  -2  12  -6   16.10    2.20
  -3  12  -6    3.60    1.10
  -3  12  -6    1.10    1.00
   3 -12   6    1.40    1.30
  -4  12  -6   20.90    2.20
  -4  12  -6   21.80    2.20
   4 -12   6   15.70    2.50
  -5  12  -6    9.50    1.70
  -5  12  -6   13.40    1.70
  -6  12  -6   10.20    1.50
  -6  12  -6   12.60    1.60
   6 -12   6    9.50    1.80
  -7  12  -6   -0.10    0.80
   7 -12   6   -2.40    1.70
  -2 -11   6    3.60    1.40
  -1 -11   6    2.40    1.30
   0  11  -6   21.40    2.60
   0 -11   6   26.80    2.60
  -1  11  -6    2.50    1.00
  -1  11  -6    2.70    1.00
   1 -11   6    2.10    1.10
  -2  11  -6   11.00    1.70
  -2  11  -6   11.80    1.70
  -3  11  -6    1.70    0.90
  -3  11  -6    2.30    0.90
   3 -11   6    0.70    1.00
  -4  11  -6    1.90    0.80
  -4  11  -6    0.70    0.80
   4 -11   6    0.70    1.00
  -5  11  -6   15.10    1.70
  -5  11  -6   18.50    1.80
   5 -11   6   14.40    2.10
  -6  11  -6   17.10    1.70
  -6  11  -6   18.70    1.80
   6 -11   6   17.60    2.20
  -7  11  -6    4.50    0.90
   7 -11   6    4.90    1.40
   8 -11   6   14.90    2.60
  -9  11  -6    1.40    0.90
  -3 -10   6   -0.10    1.20
  -2 -10   6   17.90    2.10
  -1 -10   6    7.20    1.20
   0  10  -6   25.90    2.70
   0  10  -6   29.60    2.40
   0 -10   6   30.10    2.60
  -1  10  -6    3.30    0.80
  -1  10  -6    1.50    0.90
  -2  10  -6    3.80    0.80
  -2  10  -6    2.20    0.90
   2 -10   6    3.20    0.80
  -3  10  -6    8.90    1.30
  -3  10  -6    7.50    1.30
   3 -10   6    9.90    1.50
  -4  10  -6    0.30    0.60
  -4  10  -6    0.20    0.70
   4 -10   6   -0.10    0.80
  -5  10  -6    7.70    1.30
  -5  10  -6    9.80    1.60
   5 -10   6    6.90    1.10
  -6  10  -6   -0.10    0.60
  -6  10  -6    0.70    0.70
   6 -10   6    1.00    1.00
  -7  10  -6    7.70    1.20
   7 -10   6    7.20    2.00
  -8  10  -6    4.00    0.80
   8 -10   6    2.30    1.30
  -9  10  -6    3.50    1.00
   9 -10   6    2.40    1.50
 -10  10  -6    0.20    1.00
  -5  -9   6    4.10    1.50
  -4  -9   6    3.90    1.30
  -3  -9   6    4.10    1.10
  -2  -9   6    0.60    0.90
   1   9  -6   45.60    3.20
   1   9  -6   44.40    3.50
   1   9  -6   41.10    3.50
  -1  -9   6   45.90    3.40
   0   9  -6    8.10    1.10
   0   9  -6    7.20    1.20
  -1   9  -6   18.00    1.80
  -1   9  -6   17.70    1.60
   1  -9   6   17.10    1.70
  -2   9  -6   23.00    1.80
  -2   9  -6   20.20    1.90
   2  -9   6   22.60    1.90
  -3   9  -6    0.80    0.60
  -3   9  -6    1.70    0.60
  -3   9  -6    1.00    0.60
   3  -9   6    1.40    0.70
  -4   9  -6    0.80    0.60
  -4   9  -6    0.30    0.50
   4  -9   6    0.50    0.70
  -5   9  -6    2.80    0.70
  -5   9  -6    2.00    0.60
   5  -9   6    3.70    0.80
  -6   9  -6    3.40    0.90
  -6   9  -6    3.70    0.60
   6  -9   6    1.90    0.80
  -7   9  -6    2.40    0.70
   7  -9   6    1.40    0.90
  -8   9  -6    1.80    0.70
   8  -9   6    0.70    1.00
  -9   9  -6    2.70    0.80
   9  -9   6    0.80    1.30
 -10   9  -6    0.10    0.90
  10  -9   6    0.40    1.60
  -6  -8   6   12.10    2.00
  -6  -8   6    9.40    1.70
  -5  -8   6   -1.90    1.10
  -5  -8   6   -3.10    1.60
  -4  -8   6    6.20    1.60
  -4  -8   6    5.30    1.10
  -3  -8   6   -0.20    0.80
   2   8  -6   10.10    1.60
   2   8  -6    8.70    1.10
  -2  -8   6   10.30    1.50
   1   8  -6    3.50    0.70
   1   8  -6    5.20    1.00
  -1  -8   6    2.60    1.00
   0   8  -6    2.20    0.80
   0   8  -6    2.40    0.60
   0  -8   6    2.10    0.60
  -1   8  -6    9.50    1.10
  -1   8  -6   11.90    1.30
   1  -8   6    8.90    1.10
  -2   8  -6    8.60    1.20
  -2   8  -6   10.00    1.10
   2  -8   6   13.00    1.30
  -3   8  -6   39.70    2.70
  -3   8  -6   37.50    2.70
   3  -8   6   33.00    2.60
  -4   8  -6    7.20    1.00
  -4   8  -6    9.60    1.00
   4  -8   6   10.60    1.10
  -5   8  -6    4.70    0.80
  -5   8  -6    5.60    0.80
   5  -8   6    4.10    0.80
  -6   8  -6    8.40    1.10
  -6   8  -6    9.60    1.10
   6  -8   6    8.00    1.30
  -7   8  -6    1.50    0.60
   7  -8   6    1.60    0.70
  -8   8  -6    0.50    0.70
   8  -8   6   -1.00    0.80
  -9   8  -6    9.60    1.60
   9  -8   6   13.70    1.80
 -10   8  -6    1.20    0.90
  10  -8   6    0.70    1.20
 -11   8  -6   -1.40    1.10
   7   7  -6    5.30    1.40
  -7  -7   6    6.40    1.60
  -7  -7   6    4.10    1.40
   6   7  -6    2.90    1.00
  -6  -7   6    0.50    1.00
  -6  -7   6   -1.40    1.30
   5   7  -6   11.80    1.50
  -5  -7   6    9.10    1.70
  -5  -7   6   13.70    2.10
   4   7  -6    1.70    0.60
  -4  -7   6   -0.10    0.70
  -4  -7   6    2.40    1.10
   3   7  -6    3.40    0.60
  -3  -7   6    6.20    1.20
  -3  -7   6    2.40    1.00
   2   7  -6   13.30    1.20
   2   7  -6    9.80    1.50
  -2  -7   6    8.90    1.50
   1   7  -6    6.40    0.90
  -1  -7   6    7.90    1.00
  -1  -7   6   10.60    1.50
   0   7  -6   28.40    2.50
   0   7  -6   29.40    2.20
   0  -7   6   33.10    2.20
  -1   7  -6    0.40    0.40
  -1   7  -6    0.10    0.50
   1  -7   6    0.00    0.50
  -2   7  -6    6.70    0.90
  -2   7  -6    7.40    0.90
   2  -7   6    8.40    0.90
  -3   7  -6   -0.60    0.40
  -3   7  -6   -0.30    0.40
   3  -7   6    0.20    0.40
  -4   7  -6    0.10    0.40
  -4   7  -6   -0.40    0.40
   4  -7   6    0.20    0.40
  -5   7  -6   -0.10    0.50
  -5   7  -6    0.40    0.40
   5  -7   6    0.20    0.50
  -6   7  -6    8.00    1.00
   6  -7   6    8.50    1.10
  -7   7  -6   41.40    3.00
   7  -7   6   41.30    3.00
  -8   7  -6    1.60    0.60
   8  -7   6    2.00    0.80
  -9   7  -6    2.90    0.80
   9  -7   6    4.20    0.90
  10  -7   6    4.30    1.50
  11  -7   6    7.10    1.60
   8   6  -6    0.10    1.30
  -8  -6   6    2.10    1.40
  -8  -6   6    1.80    1.30
   7   6  -6    0.40    1.00
  -7  -6   6   -1.20    1.20
  -7  -6   6   -2.00    1.00
   6   6  -6    5.90    1.00
  -6  -6   6    5.00    1.20
  -6  -6   6    6.10    1.40
   5   6  -6    0.50    0.60
  -5  -6   6   -0.30    1.00
  -5  -6   6    0.10    0.90
   4   6  -6    1.30    0.50
  -4  -6   6    1.00    0.70
  -4  -6   6    0.70    0.90
   3   6  -6   12.60    1.10
   3   6  -6    7.90    1.00
  -3  -6   6   12.30    1.40
  -3  -6   6    9.30    1.20
   2   6  -6   -0.10    0.40
   2   6  -6   -0.10    0.40
   2   6  -6    0.90    0.70
  -2  -6   6   -0.70    0.70
  -2  -6   6   -0.60    0.40
   1   6  -6    1.70    0.50
   1   6  -6    1.70    0.60
   1   6  -6    2.80    0.40
  -1  -6   6    2.60    0.50
  -1  -6   6    1.90    0.70
   0   6  -6    0.50    0.50
   0   6  -6    0.30    0.40
   0  -6   6    0.10    0.70
   0  -6   6    0.50    0.40
  -1   6  -6   -0.30    0.40
  -1   6  -6   -0.10    0.30
   1  -6   6    0.60    0.70
   1  -6   6    0.20    0.50
  -2   6  -6    7.30    0.70
  -2   6  -6    8.00    0.80
  -3   6  -6   10.90    1.10
  -3   6  -6   14.40    1.20
  -4   6  -6    0.90    0.40
  -4   6  -6    1.00    0.40
  -4   6  -6    0.60    0.30
   4  -6   6    0.70    0.40
  -5   6  -6    1.70    0.40
  -5   6  -6    1.60    0.40
  -5   6  -6    1.70    0.40
   5  -6   6    2.10    0.50
   6  -6   6    2.20    0.60
  -7   6  -6   11.00    1.10
   7  -6   6   12.50    1.30
  -8   6  -6    1.40    0.60
   8  -6   6    2.20    0.80
  -9   6  -6   11.20    1.30
   9  -6   6   12.50    1.70
 -10   6  -6   18.00    1.80
  10  -6   6   21.50    2.30
  11  -6   6   25.40    3.00
   9   5  -6    1.50    1.30
  -9  -5   6    0.10    1.50
  -9  -5   6    2.10    1.30
   8   5  -6    1.50    1.00
  -8  -5   6    1.40    1.10
  -8  -5   6    2.20    1.20
   7   5  -6    1.60    1.50
  -7  -5   6    2.80    1.10
  -7  -5   6    1.10    1.20
   6   5  -6    0.10    0.60
  -6  -5   6   -0.70    0.80
  -6  -5   6    0.10    0.70
   5   5  -6    0.00    0.50
  -5  -5   6   -0.90    0.70
  -5  -5   6   -1.10    0.60
   4   5  -6    6.30    0.80
   4   5  -6    4.50    0.70
  -4  -5   6    5.40    0.80
  -4  -5   6    3.20    0.70
   3   5  -6    2.40    0.40
   3   5  -6    2.00    0.70
   3   5  -6    2.20    0.40
  -3  -5   6    1.80    0.60
  -3  -5   6    1.40    0.50
   2   5  -6   13.90    1.00
   2   5  -6   10.20    0.90
  -2  -5   6   11.10    1.10
   1   5  -6    2.70    0.40
   1   5  -6    3.00    0.40
   1   5  -6    1.90    0.50
  -1  -5   6    2.10    0.60
  -1  -5   6    3.50    0.50
   0   5  -6    6.30    0.80
   0  -5   6    5.70    0.90
  -1   5  -6   21.50    1.40
  -1   5  -6   21.10    1.50
   1  -5   6   17.40    1.40
   1  -5   6   21.20    1.60
  -2   5  -6   26.90    2.00
  -2   5  -6   31.10    2.00
   2  -5   6   32.10    2.20
  -3   5  -6    1.20    0.30
  -3   5  -6    1.00    0.30
   3  -5   6    1.30    0.30
  -4   5  -6   94.49    5.50
  -4   5  -6   92.49    5.50
  -4   5  -6   70.79    5.50
   4  -5   6   77.59    5.50
  -5   5  -6   11.10    0.90
  -6   5  -6   16.30    1.40
   6  -5   6   18.50    1.40
   6  -5   6   17.20    1.30
  -7   5  -6   49.20    3.40
   7  -5   6   49.99    3.30
   7  -5   6   49.99    3.50
  -8   5  -6   28.40    2.00
   8  -5   6   26.00    2.00
  -9   5  -6    1.70    0.70
  -9   5  -6    2.90    0.90
   9  -5   6    2.20    0.80
 -10   5  -6    0.40    1.00
  12  -5   6   14.80    2.30
   9   4  -6    0.60    1.10
  -9  -4   6   -0.30    1.20
  -9  -4   6    0.10    1.00
   8   4  -6    1.80    0.90
  -8  -4   6    0.80    1.00
  -8  -4   6   -1.20    0.90
   7   4  -6    5.10    0.90
  -7  -4   6    7.10    1.00
  -7  -4   6    6.10    1.00
   6   4  -6    2.00    0.60
  -6  -4   6    3.30    0.80
  -6  -4   6    3.30    0.80
   5   4  -6    0.20    0.50
  -5  -4   6    0.10    0.50
  -5  -4   6   -0.60    0.60
   4   4  -6    3.00    0.60
   4   4  -6    4.50    0.60
  -4  -4   6    3.30    0.60
   3   4  -6    4.30    0.60
   3   4  -6    5.10    0.70
  -3  -4   6    4.70    0.90
   2   4  -6   28.90    1.70
   2   4  -6   21.80    1.70
  -2  -4   6   23.60    1.70
   1   4  -6    9.80    0.80
   1   4  -6   11.30    0.90
   1   4  -6    8.70    0.70
  -1  -4   6   10.50    0.90
  -1  -4   6    8.80    0.80
   0   4  -6   25.30    1.70
   0   4  -6   29.40    1.80
   0  -4   6   21.60    1.70
   0  -4   6   26.40    1.80
  -1   4  -6   56.59    3.40
  -1   4  -6   51.19    3.30
   1  -4   6   43.50    3.40
  -2   4  -6    5.60    0.60
  -2   4  -6    4.70    0.50
  -2   4  -6    4.90    0.50
   2  -4   6    6.20    0.70
   2  -4   6    5.10    0.50
  -3   4  -6   58.09    4.10
  -3   4  -6   62.49    4.10
  -3   4  -6   67.69    4.10
   3  -4   6   61.89    4.10
  -4   4  -6   39.30    2.80
  -4   4  -6   37.50    2.70
  -4   4  -6   45.50    2.70
   4  -4   6   42.20    2.80
  -5   4  -6  286.07   18.30
  -5   4  -6  280.37   18.30
   5  -4   6  283.87   18.30
  -6   4  -6   29.20    2.40
  -6   4  -6   34.20    2.30
   6  -4   6   34.30    2.20
  -7   4  -6   41.60    2.60
   7  -4   6   32.50    2.50
  -8   4  -6   -0.70    0.60
  -8   4  -6    0.10    0.50
   8  -4   6   -0.10    0.50
  -9   4  -6    2.20    0.80
  -9   4  -6    3.00    0.60
   9  -4   6    3.90    0.80
 -10   4  -6    2.60    1.00
  10  -4   6    3.30    1.00
 -11   4  -6    1.90    1.20
  11  -4   6    2.10    1.20
 -12   4  -6    2.40    1.60
  10   3  -6    0.80    1.10
 -10  -3   6    2.00    1.00
 -10  -3   6   -0.40    1.50
   9   3  -6    3.10    1.10
  -9  -3   6    3.70    0.90
  -9  -3   6    2.90    1.10
   8   3  -6    1.10    0.80
  -8  -3   6    1.10    0.80
  -8  -3   6    1.90    0.90
   7   3  -6    1.60    0.70
  -7  -3   6    0.30    0.70
  -7  -3   6    1.30    0.70
   6   3  -6    6.60    0.90
  -6  -3   6    4.90    0.80
   5   3  -6    3.20    0.40
  -5  -3   6    3.20    0.60
  -5  -3   6    3.10    0.60
   4   3  -6    4.20    0.50
   4   3  -6    2.90    0.50
   4   3  -6    4.70    0.70
  -4  -3   6    5.40    0.70
  -4  -3   6    4.00    0.70
   3   3  -6   25.20    1.80
   3   3  -6   25.90    1.70
   3   3  -6   24.30    1.90
  -3  -3   6   27.90    1.80
  -3  -3   6   23.80    1.80
   2   3  -6  191.08   12.50
   2   3  -6  202.68   12.60
  -2  -3   6  198.48   12.60
  -2  -3   6  182.28   12.50
   1   3  -6   22.40    1.40
   1   3  -6   17.80    1.40
   1   3  -6   21.40    1.40
  -1  -3   6   17.90    1.40
   0   3  -6   16.90    1.10
   0  -3   6   14.30    1.20
  -1   3  -6  674.93   44.40
  -1   3  -6  714.93   44.50
  -1   3  -6  661.33   44.50
   1  -3   6  687.53   44.50
   1  -3   6  718.53   44.50
  -2   3  -6  193.98   11.70
  -2   3  -6  179.88   11.70
  -2   3  -6  167.88   11.70
   2  -3   6  187.18   11.70
   2  -3   6  173.48   11.70
  -3   3  -6   53.69    3.30
  -3   3  -6   45.90    3.30
  -4   3  -6    7.00    0.50
  -4   3  -6    6.20    0.60
  -4   3  -6    6.70    0.60
  -5   3  -6   13.80    1.00
  -5   3  -6   12.90    1.00
   5  -3   6   11.40    1.00
  -6   3  -6   35.50    2.30
   6  -3   6   30.30    2.20
  -7   3  -6   11.20    1.00
  -7   3  -6   12.40    1.20
   7  -3   6   10.70    1.10
  -8   3  -6    3.20    0.60
  -8   3  -6    2.30    0.70
   8  -3   6    2.90    0.60
  -9   3  -6   13.30    1.50
   9  -3   6   11.50    1.40
 -10   3  -6    1.70    1.00
  10  -3   6    3.80    1.00
 -11   3  -6   -0.30    1.20
  11  -3   6    1.70    1.20
 -12   3  -6   -0.60    1.50
  12  -3   6    1.30    1.50
  10   2  -6    3.00    1.10
 -10  -2   6    3.40    0.80
 -10  -2   6    1.80    1.50
   9   2  -6    2.90    1.10
  -9  -2   6    1.30    0.70
  -9  -2   6    0.40    1.10
   8   2  -6    7.20    1.20
  -8  -2   6    8.20    1.40
  -8  -2   6    8.10    1.10
   7   2  -6    0.20    0.60
  -7  -2   6    0.40    0.70
  -7  -2   6   -0.30    0.50
   6   2  -6    0.60    0.40
   6   2  -6    0.20    0.50
  -6  -2   6    0.50    0.50
  -6  -2   6    0.20    0.50
   5   2  -6   10.40    0.80
  -5  -2   6    9.70    1.00
  -5  -2   6    9.90    0.90
  -5  -2   6    8.80    1.00
   4   2  -6   26.60    2.00
   4   2  -6   27.80    1.80
  -4  -2   6   23.90    1.90
  -4  -2   6   28.30    1.90
  -4  -2   6   27.10    1.90
  -4  -2   6   27.60    1.90
   3   2  -6  111.09    7.20
   3   2  -6  117.19    7.20
  -3  -2   6  101.49    7.30
  -3  -2   6  116.19    7.20
  -3  -2   6  107.49    7.20
  -3  -2   6  110.59    7.20
   2   2  -6   29.90    2.10
   2   2  -6   34.20    2.20
  -2  -2   6   30.30    2.10
  -2  -2   6   30.10    2.10
  -2  -2   6   31.30    2.10
   1   2  -6  773.22   49.60
   1   2  -6  758.12   49.60
  -1  -2   6  795.42   49.60
  -1  -2   6  759.32   49.60
  -1  -2   6  771.92   49.60
   0   2  -6   57.89    3.90
   0   2  -6   61.79    3.90
   0  -2   6   59.19    3.90
   0  -2   6   59.99    3.90
  -1   2  -6  418.26   27.00
  -1   2  -6  461.35   27.10
  -1   2  -6  390.36   27.10
   1  -2   6  408.36   27.10
   1  -2   6  424.56   27.10
  -2   2  -6  367.16   22.60
  -2   2  -6  357.96   22.60
  -2   2  -6  342.17   22.60
  -2   2  -6  343.37   22.60
   2  -2   6  347.07   22.60
  -3   2  -6   12.00    1.00
  -3   2  -6   13.80    0.90
  -3   2  -6   10.70    0.90
  -3   2  -6   12.70    0.90
   3  -2   6   14.00    0.90
  -4   2  -6  266.17   17.30
  -4   2  -6  282.87   17.30
  -4   2  -6  272.87   17.20
  -4   2  -6  246.88   17.20
   4  -2   6  269.27   17.20
  -5   2  -6   14.60    1.00
  -5   2  -6   13.90    1.10
   5  -2   6   12.00    1.00
  -6   2  -6    6.50    0.70
  -7   2  -6   11.20    1.20
  -7   2  -6   12.20    1.00
   7  -2   6   12.70    1.10
  -8   2  -6    3.90    0.80
   8  -2   6    3.40    0.70
  -9   2  -6    4.80    1.00
   9  -2   6    7.40    1.20
 -10   2  -6    3.10    1.10
  10  -2   6    3.00    1.00
 -11   2  -6    1.30    1.30
  11  -2   6    2.30    1.10
 -12   2  -6    1.80    1.70
  12  -2   6    3.40    1.60
  11   1  -6    1.80    1.30
  10   1  -6    1.40    1.00
 -10  -1   6   -2.10    1.50
 -10  -1   6   -1.30    0.60
   9   1  -6   13.80    1.90
  -9  -1   6   10.40    1.30
  -9  -1   6   11.10    1.30
   8   1  -6   27.90    2.30
  -8  -1   6   27.50    2.10
  -8  -1   6   28.10    2.20
   7   1  -6    8.50    1.00
  -7  -1   6    8.80    1.10
  -7  -1   6   10.40    1.00
  -7  -1   6   10.10    1.10
   6   1  -6    1.50    0.40
  -6  -1   6    1.70    0.50
  -6  -1   6    0.70    0.50
  -6  -1   6    1.20    0.40
   5   1  -6  160.58   10.20
  -5  -1   6  152.48   10.20
  -5  -1   6  143.39   10.20
  -5  -1   6  158.48   10.30
  -5  -1   6  174.28   10.30
   4   1  -6    3.80    0.50
   4   1  -6    4.90    0.80
  -4  -1   6    3.40    0.50
  -4  -1   6    3.60    0.40
  -4  -1   6    3.10    0.50
   3   1  -6   92.69    5.40
   3   1  -6   86.79    5.40
  -3  -1   6   75.89    5.40
  -3  -1   6   81.19    5.40
  -3  -1   6   89.09    5.40
  -3  -1   6   71.29    5.40
   2   1  -6  164.48    9.70
  -2  -1   6  152.88    9.70
  -2  -1   6  135.09    9.70
  -2  -1   6  155.78    9.70
  -2  -1   6  139.89    9.70
   1   1  -6   78.89    4.80
   1   1  -6   76.19    4.80
  -1  -1   6   73.39    4.80
  -1  -1   6   67.79    4.80
  -1  -1   6   73.89    4.80
   0   1  -6  367.06   21.90
   0   1  -6  354.46   21.90
   0  -1   6  316.27   21.90
   0  -1   6  319.47   21.90
   0  -1   6  343.57   21.90
  -1   1  -6  234.68   15.40
  -1   1  -6  243.98   15.40
  -1   1  -6  244.48   15.40
  -1   1  -6  242.28   15.30
   1  -1   6  237.78   15.30
   1  -1   6  227.38   15.40
  -2   1  -6   25.70    1.70
  -2   1  -6   25.00    1.80
  -2   1  -6   23.10    1.80
   2  -1   6   31.40    1.80
  -3   1  -6  276.87   18.30
  -3   1  -6  280.27   18.30
  -3   1  -6  278.07   18.30
  -3   1  -6  284.47   18.30
   3  -1   6  302.57   18.30
  -4   1  -6   15.70    1.20
  -4   1  -6   17.40    1.10
  -4   1  -6   16.70    1.10
  -4   1  -6   16.30    1.20
   4  -1   6   14.80    1.10
  -5   1  -6    8.60    0.70
  -5   1  -6    7.50    0.70
  -5   1  -6    9.00    0.70
  -6   1  -6    5.70    0.60
  -6   1  -6    4.50    0.80
  -6   1  -6    4.80    0.50
   6  -1   6    4.40    0.70
  -7   1  -6    3.10    0.60
   7  -1   6    4.60    0.70
  -8   1  -6   12.30    1.50
   8  -1   6   14.30    1.30
  -9   1  -6    1.60    0.90
   9  -1   6    1.50    0.80
 -10   1  -6    0.20    1.20
  10  -1   6    0.00    1.10
 -11   1  -6    3.00    1.40
  11  -1   6    5.50    1.20
  11   0  -6    1.20    1.20
  10   0  -6   11.20    1.80
 -10   0   6    8.30    2.10
   9   0  -6   24.60    2.40
  -9   0   6   22.80    2.30
  -9   0   6   28.30    1.90
  -8   0   6   11.90    1.40
  -8   0   6    6.90    1.20
  -8   0   6   10.40    1.00
   7   0  -6   23.50    1.80
  -7   0   6   24.10    1.80
  -7   0   6   22.50    1.80
  -7   0   6   25.10    1.70
   6   0  -6    6.40    0.80
  -6   0   6    7.00    0.80
  -6   0   6    6.70    0.80
  -6   0   6    4.70    0.80
  -6   0   6    8.60    0.70
   5   0  -6  117.29    7.60
  -5   0   6  124.79    7.60
  -5   0   6  115.59    7.60
  -5   0   6  111.29    7.60
  -5   0   6  116.89    7.60
   4   0  -6   99.79    6.70
  -4   0   6  101.19    6.70
  -4   0   6  105.79    6.80
  -4   0   6  109.49    6.70
  -4   0   6  101.69    6.70
   3   0  -6    2.10    0.40
  -3   0   6    1.60    0.30
  -3   0   6    1.50    0.30
  -3   0   6    1.50    0.30
  -3   0   6    1.60    0.30
   2   0  -6  263.97   18.00
   2   0  -6  255.87   18.00
  -2   0   6  270.87   18.00
  -2   0   6  287.07   18.00
  -2   0   6  299.77   18.00
  -2   0   6  300.17   18.00
   1   0  -6   98.09    5.80
   1   0  -6   90.49    5.80
  -1   0   6   84.49    5.80
  -1   0   6  100.49    5.80
  -1   0   6   80.69    5.80
  -1   0   6   82.19    5.90
   0   0  -6   99.89    6.20
   0   0  -6  106.49    6.20
   0   0   6   88.89    6.20
   0   0   6   87.79    6.20
  -1   0  -6   95.69    5.60
  -1   0  -6   81.59    5.60
  -1   0  -6   76.19    5.60
  -1   0  -6   78.99    5.60
   1   0   6   98.69    5.60
  -2   0  -6    5.70    0.40
   2   0   6    4.90    0.50
   2   0   6    4.90    0.40
  -3   0  -6    9.50    0.70
  -3   0  -6    9.90    0.80
  -3   0  -6    9.00    0.70
  -3   0  -6    9.30    0.80
   3   0   6   10.10    0.80
   3   0   6    9.90    0.70
  -4   0  -6   27.70    2.00
  -4   0  -6   29.00    1.90
  -4   0  -6   27.10    1.90
  -4   0  -6   27.40    1.90
   4   0   6   29.30    1.90
  -5   0  -6    4.30    0.50
  -5   0  -6    4.90    0.70
   5   0   6    4.10    0.50
  -6   0  -6   66.39    4.80
  -6   0  -6   73.49    4.90
  -6   0  -6   76.29    4.80
   6   0   6   77.39    4.90
  -7   0  -6    1.80    0.50
  -7   0  -6    1.60    0.60
  -7   0  -6    1.90    0.40
   7   0   6    2.00    0.60
  -8   0  -6    2.50    0.80
  -8   0  -6    2.20    0.50
   8   0   6    2.20    0.70
  -9   0  -6    1.30    0.90
   9   0   6    0.00    0.70
 -10   0  -6    2.20    1.20
  10   0   6    2.50    0.90
 -11   0  -6    4.30    1.50
  11   0   6    4.20    1.20
  11  -1  -6   18.20    2.30
  10  -1  -6    4.30    1.10
  -9   1   6   11.10    1.40
  -9   1   6   12.10    1.50
   8  -1  -6   12.50    1.30
  -8   1   6    9.70    1.20
  -8   1   6   11.30    1.30
  -8   1   6   11.40    1.00
   7  -1  -6    0.30    0.50
  -7   1   6    0.70    0.30
  -7   1   6    0.90    0.50
  -7   1   6    0.10    0.50
  -7   1   6    0.50    0.40
   6  -1  -6   20.40    1.50
  -6   1   6   19.90    1.50
  -6   1   6   18.60    1.40
  -6   1   6   20.80    1.50
  -6   1   6   21.10    1.50
   5  -1  -6   14.60    1.10
  -5   1   6   14.50    1.10
  -5   1   6   15.80    1.10
  -5   1   6   14.50    1.10
  -5   1   6   15.90    1.10
   4  -1  -6   23.80    1.70
  -4   1   6   24.40    1.70
  -4   1   6   24.80    1.70
  -4   1   6   25.60    1.70
  -4   1   6   25.10    1.70
   3  -1  -6  151.18   10.10
   3  -1  -6  151.28   10.10
  -3   1   6  169.18   10.10
  -3   1   6  150.38   10.10
  -3   1   6  159.98   10.10
   2  -1  -6   42.10    2.80
   2  -1  -6   43.40    2.80
  -2   1   6   41.80    2.80
  -2   1   6   40.40    2.80
   1  -1  -6   17.60    1.30
   1  -1  -6   17.30    1.30
  -1   1   6   22.00    1.30
  -1   1   6   18.20    1.30
   0  -1  -6   38.40    2.50
   0  -1  -6   37.70    2.50
   0  -1  -6   38.20    2.50
   0   1   6   38.10    2.50
   0   1   6   38.00    2.50
  -1  -1  -6    0.00    0.20
  -1  -1  -6    0.10    0.20
  -1  -1  -6    0.10    0.10
  -1  -1  -6    0.00    0.30
   1   1   6    0.30    0.10
   1   1   6   -0.10    0.20
  -2  -1  -6  768.42   47.30
  -2  -1  -6  723.13   47.30
  -2  -1  -6  721.43   47.30
  -2  -1  -6  726.23   47.30
   2   1   6  746.13   47.30
   2   1   6  730.53   47.30
  -3  -1  -6   21.00    1.50
  -3  -1  -6   19.40    1.40
   3   1   6   22.20    1.40
   3   1   6   21.30    1.50
  -4  -1  -6    7.20    0.70
  -4  -1  -6    6.40    0.60
  -4  -1  -6    6.20    0.80
   4   1   6    5.00    0.50
  -5  -1  -6   56.39    4.00
   5   1   6   62.69    4.00
  -6  -1  -6    4.20    0.70
  -6  -1  -6    3.80    0.70
  -6  -1  -6    5.70    0.70
   6   1   6    4.50    0.70
  -7  -1  -6   86.69    5.80
  -7  -1  -6   91.09    5.90
   7   1   6   85.79    5.80
  -8  -1  -6    2.00    1.10
  -8  -1  -6    3.20    0.70
   8   1   6    3.50    0.90
  -9  -1  -6    1.30    0.70
  -9  -1  -6    1.00    1.10
   9   1   6    1.50    0.80
 -10  -1  -6   17.00    2.40
  10   1   6   11.00    1.70
 -11  -1  -6    4.40    1.70
  11   1   6    2.80    1.30
  12  -2  -6   13.50    2.40
  11  -2  -6   16.60    2.20
   9  -2  -6    2.50    0.70
  -9   2   6    1.70    0.80
  -9   2   6    2.70    0.80
   8  -2  -6    0.10    0.50
  -8   2   6   -0.20    0.50
  -8   2   6    0.20    0.50
   7  -2  -6   13.30    1.10
  -7   2   6   12.50    1.10
  -7   2   6   11.10    1.10
   6  -2  -6    0.10    0.30
  -6   2   6   -0.30    0.30
  -6   2   6    0.30    0.30
   5  -2  -6    0.90    0.30
  -5   2   6    2.10    0.40
  -5   2   6    1.20    0.30
  -5   2   6    1.80    0.20
  -5   2   6    1.70    0.30
   4  -2  -6    4.60    0.40
  -4   2   6    5.00    0.50
  -4   2   6    3.70    0.60
  -4   2   6    4.20    0.40
   3  -2  -6    6.40    0.60
  -3   2   6    6.50    0.60
  -3   2   6    6.00    0.50
  -3   2   6    7.00    0.60
   2  -2  -6   24.80    1.90
   2  -2  -6   27.90    1.90
  -2   2   6   30.30    1.90
  -2   2   6   33.00    1.90
   1  -2  -6    3.30    0.40
   1  -2  -6    3.50    0.40
  -1   2   6    3.90    0.40
  -1   2   6    4.50    0.40
  -1   2   6    4.10    0.50
   0  -2  -6 1012.10   62.59
   0  -2  -6 1005.60   62.59
   0  -2  -6  873.51   62.59
   0   2   6 1028.80   62.59
   0   2   6  949.90   62.59
  -1  -2  -6   72.39    5.10
  -1  -2  -6   75.59    5.10
   1   2   6   83.79    5.10
   1   2   6   81.79    5.10
  -2  -2  -6   72.69    5.00
  -2  -2  -6   69.39    5.00
   2   2   6   79.49    5.00
   2   2   6   83.49    5.00
  -3  -2  -6    8.90    0.70
  -3  -2  -6    8.30    0.90
  -3  -2  -6    8.00    0.70
   3   2   6    6.90    0.80
   3   2   6    7.40    0.60
  -4  -2  -6    7.70    0.80
  -4  -2  -6    9.70    0.90
   4   2   6   10.50    0.80
   4   2   6   11.00    1.00
  -5  -2  -6   26.60    2.00
  -5  -2  -6   28.50    2.00
   5   2   6   27.60    2.00
  -6  -2  -6   26.30    2.10
  -6  -2  -6   26.70    2.00
   6   2   6   26.10    1.90
  -7  -2  -6    0.30    0.60
  -7  -2  -6    0.00    0.80
   7   2   6    0.70    0.50
  -8  -2  -6    0.80    0.90
  -8  -2  -6    0.60    0.70
   8   2   6    1.60    0.90
  -9  -2  -6    1.90    0.70
  -9  -2  -6    0.00    1.10
   9   2   6    2.60    0.90
 -10  -2  -6   26.30    2.90
 -10  -2  -6   21.20    1.90
  10   2   6   24.20    2.30
  12  -3  -6    0.70    1.50
 -11   3   6    0.70    1.00
 -10   3   6    6.10    1.10
   9  -3  -6    2.40    0.70
  -9   3   6    1.90    0.70
   8  -3  -6    0.40    0.50
  -8   3   6   -0.40    0.50
  -8   3   6   -0.20    0.50
   7  -3  -6    3.00    0.50
  -7   3   6    3.70    0.70
  -7   3   6    4.20    0.60
   6  -3  -6   17.10    1.30
  -6   3   6   17.50    1.30
   5  -3  -6    4.40    0.50
  -5   3   6    4.50    0.50
  -5   3   6    5.50    0.60
  -5   3   6    4.80    0.50
   4  -3  -6  324.97   21.50
  -4   3   6  296.67   21.50
  -4   3   6  358.46   21.50
  -4   3   6  352.86   21.50
   3  -3  -6    3.60    0.40
  -3   3   6    2.70    0.40
  -3   3   6    3.40    0.40
  -3   3   6    3.30    0.40
   2  -3  -6  127.19    9.20
  -2   3   6  150.38    9.20
  -2   3   6  150.48    9.20
   1  -3  -6  358.76   21.60
   1  -3  -6  330.37   21.60
   1  -3  -6  292.07   21.60
  -1   3   6  350.86   21.60
  -1   3   6  343.87   21.60
   0  -3  -6  252.17   17.40
   0  -3  -6  268.57   17.40
   0  -3  -6  246.58   17.50
   0   3   6  289.17   17.40
   0   3   6  290.97   17.40
  -1  -3  -6  461.55   32.60
  -1  -3  -6  498.45   32.60
  -1  -3  -6  502.25   32.50
   1   3   6  529.25   32.60
   1   3   6  539.05   32.60
  -2  -3  -6   32.30    2.40
  -2  -3  -6   34.90    2.30
   2   3   6   34.70    2.30
   2   3   6   36.00    2.40
  -3  -3  -6   10.30    0.80
  -3  -3  -6    9.90    0.90
   3   3   6    9.90    1.00
   3   3   6    9.70    0.80
  -4  -3  -6   49.80    3.40
  -4  -3  -6   48.60    3.30
   4   3   6   49.00    3.30
  -5  -3  -6    1.90    0.60
  -5  -3  -6    2.80    0.60
   5   3   6    2.80    0.50
  -6  -3  -6   33.40    2.40
  -6  -3  -6   33.40    2.50
   6   3   6   31.90    2.40
  -7  -3  -6   10.30    1.60
  -7  -3  -6   11.40    1.60
   7   3   6    9.30    1.20
  -8  -3  -6   -0.10    1.30
   8   3   6    1.80    1.50
  -9  -3  -6    4.80    0.90
  -9  -3  -6    2.50    1.30
   9   3   6    6.50    1.10
 -10  -3  -6   12.60    2.00
 -10  -3  -6   17.20    1.80
  10   3   6   18.40    2.00
  12  -4  -6    1.60    1.60
 -11   4   6    2.90    1.10
  10  -4  -6    2.10    0.90
 -10   4   6    4.80    1.00
   9  -4  -6    1.20    0.60
  -9   4   6    0.40    0.70
   8  -4  -6   14.70    1.40
  -8   4   6   15.80    1.40
   7  -4  -6   19.90    1.60
  -7   4   6   20.80    1.60
   6  -4  -6    6.60    0.80
  -6   4   6    6.80    0.80
   5  -4  -6   35.90    2.50
  -5   4   6   38.40    2.40
  -5   4   6   34.30    2.40
  -5   4   6   37.10    2.50
   4  -4  -6    0.40    0.30
  -4   4   6   -0.10    0.30
  -4   4   6    0.10    0.20
  -4   4   6   -0.30    0.30
   3  -4  -6    2.80    0.50
  -3   4   6    3.20    0.40
  -3   4   6    2.80    0.40
  -3   4   6    1.80    0.40
   2  -4  -6   28.30    1.80
   2  -4  -6   24.00    1.90
  -2   4   6   29.40    1.80
  -2   4   6   28.20    1.80
  -2   4   6   25.70    1.80
   1  -4  -6    2.30    0.40
   1  -4  -6    1.50    0.30
   1  -4  -6    1.60    0.30
  -1   4   6    1.40    0.20
  -1   4   6    1.40    0.30
   0  -4  -6   18.70    1.30
   0   4   6   18.30    1.30
   0   4   6   16.70    1.20
  -1  -4  -6  192.18   12.30
  -1  -4  -6  197.78   12.40
  -1  -4  -6  184.68   12.30
   1   4   6  189.68   12.40
   1   4   6  188.38   12.30
  -2  -4  -6    5.00    0.60
   2   4   6    6.20    0.60
   2   4   6    5.60    0.80
  -3  -4  -6   92.39    6.10
   3   4   6   91.49    6.10
   3   4   6   92.69    6.00
  -4  -4  -6  190.08   12.70
  -4  -4  -6  218.78   12.70
   4   4   6  176.18   12.60
  -5  -4  -6    1.40    0.70
  -5  -4  -6    1.00    0.60
   5   4   6    0.60    0.40
  -6  -4  -6   66.89    4.70
  -6  -4  -6   65.89    4.30
   6   4   6   55.29    4.20
  -7  -4  -6    5.20    1.50
  -7  -4  -6    4.60    1.00
   7   4   6    5.30    1.00
  -8  -4  -6    0.70    1.10
  -8  -4  -6   -0.80    0.90
   8   4   6    0.80    0.90
  -9  -4  -6    2.10    1.00
  -9  -4  -6    1.70    1.40
   9   4   6    4.10    1.10
 -12   5   6    0.30    1.20
 -11   5   6    0.50    1.00
  10  -5  -6    1.60    0.80
 -10   5   6    0.00    0.80
   9  -5  -6    0.00    0.70
  -9   5   6    0.60    0.70
   8  -5  -6    0.10    0.60
  -8   5   6    0.10    0.60
   7  -5  -6    0.80    0.50
  -7   5   6    0.30    0.50
   6  -5  -6    5.40    0.80
  -6   5   6    4.60    0.60
  -6   5   6    3.40    0.50
   5  -5  -6    2.00    0.50
  -5   5   6    3.10    0.50
  -5   5   6    2.70    0.40
  -5   5   6    2.00    0.40
  -4   5   6    3.80    0.50
  -4   5   6    4.80    0.50
  -4   5   6    4.80    0.50
   3  -5  -6   11.30    0.80
  -3   5   6   10.90    0.80
  -3   5   6    9.60    0.80
  -3   5   6   10.20    0.80
   2  -5  -6   83.89    6.30
   2  -5  -6   99.89    6.20
  -2   5   6  101.39    6.30
  -2   5   6   98.29    6.30
  -2   5   6   96.39    6.30
   1  -5  -6  129.29    8.40
  -1   5   6  136.29    8.50
  -1   5   6  139.59    8.40
  -1   5   6  112.59    8.40
   0  -5  -6  105.49    6.80
   0  -5  -6   98.99    6.80
   0  -5  -6  104.79    6.80
   0   5   6  105.79    6.80
   0   5   6  104.89    6.80
  -1  -5  -6   52.29    3.70
   1   5   6   55.99    3.80
   1   5   6   59.79    3.70
   2   5   6   23.10    1.90
   2   5   6   25.40    1.70
  -3  -5  -6   21.20    1.80
  -3  -5  -6   25.20    2.20
   3   5   6   21.40    1.90
   3   5   6   22.00    1.60
  -4  -5  -6   35.60    2.40
   4   5   6   27.70    2.20
  -5  -5  -6    2.80    0.80
  -5  -5  -6    3.30    0.80
   5   5   6    2.40    0.70
  -6  -5  -6    9.00    1.50
  -6  -5  -6    8.60    1.40
   6   5   6    5.90    0.90
  -7  -5  -6    0.90    0.90
  -7  -5  -6    1.50    1.10
   7   5   6    0.70    0.80
  -8  -5  -6   -1.10    1.20
  -8  -5  -6    0.30    1.10
   8   5   6    1.50    1.00
 -12   6   6    3.50    1.40
  11  -6  -6    1.70    1.20
 -11   6   6    2.40    1.10
  10  -6  -6   10.40    1.60
 -10   6   6   10.70    1.70
   9  -6  -6    7.10    1.00
  -9   6   6    7.80    1.30
   8  -6  -6    2.00    0.70
  -8   6   6    1.50    0.70
   7  -6  -6    8.70    1.20
  -7   6   6   10.80    1.10
   6  -6  -6    6.00    1.00
  -6   6   6    6.20    0.80
  -6   6   6    7.00    0.80
  -6   6   6    6.90    0.70
  -5   6   6   15.40    1.30
  -5   6   6   16.30    1.30
  -5   6   6   14.90    1.20
   4  -6  -6   23.80    1.60
  -4   6   6   22.90    1.60
  -4   6   6   23.00    1.60
  -4   6   6   19.30    1.60
  -3   6   6    7.80    0.70
   2  -6  -6  244.68   16.30
  -2   6   6  288.37   16.30
  -2   6   6  242.88   16.30
  -2   6   6  233.08   16.30
   1  -6  -6   42.40    2.80
  -1   6   6   42.70    2.80
  -1   6   6   38.70    2.80
  -1   6   6   41.70    2.90
   0  -6  -6  151.98    8.70
   0  -6  -6  128.39    8.60
   0   6   6  127.49    8.70
   0   6   6  120.39    8.60
  -1  -6  -6    2.90    0.60
  -1  -6  -6    1.60    0.50
  -1  -6  -6    0.70    0.70
   1   6   6    2.70    0.50
   1   6   6    2.30    0.70
  -2  -6  -6    7.80    1.00
  -2  -6  -6    9.30    1.30
   2   6   6    5.90    0.80
   2   6   6    7.30    1.20
  -3  -6  -6    3.30    0.70
  -3  -6  -6    4.30    0.90
   3   6   6    3.40    0.60
  -4  -6  -6   -0.50    0.70
  -4  -6  -6    0.50    0.80
   4   6   6    0.20    0.50
  -5  -6  -6   -0.40    1.00
  -5  -6  -6    1.00    0.90
   5   6   6    0.20    0.60
  -6  -6  -6   -0.30    1.70
  -6  -6  -6   -0.20    1.00
   6   6   6    0.60    0.70
  -7  -6  -6    1.20    1.20
  -7  -6  -6    1.90    1.20
   7   6   6    0.50    0.90
  -8  -6  -6    0.50    1.40
  -8  -6  -6    0.10    1.30
   8   6   6    0.50    1.00
  11  -7  -6    2.00    1.40
 -11   7   6    0.60    1.20
  10  -7  -6    3.00    1.10
 -10   7   6    1.80    1.60
   9  -7  -6   17.50    1.90
  -9   7   6   18.00    1.80
   8  -7  -6   12.50    1.90
  -8   7   6   11.20    1.40
   7  -7  -6    3.90    0.80
  -7   7   6    5.60    0.80
   6  -7  -6   38.00    2.60
  -6   7   6   32.90    2.40
  -6   7   6   35.60    2.40
  -6   7   6   31.30    2.30
   5  -7  -6   16.90    1.40
  -5   7   6   17.20    1.30
  -5   7   6   17.70    1.40
  -5   7   6   16.70    1.40
   4  -7  -6   11.90    1.10
  -4   7   6   10.80    1.00
  -4   7   6    9.60    1.00
  -4   7   6   12.50    1.00
   3  -7  -6   18.10    1.50
  -3   7   6   18.10    1.40
  -3   7   6   18.40    1.40
   2  -7  -6   21.70    1.70
  -2   7   6   18.40    1.70
  -2   7   6   25.70    1.70
  -2   7   6   22.70    1.70
   1  -7  -6    1.00    0.50
  -1   7   6   -0.40    0.40
  -1   7   6    0.20    0.40
  -1   7   6    0.00    0.50
   0  -7  -6    3.10    0.60
   0  -7  -6    1.90    0.60
   0  -7  -6    3.00    0.90
   0   7   6    3.40    0.50
  -1  -7  -6    4.70    1.00
  -1  -7  -6    3.60    0.70
  -1  -7  -6    4.20    0.70
   1   7   6    2.80    0.60
   1   7   6    2.90    0.80
  -2  -7  -6   11.50    1.30
   2   7   6    9.90    1.10
   2   7   6    9.30    1.30
  -3  -7  -6    2.80    1.10
  -3  -7  -6    1.40    0.90
   3   7   6    0.60    0.60
  -4  -7  -6    0.40    1.00
  -4  -7  -6    0.30    1.00
   4   7   6   -0.50    0.70
  -5  -7  -6    0.60    1.20
  -5  -7  -6    3.00    1.00
   5   7   6   -0.20    0.70
  -6  -7  -6    2.30    1.20
  -6  -7  -6    0.50    1.30
  -7  -7  -6    3.20    1.50
  -7  -7  -6    1.10    1.50
   7   7   6   -0.50    1.10
  11  -8  -6    6.80    1.60
  10  -8  -6    6.90    1.30
 -10   8   6    8.20    1.40
   9  -8  -6    1.50    1.00
  -9   8   6    1.10    0.90
   8  -8  -6   47.70    3.30
  -8   8   6   34.90    3.00
   7  -8  -6   29.40    2.30
  -7   8   6   28.20    2.20
   6  -8  -6   28.70    2.20
  -6   8   6   27.20    2.10
  -6   8   6   27.80    2.00
  -5   8   6   41.00    2.70
  -5   8   6   39.00    2.80
  -5   8   6   37.30    2.80
   4  -8  -6   16.80    1.50
  -4   8   6   14.70    1.30
  -4   8   6   16.70    1.40
  -4   8   6   13.80    1.30
   3  -8  -6    1.20    0.70
  -3   8   6    1.50    0.50
  -3   8   6    1.60    0.50
  -3   8   6    1.30    0.50
   2  -8  -6    0.10    0.60
  -2   8   6    0.00    0.50
  -2   8   6   -0.20    0.40
  -2   8   6    0.40    0.40
   1  -8  -6    3.40    0.70
  -1   8   6    3.60    0.60
  -1   8   6    4.00    0.70
  -1   8   6    4.00    0.60
   0  -8  -6    2.10    0.70
   0  -8  -6    2.20    0.70
   0   8   6    2.50    0.70
   0   8   6    2.50    0.60
  -1  -8  -6    0.50    0.70
   1   8   6    0.70    0.60
   1   8   6   -0.10    0.80
  -2  -8  -6    5.40    1.00
   2   8   6    3.30    0.80
  -3  -8  -6   -0.50    0.90
  -3  -8  -6   -0.20    1.20
   3   8   6   -0.60    0.80
  -4  -8  -6   11.10    1.80
  -4  -8  -6   17.00    2.10
   4   8   6   12.70    1.70
  -5  -8  -6   10.80    1.90
   5   8   6   11.30    1.50
  -6  -8  -6    2.10    1.70
  -6  -8  -6    2.00    1.40
   6   8   6    1.60    1.30
  10  -9  -6    0.30    1.20
   9  -9  -6    1.60    1.00
   8  -9  -6    6.50    1.20
  -8   9   6    5.80    1.10
   7  -9  -6    8.70    1.40
  -7   9   6    7.80    1.30
   6  -9  -6    0.40    0.90
  -6   9   6    1.60    0.90
  -6   9   6    1.60    0.70
  -5   9   6    0.70    0.50
  -5   9   6    0.50    0.60
  -5   9   6    0.90    0.60
  -4   9   6   10.20    1.20
  -4   9   6   11.20    1.20
  -4   9   6   12.40    1.20
   3  -9  -6    3.30    0.80
  -3   9   6    4.20    0.70
  -3   9   6    3.70    0.70
  -3   9   6    3.10    0.70
   2  -9  -6    2.40    0.80
  -2   9   6    2.30    0.70
  -2   9   6    2.80    0.70
  -2   9   6    3.40    0.70
   1  -9  -6    1.40    0.80
   1  -9  -6    0.50    0.80
  -1   9   6    0.80    0.70
  -1   9   6   -0.20    0.60
   0  -9  -6    2.50    0.90
   0   9   6    2.70    0.80
   0   9   6    3.00    0.90
  -1  -9  -6   17.10    1.90
   1   9   6   15.90    2.00
   1   9   6   16.70    1.70
   2   9   6    7.10    1.10
  -3  -9  -6    1.40    1.20
   3   9   6    2.10    1.00
  -4  -9  -6    2.30    1.50
   4   9   6    1.00    1.20
  -5  -9  -6   -1.40    1.60
   5   9   6   -1.50    1.30
  10 -10  -6    1.60    1.40
   9 -10  -6    3.60    1.20
   8 -10  -6    1.00    1.10
   7 -10  -6    2.20    1.00
  -7  10   6    0.80    0.50
   6 -10  -6    8.50    1.50
  -6  10   6    7.50    0.90
   5 -10  -6    4.30    1.10
  -5  10   6    4.30    1.20
  -5  10   6    4.10    1.10
  -4  10   6    0.50    0.80
  -4  10   6    1.70    0.60
   3 -10  -6    1.30    1.00
  -3  10   6    4.70    0.90
  -3  10   6    4.10    0.80
   2 -10  -6   25.90    2.40
   2 -10  -6   25.20    2.40
  -2  10   6   31.20    2.40
  -2  10   6   26.10    2.20
   1 -10  -6   10.20    1.90
   1 -10  -6   15.30    1.70
  -1  10   6   11.00    1.50
  -1  10   6   12.20    1.70
   0 -10  -6   16.20    2.00
   0  10   6   16.50    2.10
   0  10   6   14.60    1.70
  -1 -10  -6    6.10    1.30
   1  10   6    5.60    1.20
  -2 -10  -6    0.50    1.40
   2  10   6    0.80    1.20
  -3 -10  -6    6.40    1.70
   3  10   6    5.90    1.50
   9 -11  -6    5.60    1.40
   8 -11  -6    7.70    1.50
   7 -11  -6    1.20    1.20
  -7  11   6    1.00    0.60
   6 -11  -6    3.60    1.30
  -6  11   6    4.60    0.80
   5 -11  -6    8.40    1.40
  -5  11   6    6.90    1.30
   4 -11  -6    2.40    1.20
  -4  11   6    1.50    0.80
   3 -11  -6    0.30    1.20
  -3  11   6    0.10    0.80
   2 -11  -6   -0.60    1.60
  -2  11   6    1.30    1.00
   1 -11  -6    0.40    1.40
  -1  11   6    1.30    1.10
   0 -11  -6    0.00    1.40
   0  11   6   -0.30    2.00
  -1 -11  -6   -1.30    1.50
   7 -12  -6    3.50    1.50
  -7  12   6    1.90    0.70
   6 -12  -6   12.00    1.80
  -6  12   6    9.00    1.40
   5 -12  -6   13.30    2.20
  -5  12   6   12.40    1.70
   4 -12  -6    7.30    1.70
  -4  12   6    9.30    1.60
   3 -12  -6   23.20    2.90
  -3  12   6   25.50    2.40
  -2  12   6   -1.30    1.20
  -1  12   6   -1.60    1.50
  -1  12  -7    2.30    1.50
   1 -12   7    1.20    1.40
  -2  12  -7    5.30    1.20
  -2  12  -7    3.60    1.30
  -3  12  -7    3.60    1.20
  -3  12  -7    5.20    1.20
   3 -12   7    1.30    1.30
  -4  12  -7    1.70    1.00
  -4  12  -7    1.20    1.00
   4 -12   7   -0.20    1.30
  -5  12  -7   10.00    1.70
   5 -12   7   12.00    1.70
  -6  12  -7    3.60    1.00
  -6  12  -7    2.30    0.80
   6 -12   7    3.40    1.50
  -7  12  -7    0.00    0.90
  -1 -11   7    5.70    1.40
   0  11  -7    3.30    1.30
   0 -11   7    2.50    1.10
  -1  11  -7   10.50    1.80
  -1  11  -7    5.50    1.30
   1 -11   7    5.80    1.30
  -2  11  -7   10.50    1.70
  -2  11  -7   15.60    1.80
   2 -11   7   10.80    1.90
  -3  11  -7    0.70    0.80
  -3  11  -7    1.40    0.90
   3 -11   7   -0.10    1.00
  -4  11  -7   10.80    1.50
  -4  11  -7    8.00    1.50
   4 -11   7    6.90    1.30
  -5  11  -7   14.00    1.60
  -5  11  -7   13.60    1.60
   5 -11   7   11.80    2.00
  -6  11  -7    2.90    0.80
  -6  11  -7    2.40    0.70
   6 -11   7    2.00    1.20
  -7  11  -7   15.50    1.80
   7 -11   7   20.60    2.50
  -8  11  -7    6.60    1.10
   8 -11   7   11.30    1.80
  -3 -10   7   10.20    1.60
  -2 -10   7   -1.00    1.10
  -1 -10   7    0.60    1.00
   0  10  -7    3.40    1.10
   0  10  -7    3.90    0.90
   0  10  -7    5.40    1.20
   0 -10   7    4.30    1.10
  -1  10  -7    4.60    0.90
  -1  10  -7    4.30    1.00
  -1  10  -7    1.80    0.90
   1 -10   7    4.00    1.10
  -2  10  -7    3.60    0.90
  -2  10  -7    3.70    0.80
  -2  10  -7    3.50    0.90
   2 -10   7    3.20    0.90
  -3  10  -7    6.60    1.00
  -3  10  -7    6.90    1.00
   3 -10   7    7.40    1.10
  -4  10  -7    6.10    1.00
  -4  10  -7    5.90    0.90
   4 -10   7    6.40    1.10
  -5  10  -7    1.20    1.10
  -5  10  -7    0.40    1.30
   5 -10   7    1.80    0.90
  -6  10  -7    0.40    0.60
  -6  10  -7    1.80    0.70
   6 -10   7    0.50    1.50
  -7  10  -7    3.80    0.80
   7 -10   7    4.90    1.20
  -8  10  -7    2.10    0.80
   8 -10   7   -0.30    1.20
  -9  10  -7    6.40    1.10
   9 -10   7    5.70    1.60
 -10  10  -7   -0.20    1.00
  -5  -9   7   -1.00    1.30
  -4  -9   7    3.70    1.30
  -3  -9   7    4.70    1.10
  -2  -9   7   15.60    1.90
   1   9  -7    1.00    0.70
   1   9  -7    1.60    1.00
  -1  -9   7    1.90    0.90
   0   9  -7    4.90    0.80
   0   9  -7    4.90    1.20
   0  -9   7    4.70    0.90
  -1   9  -7   20.10    1.70
  -1   9  -7   19.00    1.90
   1  -9   7   17.50    2.20
  -2   9  -7    4.10    0.70
  -2   9  -7    5.30    0.90
   2  -9   7    3.50    1.10
  -3   9  -7    9.90    1.20
  -3   9  -7   10.10    1.30
   3  -9   7   11.10    1.40
  -4   9  -7    1.30    0.60
  -4   9  -7    0.60    0.60
  -4   9  -7    0.20    0.60
   4  -9   7    2.50    0.80
  -5   9  -7   22.40    1.70
  -5   9  -7   18.70    1.70
   5  -9   7   17.90    1.90
  -6   9  -7    9.30    1.40
  -6   9  -7   10.60    1.20
   6  -9   7   10.10    1.60
  -7   9  -7    2.90    0.80
   7  -9   7    1.00    0.90
  -8   9  -7   11.70    1.40
   8  -9   7   10.90    1.70
  -9   9  -7    0.90    0.80
   9  -9   7   -0.40    1.20
 -10   9  -7   -0.50    0.90
  10  -9   7    1.20    1.40
  -6  -8   7   -1.00    1.30
  -6  -8   7   -2.50    1.80
  -5  -8   7    0.50    1.70
  -5  -8   7   -1.00    1.00
  -4  -8   7   -1.80    0.90
  -4  -8   7    0.80    1.30
  -3  -8   7    4.70    1.20
   2   8  -7    0.10    0.60
  -2  -8   7    0.30    0.80
   1   8  -7    6.00    0.80
  -1  -8   7    4.90    0.90
   0   8  -7    8.90    1.10
   0   8  -7   10.40    1.40
   0  -8   7   10.00    1.20
  -1   8  -7    5.90    1.00
   1  -8   7    6.10    1.00
  -2   8  -7   22.50    1.80
  -2   8  -7   22.70    1.90
   2  -8   7   23.00    1.80
  -3   8  -7   11.00    1.10
  -3   8  -7   10.30    1.20
   3  -8   7   12.40    1.20
  -4   8  -7    2.60    0.60
  -4   8  -7    2.40    0.60
   4  -8   7    2.20    0.70
  -5   8  -7    0.40    0.40
  -5   8  -7    0.30    0.50
  -5   8  -7    0.50    0.50
   5  -8   7   -0.30    0.60
  -6   8  -7   10.50    1.20
  -6   8  -7   11.10    1.00
   6  -8   7    8.70    1.40
  -7   8  -7    0.80    0.60
   7  -8   7   -0.20    0.70
  -8   8  -7    1.20    0.70
   8  -8   7    0.50    0.80
  -9   8  -7    6.80    1.10
   9  -8   7    9.50    1.90
 -10   8  -7    0.40    0.90
  10  -8   7    1.20    1.20
 -11   8  -7    2.50    1.20
  11  -8   7    3.20    1.80
   7   7  -7    2.30    1.40
  -7  -7   7    0.60    1.40
  -7  -7   7    0.60    1.60
   6   7  -7    1.30    1.00
  -6  -7   7    0.10    1.10
  -6  -7   7   -0.40    1.40
   5   7  -7    5.00    1.00
  -5  -7   7    2.80    1.20
  -5  -7   7    5.10    1.00
   4   7  -7   17.20    1.50
  -4  -7   7   17.30    2.20
  -4  -7   7   13.70    2.00
   3   7  -7    5.60    0.90
  -3  -7   7    4.10    1.10
  -3  -7   7    5.50    1.10
   2   7  -7    8.40    1.90
   2   7  -7    5.10    0.90
   2   7  -7    6.30    0.90
  -2  -7   7    7.50    1.20
  -2  -7   7    9.10    1.90
   1   7  -7   21.90    1.80
   1   7  -7   27.30    1.90
  -1  -7   7   28.50    2.30
  -1  -7   7   23.60    1.90
   0   7  -7   -0.50    0.40
   0   7  -7   -0.10    0.60
   0  -7   7    0.40    0.40
  -1   7  -7    0.90    0.50
  -1   7  -7    1.90    0.60
   1  -7   7    0.90    0.50
  -2   7  -7    0.70    0.40
  -2   7  -7    0.90    0.50
   2  -7   7    1.40    0.40
  -3   7  -7    0.10    0.40
  -3   7  -7    0.10    0.40
   3  -7   7    0.00    0.40
  -4   7  -7   -0.50    0.40
  -4   7  -7   -0.50    0.40
   4  -7   7   -0.20    0.40
  -5   7  -7    2.70    0.50
  -5   7  -7    1.50    0.40
  -5   7  -7    1.20    0.50
   5  -7   7    2.40    0.60
  -6   7  -7   33.20    2.20
  -6   7  -7   31.30    2.30
   6  -7   7   29.30    2.30
  -7   7  -7   17.70    1.60
   7  -7   7   19.20    1.70
  -8   7  -7    1.80    0.60
   8  -7   7    1.60    0.80
  -9   7  -7   17.90    1.80
   9  -7   7   21.40    2.10
 -10   7  -7   14.50    2.00
  11  -7   7    6.80    1.60
   8   6  -7    1.00    1.30
  -8  -6   7    2.40    1.40
  -8  -6   7    4.30    1.40
   7   6  -7    2.20    1.00
  -7  -6   7    1.50    1.20
  -7  -6   7    1.40    1.20
   6   6  -7    3.20    0.90
  -6  -6   7    2.50    1.00
  -6  -6   7    1.40    1.30
   5   6  -7    2.30    0.70
  -5  -6   7    2.60    0.90
   4   6  -7    6.00    0.80
  -4  -6   7    4.30    1.00
  -4  -6   7    5.20    0.90
   3   6  -7    3.00    0.60
   3   6  -7    4.00    0.70
  -3  -6   7    2.20    0.80
  -3  -6   7    4.80    0.70
   2   6  -7    1.90    0.40
   2   6  -7    0.80    0.70
   2   6  -7    1.80    0.50
  -2  -6   7    1.70    0.60
  -2  -6   7    0.30    0.70
   1   6  -7    8.40    1.10
   1   6  -7    5.40    0.60
  -1  -6   7    6.00    0.80
   0   6  -7    7.30    1.00
   0   6  -7    8.30    0.80
   0  -6   7    6.60    0.90
   0  -6   7   10.10    1.30
  -1   6  -7    3.50    0.60
   1  -6   7    4.60    0.70
   1  -6   7    2.40    0.80
  -2   6  -7    0.80    0.60
  -2   6  -7    1.90    0.40
   2  -6   7    1.60    0.40
  -3   6  -7    0.60    0.50
  -3   6  -7    0.80    0.40
  -3   6  -7    1.70    0.40
   3  -6   7    0.50    0.40
  -4   6  -7   25.90    1.70
  -4   6  -7   18.40    1.60
   4  -6   7   22.80    1.70
  -5   6  -7   12.70    1.10
  -5   6  -7   14.10    1.00
   5  -6   7   11.50    1.20
  -6   6  -7   31.90    2.30
   6  -6   7   31.00    2.30
  -7   6  -7    1.20    0.50
   7  -6   7    1.60    0.60
  -8   6  -7    2.60    0.60
   8  -6   7    2.40    0.80
  -9   6  -7    3.00    0.80
   9  -6   7    4.80    1.00
 -10   6  -7    5.10    0.90
  11  -6   7    9.60    1.70
   8   5  -7    3.00    1.00
  -8  -5   7    3.20    1.20
  -8  -5   7    2.20    1.10
   7   5  -7    2.80    1.70
  -7  -5   7    3.50    1.10
  -7  -5   7    3.70    1.10
   6   5  -7    1.30    0.70
  -6  -5   7    0.60    0.90
  -6  -5   7    0.40    0.70
   5   5  -7    0.50    0.60
  -5  -5   7   -0.90    0.70
  -5  -5   7   -0.60    0.60
   4   5  -7    0.70    0.40
   4   5  -7    0.60    0.50
  -4  -5   7    0.10    0.60
  -4  -5   7    0.30    0.70
   3   5  -7    0.20    0.70
   3   5  -7    1.40    0.40
   3   5  -7    1.20    0.40
  -3  -5   7    0.50    0.60
  -3  -5   7    1.20    0.50
   2   5  -7   13.50    1.30
   2   5  -7   10.50    1.00
   1   5  -7    5.70    0.50
   1   5  -7    6.00    0.70
   1   5  -7    6.70    0.90
  -1  -5   7    5.30    0.70
  -1  -5   7    5.00    0.80
   0   5  -7  149.49    9.70
  -1   5  -7   14.80    1.20
  -1   5  -7   13.90    1.10
   1  -5   7   14.60    1.30
  -2   5  -7   16.70    1.30
  -2   5  -7   20.50    1.30
   2  -5   7   16.50    1.40
  -3   5  -7  196.68   11.60
   3  -5   7  159.68   11.50
  -4   5  -7   32.80    2.30
  -4   5  -7   32.00    2.30
  -4   5  -7   33.90    2.30
   4  -5   7   34.10    2.30
  -5   5  -7   17.20    1.20
  -6   5  -7    7.00    0.80
   6  -5   7    6.40    0.70
   6  -5   7    6.90    0.90
  -7   5  -7    0.30    0.50
   7  -5   7    1.10    0.50
   7  -5   7    0.30    0.60
  -8   5  -7   14.50    1.30
  -9   5  -7    9.40    1.50
  -9   5  -7    8.10    1.20
   9  -5   7   12.40    1.60
 -10   5  -7   -0.20    1.00
  11  -5   7    7.50    1.60
  12  -5   7    6.20    2.10
   9   4  -7    2.30    1.10
  -9  -4   7    2.50    1.00
  -9  -4   7   -0.70    1.30
   8   4  -7    1.40    0.90
  -8  -4   7    1.20    0.90
  -8  -4   7    3.20    1.00
   7   4  -7    3.70    0.80
  -7  -4   7    3.20    0.90
  -7  -4   7    4.20    0.90
   6   4  -7    2.80    0.60
  -6  -4   7    3.20    0.80
   5   4  -7    1.70    0.50
   5   4  -7    2.00    0.50
  -5  -4   7    1.20    0.70
  -5  -4   7    1.10    0.60
   4   4  -7    8.70    0.90
   4   4  -7    7.70    0.80
  -4  -4   7    8.70    1.00
   3   4  -7    3.10    0.70
   3   4  -7    4.20    0.50
   3   4  -7    4.20    0.60
  -3  -4   7    3.40    0.70
   2   4  -7   24.20    1.70
   2   4  -7   21.30    1.50
   2   4  -7   18.50    1.50
  -2  -4   7   20.10    1.50
  -2  -4   7   23.00    1.60
   0   4  -7    4.30    0.40
   0  -4   7    3.50    0.50
   0  -4   7    4.30    0.80
  -1   4  -7   57.49    4.00
  -1   4  -7   62.09    4.00
  -1   4  -7   59.29    3.90
   1  -4   7   58.99    3.90
   1  -4   7   60.69    4.00
  -2   4  -7    0.10    0.20
  -2   4  -7    0.00    0.20
  -2   4  -7    0.60    0.30
   2  -4   7    0.20    0.20
   2  -4   7    0.20    0.40
  -3   4  -7   15.80    1.30
   3  -4   7   19.70    1.30
  -4   4  -7   48.20    3.00
   4  -4   7   41.60    3.00
  -5   4  -7    1.30    0.40
  -6   4  -7   -0.10    0.40
  -6   4  -7   -0.20    0.40
   6  -4   7   -0.20    0.40
  -7   4  -7   10.30    1.10
  -7   4  -7   13.00    1.20
   7  -4   7   14.00    1.10
  -8   4  -7    1.20    0.50
  -8   4  -7   -0.20    0.60
   8  -4   7    1.20    0.60
  -9   4  -7    0.20    0.60
  -9   4  -7   -0.30    0.70
   9  -4   7    0.90    0.70
 -10   4  -7    1.10    1.00
  10  -4   7    1.70    0.90
 -11   4  -7    3.80    1.30
  11  -4   7    3.50    1.80
 -12   4  -7    2.40    1.60
  10   3  -7   -0.80    1.10
 -10  -3   7    0.50    1.00
 -10  -3   7   -0.60    1.50
   9   3  -7    2.20    1.00
  -9  -3   7    1.10    1.10
  -9  -3   7    0.10    0.80
   8   3  -7    1.40    0.80
  -8  -3   7    1.10    0.90
  -8  -3   7    0.50    1.30
   7   3  -7    3.80    0.80
  -7  -3   7    4.10    1.00
  -7  -3   7    3.60    0.80
   6   3  -7   19.30    1.60
  -6  -3   7   21.60    1.70
   5   3  -7    2.30    0.40
   5   3  -7    2.10    0.50
  -5  -3   7    1.90    0.50
  -5  -3   7    2.00    0.60
   4   3  -7   16.40    1.40
   4   3  -7   13.80    1.10
  -4  -3   7   12.10    1.20
   3   3  -7  206.28   13.10
   3   3  -7  195.38   13.00
  -3  -3   7  183.68   13.00
  -3  -3   7  218.38   13.00
  -3  -3   7  199.88   13.00
   2   3  -7   24.00    1.80
   2   3  -7   25.10    1.70
  -2  -3   7   25.10    1.80
  -2  -3   7   25.80    1.80
  -2  -3   7   23.60    1.70
   1   3  -7   50.79    3.70
   1   3  -7   60.49    3.60
  -1  -3   7   52.39    3.70
  -1  -3   7   55.89    3.60
   0   3  -7    2.30    0.30
   0  -3   7    1.80    0.30
  -1   3  -7    8.60    0.80
  -1   3  -7   11.10    0.80
   1  -3   7    9.90    0.80
  -2   3  -7   16.80    1.10
  -2   3  -7   15.20    1.10
   2  -3   7   15.00    1.20
   2  -3   7   15.40    1.10
  -3   3  -7  199.98   12.20
  -3   3  -7  191.48   12.20
  -3   3  -7  178.48   12.20
   3  -3   7  185.98   12.20
  -4   3  -7    6.20    0.60
  -4   3  -7    6.80    0.60
  -4   3  -7    5.50    0.60
  -4   3  -7    7.30    0.70
   4  -3   7    7.00    0.60
  -5   3  -7   21.20    1.50
  -5   3  -7   21.70    1.50
   5  -3   7   17.00    1.40
  -6   3  -7   65.89    4.50
  -6   3  -7   62.39    4.60
   6  -3   7   76.59    4.50
  -7   3  -7    0.40    0.40
  -7   3  -7    0.90    0.50
   7  -3   7    0.00    0.50
  -8   3  -7   17.00    1.60
  -8   3  -7   17.70    1.40
   8  -3   7   15.40    1.50
  -9   3  -7   17.20    1.90
   9  -3   7   21.30    1.70
 -10   3  -7    2.00    1.10
  10  -3   7    3.70    1.00
 -11   3  -7    5.70    1.40
  11  -3   7    5.50    1.30
 -12   3  -7    0.20    1.60
  12  -3   7    2.60    1.60
  10   2  -7    4.50    1.10
 -10  -2   7    0.50    1.90
 -10  -2   7    2.30    0.90
  -9  -2   7    0.50    1.00
  -9  -2   7    0.00    0.70
   8   2  -7    4.70    0.90
  -8  -2   7    5.70    0.90
  -8  -2   7    5.40    0.80
   7   2  -7    1.40    0.60
  -7  -2   7    0.40    0.60
  -7  -2   7    1.50    0.70
   6   2  -7    2.60    0.50
  -6  -2   7    3.20    0.60
  -6  -2   7    2.50    0.50
  -6  -2   7    2.30    0.60
   5   2  -7   31.10    2.10
  -5  -2   7   30.10    2.20
  -5  -2   7   32.00    2.20
  -5  -2   7   29.80    2.20
   4   2  -7    0.70    0.30
   4   2  -7   -0.40    0.50
  -4  -2   7   -0.60    0.30
  -4  -2   7    0.50    0.30
  -4  -2   7    0.60    0.50
  -4  -2   7   -0.10    0.30
   3   2  -7  103.89    6.90
   3   2  -7  114.69    7.00
  -3  -2   7  101.49    7.00
  -3  -2   7  110.89    7.00
  -3  -2   7  104.89    7.00
   2   2  -7  130.49    8.00
   2   2  -7  118.39    7.90
  -2  -2   7  121.89    7.90
  -2  -2   7  128.49    8.00
  -2  -2   7  111.49    7.90
   1   2  -7  127.79    8.20
  -1  -2   7  136.79    8.30
  -1  -2   7  131.89    8.20
  -1  -2   7  112.29    8.20
   0   2  -7    7.20    0.50
   0  -2   7    5.80    0.50
   0  -2   7    5.80    0.60
   0  -2   7    6.50    0.50
  -1   2  -7  320.77   19.50
  -1   2  -7  297.27   19.50
  -1   2  -7  285.47   19.50
   1  -2   7  317.77   19.50
   1  -2   7  295.57   19.50
  -2   2  -7   43.40    2.70
  -2   2  -7   41.00    2.70
  -2   2  -7   45.50    2.70
   2  -2   7   34.80    2.70
  -3   2  -7    6.60    0.60
  -3   2  -7    8.20    0.60
  -3   2  -7    8.50    0.60
  -3   2  -7    8.20    0.70
   3  -2   7    7.70    0.60
  -4   2  -7   20.90    1.20
  -4   2  -7   15.80    1.20
   4  -2   7   15.40    1.20
  -5   2  -7    2.40    0.40
  -5   2  -7    2.70    0.30
  -5   2  -7    3.20    0.50
  -5   2  -7    2.90    0.50
   5  -2   7    3.50    0.50
  -6   2  -7    5.30    0.70
  -6   2  -7    5.80    0.80
   6  -2   7    6.50    0.70
  -7   2  -7    4.40    0.70
  -7   2  -7    3.90    0.70
   7  -2   7    4.50    0.80
  -8   2  -7    4.60    0.80
   8  -2   7    4.50    0.70
  -9   2  -7    1.40    0.80
   9  -2   7    1.70    0.70
  10  -2   7    1.00    0.90
 -11   2  -7    7.80    1.50
  11  -2   7    9.20    1.40
  11   1  -7    3.10    1.40
  10   1  -7    8.80    1.50
 -10  -1   7    6.30    0.90
   9   1  -7   23.20    3.00
  -9  -1   7   22.20    2.20
   8   1  -7   14.30    1.50
  -8  -1   7   14.20    1.50
  -8  -1   7   13.30    1.40
   7   1  -7    4.20    0.60
  -7  -1   7    4.40    0.70
  -7  -1   7    4.70    0.70
  -7  -1   7    5.50    0.80
   6   1  -7   15.20    1.20
  -6  -1   7   14.80    1.20
  -6  -1   7   15.40    1.30
  -6  -1   7   15.50    1.30
   5   1  -7    1.80    0.40
  -5  -1   7    1.20    0.40
  -5  -1   7    1.60    0.50
  -5  -1   7    3.00    0.50
  -5  -1   7    2.20    0.40
   4   1  -7   33.90    2.80
   4   1  -7   39.70    2.70
  -4  -1   7   46.90    2.70
  -4  -1   7   38.80    2.70
  -4  -1   7   44.00    2.70
   3   1  -7  198.18   12.60
   3   1  -7  191.58   12.60
  -3  -1   7  201.28   12.60
  -3  -1   7  207.58   12.60
  -3  -1   7  199.68   12.60
  -3  -1   7  172.48   12.60
   2   1  -7   25.30    1.90
   2   1  -7   24.50    2.00
  -2  -1   7   30.60    1.90
  -2  -1   7   33.40    1.90
  -2  -1   7   29.80    1.90
   1   1  -7   18.40    1.30
   1   1  -7   17.00    1.30
  -1  -1   7   20.10    1.30
  -1  -1   7   19.90    1.30
  -1  -1   7   19.10    1.30
   0   1  -7  665.83   45.30
   0  -1   7  741.83   45.30
   0  -1   7  739.73   45.30
   0  -1   7  670.43   45.30
  -1   1  -7   75.79    4.90
  -1   1  -7   76.09    4.90
  -1   1  -7   73.09    4.90
  -1   1  -7   74.29    4.90
   1  -1   7   75.49    4.90
   1  -1   7   79.89    4.90
  -2   1  -7  458.25   30.80
  -2   1  -7  476.85   30.80
  -2   1  -7  456.15   30.80
   2  -1   7  509.65   30.80
   2  -1   7  496.55   30.80
  -3   1  -7   62.99    4.60
  -3   1  -7   66.69    4.60
  -3   1  -7   65.99    4.60
  -3   1  -7   77.99    4.60
   3  -1   7   81.19    4.60
  -4   1  -7   19.80    1.50
  -4   1  -7   19.00    1.50
  -4   1  -7   21.50    1.40
  -4   1  -7   21.00    1.40
  -5   1  -7   65.99    4.60
  -5   1  -7   70.09    4.60
  -5   1  -7   70.29    4.60
  -5   1  -7   68.39    4.70
   5  -1   7   78.19    4.60
  -6   1  -7    0.00    0.30
  -6   1  -7    0.60    0.40
  -6   1  -7    0.20    0.30
  -6   1  -7    0.80    0.30
   6  -1   7    0.10    0.40
  -7   1  -7   25.10    1.90
   7  -1   7   22.50    1.80
  -8   1  -7    1.30    0.70
   8  -1   7    1.50    0.60
  -9   1  -7    1.00    0.90
   9  -1   7    0.00    0.70
 -10   1  -7    0.90    1.10
  10  -1   7    0.00    0.90
 -11   1  -7    2.90    1.40
  11  -1   7    3.40    1.30
  11   0  -7    4.60    1.50
  10   0  -7    1.10    1.10
  -9   0   7   22.30    2.20
  -9   0   7   26.90    2.00
  -8   0   7   20.90    1.70
  -8   0   7   20.80    1.80
  -8   0   7   22.20    1.90
   7   0  -7   21.70    1.70
  -7   0   7   23.20    1.60
  -7   0   7   21.70    1.70
  -7   0   7   20.30    1.70
   6   0  -7   56.09    3.80
  -6   0   7   58.09    3.80
  -6   0   7   54.89    3.80
  -6   0   7   57.49    3.80
  -6   0   7   54.89    3.70
   5   0  -7  115.79    7.70
  -5   0   7  120.69    7.70
  -5   0   7  118.99    7.70
  -5   0   7  115.49    7.70
  -5   0   7  117.89    7.70
   4   0  -7  134.09    9.70
   4   0  -7  153.38    9.70
  -4   0   7  150.58    9.70
  -4   0   7  156.58    9.70
  -4   0   7  151.98    9.70
  -4   0   7  151.48    9.70
   3   0  -7   33.50    2.50
   3   0  -7   33.70    2.50
  -3   0   7   40.00    2.50
  -3   0   7   41.60    2.50
  -3   0   7   39.10    2.50
   2   0  -7   95.19    6.30
   2   0  -7   92.29    6.30
  -2   0   7   98.59    6.30
  -2   0   7  103.29    6.30
  -2   0   7  103.39    6.30
  -2   0   7   90.19    6.30
   1   0  -7   41.80    3.00
  -1   0   7   47.30    3.00
  -1   0   7   46.70    2.90
  -1   0   7   44.00    2.90
   0   0  -7  136.89    8.70
   0   0  -7  142.19    8.80
   0   0  -7  140.79    8.80
   0   0   7  128.09    8.80
   0   0   7  130.59    8.70
  -1   0  -7  410.16   27.90
  -1   0  -7  455.65   27.90
  -1   0  -7  424.56   27.90
  -1   0  -7  428.36   27.90
   1   0   7  430.76   27.90
   1   0   7  452.85   27.90
  -2   0  -7   91.59    6.30
  -2   0  -7   99.79    6.30
  -2   0  -7   95.09    6.30
   2   0   7  102.39    6.30
   2   0   7   96.79    6.30
  -3   0  -7   13.40    0.90
  -3   0  -7   12.50    0.90
  -3   0  -7   12.30    0.90
  -3   0  -7   12.70    1.00
   3   0   7   11.10    0.90
   3   0   7   12.20    1.00
  -4   0  -7    0.40    0.30
  -4   0  -7    0.60    0.40
  -4   0  -7    0.50    0.20
   4   0   7    0.40    0.20
  -5   0  -7   29.80    1.90
  -5   0  -7   28.80    2.00
  -5   0  -7   27.70    2.00
   5   0   7   26.30    1.90
  -6   0  -7    2.50    0.60
  -6   0  -7    3.20    0.60
   6   0   7    3.70    0.60
  -7   0  -7    7.40    0.90
  -7   0  -7    7.70    0.80
  -7   0  -7    8.40    1.20
   7   0   7    7.10    0.90
  -8   0  -7    3.80    0.80
  -8   0  -7    4.30    0.80
   8   0   7    3.00    0.70
  -9   0  -7    9.00    1.60
   9   0   7    8.20    1.10
 -10   0  -7    1.50    1.20
  10   0   7    0.90    1.00
 -11   0  -7    1.40    1.50
  11   0   7    1.70    1.20
  11  -1  -7    3.10    1.30
  -9   1   7   13.60    1.60
  -9   1   7   13.50    1.50
   8  -1  -7    0.00    0.60
  -8   1   7    0.50    0.40
  -8   1   7    0.30    0.50
  -8   1   7    0.30    0.60
  -8   1   7    0.00    0.60
   7  -1  -7    0.10    0.50
  -7   1   7    0.30    0.30
  -7   1   7    0.00    0.50
  -7   1   7    0.20    0.50
  -7   1   7    0.50    0.50
   6  -1  -7   10.30    1.00
  -6   1   7    9.40    0.90
  -6   1   7   10.30    0.90
  -6   1   7   11.20    0.90
  -6   1   7    9.90    1.00
   5  -1  -7    2.80    0.40
  -5   1   7    3.20    0.50
  -5   1   7    2.30    0.40
  -5   1   7    3.00    0.40
  -5   1   7    2.70    0.40
   4  -1  -7   45.80    3.00
  -4   1   7   46.70    3.00
  -4   1   7   42.70    2.90
  -4   1   7   43.50    3.00
  -4   1   7   46.20    3.00
   3  -1  -7   32.80    2.30
   3  -1  -7   32.40    2.30
  -3   1   7   37.10    2.20
  -3   1   7   35.40    2.30
  -3   1   7   31.20    2.30
   2  -1  -7  287.67   18.50
   2  -1  -7  284.37   18.50
  -2   1   7  285.97   18.50
  -2   1   7  287.87   18.50
  -2   1   7  289.37   18.50
   1  -1  -7   90.59    5.30
   1  -1  -7   91.99    5.30
  -1   1   7   72.09    5.30
  -1   1   7   73.29    5.30
   0  -1  -7    1.40    0.30
   0  -1  -7    1.70    0.30
   0   1   7    1.60    0.20
   0   1   7    1.00    0.20
  -1  -1  -7  222.98   14.30
  -1  -1  -7  229.78   14.30
  -1  -1  -7  243.08   14.30
   1   1   7  202.28   14.30
   1   1   7  209.38   14.30
  -2  -1  -7    1.30    0.20
  -2  -1  -7    0.90    0.30
  -2  -1  -7    0.90    0.20
   2   1   7    1.20    0.20
   2   1   7    1.10    0.30
  -3  -1  -7    1.00    0.20
  -3  -1  -7    0.90    0.20
   3   1   7    0.90    0.20
   3   1   7    0.40    0.30
  -4  -1  -7   22.80    1.80
  -4  -1  -7   25.10    1.70
  -4  -1  -7   24.30    1.70
   4   1   7   22.30    1.80
   4   1   7   25.70    1.70
  -5  -1  -7    3.50    0.60
  -5  -1  -7    3.10    0.60
  -5  -1  -7    3.10    0.60
  -6  -1  -7   32.10    2.30
  -6  -1  -7   31.30    2.20
   6   1   7   30.90    2.20
  -7  -1  -7   51.79    3.60
  -7  -1  -7   53.99    3.80
   7   1   7   53.29    3.60
  -8  -1  -7    2.00    0.90
  -8  -1  -7    1.60    0.70
   8   1   7    1.90    1.00
  -9  -1  -7   14.60    2.20
  -9  -1  -7   12.00    1.80
   9   1   7   14.30    2.00
 -10  -1  -7   25.80    2.70
  10   1   7   20.20    2.30
 -11  -1  -7    4.40    1.70
  11   1   7    7.70    1.50
  12  -2  -7    9.90    1.90
  11  -2  -7    8.10    1.50
 -10   2   7    0.60    1.00
   9  -2  -7    0.30    0.80
  -9   2   7    1.60    0.70
   8  -2  -7   -0.70    0.50
  -8   2   7   -0.30    0.60
  -8   2   7   -0.40    0.60
  -7   2   7    3.90    0.70
  -7   2   7    4.50    0.80
  -7   2   7    3.80    0.50
   6  -2  -7   36.80    2.50
  -6   2   7   34.90    2.40
  -6   2   7   33.70    2.40
  -6   2   7   36.50    2.50
  -6   2   7   36.90    2.40
   5  -2  -7  113.09    7.40
  -5   2   7  112.89    7.40
  -5   2   7  111.29    7.30
  -5   2   7  114.39    7.30
   4  -2  -7    0.40    0.20
  -4   2   7    0.20    0.30
  -4   2   7    0.50    0.30
  -4   2   7    0.10    0.20
   3  -2  -7   16.90    1.20
   3  -2  -7   16.60    1.20
  -3   2   7   16.40    1.20
  -3   2   7   17.20    1.20
  -3   2   7   16.40    1.20
   2  -2  -7  173.38   10.40
   2  -2  -7  166.08   10.40
  -2   2   7  151.88   10.30
  -2   2   7  149.09   10.30
   1  -2  -7  233.48   15.70
   1  -2  -7  246.08   15.80
  -1   2   7  252.57   15.70
  -1   2   7  244.98   15.80
   0  -2  -7  254.27   16.10
   0  -2  -7  248.78   16.10
   0  -2  -7  240.28   16.10
   0   2   7  241.88   16.10
   0   2   7  263.07   16.10
  -1  -2  -7   82.49    5.40
  -1  -2  -7   81.59    5.40
  -1  -2  -7   86.59    5.40
   1   2   7   84.79    5.40
   1   2   7   80.39    5.40
  -2  -2  -7   51.19    3.60
  -2  -2  -7   54.79    3.50
  -2  -2  -7   51.49    3.50
   2   2   7   55.69    3.60
   2   2   7   54.79    3.50
  -3  -2  -7   85.79    5.60
  -3  -2  -7   77.99    5.60
  -3  -2  -7   86.49    5.60
   3   2   7   85.09    5.60
   3   2   7   89.69    5.60
  -4  -2  -7    5.90    0.60
  -4  -2  -7    5.70    0.70
   4   2   7    6.00    0.60
   4   2   7    4.80    0.70
  -5  -2  -7   25.80    1.90
  -5  -2  -7   24.70    1.80
   5   2   7   23.20    1.80
  -6  -2  -7   24.60    1.90
  -6  -2  -7   24.10    1.80
   6   2   7   23.90    1.80
  -7  -2  -7    0.30    0.60
  -7  -2  -7    0.70    0.80
   7   2   7   -0.40    0.50
  -8  -2  -7   -0.60    0.80
  -8  -2  -7    0.40    0.80
   8   2   7    0.20    0.70
  -9  -2  -7    0.70    0.70
  -9  -2  -7    0.00    1.20
   9   2   7    0.80    0.90
 -10  -2  -7    2.60    1.50
 -10  -2  -7    1.40    0.80
  10   2   7    4.40    1.20
  12  -3  -7    3.40    1.50
 -11   3   7    1.60    1.10
 -10   3   7    4.30    1.20
   9  -3  -7    7.60    1.20
  -9   3   7    7.10    1.20
   8  -3  -7    1.10    0.50
   7  -3  -7    0.30    0.40
  -7   3   7   -0.20    0.40
   6  -3  -7   39.30    2.80
  -6   3   7   41.70    2.70
  -6   3   7   40.30    2.80
  -6   3   7   39.50    2.70
   5  -3  -7   14.90    1.10
  -5   3   7   13.60    1.10
  -5   3   7   16.40    1.10
  -5   3   7   16.70    1.20
   4  -3  -7   76.39    5.50
  -4   3   7   73.99    5.40
  -4   3   7   88.99    5.50
  -4   3   7   94.29    5.40
   3  -3  -7    7.50    0.80
   3  -3  -7    8.00    0.70
  -3   3   7    9.80    0.70
  -3   3   7    9.60    0.70
   2  -3  -7    5.50    0.50
   2  -3  -7    5.30    0.60
  -2   3   7    4.10    0.40
  -2   3   7    4.10    0.40
   1  -3  -7   46.00    3.20
   1  -3  -7   43.30    3.20
   1  -3  -7   46.90    3.20
  -1   3   7   52.19    3.20
  -1   3   7   52.99    3.20
   0  -3  -7    2.70    0.50
   0  -3  -7    1.60    0.30
   0  -3  -7    1.90    0.30
   0   3   7    1.40    0.30
   0   3   7    1.10    0.30
  -1  -3  -7   50.19    3.00
  -1  -3  -7   50.49    3.10
  -1  -3  -7   44.90    3.00
   1   3   7   41.40    3.00
   1   3   7   40.50    3.00
  -2  -3  -7    6.70    0.70
  -2  -3  -7    6.60    0.60
   2   3   7    6.40    0.60
   2   3   7    6.70    0.70
  -3  -3  -7   39.30    2.70
  -3  -3  -7   41.30    2.80
   3   3   7   40.90    2.70
   3   3   7   40.70    2.80
  -4  -3  -7  123.69    8.00
   4   3   7  119.89    7.90
  -5  -3  -7   51.29    3.40
  -5  -3  -7   48.80    3.40
   5   3   7   46.70    3.30
  -6  -3  -7    8.60    1.10
  -6  -3  -7    5.60    0.90
   6   3   7    6.20    0.90
  -7  -3  -7   14.60    1.70
  -7  -3  -7   15.80    1.60
   7   3   7   14.70    1.50
  -8  -3  -7   22.30    2.10
  -8  -3  -7   25.20    2.40
   8   3   7   23.60    2.10
  -9  -3  -7    2.00    0.80
  -9  -3  -7   -1.20    1.20
   9   3   7    1.50    0.90
 -10  -3  -7   -0.70    0.90
 -10  -3  -7    2.10    1.60
  10   3   7    1.60    1.10
  12  -4  -7    2.10    1.50
 -11   4   7    7.40    1.30
  10  -4  -7    0.20    0.90
 -10   4   7    0.50    0.90
   9  -4  -7    6.60    0.90
  -9   4   7    7.20    1.20
   8  -4  -7    8.50    1.10
  -8   4   7    9.40    1.10
   7  -4  -7    5.50    0.80
  -7   4   7    5.00    0.80
   6  -4  -7    1.20    0.50
  -6   4   7    0.60    0.40
  -6   4   7    1.40    0.40
  -6   4   7    1.10    0.30
   5  -4  -7    1.20    0.30
  -5   4   7    1.60    0.30
  -5   4   7    1.60    0.30
  -5   4   7    0.70    0.40
   4  -4  -7   54.89    3.90
  -4   4   7   63.99    3.90
  -4   4   7   55.89    3.90
  -4   4   7   61.79    3.90
   3  -4  -7    1.30    0.50
  -3   4   7    1.80    0.30
  -3   4   7    2.00    0.30
   2  -4  -7   10.20    1.10
  -2   4   7   13.70    0.90
  -2   4   7   13.70    0.90
   1  -4  -7    2.80    0.40
   1  -4  -7    3.20    0.40
   1  -4  -7    2.10    0.40
  -1   4   7    2.60    0.40
  -1   4   7    3.00    0.50
   0  -4  -7   22.60    1.80
   0   4   7   28.40    1.80
   0   4   7   26.70    1.80
  -1  -4  -7  147.49   10.10
  -1  -4  -7  145.09   10.20
  -1  -4  -7  156.58   10.20
   1   4   7  168.58   10.20
   1   4   7  166.98   10.20
  -2  -4  -7   20.00    1.40
   2   4   7   16.40    1.30
   2   4   7   18.60    1.50
  -3  -4  -7   47.20    3.80
  -3  -4  -7   55.59    3.80
   3   4   7   60.89    3.70
   3   4   7   60.49    3.90
  -4  -4  -7    1.00    0.50
  -4  -4  -7   -0.70    0.60
   4   4   7    0.50    0.40
  -5  -4  -7   47.80    3.40
  -5  -4  -7   40.40    3.30
   5   4   7   52.69    3.30
  -6  -4  -7    2.50    1.00
  -6  -4  -7    2.00    0.90
   6   4   7    2.50    0.80
  -7  -4  -7    3.00    1.10
  -7  -4  -7    2.80    0.90
   7   4   7    4.40    0.90
  -8  -4  -7   -0.20    0.90
  -8  -4  -7    0.50    1.20
   8   4   7    0.60    0.90
  -9  -4  -7   -1.10    1.40
  -9  -4  -7    3.80    1.00
   9   4   7    2.10    1.10
 -12   5   7   -0.80    1.30
 -11   5   7    1.80    1.10
  10  -5  -7    1.70    0.90
 -10   5   7    1.00    0.90
   9  -5  -7    0.70    0.70
  -9   5   7   -0.40    0.80
   8  -5  -7    1.40    0.60
  -8   5   7    0.50    0.60
   7  -5  -7    5.00    0.90
  -7   5   7    4.90    0.70
   6  -5  -7    3.40    0.60
  -6   5   7    3.20    0.40
  -6   5   7    1.90    0.50
   5  -5  -7   26.30    2.00
  -5   5   7   22.50    1.90
  -5   5   7   30.20    1.90
  -5   5   7   29.80    2.00
   4  -5  -7   13.90    1.10
  -4   5   7   10.50    0.90
  -4   5   7   10.20    0.90
  -4   5   7   12.50    1.00
   3  -5  -7  189.48   12.80
   3  -5  -7  206.98   12.90
   2  -5  -7  138.79    8.70
   2  -5  -7  129.29    8.70
   2  -5  -7  141.49    8.70
  -2   5   7  116.69    8.70
  -2   5   7  137.39    8.70
  -2   5   7  138.89    8.70
  -1   5   7   27.30    1.90
  -1   5   7   25.10    1.80
   0  -5  -7    6.40    0.70
   0   5   7    6.10    0.80
   0   5   7    5.70    0.60
  -1  -5  -7   41.60    2.80
  -2  -5  -7   72.09    4.80
   2   5   7   73.89    4.80
   2   5   7   66.29    4.70
  -3  -5  -7    5.90    1.00
  -3  -5  -7    7.90    1.40
   3   5   7    5.30    1.30
   3   5   7    4.40    0.70
  -4  -5  -7    4.40    0.80
  -4  -5  -7    3.20    0.70
   4   5   7    2.10    0.50
  -5  -5  -7    1.10    0.80
  -5  -5  -7    1.10    0.80
   5   5   7    1.30    0.60
  -6  -5  -7   -0.20    0.80
  -6  -5  -7   -0.90    0.80
   6   5   7    0.10    0.70
  -7  -5  -7   -0.10    1.00
  -7  -5  -7    2.30    1.00
   7   5   7    1.00    0.80
  -8  -5  -7   -0.30    1.30
  -8  -5  -7   -0.50    1.10
   8   5   7   -0.60    0.90
 -12   6   7    1.90    1.50
  11  -6  -7   -1.80    1.30
 -11   6   7    1.70    1.10
  10  -6  -7   44.20    3.70
 -10   6   7   33.90    3.70
   9  -6  -7    4.70    0.90
  -9   6   7    2.90    0.80
   8  -6  -7    7.70    1.20
  -8   6   7    8.20    1.20
   7  -6  -7   14.40    1.30
  -7   6   7   11.10    1.20
   6  -6  -7    1.30    0.60
  -6   6   7    2.80    0.60
  -6   6   7    2.70    0.40
   5  -6  -7  126.99    8.10
  -5   6   7  117.19    8.00
  -5   6   7  121.39    8.00
  -5   6   7  125.29    8.00
   4  -6  -7   42.10    2.70
  -4   6   7   34.80    2.60
  -4   6   7   36.40    2.70
   3  -6  -7   61.19    3.90
  -3   6   7   57.99    3.90
  -3   6   7   58.99    4.00
  -3   6   7   56.29    4.00
   2  -6  -7    3.00    1.20
   2  -6  -7    6.20    0.80
  -2   6   7    4.80    0.70
  -2   6   7    6.30    0.60
   1  -6  -7   91.69    5.90
   1  -6  -7   89.89    6.00
   1  -6  -7   85.79    5.90
  -1   6   7   90.49    5.90
  -1   6   7   91.79    6.00
   0  -6  -7    0.90    0.50
   0  -6  -7    1.50    0.50
   0  -6  -7    1.50    0.70
   0   6   7    0.80    0.50
   0   6   7    1.10    0.40
  -1  -6  -7   43.80    3.10
  -1  -6  -7   47.00    3.10
  -1  -6  -7   48.50    3.30
   1   6   7   45.20    3.20
   1   6   7   43.40    3.10
  -2  -6  -7   16.20    1.40
  -2  -6  -7   13.40    1.50
   2   6   7   14.40    1.60
   2   6   7   12.80    1.20
  -3  -6  -7    0.30    0.60
  -3  -6  -7   -0.50    0.80
   3   6   7    0.00    0.40
  -4  -6  -7    0.50    0.70
  -4  -6  -7    0.20    0.90
   4   6   7    1.00    0.60
  -5  -6  -7    1.50    1.00
  -5  -6  -7    1.90    1.20
   5   6   7    0.90    0.70
  -6  -6  -7    0.30    1.10
  -6  -6  -7   -1.00    1.00
   6   6   7    0.00    0.80
  -7  -6  -7   -0.20    1.10
  -7  -6  -7    1.00    1.20
   7   6   7   -0.80    0.90
  -8  -6  -7    0.10    1.40
  -8  -6  -7   -1.30    1.30
   8   6   7   -1.90    1.00
  11  -7  -7    8.50    1.50
 -11   7   7    5.30    1.40
  10  -7  -7   -0.30    1.00
 -10   7   7    0.90    1.00
   9  -7  -7   77.19    5.40
  -9   7   7   79.29    5.40
   8  -7  -7   47.70    3.50
  -8   7   7   47.40    3.40
   7  -7  -7    3.70    0.90
  -6   7   7   13.40    1.30
  -6   7   7   16.70    1.20
   5  -7  -7    0.80    0.60
  -5   7   7    1.90    0.40
  -5   7   7    2.00    0.50
   4  -7  -7   17.10    1.40
  -4   7   7   14.10    1.30
  -4   7   7   15.90    1.30
  -4   7   7   19.10    1.40
   3  -7  -7    7.10    0.90
  -3   7   7    6.60    0.80
  -3   7   7    6.70    0.80
  -3   7   7    6.20    0.80
   2  -7  -7    0.50    0.50
  -2   7   7    0.40    0.40
  -2   7   7    0.30    0.40
   1  -7  -7    2.70    0.60
  -1   7   7    2.10    0.50
  -1   7   7    1.90    0.60
   0  -7  -7    0.50    0.90
   0  -7  -7    0.90    0.60
   0  -7  -7    1.40    0.60
   0   7   7    1.80    0.50
   0   7   7    1.20    0.90
  -1  -7  -7    7.20    1.00
  -1  -7  -7    4.80    0.80
  -1  -7  -7    6.60    1.10
   1   7   7    5.40    0.80
   1   7   7    4.80    0.90
  -2  -7  -7    3.20    1.00
  -2  -7  -7    3.90    0.80
   2   7   7    3.30    0.90
   2   7   7    2.90    0.60
  -3  -7  -7    0.90    0.80
  -3  -7  -7    0.80    1.00
   3   7   7   -0.30    0.60
  -4  -7  -7    3.90    1.20
  -4  -7  -7    3.40    1.00
  -5  -7  -7    1.70    1.10
  -5  -7  -7   -2.00    1.40
   5   7   7   -0.80    0.80
  -6  -7  -7    7.40    1.60
  -6  -7  -7    6.90    1.40
  -7  -7  -7   13.20    1.90
  -7  -7  -7   16.30    2.50
   7   7   7   10.10    1.60
  11  -8  -7    9.70    1.70
 -11   8   7    7.10    1.60
 -10   8   7    9.10    1.40
   9  -8  -7    1.20    1.00
  -9   8   7    0.40    1.00
   8  -8  -7    6.10    1.10
  -8   8   7    4.70    1.00
   7  -8  -7   14.10    1.50
  -7   8   7   12.00    1.20
  -7   8   7   10.20    1.40
  -6   8   7    2.10    0.50
  -6   8   7    1.60    0.70
   5  -8  -7   69.89    4.60
  -5   8   7   66.79    4.50
  -5   8   7   65.19    4.50
  -4   8   7    5.60    0.90
  -4   8   7    6.10    0.90
   3  -8  -7    0.30    0.70
  -3   8   7    0.20    0.50
  -3   8   7    0.10    0.50
   2  -8  -7    0.40    0.60
   2  -8  -7    2.10    0.70
  -2   8   7    1.00    0.50
  -2   8   7    1.30    0.60
   1  -8  -7    6.20    1.00
   1  -8  -7    3.30    0.70
  -1   8   7    4.10    0.80
  -1   8   7    4.20    0.70
   0  -8  -7    7.90    1.20
   0  -8  -7    9.20    1.10
   0   8   7    6.30    1.00
   0   8   7    7.20    1.30
  -1  -8  -7    1.80    0.80
   1   8   7    1.80    0.70
   1   8   7    1.50    0.80
  -2  -8  -7    4.60    1.00
   2   8   7    4.50    0.90
  -3  -8  -7   23.50    2.80
  -3  -8  -7   30.70    2.50
   3   8   7   28.10    2.30
  -4  -8  -7   18.10    2.70
  -4  -8  -7   19.50    2.30
  -5  -8  -7    4.20    1.60
  -5  -8  -7    3.20    1.40
   5   8   7    2.40    1.10
  -6  -8  -7   20.00    2.60
   6   8   7   17.40    2.20
  10  -9  -7    2.60    1.30
   9  -9  -7    5.30    1.20
  -9   9   7    4.50    1.30
   8  -9  -7    4.20    1.10
  -8   9   7    0.50    0.90
   7  -9  -7   14.30    1.90
  -7   9   7    9.00    1.40
  -7   9   7    9.30    1.10
   6  -9  -7    4.80    1.00
  -6   9   7    2.70    0.80
  -6   9   7    2.90    0.70
   5  -9  -7    4.20    1.10
  -5   9   7    3.10    0.80
  -5   9   7    3.20    0.70
   4  -9  -7   11.00    1.40
  -4   9   7    9.00    1.20
  -4   9   7   10.30    1.40
   3  -9  -7    2.80    0.80
  -3   9   7    4.50    0.80
  -3   9   7    5.20    0.80
   2  -9  -7    2.30    0.80
  -2   9   7    4.20    0.80
  -2   9   7    2.70    0.70
   1  -9  -7   13.50    1.70
  -1   9   7   13.70    1.40
  -1   9   7   17.20    1.70
   0  -9  -7   30.50    2.40
   0   9   7   25.40    2.20
   0   9   7   28.90    2.50
  -1  -9  -7   34.60    2.60
   1   9   7   25.50    2.40
   1   9   7   30.20    2.80
  -2  -9  -7    8.90    2.30
   2   9   7   10.00    1.70
  -3  -9  -7    5.70    1.40
   3   9   7    6.80    1.20
  -4  -9  -7    2.00    1.40
   4   9   7    1.20    1.20
  10 -10  -7    3.60    1.50
   9 -10  -7    3.00    1.30
   8 -10  -7    3.00    1.20
   7 -10  -7    2.60    1.10
  -7  10   7    3.30    0.70
  -6  10   7   10.10    1.60
  -6  10   7    8.20    1.10
  -5  10   7    3.20    0.80
  -5  10   7    2.60    0.90
   4 -10  -7   11.70    1.70
  -4  10   7   11.20    1.50
  -4  10   7   13.90    1.40
   3 -10  -7   37.00    2.80
  -3  10   7   32.90    2.70
  -3  10   7   35.60    2.70
   2 -10  -7    5.50    1.10
  -2  10   7    4.40    1.00
   1 -10  -7    1.70    1.10
  -1  10   7    2.30    1.00
  -1  10   7    0.90    0.90
   0 -10  -7   39.80    3.20
   0  10   7   39.30    3.20
   0  10   7   33.70    2.90
  -1 -10  -7    2.80    1.30
   1  10   7    2.30    1.10
  -2 -10  -7   10.00    1.60
   2  10   7    8.40    1.50
  -3 -10  -7   17.40    2.90
   3  10   7   17.80    2.40
   8 -11  -7   11.50    2.00
   7 -11  -7   16.90    2.10
  -7  11   7   13.70    1.40
   6 -11  -7   11.40    1.90
  -6  11   7    9.60    1.30
   5 -11  -7    0.40    1.20
  -5  11   7    1.70    0.80
   4 -11  -7    9.90    1.50
  -4  11   7   13.00    1.60
   3 -11  -7   -0.50    1.20
  -3  11   7    2.00    0.90
   2 -11  -7    6.20    1.90
  -2  11   7    3.50    1.10
  -1  11   7   29.20    2.90
   0 -11  -7    1.50    1.50
  -1 -11  -7    9.80    1.90
   6 -12  -7    5.70    1.60
   5 -12  -7    3.80    1.50
   4 -12  -7    7.30    1.60
  -4  12   7    6.10    1.10
  -3  12   7    6.90    1.20
  -2  12   7   -1.60    1.30
  -1  12  -8    3.40    1.40
  -2  12  -8    2.00    1.20
  -2  12  -8    1.10    1.30
  -3  12  -8   13.60    2.10
  -3  12  -8   12.60    2.00
   3 -12   8   10.00    1.70
  -4  12  -8    5.80    1.20
  -4  12  -8    6.60    1.20
   4 -12   8    3.90    1.50
  -5  12  -8    4.90    1.10
  -5  12  -8    3.20    1.00
   5 -12   8    4.00    1.40
  -6  12  -8    2.60    0.90
  -6  12  -8    0.70    0.80
   6 -12   8    1.10    1.50
  -1 -11   8   -0.10    1.20
   0  11  -8    0.50    1.30
   0 -11   8    0.30    1.20
  -1  11  -8   -0.40    1.10
  -1  11  -8    0.60    1.10
   1 -11   8   -1.60    1.10
  -2  11  -8   -0.80    0.90
  -2  11  -8   -0.40    1.00
   2 -11   8   -1.00    1.00
  -3  11  -8    0.40    0.90
  -3  11  -8    0.00    0.90
   3 -11   8   -1.30    1.00
  -4  11  -8    3.30    1.00
  -4  11  -8    2.00    0.90
   4 -11   8    3.00    1.10
  -5  11  -8    2.60    0.90
  -5  11  -8    2.70    0.90
   5 -11   8    2.00    1.10
  -6  11  -8    0.60    0.80
   6 -11   8    1.10    1.20
  -7  11  -8    2.00    0.80
   7 -11   8    4.10    1.40
  -8  11  -8    3.60    0.90
   8 -11   8    2.70    1.60
  -3 -10   8    1.70    1.30
  -2 -10   8    1.60    1.10
  -1 -10   8    2.60    1.10
   0  10  -8    0.70    1.20
   0  10  -8    0.40    0.80
   0  10  -8    2.10    1.10
   0 -10   8   -0.90    0.90
  -1  10  -8   10.40    1.50
  -1  10  -8   10.70    1.50
   1 -10   8    8.60    1.30
  -2  10  -8    5.40    0.90
  -2  10  -8    3.60    1.00
  -2  10  -8    5.70    1.00
  -3  10  -8   -0.10    0.70
  -3  10  -8    1.90    0.80
  -3  10  -8   -0.20    0.80
   3 -10   8    0.60    0.90
  -4  10  -8   -0.20    0.90
  -4  10  -8   -0.10    0.80
   4 -10   8    0.40    0.90
  -5  10  -8    3.30    0.80
  -5  10  -8    2.90    0.80
   5 -10   8    6.70    1.50
  -6  10  -8    2.00    0.70
  -6  10  -8    1.50    0.80
   6 -10   8    1.60    1.00
  -7  10  -8    8.80    1.30
   7 -10   8    6.90    1.40
  -8  10  -8    4.60    0.90
   8 -10   8    2.40    1.30
  -9  10  -8    1.30    0.90
   9 -10   8    0.00    1.50
  -4  -9   8    2.10    1.20
  -2  -9   8    0.60    0.90
   1   9  -8   -0.20    0.70
   1   9  -8    0.20    1.20
   0   9  -8    0.10    0.90
   0   9  -8    0.00    0.60
   0  -9   8   -0.30    0.90
  -1   9  -8    1.90    0.90
  -1   9  -8    0.20    0.60
  -2   9  -8   17.00    1.80
  -2   9  -8   15.10    1.50
   2  -9   8   14.50    1.60
  -3   9  -8    6.60    1.10
   3  -9   8    6.10    1.20
  -4   9  -8   23.40    2.10
  -4   9  -8   22.90    2.20
   4  -9   8   22.00    2.00
  -5   9  -8   12.50    1.30
  -5   9  -8   12.40    1.40
   5  -9   8   13.70    1.60
  -6   9  -8    1.10    0.60
  -6   9  -8    1.10    0.60
   6  -9   8   -1.10    0.80
  -7   9  -8    1.50    0.90
   7  -9   8   -1.60    0.90
  -8   9  -8   14.10    1.50
   8  -9   8   12.70    2.10
  -9   9  -8    1.60    0.80
   9  -9   8   -0.60    1.20
 -10   9  -8   -0.40    1.00
  10  -9   8    0.40    1.40
  -6  -8   8    2.80    1.40
  -6  -8   8   -2.90    1.80
  -5  -8   8    8.00    1.40
  -5  -8   8    7.70    1.80
  -4  -8   8   -1.80    0.90
  -4  -8   8    0.30    2.00
  -3  -8   8    3.10    1.60
   2   8  -8    7.20    0.90
  -2  -8   8    5.10    1.40
   1   8  -8    2.70    0.90
   1   8  -8    2.70    0.70
  -1  -8   8    4.00    0.90
   0   8  -8    4.60    0.70
   0   8  -8    4.10    0.80
   0  -8   8    2.90    0.80
  -1   8  -8   26.60    2.10
  -1   8  -8   23.30    1.90
   1  -8   8   22.20    1.90
  -2   8  -8   10.40    1.30
  -2   8  -8    8.80    1.10
   2  -8   8   10.00    1.10
  -3   8  -8    1.40    0.60
  -3   8  -8    1.20    0.60
   3  -8   8    1.40    0.60
  -4   8  -8    3.60    0.60
  -4   8  -8    3.60    0.60
   4  -8   8    1.70    0.70
  -5   8  -8    3.20    0.70
  -5   8  -8    3.50    0.70
   5  -8   8    2.90    0.70
  -6   8  -8   28.10    2.20
  -6   8  -8   30.40    2.00
   6  -8   8   24.30    2.30
  -7   8  -8    0.50    0.70
   7  -8   8   -0.40    0.70
  -8   8  -8    1.50    0.70
   8  -8   8    2.30    0.90
  -9   8  -8    1.10    0.80
   9  -8   8    0.30    1.00
 -10   8  -8    2.60    1.00
  10  -8   8    2.90    1.30
  11  -8   8    4.10    1.60
  -7  -7   8   -2.10    1.60
  -7  -7   8   -0.10    1.30
   6   7  -8    1.40    1.10
  -6  -7   8    0.30    1.40
  -6  -7   8    1.40    1.10
   5   7  -8    0.70    0.80
  -5  -7   8    0.80    1.00
  -5  -7   8    1.40    1.30
   4   7  -8    9.30    1.20
  -4  -7   8    9.30    1.50
  -4  -7   8    8.70    1.50
   3   7  -8    6.10    1.00
   3   7  -8    8.50    1.10
  -3  -7   8    7.90    1.30
  -3  -7   8   11.00    1.70
   2   7  -8   17.60    1.50
   2   7  -8   19.00    2.80
   2   7  -8   16.20    1.40
  -2  -7   8   16.20    1.60
   1   7  -8    9.00    1.40
   1   7  -8    8.30    1.00
  -1  -7   8   11.60    1.20
   0   7  -8    0.80    0.50
   0   7  -8    0.70    0.60
   0  -7   8    1.30    0.50
  -1   7  -8    4.30    0.60
  -1   7  -8    4.50    0.70
   1  -7   8    3.00    0.60
  -2   7  -8    2.90    0.60
  -2   7  -8    2.50    0.60
  -3   7  -8    2.70    0.60
  -3   7  -8    2.60    0.50
   3  -7   8    1.20    0.50
  -4   7  -8    8.70    1.00
  -4   7  -8    9.90    1.00
   4  -7   8    8.30    1.00
  -5   7  -8    2.40    0.50
  -5   7  -8    2.10    0.50
   5  -7   8    2.50    0.60
  -6   7  -8   29.30    2.20
  -6   7  -8   29.10    2.00
   6  -7   8   29.90    2.20
  -7   7  -8    3.20    0.70
   7  -7   8    3.40    0.80
  -8   7  -8   18.30    1.70
   8  -7   8   18.00    1.80
  -9   7  -8   17.10    1.80
   9  -7   8   21.70    2.10
 -10   7  -8   19.30    1.90
  11  -7   8    3.00    1.60
   8   6  -8    4.60    1.40
  -8  -6   8    4.90    1.50
  -8  -6   8    5.00    1.50
   7   6  -8    1.80    1.00
  -7  -6   8   -0.80    1.10
  -7  -6   8    1.60    1.30
   6   6  -8    5.00    1.00
  -6  -6   8    4.20    1.10
   5   6  -8    4.20    0.80
  -5  -6   8    3.80    1.20
  -5  -6   8    4.90    1.00
   4   6  -8    0.30    0.50
  -4  -6   8   -0.40    0.90
  -4  -6   8    0.20    0.60
   3   6  -8    0.30    0.40
  -3  -6   8    0.50    0.60
  -3  -6   8    1.40    0.80
   2   6  -8    0.30    0.40
   2   6  -8   -0.30    0.70
  -2  -6   8   -0.20    0.80
  -2  -6   8    0.50    0.40
   1   6  -8   18.00    1.20
   1   6  -8   15.00    1.60
  -1  -6   8   14.50    1.70
  -1  -6   8   18.70    1.40
   0   6  -8   19.00    1.80
   0   6  -8   19.30    1.60
   0  -6   8   15.70    1.40
   0  -6   8   18.90    1.70
  -1   6  -8    0.80    0.40
  -1   6  -8    0.80    0.50
   1  -6   8    1.50    0.40
   1  -6   8    0.40    0.70
   2  -6   8   18.00    1.40
  -3   6  -8   49.40    3.20
  -3   6  -8   47.40    3.20
   3  -6   8   42.90    3.20
  -4   6  -8   15.10    1.30
  -4   6  -8   12.90    1.20
  -4   6  -8   16.30    1.20
   4  -6   8   13.40    1.20
  -5   6  -8   14.70    1.30
  -5   6  -8   15.30    1.10
  -5   6  -8   12.20    1.20
   5  -6   8   14.90    1.30
  -6   6  -8   46.40    3.20
   6  -6   8   47.10    3.30
  -7   6  -8    7.20    1.00
   7  -6   8    7.50    1.20
  -8   6  -8    1.10    0.60
   8  -6   8    2.30    0.80
  -9   6  -8   10.30    1.30
   9  -6   8   11.50    1.80
 -10   6  -8    2.70    1.00
  10  -6   8    5.90    1.30
  11  -6   8   19.00    2.90
   8   5  -8    2.80    1.10
  -8  -5   8    2.40    1.20
  -8  -5   8    1.00    1.10
   7   5  -8    1.50    1.10
  -7  -5   8    0.30    1.00
  -7  -5   8    0.80    1.00
   6   5  -8    2.20    0.70
  -6  -5   8    1.10    0.80
  -6  -5   8    0.40    0.90
   5   5  -8    1.30    0.60
  -5  -5   8   -0.50    0.80
  -5  -5   8    0.20    0.60
   4   5  -8    4.70    0.80
   4   5  -8    5.90    0.80
  -4  -5   8    7.90    1.20
  -4  -5   8    3.90    0.70
   3   5  -8    0.10    0.40
   3   5  -8   -0.60    0.70
   3   5  -8    0.50    0.40
  -3  -5   8    0.00    0.50
  -3  -5   8    0.30    0.60
   2   5  -8   23.50    1.90
   2   5  -8   19.40    1.60
  -2  -5   8   24.60    1.90
   1   5  -8    2.60    0.50
   1   5  -8    3.10    0.50
  -1  -5   8    2.00    0.60
   0   5  -8   97.89    6.70
   0   5  -8  104.79    6.60
   0  -5   8   90.89    6.70
   0  -5   8  111.19    6.60
  -1   5  -8   16.40    1.30
  -1   5  -8   19.80    1.40
   1  -5   8   18.00    1.50
  -2   5  -8   13.00    0.90
  -2   5  -8   10.00    0.90
   2  -5   8    8.80    0.90
   2  -5   8   11.60    1.10
  -3   5  -8  193.18   13.90
  -3   5  -8  234.08   14.00
  -3   5  -8  206.18   14.00
   3  -5   8  229.48   14.00
  -4   5  -8  214.28   13.60
  -4   5  -8  206.88   13.90
  -5   5  -8   60.19    3.60
  -5   5  -8   50.49    3.50
  -5   5  -8   48.20    3.60
   5  -5   8   56.19    3.70
  -6   5  -8    7.70    0.90
   6  -5   8    7.40    1.00
  -7   5  -8    5.60    0.80
   7  -5   8    7.00    0.90
   7  -5   8    5.90    0.90
  -8   5  -8    0.70    0.50
   8  -5   8    0.60    0.70
  -9   5  -8    1.50    0.90
  -9   5  -8    0.90    0.60
 -10   5  -8    3.30    1.80
  11  -5   8    0.60    1.40
  12  -5   8    2.00    1.90
   9   4  -8    1.70    1.10
  -9  -4   8    0.10    1.00
  -9  -4   8   -0.40    1.30
   8   4  -8    0.40    0.80
  -8  -4   8    0.80    1.00
  -8  -4   8    1.70    1.00
   7   4  -8    2.70    0.80
  -7  -4   8    2.00    0.90
  -7  -4   8    2.90    0.90
   6   4  -8    1.70    0.70
  -6  -4   8    0.80    0.70
  -6  -4   8   -0.30    0.70
   5   4  -8    2.10    0.60
   5   4  -8    2.20    0.50
  -5  -4   8    2.20    0.60
  -5  -4   8    2.80    0.70
   4   4  -8    2.40    0.50
   4   4  -8    2.60    0.50
  -4  -4   8    3.90    0.70
  -4  -4   8    3.20    0.60
   3   4  -8   53.69    3.40
   3   4  -8   44.90    3.20
   3   4  -8   41.40    3.20
  -3  -4   8   54.89    3.30
  -3  -4   8   44.20    3.30
   2   4  -8   14.70    1.20
   2   4  -8   17.20    1.20
  -2  -4   8   19.20    1.30
   1   4  -8   70.39    5.10
   1   4  -8   77.79    5.10
   1   4  -8   86.39    5.20
  -1  -4   8   84.79    5.20
  -1  -4   8   73.59    5.10
   0   4  -8   31.90    2.10
   0   4  -8   30.50    2.20
   0  -4   8   28.50    2.20
   0  -4   8   32.50    2.10
  -1   4  -8   24.80    1.80
   1  -4   8   28.00    1.90
  -2   4  -8   37.90    2.50
  -2   4  -8   40.40    2.50
   2  -4   8   36.20    2.60
   2  -4   8   34.00    2.50
  -3   4  -8  180.88   11.50
  -3   4  -8  188.48   11.40
  -3   4  -8  159.28   11.40
   3  -4   8  178.98   11.50
  -4   4  -8   76.59    4.90
  -4   4  -8   69.59    4.80
  -4   4  -8   76.59    4.80
   4  -4   8   71.79    4.90
  -5   4  -8   23.90    1.70
  -5   4  -8   26.20    1.80
   5  -4   8   24.90    1.70
  -6   4  -8    3.10    0.50
  -6   4  -8    2.90    0.50
   6  -4   8    2.10    0.50
  -7   4  -8    0.50    0.50
  -7   4  -8    0.60    0.40
   7  -4   8    0.90    0.50
  -8   4  -8   12.40    1.20
  -8   4  -8   12.40    1.40
   8  -4   8   12.20    1.20
  -9   4  -8    0.00    0.80
   9  -4   8    0.40    0.70
 -10   4  -8    2.40    1.70
  10  -4   8    0.70    0.90
 -11   4  -8    1.40    1.30
 -12   4  -8    4.20    1.70
  10   3  -8    4.20    1.30
 -10  -3   8    2.30    1.00
   9   3  -8    1.50    1.00
  -9  -3   8   -1.00    0.90
  -9  -3   8    1.30    1.20
   8   3  -8    3.10    1.20
  -8  -3   8    3.00    1.00
  -8  -3   8    4.00    1.10
   7   3  -8    1.10    0.60
  -7  -3   8    0.70    0.70
  -7  -3   8   -0.60    0.80
   6   3  -8   20.50    1.60
  -6  -3   8   21.00    1.70
  -6  -3   8   15.70    1.70
   5   3  -8    5.20    0.80
   5   3  -8    4.80    0.70
  -5  -3   8    4.80    0.70
  -5  -3   8    4.10    0.70
   4   3  -8    6.80    0.70
  -4  -3   8    4.50    0.70
  -4  -3   8    5.60    0.80
  -4  -3   8    7.10    0.80
   3   3  -8  363.06   27.00
   3   3  -8  431.36   26.80
  -3  -3   8  457.25   26.90
  -3  -3   8  421.56   26.90
  -3  -3   8  410.16   26.90
   2   3  -8  303.87   19.10
   2   3  -8  289.37   19.00
  -2  -3   8  288.57   19.00
  -2  -3   8  300.67   19.10
  -2  -3   8  290.47   19.00
   1   3  -8  319.27   20.70
   1   3  -8  322.37   20.60
  -1  -3   8  315.97   20.60
  -1  -3   8  320.27   20.60
  -1  -3   8  322.17   20.70
   0   3  -8   39.20    2.60
   0   3  -8   36.70    2.70
   0  -3   8   42.00    2.60
   0  -3   8   40.40    2.70
  -1   3  -8  182.48   11.10
  -1   3  -8  155.48   11.00
  -1   3  -8  173.48   11.00
   1  -3   8  164.08   11.00
   1  -3   8  178.08   11.10
  -2   3  -8  140.49    8.80
  -2   3  -8  138.99    8.80
  -2   3  -8  120.99    8.80
   2  -3   8  139.29    8.80
   2  -3   8  137.59    8.80
  -3   3  -8   10.10    0.80
  -3   3  -8    8.20    0.80
   3  -3   8   10.20    0.80
  -4   3  -8   34.60    2.50
  -4   3  -8   42.70    2.60
  -4   3  -8   39.50    2.60
  -4   3  -8   39.20    2.60
   4  -3   8   36.10    2.50
  -5   3  -8   60.59    4.00
  -5   3  -8   59.29    4.10
  -5   3  -8   61.69    4.00
  -5   3  -8   55.89    4.00
   5  -3   8   66.99    4.00
  -6   3  -8    4.60    0.70
  -6   3  -8    4.80    0.80
   6  -3   8    2.80    0.50
  -7   3  -8    1.30    0.50
  -7   3  -8    2.40    0.60
   7  -3   8    2.90    0.60
  -8   3  -8    5.30    0.90
  -8   3  -8    4.90    0.90
   8  -3   8    6.70    1.00
  -9   3  -8    0.50    0.80
   9  -3   8    0.70    0.70
 -10   3  -8    1.30    1.80
  10  -3   8    0.70    0.90
 -11   3  -8    2.80    1.30
  11  -3   8    3.20    1.30
 -12   3  -8    0.90    1.60
  10   2  -8    1.80    1.00
 -10  -2   8    1.60    0.80
   9   2  -8    3.20    1.10
  -9  -2   8    1.20    0.80
  -9  -2   8    0.40    1.00
   8   2  -8    1.50    0.80
  -8  -2   8    1.80    0.80
  -8  -2   8    0.80    0.80
   7   2  -8   23.00    1.90
  -7  -2   8   22.90    1.90
  -7  -2   8   22.30    1.90
   6   2  -8   17.10    1.30
  -6  -2   8   17.90    1.50
  -6  -2   8   15.50    1.50
  -6  -2   8   19.60    1.50
   5   2  -8    0.10    0.30
  -5  -2   8    1.00    0.40
  -5  -2   8    0.30    0.40
  -5  -2   8    0.70    0.40
   4   2  -8    4.00    0.50
   4   2  -8    3.40    0.70
  -4  -2   8    3.10    0.60
  -4  -2   8    3.70    0.60
  -4  -2   8    5.10    0.60
   3   2  -8   78.59    4.60
   3   2  -8   63.99    4.50
  -3  -2   8   72.99    4.50
  -3  -2   8   61.19    4.50
  -3  -2   8   66.79    4.50
   2   2  -8  407.06   27.20
   2   2  -8  422.86   27.10
  -2  -2   8  440.06   27.10
  -2  -2   8  423.76   27.10
  -2  -2   8  412.86   27.20
   1   2  -8   40.40    2.80
  -1  -2   8   40.40    2.80
  -1  -2   8   42.00    2.80
  -1  -2   8   45.00    2.80
   0   2  -8   79.39    5.90
   0   2  -8   87.49    5.80
   0  -2   8   93.19    5.80
   0  -2   8   95.39    5.90
   0  -2   8   94.69    5.80
  -1   2  -8   11.40    0.80
  -1   2  -8    9.60    0.80
  -1   2  -8   11.30    0.80
   1  -2   8   10.10    0.80
   1  -2   8   10.60    0.80
  -2   2  -8   78.69    5.30
  -2   2  -8   84.99    5.30
  -3   2  -8  158.48   10.20
  -3   2  -8  155.98   10.20
  -3   2  -8  154.48   10.30
  -3   2  -8  157.08   10.20
   3  -2   8  166.08   10.20
  -4   2  -8   92.99    6.60
  -4   2  -8  106.59    6.60
  -4   2  -8  101.19    6.60
  -4   2  -8   94.29    6.60
   4  -2   8  113.39    6.60
  -5   2  -8    5.20    0.70
  -5   2  -8    5.60    0.50
  -5   2  -8    5.00    0.70
  -5   2  -8    6.00    0.60
   5  -2   8    6.90    0.60
  -6   2  -8    0.70    0.40
  -6   2  -8    0.50    0.40
   6  -2   8    0.60    0.40
  -7   2  -8    7.60    0.80
  -7   2  -8    8.30    1.10
  -8   2  -8    0.60    0.70
   8  -2   8    1.10    0.60
  -9   2  -8   24.50    2.40
   9  -2   8   25.40    2.10
 -10   2  -8    2.70    1.10
  10  -2   8    5.10    1.10
 -11   2  -8    1.80    1.30
  11  -2   8    1.70    1.30
  11   1  -8    5.70    1.50
  10   1  -8   18.60    2.00
 -10  -1   8   13.00    1.50
   9   1  -8   33.60    2.90
  -9  -1   8   28.80    2.70
  -9  -1   8   33.00    2.50
  -8  -1   8    4.00    0.80
  -8  -1   8    5.10    0.90
  -8  -1   8    3.50    0.80
   7   1  -8    6.70    0.90
  -7  -1   8    7.60    0.90
  -7  -1   8    7.40    1.10
  -7  -1   8    8.30    1.00
   6   1  -8    2.80    0.50
  -6  -1   8    3.30    0.50
  -6  -1   8    2.60    0.60
   5   1  -8   92.19    5.90
  -5  -1   8   86.09    5.90
  -5  -1   8   92.29    6.20
   4   1  -8   11.30    1.00
   4   1  -8   14.10    1.20
  -4  -1   8   13.50    0.90
  -4  -1   8   10.80    0.90
   3   1  -8   11.60    1.00
   3   1  -8   12.00    1.10
  -3  -1   8   12.60    1.00
  -3  -1   8   13.50    1.00
  -3  -1   8   13.50    1.00
  -3  -1   8   14.90    1.00
   2   1  -8   80.49    5.90
   2   1  -8   86.59    5.90
  -2  -1   8   95.59    5.90
  -2  -1   8   99.89    5.90
   1   1  -8  263.17   17.50
   1   1  -8  258.37   17.50
  -1  -1   8  277.97   17.50
  -1  -1   8  280.47   17.50
  -1  -1   8  280.57   17.60
   0   1  -8  745.83   47.00
   0   1  -8  767.92   47.10
   0  -1   8  786.32   47.10
   0  -1   8  624.24   47.00
   0  -1   8  735.03   47.00
  -1   1  -8    7.60    0.60
  -1   1  -8    7.20    0.60
  -1   1  -8    6.00    0.50
  -1   1  -8    6.50    0.50
   1  -1   8    5.80    0.60
   1  -1   8    7.30    0.60
  -2   1  -8   11.70    0.80
  -2   1  -8   11.40    0.80
  -2   1  -8   13.10    0.80
   2  -1   8   10.60    0.90
   2  -1   8   10.40    0.80
  -3   1  -8   83.09    5.60
  -3   1  -8   83.29    5.60
  -3   1  -8   86.29    5.60
  -3   1  -8   85.79    5.60
   3  -1   8   89.59    5.60
  -4   1  -8   41.80    2.90
  -4   1  -8   39.90    2.80
  -4   1  -8   41.60    2.80
  -4   1  -8   40.60    2.80
   4  -1   8   43.80    2.80
  -5   1  -8   92.69    6.20
  -5   1  -8   97.39    6.10
  -5   1  -8   96.69    6.10
  -5   1  -8   98.09    6.10
   5  -1   8   84.69    6.10
  -6   1  -8   69.69    4.60
  -6   1  -8   72.79    4.50
  -6   1  -8   69.89    4.50
  -6   1  -8   64.69    4.50
   6  -1   8   67.69    4.60
  -7   1  -8    9.00    1.10
  -7   1  -8    6.80    0.80
  -8   1  -8    8.60    1.40
   8  -1   8    8.80    1.10
  -9   1  -8    4.80    1.10
   9  -1   8    5.30    0.90
 -10   1  -8    3.40    1.20
  10  -1   8    2.80    1.00
 -11   1  -8    0.70    1.40
  11  -1   8    0.00    1.30
  11   0  -8   13.10    2.20
  10   0  -8    1.00    1.10
  -9   0   8    5.10    0.90
  -9   0   8    5.20    1.00
  -9   0   8    3.30    1.00
   8   0  -8    1.20    0.70
  -8   0   8    0.50    0.60
  -8   0   8    1.40    0.70
  -8   0   8    1.80    0.50
   7   0  -8    6.40    1.10
  -7   0   8    6.80    1.00
  -7   0   8    8.20    0.90
  -7   0   8    6.40    0.80
   6   0  -8    1.40    0.50
  -6   0   8    1.30    0.50
  -6   0   8    1.40    0.50
  -6   0   8    0.80    0.40
  -6   0   8    1.30    0.40
   5   0  -8   20.20    1.40
  -5   0   8   19.40    1.50
  -5   0   8   15.80    1.40
  -5   0   8   21.80    1.40
  -5   0   8   18.00    1.40
   4   0  -8   44.10    3.10
   4   0  -8   44.70    3.00
  -4   0   8   46.90    3.00
  -4   0   8   46.50    3.00
  -4   0   8   45.20    3.00
  -4   0   8   44.30    3.00
   3   0  -8  107.79    6.60
   3   0  -8  111.49    6.60
  -3   0   8   91.89    6.50
  -3   0   8   95.69    6.60
  -3   0   8   97.59    6.60
   2   0  -8   46.70    3.00
   2   0  -8   44.30    3.00
  -2   0   8   47.00    3.00
  -2   0   8   47.60    3.00
  -2   0   8   45.70    3.00
  -2   0   8   43.60    3.00
   1   0  -8   82.79    6.30
   1   0  -8   96.29    6.30
  -1   0   8  103.69    6.30
  -1   0   8  101.39    6.30
  -1   0   8  102.99    6.30
   0   0  -8  641.64   41.10
   0   0  -8  650.53   41.10
   0   0  -8  636.54   41.10
   0   0   8  635.24   41.10
   0   0   8  630.34   41.10
  -1   0  -8   17.00    1.40
  -1   0  -8   22.90    1.40
  -1   0  -8   22.60    1.40
  -1   0  -8   21.90    1.40
   1   0   8   17.70    1.30
   1   0   8   18.60    1.40
  -2   0  -8  236.38   15.10
  -2   0  -8  231.08   15.10
  -2   0  -8  243.78   15.10
   2   0   8  231.38   15.10
   2   0   8  228.18   15.10
  -3   0  -8  316.87   19.90
  -3   0  -8  307.17   20.00
  -3   0  -8  302.37   19.90
  -3   0  -8  322.47   19.90
   3   0   8  309.47   19.90
   3   0   8  297.67   19.90
  -4   0  -8   54.29    3.70
  -4   0  -8   55.79    3.70
  -4   0  -8   57.49    3.60
  -4   0  -8   56.49    3.70
   4   0   8   53.19    3.70
  -5   0  -8    2.50    0.50
   5   0   8    1.30    0.40
  -6   0  -8   80.29    5.40
  -6   0  -8   82.19    5.30
  -6   0  -8   83.19    5.30
   6   0   8   78.09    5.30
  -7   0  -8    2.90    0.70
  -7   0  -8    3.10    0.50
  -7   0  -8    2.10    0.60
   7   0   8    2.80    0.60
  -8   0  -8    0.00    0.50
  -8   0  -8   -0.10    0.90
   8   0   8    1.00    0.60
  -9   0  -8    1.50    1.10
   9   0   8    0.90    0.70
 -10   0  -8    8.60    1.40
  10   0   8    6.80    1.30
 -11   0  -8    2.30    1.50
  11   0   8    2.80    1.30
  11  -1  -8    7.70    1.50
 -10   1   8    0.70    1.00
  -9   1   8    0.20    1.00
   8  -1  -8    0.90    0.60
  -8   1   8    1.10    0.60
  -8   1   8    1.10    0.40
  -7   1   8    0.60    0.50
  -7   1   8   -0.30    0.50
  -7   1   8   -0.30    0.50
  -7   1   8    0.00    0.30
   6  -1  -8    5.60    0.80
  -6   1   8    5.30    0.70
  -6   1   8    5.50    0.70
  -6   1   8    5.80    0.70
  -6   1   8    4.90    0.80
   5  -1  -8    0.80    0.40
  -5   1   8    0.80    0.30
  -5   1   8    0.70    0.20
  -5   1   8    1.10    0.70
  -5   1   8    0.90    0.30
   4  -1  -8  105.99    6.80
  -4   1   8  102.49    6.80
  -4   1   8  104.99    6.80
  -4   1   8  103.69    6.80
   3  -1  -8  305.07   18.30
   3  -1  -8  276.87   18.30
  -3   1   8  274.27   18.30
  -3   1   8  279.07   18.30
   2  -1  -8  100.79    6.30
   2  -1  -8   98.49    6.30
  -2   1   8   93.09    6.30
  -2   1   8   94.49    6.20
  -2   1   8   93.59    6.20
   1  -1  -8  981.90   60.39
   1  -1  -8  996.40   60.39
  -1   1   8  875.61   60.39
  -1   1   8  903.81   60.39
   0  -1  -8  417.26   25.90
   0  -1  -8  378.46   25.90
   0  -1  -8  387.66   25.90
   0   1   8  419.76   25.80
   0   1   8  405.86   25.90
  -1  -1  -8   54.79    3.80
  -1  -1  -8   54.89    3.90
   1   1   8   67.09    3.80
  -2  -1  -8   36.50    2.30
  -2  -1  -8   35.10    2.30
  -2  -1  -8   30.50    2.30
  -2  -1  -8   36.70    2.30
   2   1   8   33.80    2.30
   2   1   8   34.30    2.30
  -3  -1  -8   16.00    1.30
  -3  -1  -8   17.50    1.30
   3   1   8   21.60    1.30
   3   1   8   20.30    1.40
  -4  -1  -8   69.19    4.50
  -4  -1  -8   69.49    4.50
  -4  -1  -8   70.69    4.50
  -4  -1  -8   70.79    4.50
   4   1   8   60.99    4.50
   4   1   8   66.19    4.50
  -5  -1  -8    2.50    0.60
  -5  -1  -8    2.90    0.50
  -5  -1  -8    2.50    0.50
   5   1   8    3.70    0.60
  -6  -1  -8    4.00    0.60
  -6  -1  -8    2.50    0.60
   6   1   8    3.30    0.60
  -7  -1  -8    0.80    0.80
  -7  -1  -8    0.20    0.50
   7   1   8    0.60    0.60
  -8  -1  -8    4.30    0.80
  -8  -1  -8    4.70    1.00
   8   1   8    4.00    0.90
  -9  -1  -8    8.90    1.50
  -9  -1  -8    8.10    1.10
   9   1   8    7.10    1.30
 -10  -1  -8    8.30    1.60
  10   1   8    9.80    1.40
 -10   2   8    0.00    0.80
   9  -2  -8   -0.60    0.80
  -9   2   8    0.70    0.70
   8  -2  -8    0.20    0.60
  -8   2   8    0.70    0.40
  -8   2   8    0.70    0.60
   7  -2  -8   30.20    2.10
  -7   2   8   27.50    2.00
  -7   2   8   30.70    2.00
  -7   2   8   27.40    2.00
  -7   2   8   28.80    2.10
   6  -2  -8   82.69    5.30
  -6   2   8   82.39    5.20
  -6   2   8   75.89    5.30
  -6   2   8   79.69    5.30
   5  -2  -8    0.60    0.30
  -5   2   8    0.50    0.20
  -5   2   8    0.10    0.30
  -5   2   8    0.70    0.30
   4  -2  -8   17.80    1.50
  -4   2   8   22.70    1.50
  -4   2   8   19.70    1.50
  -4   2   8   23.90    1.50
   3  -2  -8  105.49    7.10
   3  -2  -8  108.39    7.10
  -3   2   8  103.49    7.10
  -3   2   8  112.69    7.10
  -3   2   8  115.69    7.10
   2  -2  -8  382.76   22.80
   2  -2  -8  364.06   22.80
  -2   2   8  335.07   22.80
  -2   2   8  345.27   22.80
  -2   2   8  345.47   22.80
   1  -2  -8   21.40    1.40
   1  -2  -8   22.50    1.40
  -1   2   8   19.00    1.40
  -1   2   8   18.50    1.40
   0  -2  -8  578.64   37.20
   0  -2  -8  578.54   37.20
   0  -2  -8  574.04   37.20
   0   2   8  575.84   37.20
   0   2   8  583.74   37.20
  -1  -2  -8   56.99    3.90
  -1  -2  -8   57.39    3.90
  -1  -2  -8   61.69    3.90
   1   2   8   59.19    3.90
   1   2   8   61.29    3.90
  -2  -2  -8   77.59    5.10
  -2  -2  -8   84.19    5.10
  -2  -2  -8   78.39    5.20
   2   2   8   76.69    5.20
   2   2   8   75.79    5.10
  -3  -2  -8  113.79    7.10
  -3  -2  -8  100.59    7.10
  -3  -2  -8  105.79    7.10
  -3  -2  -8  112.79    7.10
   3   2   8  109.09    7.10
  -4  -2  -8    2.50    0.40
  -4  -2  -8    2.60    0.40
   4   2   8    2.90    0.40
  -5  -2  -8    0.10    0.40
  -5  -2  -8    0.00    0.50
   5   2   8   -0.20    0.40
  -6  -2  -8   25.20    1.90
  -6  -2  -8   23.90    1.80
   6   2   8   21.30    1.80
  -7  -2  -8   21.90    1.80
  -7  -2  -8   20.80    1.90
   7   2   8   20.30    1.70
  -8  -2  -8    7.80    1.40
  -8  -2  -8    6.50    1.30
   8   2   8    6.20    1.00
  -9  -2  -8    9.80    1.60
  -9  -2  -8   10.10    1.40
   9   2   8   13.80    1.60
 -10  -2  -8    0.70    1.40
 -10  -2  -8    1.20    0.80
  10   2   8    0.00    1.10
  12  -3  -8    1.50    1.60
 -11   3   8   -0.40    1.10
 -10   3   8    9.70    1.40
   9  -3  -8    7.30    1.30
  -9   3   8    6.90    1.20
   8  -3  -8    9.80    1.20
  -8   3   8    9.10    1.10
   7  -3  -8   53.59    3.70
  -7   3   8   55.89    3.60
  -7   3   8   51.29    3.60
  -7   3   8   54.59    3.70
   6  -3  -8   11.00    1.10
  -6   3   8   12.40    0.90
  -6   3   8   12.40    1.10
  -6   3   8   10.40    1.00
   5  -3  -8    3.80    0.50
  -5   3   8    3.40    0.60
   4  -3  -8   46.40    2.90
  -4   3   8   39.60    2.90
  -4   3   8   46.20    2.90
  -4   3   8   41.50    2.90
   3  -3  -8    7.50    0.70
   3  -3  -8    6.90    0.80
  -3   3   8    8.70    0.60
  -3   3   8    6.50    0.80
  -3   3   8    8.70    0.70
   2  -3  -8    4.70    0.50
   2  -3  -8    4.90    0.60
  -2   3   8    4.30    0.60
  -2   3   8    3.80    0.40
  -2   3   8    4.00    0.40
   1  -3  -8    6.30    0.70
  -1   3   8    7.10    0.60
  -1   3   8    7.50    0.60
   0  -3  -8    6.60    0.70
   0  -3  -8    5.30    0.60
   0  -3  -8    5.90    0.60
   0   3   8    7.00    0.60
   0   3   8    6.20    0.60
  -1  -3  -8    0.10    0.30
  -1  -3  -8    0.40    0.30
  -1  -3  -8    0.30    0.30
   1   3   8    0.30    0.30
   1   3   8    0.30    0.20
  -2  -3  -8    8.60    0.80
  -2  -3  -8    8.80    0.90
   2   3   8    8.60    0.70
  -3  -3  -8  113.49    7.30
  -3  -3  -8  122.39    7.40
   3   3   8  107.59    7.30
   3   3   8  105.59    7.40
  -4  -3  -8   55.19    3.60
  -4  -3  -8   50.99    3.50
   4   3   8   48.20    3.50
  -5  -3  -8    1.00    0.60
  -5  -3  -8    1.10    0.60
   5   3   8    1.00    0.40
  -6  -3  -8    9.60    1.30
  -6  -3  -8   10.90    1.20
   6   3   8    7.90    1.00
  -7  -3  -8    3.20    0.90
  -7  -3  -8    1.80    0.90
   7   3   8    3.30    0.90
  -8  -3  -8    2.80    0.80
  -8  -3  -8    1.40    1.00
   8   3   8    4.30    0.90
  -9  -3  -8   -0.90    0.80
  -9  -3  -8   -0.10    1.30
   9   3   8    1.90    1.00
 -10  -3  -8   -0.30    0.90
 -10  -3  -8    1.60    1.50
  10   3   8   -0.40    1.10
 -12   4   8    0.70    1.30
 -11   4   8    0.10    1.10
  10  -4  -8    1.20    1.00
 -10   4   8    0.10    1.30
   9  -4  -8   -0.40    0.70
  -9   4   8   -0.10    0.70
   8  -4  -8    5.30    0.80
  -8   4   8    4.60    1.00
   7  -4  -8    3.80    0.60
  -7   4   8    4.00    0.70
   6  -4  -8   30.70    2.20
  -6   4   8   32.30    2.10
  -6   4   8   30.10    2.20
  -6   4   8   28.10    2.10
  -5   4   8   25.90    1.80
  -5   4   8   23.60    1.80
   4  -4  -8  167.78   10.80
  -4   4   8  172.88   10.70
  -4   4   8  160.28   10.70
  -4   4   8  161.58   10.70
   3  -4  -8   93.99    6.40
   3  -4  -8   92.79    6.40
  -3   4   8  102.59    6.40
  -3   4   8   95.69    6.40
  -3   4   8  106.39    6.40
   2  -4  -8   26.50    1.90
   1  -4  -8    2.80    0.50
   1  -4  -8    5.40    0.70
   1  -4  -8    3.60    0.50
  -1   4   8    4.30    0.60
  -1   4   8    4.80    0.50
   0  -4  -8   26.30    1.70
   0   4   8   23.50    1.70
   0   4   8   22.90    1.70
  -1  -4  -8   59.29    3.80
  -1  -4  -8   68.59    3.80
   1   4   8   52.49    3.90
   1   4   8   50.59    3.80
  -2  -4  -8    2.90    0.50
   2   4   8    2.80    0.50
   2   4   8    2.40    0.40
   3   4   8   27.90    2.00
   3   4   8   30.80    2.20
  -4  -4  -8    1.70    0.60
  -4  -4  -8    1.10    0.60
   4   4   8    2.10    0.50
  -5  -4  -8   27.10    2.40
  -5  -4  -8   33.80    2.40
  -6  -4  -8    2.50    0.80
  -6  -4  -8    2.40    1.00
   6   4   8    1.60    0.60
  -7  -4  -8    8.00    1.10
  -7  -4  -8    8.30    1.40
   7   4   8    7.70    1.20
  -8  -4  -8    3.80    1.00
  -8  -4  -8    5.00    1.30
   8   4   8    5.30    1.00
  -9  -4  -8   -2.40    1.40
  -9  -4  -8   -0.90    1.00
   9   4   8    0.90    1.00
 -12   5   8    0.60    1.40
  11  -5  -8    8.80    1.70
 -11   5   8   11.30    1.80
  10  -5  -8    1.00    1.00
 -10   5   8    1.10    1.20
   9  -5  -8    2.80    0.80
  -9   5   8    1.50    0.80
   8  -5  -8    4.80    0.80
  -8   5   8    5.50    0.90
   7  -5  -8    2.20    0.60
  -7   5   8    2.80    0.60
   6  -5  -8    5.00    0.80
  -6   5   8    2.70    0.50
  -6   5   8    4.20    0.70
  -6   5   8    3.50    0.60
  -5   5   8    8.20    0.80
  -5   5   8    6.90    0.70
   4  -5  -8    3.60    0.70
  -4   5   8    5.20    0.60
  -4   5   8    5.90    0.90
   3  -5  -8  478.65   28.60
  -3   5   8  425.06   28.50
  -3   5   8  420.66   28.50
  -3   5   8  447.96   28.60
   2  -5  -8   76.89    4.90
   2  -5  -8   72.89    4.80
   2  -5  -8   77.79    5.00
  -2   5   8   72.59    4.90
  -2   5   8   70.69    4.90
   1  -5  -8   53.49    3.40
  -1   5   8   48.80    3.40
  -1   5   8   50.19    3.40
   0  -5  -8  107.79    6.50
   0  -5  -8   91.79    6.50
   0  -5  -8  111.09    6.60
   0   5   8   94.39    6.50
   0   5   8   90.09    6.50
  -1  -5  -8    2.10    0.50
   1   5   8    1.90    0.40
   1   5   8    2.20    0.60
  -2  -5  -8    2.50    0.50
   2   5   8    1.70    0.60
   2   5   8    1.30    0.40
  -3  -5  -8   10.00    1.10
  -3  -5  -8    8.30    1.20
   3   5   8    8.70    0.90
  -4  -5  -8    7.40    1.00
  -4  -5  -8    6.90    1.10
   4   5   8    4.80    0.80
  -5  -5  -8    1.90    0.90
  -5  -5  -8    2.80    0.80
   5   5   8    1.50    0.80
  -6  -5  -8    2.80    1.00
  -6  -5  -8    3.70    1.00
  -7  -5  -8    0.30    1.00
  -7  -5  -8   -0.10    1.10
   7   5   8   -1.10    0.80
  -8  -5  -8    0.00    1.10
  -8  -5  -8   -1.50    1.40
   8   5   8    0.90    1.00
  11  -6  -8    0.80    1.30
 -11   6   8    0.70    1.10
  10  -6  -8   33.60    2.70
 -10   6   8   28.70    2.60
   9  -6  -8   -0.40    0.80
  -9   6   8    2.20    0.80
   8  -6  -8    1.50    1.00
  -8   6   8    2.60    0.80
   7  -6  -8   12.50    1.40
  -7   6   8   12.40    1.30
   6  -6  -8    2.90    0.70
  -6   6   8    2.40    0.50
  -6   6   8    1.50    0.40
  -6   6   8    2.30    0.60
   5  -6  -8   10.30    1.00
  -5   6   8    8.00    0.80
  -5   6   8    8.30    0.90
   4  -6  -8    0.30    0.50
  -4   6   8    0.30    0.40
  -4   6   8    0.40    0.30
   3  -6  -8    3.20    0.60
  -3   6   8    2.10    0.40
   2  -6  -8    8.10    0.80
   2  -6  -8    6.60    0.90
  -2   6   8    7.40    0.90
   1  -6  -8    1.60    0.50
   1  -6  -8    1.60    0.70
   1  -6  -8    1.90    0.50
  -1   6   8    1.10    0.40
  -1   6   8    0.80    0.40
   0  -6  -8    3.10    0.50
   0  -6  -8    3.30    0.80
   0  -6  -8    1.60    0.50
   0   6   8    1.90    0.50
   0   6   8    2.00    0.60
  -1  -6  -8    9.00    1.30
  -1  -6  -8    7.20    0.90
  -1  -6  -8    8.00    1.00
   1   6   8    7.30    0.80
   1   6   8    7.30    1.10
  -2  -6  -8   11.20    1.40
  -2  -6  -8   10.80    1.20
   2   6   8   10.60    1.40
   2   6   8    9.20    1.00
  -3  -6  -8    0.50    0.70
  -3  -6  -8   -1.10    0.80
   3   6   8   -0.30    0.40
  -4  -6  -8    2.00    0.90
  -4  -6  -8    0.10    0.90
   4   6   8    0.30    0.60
  -5  -6  -8    0.00    1.00
  -5  -6  -8    1.90    1.00
   5   6   8   -0.30    0.70
  -6  -6  -8   -0.70    1.00
  -6  -6  -8   -0.20    1.10
   6   6   8    0.70    0.80
  -7  -6  -8   -1.90    1.30
  -7  -6  -8   -0.20    1.30
   7   6   8    1.10    0.90
  11  -7  -8    0.80    1.30
 -11   7   8   -0.50    1.30
  10  -7  -8    1.20    1.10
 -10   7   8    0.00    1.00
   9  -7  -8   82.69    5.50
  -9   7   8   70.19    5.30
   8  -7  -8   35.20    2.70
  -8   7   8   32.90    2.60
   7  -7  -8   10.80    1.30
  -7   7   8    8.00    1.20
  -7   7   8    8.20    0.80
   6  -7  -8  119.79    7.70
  -6   7   8  114.09    7.60
  -6   7   8  112.99    7.60
  -5   7   8    3.90    0.60
  -5   7   8    3.60    0.50
   4  -7  -8   14.00    1.30
  -4   7   8   13.50    1.20
  -4   7   8   13.80    1.20
   3  -7  -8   10.20    1.00
   3  -7  -8   10.10    1.10
  -3   7   8    7.90    1.00
  -3   7   8    7.30    0.90
   2  -7  -8   11.50    1.10
   2  -7  -8    9.70    1.10
  -2   7   8   10.10    1.00
  -2   7   8   10.70    1.10
   1  -7  -8    0.60    0.50
   1  -7  -8    0.80    0.60
  -1   7   8    0.90    0.50
  -1   7   8    0.70    0.40
   0  -7  -8    5.40    0.80
   0  -7  -8    5.30    0.90
   0  -7  -8    4.30    1.30
   0   7   8    4.70    0.80
   0   7   8    5.10    0.80
  -1  -7  -8    0.30    1.00
  -1  -7  -8    0.70    0.60
  -1  -7  -8   -0.10    0.70
   1   7   8    1.70    0.50
  -2  -7  -8    1.80    0.80
  -2  -7  -8    2.40    1.00
   2   7   8    1.60    0.60
  -3  -7  -8    2.30    1.10
  -3  -7  -8    3.40    0.90
   3   7   8    2.90    0.70
  -4  -7  -8    1.70    1.00
  -4  -7  -8   -0.10    1.20
   4   7   8    0.40    0.70
  -5  -7  -8   33.90    3.90
  -5  -7  -8   45.20    3.30
   5   7   8   36.30    2.90
  -6  -7  -8    1.80    1.30
  -6  -7  -8    0.90    1.50
  -7  -7  -8    0.10    1.60
  -7  -7  -8    1.60    1.50
   7   7   8   -1.60    1.20
  11  -8  -8    4.10    1.50
 -11   8   8   -0.50    1.40
  10  -8  -8    1.20    1.20
 -10   8   8    0.70    1.20
   9  -8  -8    1.50    1.00
  -9   8   8    1.20    1.10
  -8   8   8    5.50    1.00
   7  -8  -8    2.30    0.90
  -7   8   8    1.40    0.80
  -7   8   8    1.50    0.70
   6  -8  -8    0.20    0.70
  -6   8   8   -0.10    0.40
  -6   8   8    0.00    0.60
   5  -8  -8   22.00    1.80
  -5   8   8   18.20    1.60
  -5   8   8   17.80    1.60
   4  -8  -8    0.90    0.70
  -4   8   8    0.80    0.50
  -4   8   8    0.40    0.50
   3  -8  -8    1.60    0.70
   3  -8  -8    0.20    0.70
  -3   8   8    1.20    0.50
  -3   8   8    1.10    0.70
   2  -8  -8    1.10    0.70
   2  -8  -8    3.40    0.90
  -2   8   8    2.80    0.70
  -2   8   8    2.50    0.60
   1  -8  -8    3.20    0.70
   1  -8  -8    1.60    0.70
  -1   8   8    3.20    0.70
  -1   8   8    2.60    0.60
   0  -8  -8    0.30    0.70
   0  -8  -8   -0.60    0.70
   0   8   8    0.30    0.60
   0   8   8    0.20    0.70
  -1  -8  -8    8.80    1.40
   1   8   8    7.90    1.10
   1   8   8    8.80    1.50
  -2  -8  -8    8.40    1.20
   2   8   8    9.00    1.30
  -3  -8  -8   27.00    2.40
  -3  -8  -8   27.20    2.80
   3   8   8   18.70    2.10
  -4  -8  -8    5.70    2.20
  -4  -8  -8   12.70    2.00
   4   8   8    8.40    1.30
  -5  -8  -8   27.70    3.20
  -5  -8  -8   26.50    2.90
  10  -9  -8    3.50    1.30
   9  -9  -8    2.30    1.20
  -9   9   8    2.60    1.20
   8  -9  -8    1.60    1.00
  -8   9   8   -0.10    1.00
   7  -9  -8   12.20    1.90
  -7   9   8    8.80    1.50
   6  -9  -8    1.90    0.90
  -6   9   8    0.80    0.50
  -6   9   8    0.40    0.70
   5  -9  -8    2.00    0.90
  -5   9   8    4.40    0.80
  -5   9   8    4.10    0.70
   4  -9  -8    3.50    0.90
  -4   9   8    1.40    0.60
  -4   9   8    1.00    0.70
   3  -9  -8   11.80    1.40
  -3   9   8    8.30    1.20
  -3   9   8    8.00    1.20
   2  -9  -8    0.90    0.80
   2  -9  -8    0.90    0.80
  -2   9   8    0.90    0.70
  -2   9   8    0.50    0.70
   1  -9  -8  123.09    8.00
   1  -9  -8  118.79    8.00
  -1   9   8  119.79    8.10
  -1   9   8  119.39    8.00
   0  -9  -8    5.00    1.00
   0   9   8    4.20    1.00
   0   9   8    3.60    0.80
  -1  -9  -8   41.10    3.10
   1   9   8   37.30    2.90
  -2  -9  -8   22.60    2.50
   2   9   8   19.80    2.00
  -3  -9  -8   -0.30    1.40
   3   9   8    1.50    1.10
  -4  -9  -8   11.50    1.80
   4   9   8   13.70    1.90
   9 -10  -8    0.40    1.20
   8 -10  -8    2.20    1.20
   7 -10  -8    9.40    1.60
  -7  10   8    4.30    1.80
  -7  10   8    5.50    1.00
   6 -10  -8    5.80    1.20
  -6  10   8    2.40    0.60
  -6  10   8    2.50    1.00
   5 -10  -8   21.40    2.50
  -5  10   8   15.90    1.80
  -5  10   8   19.40    1.70
   4 -10  -8   32.50    2.50
  -4  10   8   27.10    2.80
  -4  10   8   25.30    2.30
   3 -10  -8    6.50    1.20
  -3  10   8    8.20    1.40
  -3  10   8    4.50    1.00
   2 -10  -8   43.70    3.80
  -2  10   8   58.19    3.90
  -2  10   8   56.99    3.80
   1 -10  -8    3.20    1.20
  -1  10   8    0.80    0.90
  -1  10   8    3.20    1.10
   0 -10  -8    6.20    1.40
   0  10   8    6.10    1.30
  -1 -10  -8    3.20    1.30
   1  10   8    3.60    1.10
  -2 -10  -8   -0.40    1.50
   2  10   8   -2.00    1.20
  -3 -10  -8    5.30    1.70
   3  10   8    2.50    1.50
   8 -11  -8    8.60    1.60
  -7  11   8   19.70    1.70
   6 -11  -8   26.50    2.70
  -6  11   8   30.40    2.30
   5 -11  -8   14.30    2.00
  -5  11   8   13.80    1.60
   4 -11  -8    3.90    1.30
  -4  11   8    4.90    1.00
   3 -11  -8   12.40    2.00
  -3  11   8   11.70    1.70
  -2  11   8    5.00    1.10
  -1  11   8    4.70    1.30
  -1 -11  -8   -0.40    1.80
   6 -12  -8    2.90    1.50
  -6  12   8    1.20    0.80
   5 -12  -8    0.10    1.50
  -5  12   8   -0.30    0.90
   4 -12  -8    4.10    1.60
  -4  12   8    1.90    1.00
  -3  12   8    2.80    1.20
  -2  12   8    4.00    1.30
  -2  12  -9   -1.50    1.10
  -2  12  -9    0.80    1.20
  -3  12  -9    4.90    1.20
  -3  12  -9    5.90    1.30
   3 -12   9    2.20    1.30
  -4  12  -9    3.00    1.20
  -4  12  -9    1.50    1.10
   4 -12   9    0.40    1.30
  -5  12  -9    1.60    1.00
  -5  12  -9    0.60    1.00
   5 -12   9    3.10    1.40
  -6  12  -9    2.00    0.80
  -6  12  -9    3.20    1.00
   6 -12   9   -1.20    1.50
  -1 -11   9   -1.50    1.30
   0  11  -9   -1.20    1.30
   0 -11   9   -1.40    1.20
  -1  11  -9   -1.40    1.10
  -1  11  -9    1.00    1.00
   1 -11   9   -2.00    1.10
  -2  11  -9   -0.70    1.00
  -2  11  -9   -0.70    0.90
  -3  11  -9    1.90    0.90
  -3  11  -9   -0.40    0.90
   3 -11   9    1.80    1.10
  -4  11  -9   -0.60    0.80
  -4  11  -9   -0.40    0.80
   4 -11   9   -0.60    1.10
  -5  11  -9    2.10    0.90
  -5  11  -9    2.20    0.90
   5 -11   9    0.90    1.20
  -6  11  -9    2.30    0.90
  -6  11  -9   -0.20    0.80
   6 -11   9    0.80    1.20
  -7  11  -9    1.10    0.90
   7 -11   9    2.50    1.40
  -8  11  -9    0.90    0.90
   8 -11   9   -1.10    1.50
  -3 -10   9   -0.20    1.20
  -2 -10   9    3.10    1.20
  -1 -10   9   -1.20    1.00
   0  10  -9    8.20    1.90
   0  10  -9    6.80    1.20
  -1  10  -9    3.70    0.90
  -1  10  -9    3.80    1.20
   1 -10   9    3.30    1.00
  -2  10  -9    0.50    1.00
  -2  10  -9    0.30    0.70
   2 -10   9   -0.50    0.80
  -3  10  -9    0.20    0.80
  -3  10  -9    0.40    1.10
   3 -10   9   -1.70    1.60
  -4  10  -9   -0.30    0.90
  -4  10  -9    0.30    0.80
  -4  10  -9    0.60    0.80
   4 -10   9    0.20    1.50
  -5  10  -9    1.20    0.80
  -5  10  -9    1.50    0.70
   5 -10   9    2.50    1.10
  -6  10  -9    6.80    1.20
  -6  10  -9    5.60    1.00
   6 -10   9    6.20    1.20
  -7  10  -9    5.60    1.00
   7 -10   9    5.40    1.20
  -8  10  -9    2.00    0.80
   8 -10   9   -0.70    1.30
  -9  10  -9    2.80    1.00
   9 -10   9    1.10    1.50
  -4  -9   9   -1.50    1.20
  -3  -9   9    0.90    1.00
  -2  -9   9    1.10    0.90
   1   9  -9    2.50    0.80
   1   9  -9    4.00    1.20
  -1  -9   9    2.60    1.40
   0   9  -9   -0.80    0.60
   0   9  -9    0.30    1.00
   0  -9   9   -0.90    0.70
  -1   9  -9    5.70    1.10
  -1   9  -9    2.70    0.70
   1  -9   9    1.30    0.90
  -2   9  -9   -0.10    0.60
  -2   9  -9    1.20    0.80
   2  -9   9   -0.50    0.70
  -3   9  -9   12.50    1.60
  -3   9  -9    9.00    1.50
   3  -9   9   11.30    1.40
  -4   9  -9    4.10    0.80
   4  -9   9    6.30    1.00
  -5   9  -9    1.40    0.60
   5  -9   9    1.50    0.80
  -6   9  -9    6.80    1.20
  -6   9  -9    8.70    1.10
   6  -9   9    5.90    1.10
  -7   9  -9    1.60    0.80
   7  -9   9   -0.80    1.00
  -8   9  -9   13.00    1.50
   8  -9   9   12.00    1.60
  -9   9  -9    0.00    0.80
   9  -9   9   -0.20    1.10
 -10   9  -9   -1.20    1.00
  10  -9   9    1.40    1.40
  -6  -8   9    0.00    1.90
  -6  -8   9    2.70    1.40
  -5  -8   9    1.00    1.70
  -5  -8   9    1.60    1.20
  -3  -8   9    1.90    1.20
   2   8  -9    1.00    0.70
  -2  -8   9    0.50    0.80
   1   8  -9   10.90    1.30
   1   8  -9   10.50    1.80
  -1  -8   9    9.40    1.40
   0   8  -9   16.80    1.80
   0   8  -9   17.60    1.60
   0  -8   9   16.00    1.90
  -1   8  -9    4.80    0.90
  -1   8  -9    5.60    1.00
   1  -8   9    7.50    1.10
  -2   8  -9    2.70    0.70
  -2   8  -9    3.10    0.80
   2  -8   9    1.50    0.60
  -3   8  -9    0.60    0.60
  -3   8  -9    0.80    0.60
   3  -8   9    0.90    0.60
  -4   8  -9    6.20    1.00
  -4   8  -9    7.80    1.00
   4  -8   9    4.70    0.80
  -5   8  -9    1.20    0.60
  -5   8  -9    0.50    0.50
   5  -8   9    0.80    0.70
  -6   8  -9   49.30    3.50
  -6   8  -9   46.00    3.40
   6  -8   9   51.89    3.50
  -7   8  -9    0.50    0.70
   7  -8   9    0.00    0.80
  -8   8  -9    6.70    1.20
   8  -8   9    4.80    1.00
   9  -8   9    4.20    1.20
 -10   8  -9   12.30    1.80
  10  -8   9   15.80    2.30
  11  -8   9   -0.30    1.50
  -7  -7   9   -1.20    1.30
  -6  -7   9    0.40    1.40
  -6  -7   9    1.40    1.20
   5   7  -9    0.10    1.10
  -5  -7   9   -0.10    0.90
  -5  -7   9    2.70    1.40
   4   7  -9    1.70    0.80
  -4  -7   9    2.00    1.30
  -4  -7   9    1.90    0.80
   3   7  -9    8.20    1.10
  -3  -7   9    6.40    1.30
  -3  -7   9   11.50    1.50
   2   7  -9    0.90    0.60
   2   7  -9    0.00    0.90
  -2  -7   9    0.30    0.60
  -2  -7   9    1.20    1.10
   1   7  -9    1.60    0.60
   1   7  -9    2.00    0.80
  -1  -7   9    1.60    0.60
   0   7  -9    5.20    0.80
   0  -7   9    3.70    0.70
  -1   7  -9    3.80    0.60
  -1   7  -9    4.80    0.70
   1  -7   9    2.50    0.50
  -2   7  -9   22.30    1.70
  -2   7  -9   21.40    1.70
   2  -7   9   19.10    1.60
  -3   7  -9    1.30    0.50
  -3   7  -9    1.30    0.50
   3  -7   9    1.10    0.50
  -4   7  -9    2.80    0.60
  -4   7  -9    2.90    0.50
  -5   7  -9   25.00    1.80
  -5   7  -9   22.40    1.80
   5  -7   9   21.40    1.80
  -6   7  -9    3.40    0.70
  -6   7  -9    2.90    0.60
   6  -7   9    3.80    0.70
  -7   7  -9   19.60    1.70
   7  -7   9   18.90    1.80
  -8   7  -9   22.10    1.90
   8  -7   9   24.40    2.10
  -9   7  -9   17.20    1.80
   9  -7   9   21.10    2.60
 -10   7  -9    6.60    1.20
  10  -7   9   12.60    2.20
  11  -7   9    5.60    1.70
   7   6  -9    6.50    1.20
  -7  -6   9    6.00    1.40
  -7  -6   9    4.10    1.30
   6   6  -9    2.90    0.90
  -6  -6   9    4.10    1.40
  -6  -6   9    4.20    1.10
   5   6  -9    0.50    0.70
  -5  -6   9   -1.00    1.00
  -5  -6   9    0.20    0.80
   4   6  -9    0.60    0.50
  -4  -6   9    0.30    0.70
  -4  -6   9    1.00    1.00
   3   6  -9    0.30    0.40
   3   6  -9    0.20    0.50
  -3  -6   9    0.40    0.60
  -3  -6   9    1.40    0.80
   2   6  -9    4.70    1.00
   2   6  -9    3.50    0.50
   2   6  -9    4.50    0.60
  -2  -6   9    2.80    0.60
  -2  -6   9    5.80    1.00
   1   6  -9    2.00    0.70
   1   6  -9    1.20    0.40
  -1  -6   9    1.80    0.80
  -1  -6   9    0.90    0.50
   0   6  -9   82.39    5.30
   0   6  -9   83.39    5.40
   0  -6   9   72.19    5.30
   0  -6   9   81.59    5.40
  -1   6  -9   10.70    1.30
  -1   6  -9   12.20    1.00
   1  -6   9    9.90    1.00
  -2   6  -9   28.70    2.00
  -2   6  -9   25.20    2.00
  -3   6  -9   25.50    1.90
  -3   6  -9   25.80    1.90
   3  -6   9   26.40    1.90
  -4   6  -9   38.40    2.60
  -4   6  -9   32.70    2.70
  -4   6  -9   36.40    2.50
   4  -6   9   37.00    2.60
  -5   6  -9    8.30    0.90
  -5   6  -9    5.40    0.90
   5  -6   9    8.20    0.90
  -6   6  -9   35.60    2.60
   6  -6   9   37.90    2.70
  -7   6  -9   19.70    1.70
   7  -6   9   22.50    1.90
  -8   6  -9   21.10    1.80
   8  -6   9   23.40    2.10
  -9   6  -9    3.10    0.80
   9  -6   9    4.10    1.00
  10  -6   9   20.70    2.50
  11  -6   9   28.10    3.20
   8   5  -9    3.10    1.20
  -8  -5   9    1.30    1.10
  -8  -5   9    1.60    1.20
   7   5  -9    1.20    0.80
  -7  -5   9    0.60    1.10
  -7  -5   9   -0.10    1.00
   6   5  -9    1.30    0.70
  -6  -5   9   -0.10    0.90
  -6  -5   9    0.60    0.80
   5   5  -9    3.90    0.70
  -5  -5   9    5.20    1.00
  -5  -5   9    3.70    0.80
   4   5  -9    3.90    0.60
   4   5  -9    4.30    0.70
  -4  -5   9    4.40    0.80
   3   5  -9    1.50    0.50
   3   5  -9    1.30    0.40
   3   5  -9    1.30    0.90
  -3  -5   9    1.10    0.50
   2   5  -9   10.30    0.80
   2   5  -9    8.80    1.30
   2   5  -9    9.30    0.90
  -2  -5   9    7.30    1.20
  -2  -5   9    9.80    1.00
   1   5  -9   39.00    2.60
  -1  -5   9   40.40    2.70
  -1  -5   9   33.20    2.60
   0   5  -9    8.60    1.00
   0   5  -9    8.20    0.80
   0  -5   9    9.80    1.00
   0  -5   9    7.70    1.10
  -1   5  -9   17.10    1.30
  -1   5  -9   13.00    1.10
   1  -5   9   14.60    1.40
  -2   5  -9  125.59    8.10
  -2   5  -9  117.79    8.10
   2  -5   9  137.99    8.10
   2  -5   9  116.59    8.20
  -3   5  -9   33.20    2.30
  -3   5  -9   33.70    2.40
  -3   5  -9   30.70    2.20
  -4   5  -9   52.39    3.30
  -4   5  -9   45.00    3.30
  -4   5  -9   51.39    3.40
   4  -5   9   49.90    3.40
  -5   5  -9   83.19    5.20
   5  -5   9   74.29    5.20
  -6   5  -9    4.10    0.60
   6  -5   9    4.20    0.70
  -7   5  -9    5.10    0.90
   7  -5   9    4.40    0.80
  -8   5  -9    1.70    0.60
   8  -5   9    0.40    0.70
  -9   5  -9    0.30    0.70
  11  -5   9    0.90    1.50
   9   4  -9    4.00    1.20
  -9  -4   9   -1.00    1.40
   8   4  -9    2.50    0.90
  -8  -4   9    0.60    1.00
  -8  -4   9    1.90    1.10
   7   4  -9    4.50    0.90
  -7  -4   9    5.10    1.00
  -7  -4   9    5.60    1.10
   6   4  -9    7.70    1.10
  -6  -4   9    7.60    1.30
   5   4  -9   21.20    1.60
   5   4  -9   20.80    1.70
  -5  -4   9   20.60    1.80
  -5  -4   9   23.10    1.90
   4   4  -9   11.10    1.10
   4   4  -9   14.60    1.10
  -4  -4   9   12.80    1.20
   3   4  -9    4.30    0.70
   3   4  -9    5.80    0.70
   3   4  -9    7.70    1.10
  -3  -4   9    6.60    1.00
  -3  -4   9    5.90    0.80
   2   4  -9   19.60    1.80
   2   4  -9   24.10    1.70
   2   4  -9   23.90    1.60
  -2  -4   9   27.70    1.70
  -2  -4   9   21.20    1.80
   1   4  -9   49.60    3.50
   1   4  -9   54.69    3.40
   0   4  -9  178.38   11.20
   0   4  -9  171.98   11.20
   0  -4   9  169.28   11.20
   0  -4   9  170.88   11.20
  -1   4  -9  273.37   19.70
  -1   4  -9  314.37   19.70
   1  -4   9  345.47   19.70
   1  -4   9  286.67   19.70
  -2   4  -9   70.19    4.50
  -2   4  -9   68.39    4.50
   2  -4   9   68.89    4.50
   2  -4   9   67.59    4.60
  -3   4  -9   -0.30    0.20
  -3   4  -9   -0.10    0.30
  -3   4  -9    0.30    0.30
   3  -4   9    0.30    0.30
  -4   4  -9  115.89    7.90
  -4   4  -9  127.09    7.90
  -4   4  -9  120.89    8.00
   4  -4   9  123.79    8.00
  -5   4  -9   50.79    3.50
  -5   4  -9   55.79    3.60
  -5   4  -9   54.99    3.50
   5  -4   9   53.09    3.60
  -6   4  -9   47.40    3.30
   6  -4   9   49.60    3.20
  -7   4  -9    2.60    0.70
  -7   4  -9    2.60    0.50
   7  -4   9    1.70    0.60
  -8   4  -9   11.00    1.40
  -8   4  -9   11.90    1.10
   8  -4   9   10.80    1.20
  -9   4  -9    1.70    0.90
   9  -4   9    0.80    0.70
 -10   4  -9    0.20    1.00
 -11   4  -9   -0.60    1.30
  10   3  -9    3.90    1.30
 -10  -3   9    1.60    1.00
   9   3  -9    2.70    1.00
  -9  -3   9    0.50    0.90
  -9  -3   9    0.30    1.20
   8   3  -9    8.70    1.90
  -8  -3   9    7.60    1.40
  -8  -3   9    7.60    1.20
   7   3  -9    4.30    0.90
  -7  -3   9    3.70    0.80
   6   3  -9    1.60    0.60
   6   3  -9    2.10    0.60
  -6  -3   9    2.50    0.70
  -6  -3   9    2.90    0.70
   5   3  -9   40.50    2.70
  -5  -3   9   41.90    2.80
  -5  -3   9   34.10    2.80
   4   3  -9  126.19    8.50
  -4  -3   9  142.49    8.60
  -4  -3   9  124.79    8.50
   3   3  -9    1.60    0.30
   3   3  -9    0.80    0.60
  -3  -3   9    0.90    0.50
  -3  -3   9    2.00    0.40
  -3  -3   9    0.90    0.40
   2   3  -9    3.10    0.60
   2   3  -9    2.60    0.40
  -2  -3   9    2.50    0.50
  -2  -3   9    1.70    0.40
  -2  -3   9    1.70    0.40
   1   3  -9   59.09    4.10
   1   3  -9   63.69    4.10
  -1  -3   9   64.79    4.10
  -1  -3   9   61.49    4.10
  -1  -3   9   61.59    4.10
   0   3  -9    6.10    0.70
   0   3  -9    6.30    0.60
   0  -3   9    7.40    0.60
   0  -3   9    7.70    1.00
  -1   3  -9   12.50    1.10
  -1   3  -9   12.80    0.90
  -1   3  -9   11.80    1.00
   1  -3   9   12.90    1.00
   1  -3   9   13.00    0.90
  -2   3  -9   48.30    3.20
  -2   3  -9   51.79    3.30
   2  -3   9   47.90    3.30
   2  -3   9   47.90    3.30
  -3   3  -9   56.19    3.80
  -3   3  -9   59.49    3.80
  -3   3  -9   57.39    3.80
   3  -3   9   56.79    3.80
  -4   3  -9   24.70    1.70
  -4   3  -9   26.50    1.70
  -4   3  -9   22.00    1.70
  -4   3  -9   25.80    1.70
   4  -3   9   22.30    1.60
  -5   3  -9    9.90    0.90
  -5   3  -9    9.90    0.90
  -5   3  -9    8.80    0.80
   5  -3   9    9.20    0.80
  -6   3  -9    6.30    0.80
  -6   3  -9    7.50    0.90
   6  -3   9    7.90    0.80
  -7   3  -9    0.70    0.50
  -7   3  -9    0.40    0.60
   7  -3   9    0.70    0.60
  -8   3  -9   -0.20    0.70
  -8   3  -9   -0.50    0.60
   8  -3   9    0.10    0.60
  -9   3  -9    1.10    1.10
   9  -3   9    0.90    0.70
 -10   3  -9    0.30    1.00
  10  -3   9    2.30    1.00
 -11   3  -9   21.20    2.50
  11  -3   9   18.50    2.40
  10   2  -9   11.80    1.90
 -10  -2   9    8.60    1.40
   9   2  -9   14.60    1.70
  -9  -2   9   10.10    1.40
  -9  -2   9   10.40    1.90
   8   2  -9   12.80    1.60
  -8  -2   9   11.60    1.60
  -7  -2   9    1.20    0.60
  -7  -2   9    0.70    0.70
   6   2  -9    1.10    0.40
  -6  -2   9    1.10    0.60
  -6  -2   9    1.10    0.60
  -6  -2   9    1.10    0.50
   5   2  -9   16.20    1.30
  -5  -2   9   16.00    1.40
  -5  -2   9   17.40    1.40
  -5  -2   9   18.40    1.40
   4   2  -9    1.20    0.30
   4   2  -9    0.90    0.70
  -4  -2   9    1.10    0.40
  -4  -2   9    0.80    0.40
  -4  -2   9    1.30    0.40
   3   2  -9   17.70    1.20
   3   2  -9   17.40    1.40
  -3  -2   9   18.40    1.30
  -3  -2   9   16.60    1.30
  -3  -2   9   16.30    1.30
   2   2  -9   10.60    0.80
  -2  -2   9   12.40    0.90
  -2  -2   9    9.10    0.80
  -2  -2   9   10.80    0.80
   1   2  -9  112.29    6.80
   1   2  -9  104.29    6.80
  -1  -2   9  103.99    6.70
  -1  -2   9   96.39    6.70
  -1  -2   9  103.19    6.80
   0  -2   9   17.90    1.30
   0  -2   9   18.30    1.30
  -1   2  -9    6.80    0.60
  -1   2  -9    7.20    0.70
  -1   2  -9    5.90    0.60
   1  -2   9    7.30    0.60
  -2   2  -9  405.86   26.80
  -2   2  -9  403.86   26.80
  -2   2  -9  422.26   26.80
   2  -2   9  430.96   26.80
  -3   2  -9    4.40    0.50
  -3   2  -9    5.10    0.50
  -3   2  -9    6.20    0.60
  -3   2  -9    5.50    0.60
   3  -2   9    6.50    0.50
  -4   2  -9   31.60    2.10
  -4   2  -9   30.80    2.20
  -4   2  -9   31.00    2.20
  -4   2  -9   31.20    2.10
   4  -2   9   33.50    2.10
  -5   2  -9   38.10    2.90
  -5   2  -9   41.40    2.80
  -5   2  -9   41.70    2.80
  -5   2  -9   42.30    2.80
   5  -2   9   43.80    2.80
  -6   2  -9   10.80    0.90
  -6   2  -9   11.10    0.90
  -6   2  -9    9.40    1.10
  -6   2  -9   10.70    0.90
   6  -2   9   10.10    0.90
  -7   2  -9   50.99    3.60
  -7   2  -9   55.49    3.70
   7  -2   9   54.19    3.60
  -8   2  -9   17.90    1.90
   8  -2   9   18.60    1.60
  -9   2  -9    1.70    1.00
   9  -2   9    3.10    0.80
 -10   2  -9   -0.20    1.10
  10  -2   9    1.10    1.10
 -11   2  -9    1.70    1.40
  11  -2   9    1.50    1.30
  10   1  -9   11.20    1.90
 -10  -1   9    5.70    0.90
   9   1  -9    5.70    1.20
  -9  -1   9    4.40    1.40
  -9  -1   9    5.80    1.10
  -8  -1   9    0.90    0.60
  -8  -1   9    1.20    0.70
  -8  -1   9    1.90    0.80
   7   1  -9   27.10    2.20
  -7  -1   9   28.90    2.20
  -7  -1   9   32.60    2.20
  -7  -1   9   28.50    2.20
   6   1  -9   19.40    1.50
  -6  -1   9   19.60    1.50
  -6  -1   9   18.10    1.50
  -6  -1   9   20.30    1.50
   5   1  -9    6.00    0.80
  -5  -1   9    7.00    0.70
  -5  -1   9    5.60    0.80
  -5  -1   9    5.30    0.80
   4   1  -9   12.70    1.10
   4   1  -9   10.40    1.20
  -4  -1   9   13.00    1.20
  -4  -1   9   15.70    1.00
  -4  -1   9   14.00    1.00
  -4  -1   9   12.60    1.00
   3   1  -9   62.99    4.20
   3   1  -9   56.09    4.20
  -3  -1   9   68.69    4.20
  -3  -1   9   61.09    4.20
  -3  -1   9   68.19    4.20
   2   1  -9  181.18   12.10
   2   1  -9  177.58   12.10
  -2  -1   9  186.98   12.10
  -2  -1   9  198.28   12.00
  -2  -1   9  189.68   12.10
   1   1  -9   13.70    1.10
  -1  -1   9   14.80    1.00
  -1  -1   9   14.30    1.00
  -1  -1   9   16.70    1.10
   0   1  -9    7.70    0.60
   0   1  -9    7.60    0.60
   0  -1   9    6.30    0.50
   0  -1   9    6.70    0.50
   0  -1   9    6.20    0.60
  -1   1  -9   51.29    3.70
  -1   1  -9   55.49    3.70
  -1   1  -9   56.89    3.80
  -1   1  -9   55.39    3.70
   1  -1   9   60.89    3.80
   1  -1   9   61.19    3.70
  -2   1  -9  123.09    7.70
  -2   1  -9  120.09    7.70
  -2   1  -9  122.79    7.70
   2  -1   9  116.49    7.70
   2  -1   9  113.89    7.70
  -3   1  -9   -0.30    0.30
  -3   1  -9    0.30    0.20
  -3   1  -9    0.10    0.20
  -3   1  -9    0.90    0.20
   3  -1   9    0.10    0.20
   3  -1   9    0.60    0.40
  -4   1  -9   59.59    3.80
  -4   1  -9   57.09    3.80
  -4   1  -9   61.19    3.80
  -4   1  -9   53.59    3.80
   4  -1   9   55.69    3.80
  -5   1  -9  200.08   12.70
  -5   1  -9  201.78   12.80
  -5   1  -9  196.98   12.90
  -5   1  -9  175.28   13.00
   5  -1   9  210.88   12.80
  -6   1  -9    0.90    0.40
  -6   1  -9    2.40    0.60
  -6   1  -9    1.70    0.40
  -6   1  -9    1.20    0.50
  -7   1  -9   12.20    1.40
  -7   1  -9   10.80    1.10
  -7   1  -9   11.90    1.00
   7  -1   9   12.60    1.10
  -8   1  -9   13.40    1.80
   8  -1   9   15.50    1.40
  -9   1  -9    0.70    1.00
   9  -1   9    1.00    0.80
 -10   1  -9   -0.20    1.10
  10  -1   9   -0.50    1.10
 -11   1  -9    4.90    1.50
  11  -1   9    4.80    1.40
  11   0  -9    1.80    1.30
  10   0  -9    1.70    1.10
  -9   0   9    7.50    1.30
  -9   0   9    9.10    1.40
   8   0  -9    0.90    0.60
  -8   0   9    0.50    0.50
  -8   0   9    0.60    0.70
  -8   0   9   -0.30    0.60
   7   0  -9    9.60    1.70
  -7   0   9   13.10    1.30
  -7   0   9   14.00    1.20
  -7   0   9   12.70    1.10
   6   0  -9    2.20    0.60
  -6   0   9    1.60    0.50
  -6   0   9    1.80    0.50
  -6   0   9    2.10    0.50
   5   0  -9    9.30    1.00
  -5   0   9   11.90    0.90
  -5   0   9   12.00    1.00
  -5   0   9    9.60    1.10
   4   0  -9   65.09    4.40
   4   0  -9   64.99    4.30
  -4   0   9   69.09    4.30
  -4   0   9   65.49    4.30
  -4   0   9   68.29    4.30
  -4   0   9   59.59    4.30
   3   0  -9    2.10    0.30
   3   0  -9    2.20    0.40
  -3   0   9    2.50    0.40
  -3   0   9    2.00    0.30
  -3   0   9    2.80    0.30
  -3   0   9    1.70    0.30
   2   0  -9    0.50    0.20
   2   0  -9    1.00    0.30
  -2   0   9    0.30    0.20
  -2   0   9    0.30    0.20
   1   0  -9  265.27   16.40
   1   0  -9  278.47   16.50
  -1   0   9  240.78   16.40
  -1   0   9  235.28   16.40
   0   0  -9  105.29    6.90
   0   0  -9  103.39    6.90
   0   0  -9  103.69    6.80
   0   0   9  107.79    6.90
   0   0   9  109.49    6.90
  -1   0  -9  701.33   45.70
  -1   0  -9  743.73   45.70
  -1   0  -9  734.83   45.70
   1   0   9  686.93   45.70
   1   0   9  686.93   45.70
  -2   0  -9  304.27   20.00
  -2   0  -9  321.07   20.00
  -2   0  -9  309.37   20.00
  -2   0  -9  288.67   20.00
   2   0   9  324.37   20.00
   2   0   9  315.57   20.00
  -3   0  -9    8.90    0.80
   3   0   9    6.90    0.60
   3   0   9    6.60    0.70
  -4   0  -9    6.00    0.60
  -4   0  -9    5.90    0.60
  -4   0  -9    4.60    0.80
  -4   0  -9    5.90    0.60
   4   0   9    5.00    0.60
  -5   0  -9    6.10    0.70
  -5   0  -9    5.90    0.90
  -6   0  -9   50.29    3.70
  -6   0  -9   55.09    3.60
  -6   0  -9   54.89    3.70
   6   0   9   56.09    3.60
  -7   0  -9    8.70    1.00
  -7   0  -9   10.00    1.20
   7   0   9    9.00    1.00
  -8   0  -9   19.80    2.10
  -8   0  -9   19.90    1.50
   8   0   9   14.60    1.60
  -9   0  -9   17.10    2.40
   9   0   9   15.20    1.70
 -10   0  -9   14.20    2.40
  10   0   9   14.80    1.90
 -11   0  -9    3.70    1.60
  11   0   9    5.90    1.50
  11  -1  -9    2.80    1.30
 -10   1   9    4.20    1.10
  -9   1   9    0.30    0.50
  -9   1   9   -1.10    0.90
   8  -1  -9    9.90    1.30
  -8   1   9    9.80    1.20
  -8   1   9   10.20    1.00
   7  -1  -9    5.30    0.70
  -7   1   9    6.00    0.70
  -7   1   9    6.30    0.90
  -7   1   9    5.40    0.90
   6  -1  -9    8.60    1.00
  -6   1   9    8.20    0.80
  -6   1   9    8.20    0.90
  -6   1   9    6.70    1.00
  -6   1   9    8.60    0.80
   5  -1  -9   46.70    3.10
  -5   1   9   45.60    3.10
  -5   1   9   45.80    3.10
  -5   1   9   44.90    3.10
   4  -1  -9  180.88   11.40
   4  -1  -9  173.78   11.40
  -4   1   9  175.98   11.40
  -4   1   9  176.38   11.40
  -4   1   9  173.18   11.40
   3  -1  -9   19.30    1.40
  -3   1   9   19.60    1.30
  -3   1   9   18.50    1.30
   2  -1  -9  214.58   13.50
   2  -1  -9  203.08   13.50
  -2   1   9  221.08   13.50
  -2   1   9  215.48   13.50
  -2   1   9  192.88   13.50
   1  -1  -9  482.65   31.80
   1  -1  -9  447.56   31.80
  -1   1   9  517.65   31.80
  -1   1   9  529.85   31.80
   0  -1  -9    5.50    0.60
   0  -1  -9    5.30    0.50
   0   1   9    3.60    0.50
  -1  -1  -9   79.29    5.40
  -1  -1  -9   75.99    5.40
  -1  -1  -9   76.29    5.40
   1   1   9   89.49    5.40
   1   1   9   92.49    5.40
  -2  -1  -9   45.20    2.70
  -2  -1  -9   46.10    2.80
  -2  -1  -9   36.10    2.80
  -2  -1  -9   44.70    2.80
   2   1   9   37.80    2.70
   2   1   9   40.60    2.80
  -3  -1  -9   47.80    3.10
  -3  -1  -9   46.40    3.10
  -3  -1  -9   47.20    3.10
   3   1   9   46.80    3.20
   3   1   9   45.90    3.10
  -4  -1  -9   36.30    2.40
  -4  -1  -9   36.50    2.60
  -4  -1  -9   35.30    2.50
  -5  -1  -9   42.30    2.80
  -5  -1  -9   40.60    2.90
   5   1   9   39.80    2.80
  -6  -1  -9    5.40    0.80
  -6  -1  -9    4.70    0.80
   6   1   9    4.40    0.70
  -7  -1  -9   15.90    1.80
  -7  -1  -9   16.40    1.40
   7   1   9   14.60    1.40
  -8  -1  -9    0.80    0.60
  -8  -1  -9    0.40    1.30
   8   1   9    1.20    0.70
  -9  -1  -9   62.79    4.00
  -9  -1  -9   58.59    4.40
   9   1   9   54.39    4.20
 -10  -1  -9    1.80    1.30
  10   1   9    2.20    1.20
 -11   2   9    7.90    1.40
 -10   2   9   -0.40    0.90
   9  -2  -9    0.10    0.80
  -9   2   9    0.80    1.20
   8  -2  -9   16.60    1.60
  -8   2   9   17.10    1.60
  -8   2   9   16.80    1.30
   7  -2  -9   13.60    1.30
  -7   2   9   12.40    1.20
  -7   2   9   15.20    1.10
  -7   2   9   13.70    1.20
  -6   2   9    0.30    0.40
  -6   2   9    0.50    0.40
  -6   2   9    0.80    0.30
   5  -2  -9  115.59    7.60
  -5   2   9  122.59    7.60
  -5   2   9  107.39    7.60
  -5   2   9  122.29    7.70
   4  -2  -9   52.99    3.30
  -4   2   9   49.30    3.30
  -4   2   9   46.80    3.30
  -4   2   9   46.30    3.20
   3  -2  -9   67.09    4.60
   3  -2  -9   68.89    4.60
  -3   2   9   71.69    4.60
  -3   2   9   73.99    4.60
   2  -2  -9    7.80    0.70
   2  -2  -9    7.10    0.60
  -2   2   9    5.40    0.50
  -2   2   9    7.60    0.70
  -2   2   9    5.20    0.50
   1  -2  -9  105.09    6.50
   1  -2  -9  104.99    6.50
  -1   2   9   95.39    6.50
  -1   2   9   95.59    6.50
   0  -2  -9  103.29    6.80
   0  -2  -9  102.99    6.80
   0  -2  -9   99.59    6.80
   0   2   9  107.69    6.80
   0   2   9  110.29    6.80
  -1  -2  -9   21.30    1.50
  -1  -2  -9   20.70    1.50
  -1  -2  -9   19.80    1.50
   1   2   9   22.40    1.40
   1   2   9   20.30    1.70
  -2  -2  -9  155.48   10.20
  -2  -2  -9  157.88   10.20
  -2  -2  -9  165.18   10.10
   2   2   9  151.18   10.10
   2   2   9  154.48   10.20
  -3  -2  -9  110.29    7.00
  -3  -2  -9  102.29    7.10
  -3  -2  -9  105.89    7.00
   3   2   9  107.89    7.00
   3   2   9  108.19    7.00
  -4  -2  -9   25.90    1.80
   4   2   9   22.70    1.80
  -5  -2  -9   12.10    1.20
  -5  -2  -9   12.60    1.10
   5   2   9   11.10    1.00
  -6  -2  -9   24.90    1.90
  -6  -2  -9   25.40    1.80
   6   2   9   20.50    1.80
  -7  -2  -9   14.80    1.90
  -7  -2  -9   11.80    1.90
   7   2   9   15.70    1.40
  -8  -2  -9    0.90    0.70
  -8  -2  -9   -1.20    1.00
   8   2   9    1.80    0.80
  -9  -2  -9   25.90    2.20
  -9  -2  -9   29.00    2.80
   9   2   9   26.40    2.30
 -10  -2  -9    3.40    0.90
 -10  -2  -9    1.70    1.60
  10   2   9    1.10    1.10
 -11   3   9   11.50    1.60
  10  -3  -9    7.30    1.30
 -10   3   9    9.00    1.40
   9  -3  -9   20.00    2.00
  -9   3   9   22.40    2.30
   8  -3  -9    0.40    0.60
  -8   3   9    0.70    0.60
   7  -3  -9    4.20    0.70
  -7   3   9    5.00    0.80
  -7   3   9    5.00    0.80
  -7   3   9    5.20    0.60
   6  -3  -9    4.70    0.80
  -6   3   9    4.40    0.50
  -6   3   9    4.20    0.60
  -6   3   9    4.10    0.60
   5  -3  -9   28.40    1.90
  -5   3   9   25.30    1.90
  -5   3   9   29.00    2.10
   4  -3  -9   14.20    1.10
  -4   3   9   12.40    1.00
  -4   3   9   13.40    1.10
  -4   3   9   13.20    1.00
   3  -3  -9   78.29    5.30
   3  -3  -9   81.19    5.30
  -3   3   9   84.09    5.30
  -3   3   9   81.79    5.30
   2  -3  -9  137.99    8.70
   2  -3  -9  140.59    8.70
  -2   3   9  125.29    8.70
  -2   3   9  133.79    8.70
  -2   3   9  134.49    8.70
   1  -3  -9   85.79    5.90
   1  -3  -9   91.59    5.90
  -1   3   9   90.89    5.90
  -1   3   9   92.19    5.90
   0  -3  -9    2.50    0.40
   0  -3  -9    3.00    0.40
   0  -3  -9    3.50    0.60
   0   3   9    4.30    0.40
   0   3   9    4.40    0.50
  -1  -3  -9   54.09    3.50
  -1  -3  -9   53.39    3.60
  -1  -3  -9   54.89    3.60
   1   3   9   51.99    3.50
   1   3   9   53.49    3.60
  -2  -3  -9   15.20    1.30
  -2  -3  -9   16.70    1.40
   2   3   9   18.80    1.30
   2   3   9   19.20    1.40
  -3  -3  -9  402.86   25.70
  -3  -3  -9  415.26   25.70
   3   3   9  374.56   25.70
  -4  -3  -9   10.10    1.10
   4   3   9   11.20    1.00
  -5  -3  -9   22.50    1.70
  -5  -3  -9   20.20    1.70
   5   3   9   17.70    1.50
  -6  -3  -9    1.60    0.70
  -6  -3  -9    1.70    0.70
   6   3   9    2.30    0.60
  -7  -3  -9   11.00    1.60
  -7  -3  -9    9.40    1.80
   7   3   9   11.60    1.30
  -8  -3  -9   -0.50    1.10
  -8  -3  -9    0.80    0.80
   8   3   9    1.10    0.80
  -9  -3  -9   -0.50    0.90
  -9  -3  -9    0.00    1.30
   9   3   9   -0.30    1.00
 -12   4   9   -0.10    1.30
 -11   4   9    2.60    1.20
  10  -4  -9    2.50    1.10
 -10   4   9    2.40    1.00
   9  -4  -9    5.60    1.00
  -9   4   9    5.70    1.50
   8  -4  -9    6.80    1.10
  -8   4   9    7.70    1.10
   7  -4  -9   14.40    1.30
  -7   4   9   13.10    1.10
  -7   4   9   13.60    1.00
  -7   4   9   12.70    1.30
   6  -4  -9    1.40    0.50
  -6   4   9    0.50    0.30
  -6   4   9    0.20    0.40
  -6   4   9    0.40    0.50
   5  -4  -9    0.90    0.40
  -5   4   9    0.90    0.30
  -5   4   9    0.60    0.40
  -5   4   9    0.90    0.40
   4  -4  -9  102.89    7.00
  -4   4   9  114.09    6.90
  -4   4   9  109.89    6.90
  -4   4   9   97.59    6.90
   3  -4  -9   32.30    2.30
   3  -4  -9   33.10    2.40
  -3   4   9   34.40    2.30
  -3   4   9   34.90    2.30
   2  -4  -9   39.40    2.30
   2  -4  -9   34.60    2.30
  -2   4   9   30.40    2.30
  -2   4   9   28.70    2.20
   1  -4  -9  112.29    6.90
   1  -4  -9  101.99    6.90
   1  -4  -9  104.79    6.80
  -1   4   9  105.09    6.90
  -1   4   9  102.99    6.90
   0  -4  -9  168.28   10.70
   0  -4  -9  160.38   10.60
   0  -4  -9  168.68   10.60
   0   4   9  156.78   10.70
   0   4   9  165.28   10.60
  -1  -4  -9    9.60    1.00
   1   4   9   10.60    0.90
   1   4   9   11.40    1.00
  -2  -4  -9   -0.30    0.50
  -2  -4  -9    0.20    0.50
  -2  -4  -9   -0.10    0.40
   2   4   9   -0.40    0.50
   2   4   9    0.40    0.30
  -3  -4  -9   21.10    1.70
   3   4   9   23.10    1.60
   3   4   9   20.90    1.80
  -4  -4  -9    2.70    0.60
   4   4   9    1.90    0.50
  -5  -4  -9    0.50    0.70
  -5  -4  -9    0.80    0.70
   5   4   9    0.60    0.50
  -6  -4  -9    0.60    0.80
  -6  -4  -9    0.20    1.30
   6   4   9    1.20    0.60
  -7  -4  -9   -0.90    1.20
  -7  -4  -9    0.00    1.20
   7   4   9    0.90    0.80
  -8  -4  -9    0.20    1.20
  -8  -4  -9   -0.20    0.90
   8   4   9    0.80    0.80
  -9  -4  -9    1.50    1.50
  -9  -4  -9   -0.50    1.00
   9   4   9   -0.70    1.00
 -12   5   9   -1.30    1.40
  11  -5  -9   12.50    1.80
 -11   5   9   11.40    1.90
  10  -5  -9    0.70    1.00
 -10   5   9    0.50    1.00
   9  -5  -9    3.70    0.90
  -9   5   9    3.40    0.90
   8  -5  -9   -0.10    0.70
  -8   5   9    0.80    0.70
   7  -5  -9    3.00    0.70
  -7   5   9    2.70    0.50
  -7   5   9    2.30    0.40
  -7   5   9    2.90    0.70
   6  -5  -9   32.00    2.40
  -6   5   9   31.70    2.30
  -6   5   9   33.90    2.30
  -6   5   9   34.30    2.40
   5  -5  -9    5.30    0.90
  -5   5   9    5.90    0.90
  -5   5   9    5.70    0.70
  -5   5   9    6.30    0.70
   4  -5  -9   40.60    2.60
  -4   5   9   33.00    2.60
   3  -5  -9  219.38   15.00
  -3   5   9  235.68   15.00
  -3   5   9  238.78   15.00
   2  -5  -9   25.10    2.20
  -2   5   9   31.70    2.10
  -2   5   9   31.00    2.00
   1  -5  -9    7.50    1.00
   1  -5  -9    6.50    0.70
  -1   5   9    6.80    0.80
  -1   5   9    7.00    0.60
   0  -5  -9   54.09    4.00
   0  -5  -9   60.09    4.10
   0  -5  -9   62.19    4.00
   0   5   9   57.99    4.20
   0   5   9   65.89    4.10
  -1  -5  -9   46.70    3.40
  -1  -5  -9   50.49    3.30
  -1  -5  -9   47.40    3.30
   1   5   9   51.09    3.30
   1   5   9   50.39    3.40
  -2  -5  -9    3.80    0.60
  -2  -5  -9    3.20    0.70
   2   5   9    4.00    0.50
   2   5   9    3.80    0.80
  -3  -5  -9    0.40    0.70
  -3  -5  -9    0.60    0.50
   3   5   9    0.40    0.40
  -4  -5  -9    1.50    0.80
  -4  -5  -9    1.50    0.70
   4   5   9    0.90    0.50
  -5  -5  -9    2.20    0.90
  -5  -5  -9    2.90    1.00
   5   5   9    1.50    0.70
  -6  -5  -9    0.10    0.90
  -6  -5  -9    0.30    1.00
   6   5   9   -0.20    0.70
  -7  -5  -9   -1.40    1.10
  -7  -5  -9   -0.30    1.00
   7   5   9    0.00    0.70
  -8  -5  -9    0.50    1.10
  -8  -5  -9    0.90    1.40
   8   5   9    0.20    1.00
  11  -6  -9    1.50    1.40
 -11   6   9   -1.30    1.10
  10  -6  -9   43.30    3.50
 -10   6   9   45.30    3.40
   9  -6  -9    7.30    1.20
  -9   6   9    8.50    1.20
   8  -6  -9    3.10    0.90
  -8   6   9    2.70    0.70
   7  -6  -9   19.80    1.70
  -7   6   9   18.10    1.60
   6  -6  -9    6.60    1.10
  -6   6   9    6.60    0.90
  -6   6   9    6.00    1.10
  -6   6   9    6.00    0.70
   5  -6  -9    0.40    0.60
  -5   6   9    0.10    0.40
  -5   6   9    0.50    0.40
   4  -6  -9   22.30    1.70
  -4   6   9   22.00    1.60
  -4   6   9   21.70    1.60
  -3   6   9    6.30    0.70
  -3   6   9    6.90    0.80
   2  -6  -9   11.70    1.00
  -2   6   9   11.70    1.00
   1  -6  -9    1.90    0.90
   1  -6  -9    1.80    0.50
   1  -6  -9    2.70    0.50
  -1   6   9    1.40    0.40
  -1   6   9    1.70    0.50
   0  -6  -9    0.90    0.50
   0  -6  -9    1.00    0.80
   0  -6  -9    0.90    0.50
   0   6   9    0.70    0.50
   0   6   9    1.00    0.40
  -1  -6  -9   18.30    1.70
  -1  -6  -9   14.10    1.30
  -1  -6  -9   17.50    1.40
   1   6   9   17.50    1.30
   1   6   9   15.30    1.50
  -2  -6  -9   10.00    1.20
   2   6   9    8.10    1.40
   2   6   9    8.30    0.90
  -3  -6  -9    2.10    0.70
  -3  -6  -9    3.20    0.90
   3   6   9    1.30    0.50
  -4  -6  -9    0.50    1.00
  -4  -6  -9    1.30    0.80
   4   6   9   -0.30    0.60
  -5  -6  -9    2.80    1.10
  -5  -6  -9    1.20    1.00
   5   6   9    1.10    0.70
  -6  -6  -9   -0.20    1.20
  -6  -6  -9    0.60    1.10
   6   6   9    0.10    0.80
  -7  -6  -9    8.10    1.50
  -7  -6  -9   10.50    1.60
   7   6   9    7.50    1.30
  11  -7  -9   10.80    1.80
 -11   7   9   10.40    1.60
  10  -7  -9    3.10    1.10
 -10   7   9    0.00    1.10
   9  -7  -9    6.80    1.40
  -9   7   9   10.00    1.50
   8  -7  -9    1.60    0.90
  -8   7   9    2.20    0.80
   7  -7  -9    1.60    0.80
  -7   7   9    1.50    0.40
  -7   7   9    1.10    0.70
   6  -7  -9   55.89    3.80
  -6   7   9   51.09    3.70
  -6   7   9   53.39    3.80
   5  -7  -9   27.90    2.20
  -5   7   9   29.30    2.10
  -5   7   9   28.00    2.10
   4  -7  -9    0.80    0.60
  -4   7   9    0.60    0.50
  -4   7   9    0.60    0.50
   3  -7  -9    1.00    0.50
   3  -7  -9    0.00    0.60
  -3   7   9   -0.10    0.40
  -3   7   9    0.30    0.40
   2  -7  -9   21.70    1.60
   2  -7  -9   18.10    1.70
  -2   7   9   22.00    1.60
  -2   7   9   21.40    1.70
   1  -7  -9   27.60    2.00
   1  -7  -9   26.60    2.00
  -1   7   9   25.90    2.10
  -1   7   9   25.80    1.90
   0  -7  -9    0.40    0.80
   0  -7  -9    1.00    0.60
   0   7   9    0.50    0.50
   0   7   9    0.10    0.60
  -1  -7  -9    4.70    1.20
  -1  -7  -9    6.20    0.90
  -1  -7  -9    5.80    1.00
   1   7   9    6.60    1.00
   1   7   9    7.10    1.10
  -2  -7  -9   -0.30    1.00
  -2  -7  -9    0.00    0.70
   2   7   9   -0.20    0.60
  -3  -7  -9    1.40    0.90
  -3  -7  -9    0.30    1.10
   3   7   9    1.30    0.80
  -4  -7  -9    2.20    1.10
  -4  -7  -9    3.90    1.30
   4   7   9    2.20    0.90
  -5  -7  -9   12.20    1.90
   5   7   9    7.40    1.10
  -6  -7  -9    4.40    1.60
  -6  -7  -9    9.80    1.60
   6   7   9    6.00    1.20
  11  -8  -9    1.40    1.50
 -11   8   9   -0.20    1.40
  10  -8  -9    8.20    1.40
 -10   8   9    5.30    1.40
   9  -8  -9    5.20    1.10
  -9   8   9    2.50    1.10
   8  -8  -9    2.00    1.20
  -8   8   9    2.00    0.90
   7  -8  -9    1.80    0.80
  -7   8   9   -0.70    0.70
  -7   8   9    0.20    0.40
   6  -8  -9    3.20    1.00
  -6   8   9    1.80    0.70
  -6   8   9    2.00    0.50
   5  -8  -9   26.80    2.40
  -5   8   9   31.00    2.20
  -5   8   9   31.70    2.30
   4  -8  -9    2.50    0.80
  -4   8   9    2.00    0.70
  -4   8   9    1.80    0.60
   3  -8  -9    1.90    0.70
  -3   8   9    1.30    0.60
  -3   8   9    1.70    0.60
   2  -8  -9   -0.40    0.70
  -2   8   9    0.20    0.50
  -2   8   9    0.70    0.60
   1  -8  -9    2.90    0.80
   1  -8  -9    5.00    0.80
  -1   8   9    3.20    0.80
  -1   8   9    2.80    0.70
   0  -8  -9   11.90    1.40
   0  -8  -9    9.60    1.30
   0   8   9   12.10    1.20
   0   8   9   12.30    1.50
  -1  -8  -9   38.30    2.80
   1   8   9   34.60    2.90
   1   8   9   36.30    2.70
  -2  -8  -9    1.10    1.00
   2   8   9    1.30    0.80
  -3  -8  -9   51.09    3.90
  -3  -8  -9   44.80    4.20
   3   8   9   48.10    4.20
  -4  -8  -9   10.10    1.60
  -4  -8  -9   11.80    2.10
   4   8   9    8.90    1.50
  -5  -8  -9   -0.30    1.40
  -5  -8  -9   -1.30    1.80
   5   8   9    0.70    1.10
  10  -9  -9    0.40    1.30
 -10   9   9   -0.70    1.50
   9  -9  -9    3.00    1.20
  -9   9   9    1.00    1.20
   8  -9  -9    2.50    1.10
  -8   9   9    2.70    1.30
   7  -9  -9   10.80    1.50
  -7   9   9    8.80    1.20
  -7   9   9    7.60    1.00
   6  -9  -9    3.20    1.20
  -6   9   9    2.40    0.90
  -6   9   9    3.00    0.60
   5  -9  -9   11.70    1.60
  -5   9   9   11.30    1.40
  -5   9   9   11.40    1.30
   4  -9  -9    4.30    1.00
  -4   9   9    6.30    1.10
  -4   9   9    6.50    1.10
   3  -9  -9   13.20    1.60
  -3   9   9   14.70    1.50
  -3   9   9   15.70    1.50
   2  -9  -9    2.70    0.90
  -2   9   9    3.30    0.80
  -2   9   9    2.30    0.80
   1  -9  -9    6.30    1.00
  -1   9   9    3.50    0.80
  -1   9   9    4.40    1.00
   0  -9  -9  103.39    6.90
   0   9   9  105.59    7.10
   0   9   9   99.99    6.90
  -1  -9  -9   17.80    2.00
   1   9   9   15.90    1.70
  -2  -9  -9   50.29    3.90
   2   9   9   49.30    3.70
  -3  -9  -9    3.10    1.40
   3   9   9   -0.20    1.00
  -4  -9  -9    3.00    1.60
   4   9   9    2.10    1.20
   9 -10  -9    3.10    1.30
   8 -10  -9    3.40    1.30
   7 -10  -9    3.10    1.20
  -7  10   9    0.70    1.80
  -7  10   9    2.30    0.60
   6 -10  -9    6.10    1.20
  -6  10   9    6.80    1.20
  -6  10   9    7.10    1.10
  -5  10   9    5.80    0.90
  -5  10   9    8.60    1.40
  -4  10   9   32.70    2.80
  -4  10   9   39.30    2.90
   3 -10  -9   38.40    2.90
  -3  10   9   35.30    3.20
  -3  10   9   33.20    2.80
   2 -10  -9   10.40    1.60
  -2  10   9   12.30    1.70
  -2  10   9    6.90    1.20
  -1  10   9    0.60    0.90
  -1  10   9    1.60    1.00
   0 -10  -9    2.00    1.90
   0  10   9   -0.70    1.00
   0  10   9    0.20    1.40
  -1 -10  -9   26.10    2.80
   1  10   9   25.80    2.40
  -2 -10  -9   -0.80    1.60
   2  10   9    1.60    1.20
  -3 -10  -9   14.00    2.10
   3  10   9   11.20    1.70
   8 -11  -9    4.80    1.40
   7 -11  -9    4.50    1.40
  -7  11   9    0.80    0.70
   6 -11  -9   44.80    3.40
  -6  11   9   38.30    3.00
   5 -11  -9   31.60    2.70
  -5  11   9   23.20    2.30
   4 -11  -9   53.59    4.30
  -4  11   9   59.89    4.10
   3 -11  -9    0.40    1.30
  -3  11   9   -0.20    0.90
  -2  11   9    5.20    1.50
  -2  11   9    7.50    1.30
  -1  11   9    2.70    1.30
  -1  11   9    5.10    1.40
   0  11   9   11.70    1.70
   1  11   9   -2.50    1.50
   5 -12  -9    8.60    1.80
  -5  12   9    9.30    1.60
   4 -12  -9   11.00    1.90
  -4  12   9   14.90    2.00
  -3  12   9   19.30    2.30
  -2  12   9    2.70    1.30
  -2  12 -10   -0.20    1.20
  -2  12 -10    2.80    1.40
  -3  12 -10    0.30    1.10
  -3  12 -10    2.30    1.20
   3 -12  10   -0.90    1.30
  -4  12 -10    5.30    1.30
  -4  12 -10    5.10    1.20
   4 -12  10    2.90    1.40
  -5  12 -10    1.60    1.00
  -5  12 -10    0.10    1.00
   5 -12  10    0.80    1.40
  -1 -11  10   -1.60    1.20
   0  11 -10    2.00    1.50
   0 -11  10   -0.20    1.20
  -1  11 -10    1.10    1.30
  -1  11 -10    0.30    1.00
  -1  11 -10    1.20    1.30
   1 -11  10    0.30    1.10
  -2  11 -10    0.10    1.10
  -2  11 -10    0.00    0.90
   2 -11  10   -0.20    1.10
  -3  11 -10    1.70    0.90
  -3  11 -10   -0.20    1.00
   3 -11  10    0.50    1.00
  -4  11 -10    0.60    0.80
  -4  11 -10    0.40    0.90
   4 -11  10   -0.70    1.00
  -5  11 -10    0.80    0.80
  -5  11 -10    0.70    0.90
   5 -11  10   -0.60    1.10
  -6  11 -10    0.20    0.80
  -6  11 -10    1.80    0.90
   6 -11  10    0.90    1.20
  -7  11 -10    0.60    0.90
   7 -11  10    3.80    1.50
  -8  11 -10    0.00    0.90
   8 -11  10    1.90    1.50
  -2 -10  10   -0.10    1.10
   0  10 -10    0.00    0.90
   0  10 -10   -0.40    1.60
   0 -10  10    0.10    1.00
  -1  10 -10    7.50    1.30
   1 -10  10    5.30    1.10
  -2  10 -10    0.20    1.20
   2 -10  10    0.40    0.90
  -3  10 -10   -0.10    0.70
  -3  10 -10   -1.00    1.10
   3 -10  10   -1.20    0.80
  -4  10 -10    0.00    0.70
  -4  10 -10   -0.50    0.80
   4 -10  10    0.50    0.90
  -5  10 -10    0.00    0.70
  -5  10 -10   -0.80    0.70
   5 -10  10    1.60    0.90
  -6  10 -10    0.10    0.80
  -6  10 -10    0.10    0.70
   6 -10  10    0.60    1.10
  -7  10 -10    2.20    0.90
   7 -10  10    0.00    1.10
  -8  10 -10    3.60    0.90
   8 -10  10    1.10    1.30
  -9  10 -10    2.00    1.00
   9 -10  10    1.00    1.50
  -4  -9  10   -1.10    1.20
  -3  -9  10   -1.70    1.00
  -2  -9  10   -0.20    0.90
   1   9 -10    0.20    0.70
   1   9 -10    0.90    1.20
  -1  -9  10   -0.60    0.80
   0   9 -10    1.10    1.00
   0   9 -10    0.30    0.70
   0  -9  10   -0.50    0.80
  -1   9 -10   -0.50    0.70
  -1   9 -10    0.20    0.90
   1  -9  10    0.30    0.70
  -2   9 -10   -0.50    0.80
   2  -9  10   -0.10    0.70
  -3   9 -10    1.70    0.80
  -3   9 -10    0.40    0.60
   3  -9  10    1.80    1.00
  -4   9 -10   11.50    1.70
  -4   9 -10    8.50    1.30
   4  -9  10    8.70    1.40
  -5   9 -10    4.80    0.80
  -5   9 -10    3.00    0.70
   5  -9  10    2.10    0.90
  -6   9 -10    2.00    0.70
  -6   9 -10    2.80    1.00
   6  -9  10    1.20    0.90
  -7   9 -10   -0.40    0.70
   7  -9  10   -1.00    1.20
  -8   9 -10    7.90    1.40
   8  -9  10    6.10    1.40
  -9   9 -10    2.00    0.90
   9  -9  10    0.70    1.20
 -10   9 -10    4.10    1.10
  10  -9  10    3.30    1.50
  -5  -8  10    3.50    1.20
  -4  -8  10    0.20    1.00
  -3  -8  10    1.00    0.90
   2   8 -10    0.10    0.70
  -2  -8  10    0.70    0.80
   1   8 -10    4.20    1.10
   1   8 -10    2.90    0.70
   0   8 -10    2.40    0.70
   0   8 -10    4.70    1.00
   0  -8  10    3.70    1.00
  -1   8 -10    3.10    0.80
  -1   8 -10    2.30    0.70
   1  -8  10    2.90    0.80
  -2   8 -10    5.50    0.90
  -2   8 -10    4.20    0.80
   2  -8  10    3.90    0.80
  -3   8 -10    1.80    0.70
  -3   8 -10    1.40    0.60
   3  -8  10    2.20    0.70
  -4   8 -10    8.60    1.20
  -4   8 -10    6.10    1.20
   4  -8  10    7.60    1.20
  -5   8 -10   15.20    1.50
  -5   8 -10   14.80    1.50
   5  -8  10   14.20    1.50
  -6   8 -10   12.40    1.20
  -6   8 -10   14.40    1.40
   6  -8  10   15.80    1.60
  -7   8 -10    7.30    1.20
   7  -8  10    7.70    1.40
  -8   8 -10   34.10    2.90
   8  -8  10   32.20    3.40
  -9   8 -10    3.10    0.90
   9  -8  10    2.50    1.10
 -10   8 -10    3.60    1.10
  10  -8  10    5.90    1.40
  -6  -7  10    1.60    1.20
  -6  -7  10   -1.10    1.40
  -5  -7  10    3.20    2.50
  -5  -7  10    1.30    1.00
  -4  -7  10   -1.40    1.20
  -4  -7  10   -0.80    0.80
   3   7 -10    0.50    0.60
  -3  -7  10    0.50    0.70
  -3  -7  10    1.60    1.10
   2   7 -10   20.80    2.00
   2   7 -10   19.20    1.70
  -2  -7  10   21.40    2.10
  -2  -7  10   16.40    1.70
   1   7 -10    0.90    0.60
   1   7 -10    1.10    0.80
  -1  -7  10    0.90    0.60
   0   7 -10    7.30    1.00
   0   7 -10    5.40    1.00
   0  -7  10    6.10    1.00
  -1   7 -10    1.90    0.50
  -1   7 -10    2.20    0.60
   1  -7  10    2.70    0.50
  -2   7 -10    4.80    0.90
   2  -7  10    6.50    0.90
  -3   7 -10    0.00    0.50
  -3   7 -10    0.20    0.50
   3  -7  10    0.40    0.50
  -4   7 -10   18.20    1.60
  -4   7 -10   19.40    1.50
   4  -7  10   16.00    1.60
  -5   7 -10    7.70    1.00
  -5   7 -10    7.60    0.90
   5  -7  10    9.30    1.10
  -6   7 -10   11.50    1.30
  -6   7 -10   13.10    1.20
  -6   7 -10   14.70    1.30
   6  -7  10   12.80    1.60
  -7   7 -10    9.30    1.20
   7  -7  10   11.00    1.50
  -8   7 -10    3.20    0.80
   8  -7  10    2.70    0.90
  -9   7 -10   13.40    1.50
   9  -7  10   15.10    2.10
 -10   7 -10   10.10    1.70
  10  -7  10   14.90    2.30
  11  -7  10    3.60    1.60
   7   6 -10    3.60    1.10
  -7  -6  10    0.60    1.40
  -7  -6  10    1.80    1.20
   6   6 -10    1.50    0.90
  -6  -6  10    1.20    1.30
  -6  -6  10    1.50    1.00
   5   6 -10    2.50    0.70
  -5  -6  10    1.50    0.90
  -5  -6  10    0.00    1.10
   4   6 -10    0.00    0.60
   4   6 -10    0.10    0.70
  -4  -6  10    0.80    1.00
  -4  -6  10    0.30    0.70
   3   6 -10    4.10    0.60
   3   6 -10    4.20    0.70
  -3  -6  10    2.40    0.90
  -3  -6  10    4.50    0.80
   2   6 -10   22.70    1.80
   2   6 -10   24.70    1.70
   2   6 -10   20.80    2.20
  -2  -6  10   26.10    1.90
  -2  -6  10   23.00    2.20
   1   6 -10   36.60    2.70
   1   6 -10   34.10    2.40
  -1  -6  10   31.60    2.40
  -1  -6  10   35.40    2.70
   0   6 -10    2.80    0.50
   0   6 -10    1.70    0.70
   0  -6  10    3.00    0.60
   0  -6  10    1.60    0.90
  -1   6 -10   18.00    1.80
  -1   6 -10   19.60    1.50
   1  -6  10   17.90    1.50
  -2   6 -10  157.38   10.00
  -2   6 -10  159.68   10.00
   2  -6  10  143.39   10.00
  -3   6 -10    2.40    0.50
  -3   6 -10    2.90    0.50
   3  -6  10    4.70    0.80
  -4   6 -10   13.90    1.20
  -5   6 -10    8.30    0.80
  -5   6 -10    7.70    1.00
   5  -6  10    6.10    1.00
  -6   6 -10   14.90    1.20
  -6   6 -10   13.10    1.30
   6  -6  10   14.80    1.40
  -7   6 -10   15.80    1.50
   7  -6  10   16.70    2.00
  -8   6 -10    1.70    0.70
   8  -6  10    1.50    0.80
  -9   6 -10    1.00    0.70
   9  -6  10    2.40    1.10
  10  -6  10    4.20    1.30
  11  -6  10   11.50    1.90
   8   5 -10    2.10    1.20
  -8  -5  10    0.50    1.30
  -8  -5  10    0.70    1.20
   7   5 -10    2.20    0.90
  -7  -5  10    0.30    1.00
  -7  -5  10   -0.50    1.10
   6   5 -10    3.30    0.80
  -6  -5  10    3.30    1.10
  -6  -5  10    3.70    1.00
   5   5 -10    0.30    0.60
  -5  -5  10    0.20    0.90
  -5  -5  10   -0.30    0.70
   4   5 -10    1.20    0.50
   4   5 -10    1.80    0.50
  -4  -5  10    1.20    0.80
  -4  -5  10    1.20    0.60
   3   5 -10    9.10    1.00
   3   5 -10    7.50    0.90
   3   5 -10    8.90    1.60
  -3  -5  10    8.10    1.00
  -3  -5  10   10.40    1.50
   2   5 -10    6.30    0.70
  -2  -5  10    7.30    0.90
   1   5 -10   15.00    1.40
   1   5 -10   16.00    1.20
  -1  -5  10   20.20    1.60
  -1  -5  10   15.70    1.30
   0   5 -10   76.29    5.50
   0   5 -10   91.49    5.50
   0  -5  10   76.29    5.60
   0  -5  10   87.89    5.60
  -1   5 -10   10.50    1.00
  -1   5 -10    8.90    0.80
   1  -5  10    8.30    1.20
  -2   5 -10    6.80    0.80
  -3   5 -10    8.20    1.00
   3  -5  10   11.10    1.00
  -4   5 -10    7.00    0.90
  -4   5 -10    9.10    0.80
  -5   5 -10    4.40    0.60
  -5   5 -10    3.30    0.60
  -5   5 -10    3.50    0.50
   5  -5  10    5.00    0.80
  -6   5 -10    5.10    0.90
   6  -5  10    6.70    1.00
  -7   5 -10    2.40    0.60
   7  -5  10    2.60    0.80
  -8   5 -10   20.40    1.70
   8  -5  10   18.50    2.00
  -9   5 -10    1.00    0.70
   9  -5  10    0.70    1.00
  10  -5  10    1.50    1.30
  11  -5  10    2.90    1.70
   9   4 -10    3.30    1.20
  -9  -4  10    0.20    1.50
  -9  -4  10    1.60    1.10
   8   4 -10    1.90    0.90
  -8  -4  10    2.40    1.10
  -8  -4  10    2.20    1.10
   7   4 -10    0.80    0.80
  -7  -4  10    0.70    0.90
  -7  -4  10   -1.30    0.90
   6   4 -10    6.40    1.10
  -6  -4  10    4.60    1.00
  -6  -4  10    6.00    0.90
   5   4 -10    0.70    0.50
  -5  -4  10    0.30    0.60
  -5  -4  10   -0.40    0.70
   4   4 -10  155.78   10.20
   4   4 -10  147.39   10.20
  -4  -4  10  164.28   10.30
  -4  -4  10  161.18   10.30
   3   4 -10   62.99    4.10
   3   4 -10   53.79    4.20
   3   4 -10   66.09    4.10
  -3  -4  10   68.19    4.10
  -3  -4  10   53.89    4.20
   2   4 -10   25.50    1.60
   2   4 -10   23.30    1.70
  -2  -4  10   19.70    1.80
   1   4 -10   73.49    5.50
   1   4 -10   83.09    5.40
   1   4 -10   86.59    5.30
  -1  -4  10   72.69    5.50
  -1  -4  10   93.09    5.40
   0   4 -10  118.19    8.00
   0   4 -10  125.39    8.00
   0  -4  10  128.09    8.00
   0  -4  10  116.79    8.00
  -1   4 -10   27.40    1.90
  -1   4 -10   25.20    1.80
   1  -4  10   26.20    1.90
   1  -4  10   26.90    2.00
  -2   4 -10   26.40    2.00
  -2   4 -10   28.50    2.00
   2  -4  10   29.40    2.10
   2  -4  10   29.90    2.00
  -3   4 -10   12.40    0.90
  -3   4 -10    9.20    1.00
   3  -4  10   10.90    1.00
  -4   4 -10    1.40    0.40
  -4   4 -10    1.60    0.40
  -5   4 -10   14.30    1.40
  -5   4 -10   15.60    1.20
  -5   4 -10   15.80    1.20
   5  -4  10   14.20    1.30
  -6   4 -10    2.80    0.60
  -6   4 -10    2.70    0.60
   6  -4  10    3.50    0.50
  -7   4 -10    0.00    0.60
  -7   4 -10    0.70    0.50
   7  -4  10    0.10    0.50
  -8   4 -10   14.00    1.50
  -8   4 -10   12.50    1.20
   8  -4  10   12.80    1.30
  -9   4 -10    0.90    0.90
   9  -4  10    0.60    1.00
 -10   4 -10    0.90    1.10
 -11   4 -10    0.80    1.30
   9   3 -10    2.40    1.00
  -9  -3  10    0.80    0.90
  -9  -3  10   -0.10    1.30
   8   3 -10    1.80    1.00
  -8  -3  10    2.00    0.90
  -8  -3  10    2.20    1.00
   7   3 -10    2.70    0.80
  -7  -3  10    2.00    0.80
  -7  -3  10    1.20    0.90
   6   3 -10   61.59    3.90
  -6  -3  10   58.79    3.90
  -6  -3  10   48.90    3.90
   5   3 -10    0.50    0.40
  -5  -3  10    0.10    0.60
  -5  -3  10    1.10    0.50
  -5  -3  10    0.20    0.50
   4   3 -10   22.30    1.50
  -4  -3  10   16.90    1.80
  -4  -3  10   22.60    1.70
   3   3 -10   24.70    1.70
  -3  -3  10   25.80    1.70
  -3  -3  10   21.60    1.70
   2   3 -10   14.50    1.10
   2   3 -10   11.50    1.30
  -2  -3  10   16.70    1.10
  -2  -3  10   14.20    1.10
  -2  -3  10   12.10    1.20
   1   3 -10    4.60    0.50
  -1  -3  10    5.50    0.50
  -1  -3  10    4.00    0.50
   0   3 -10   82.09    5.40
   0   3 -10   84.29    5.40
   0  -3  10   79.29    5.50
   0  -3  10   84.29    5.40
  -1   3 -10    1.10    0.30
  -1   3 -10    1.20    0.30
   1  -3  10    1.10    0.40
   1  -3  10    0.90    0.20
  -2   3 -10    1.60    0.30
   2  -3  10    1.80    0.30
   2  -3  10    2.10    0.40
  -3   3 -10    1.30    0.30
  -3   3 -10    1.50    0.30
  -3   3 -10    1.50    0.40
   3  -3  10    1.80    0.40
  -4   3 -10   23.50    1.70
  -4   3 -10   23.00    1.60
  -4   3 -10   23.60    1.70
  -4   3 -10   24.10    1.70
   4  -3  10   23.70    1.60
  -5   3 -10    4.00    0.50
  -5   3 -10    3.60    0.60
  -5   3 -10    3.80    0.70
  -6   3 -10    0.80    0.40
  -6   3 -10    0.50    0.50
  -6   3 -10    0.50    0.30
  -6   3 -10   -0.40    0.40
   6  -3  10   -0.30    0.40
  -7   3 -10    1.70    0.50
  -7   3 -10    1.40    0.60
  -8   3 -10    0.40    0.90
   8  -3  10    1.80    0.60
  -9   3 -10    5.70    1.10
   9  -3  10    6.70    1.00
 -10   3 -10   -0.10    1.10
  10  -3  10    0.30    1.00
 -11   3 -10   12.50    2.30
  10   2 -10   46.50    3.30
 -10  -2  10   33.50    2.90
  -9  -2  10   10.60    1.40
   8   2 -10    5.50    1.00
  -8  -2  10    3.10    0.80
  -8  -2  10    4.40    0.90
  -7  -2  10   21.70    1.80
  -7  -2  10   22.50    1.80
  -7  -2  10   17.80    1.80
   6   2 -10    5.80    0.90
  -6  -2  10    5.70    0.80
  -6  -2  10    5.10    0.90
  -6  -2  10    5.00    0.80
   5   2 -10    9.80    0.90
  -5  -2  10    9.10    1.10
  -5  -2  10   10.70    1.00
  -5  -2  10    9.50    1.00
   4   2 -10    0.80    0.80
   4   2 -10    0.80    0.30
  -4  -2  10    0.90    0.40
  -4  -2  10    1.30    0.40
  -4  -2  10    1.00    0.40
   3   2 -10    5.80    0.60
   3   2 -10    3.90    0.70
  -3  -2  10    4.90    0.70
  -3  -2  10    6.30    0.60
  -3  -2  10    5.40    0.60
   2   2 -10    0.90    0.40
   2   2 -10    0.50    0.20
  -2  -2  10    1.10    0.30
  -2  -2  10    0.90    0.30
  -2  -2  10    1.30    0.40
   1   2 -10   51.19    3.40
   1   2 -10   44.90    3.40
  -1  -2  10   53.29    3.40
  -1  -2  10   55.09    3.40
  -1  -2  10   51.39    3.40
   0   2 -10    9.00    0.90
   0   2 -10    9.80    0.80
   0  -2  10   12.30    1.10
   0  -2  10   11.40    0.80
   0  -2  10   12.00    0.80
  -1   2 -10  122.59    8.00
  -1   2 -10  119.79    8.00
   1  -2  10  119.49    8.00
   1  -2  10  131.19    8.00
  -2   2 -10    6.40    0.50
  -2   2 -10    4.90    0.50
   2  -2  10    6.20    0.50
   2  -2  10    6.30    0.70
  -3   2 -10   23.50    1.70
  -3   2 -10   23.00    1.70
  -3   2 -10   26.00    1.70
  -3   2 -10   24.40    1.70
   3  -2  10   27.60    1.70
  -4   2 -10   15.10    1.10
  -4   2 -10   14.40    1.10
  -4   2 -10   15.10    1.10
   4  -2  10   13.20    1.10
  -5   2 -10    0.30    0.40
  -5   2 -10    0.70    0.40
  -5   2 -10    0.90    0.50
  -5   2 -10    0.80    0.40
   5  -2  10    1.00    0.40
  -6   2 -10    5.00    0.70
  -6   2 -10    4.30    0.60
  -6   2 -10    6.00    0.90
  -6   2 -10    5.30    0.80
   6  -2  10    4.20    0.70
  -7   2 -10   52.39    3.60
  -7   2 -10   47.30    3.50
   7  -2  10   54.99    3.50
  -8   2 -10    0.10    0.70
   8  -2  10    0.90    0.60
  -9   2 -10    2.60    0.90
   9  -2  10    2.10    0.80
 -10   2 -10    0.20    1.10
  10  -2  10   -1.80    1.90
 -11   2 -10    0.20    1.40
  11  -2  10    3.80    1.40
  10   1 -10    2.80    1.30
   9   1 -10    2.60    1.10
  -9  -1  10    2.80    0.80
  -8  -1  10    0.20    0.70
  -8  -1  10   -0.10    0.80
  -8  -1  10   -0.70    0.60
   7   1 -10   14.30    1.30
  -7  -1  10   13.80    1.40
  -7  -1  10   14.40    1.40
  -7  -1  10   16.00    1.40
   6   1 -10   23.70    1.80
  -6  -1  10   24.20    1.90
  -6  -1  10   26.50    1.90
  -6  -1  10   24.10    1.90
   5   1 -10   15.60    1.20
  -5  -1  10   12.30    1.20
  -5  -1  10   15.80    1.20
  -5  -1  10   13.70    1.20
   4   1 -10    8.50    1.10
   4   1 -10    6.90    0.80
  -4  -1  10    7.50    0.70
  -4  -1  10    6.80    0.70
  -4  -1  10    8.20    0.70
   3   1 -10   29.10    2.20
   3   1 -10   28.40    2.10
  -3  -1  10   31.60    2.10
  -3  -1  10   33.20    2.10
  -3  -1  10   32.90    2.20
   2   1 -10   15.00    1.30
   2   1 -10   16.60    1.20
  -2  -1  10   16.60    1.20
  -2  -1  10   17.00    1.20
  -2  -1  10   17.80    1.20
   1   1 -10    4.00    0.40
   1   1 -10    3.80    0.50
  -1  -1  10    3.50    0.50
  -1  -1  10    3.40    0.40
  -1  -1  10    3.10    0.40
   0   1 -10    2.50    0.40
   0   1 -10    2.60    0.40
   0  -1  10    3.00    0.30
   0  -1  10    3.50    0.60
   0  -1  10    2.70    0.40
  -1   1 -10  133.39    8.30
  -1   1 -10  131.49    8.30
  -1   1 -10  133.89    8.30
   1  -1  10  120.59    8.30
   1  -1  10  122.59    8.30
  -2   1 -10   55.09    3.60
  -2   1 -10   52.69    3.50
  -2   1 -10   53.89    3.50
  -2   1 -10   51.49    3.50
   2  -1  10   55.99    3.60
   2  -1  10   53.49    3.50
  -3   1 -10  118.29    7.30
  -3   1 -10  106.49    7.30
  -3   1 -10  112.79    7.40
  -3   1 -10  120.09    7.30
   3  -1  10  106.79    7.40
   3  -1  10  113.29    7.30
  -4   1 -10   18.60    1.40
  -4   1 -10   17.60    1.30
  -4   1 -10   18.40    1.30
  -4   1 -10   19.90    1.40
  -5   1 -10   19.10    1.50
  -5   1 -10   16.40    1.30
  -5   1 -10   16.80    1.30
  -5   1 -10   17.60    1.40
  -6   1 -10    4.50    0.70
  -6   1 -10    4.00    0.60
  -6   1 -10    3.90    0.70
  -6   1 -10    3.60    0.60
   6  -1  10    5.30    0.80
  -7   1 -10    1.00    0.40
  -7   1 -10    0.10    0.50
  -7   1 -10    1.10    0.70
   7  -1  10    1.30    0.60
   8  -1  10    0.40    0.70
  -9   1 -10    1.40    1.00
   9  -1  10   -0.20    0.80
 -10   1 -10    0.90    1.20
  10  -1  10    1.60    1.00
 -11   1 -10    7.90    1.70
  11  -1  10   14.00    2.20
  11   0 -10    2.10    1.50
  10   0 -10    2.10    1.10
  -9   0  10    0.80    1.10
  -9   0  10   -0.40    0.80
   8   0 -10    1.30    0.70
  -8   0  10   -0.70    0.50
  -8   0  10    0.00    0.90
  -8   0  10    1.00    0.80
   7   0 -10   -0.30    0.60
  -7   0  10    0.20    0.50
  -7   0  10    0.90    0.50
  -7   0  10    0.60    0.60
   6   0 -10   14.30    1.50
  -6   0  10   13.30    1.20
  -6   0  10   12.60    1.20
  -6   0  10   12.90    1.10
   5   0 -10   22.50    1.70
  -5   0  10   23.10    1.80
  -5   0  10   22.80    1.60
  -5   0  10   19.90    1.60
   4   0 -10   25.50    1.90
   4   0 -10   25.30    1.80
  -4   0  10   24.50    1.70
  -4   0  10   24.80    1.70
  -4   0  10   23.50    1.70
   3   0 -10    7.70    0.80
  -3   0  10   10.10    0.90
  -3   0  10    7.90    0.70
  -3   0  10    6.60    0.60
  -3   0  10    7.20    0.70
   2   0 -10  288.47   18.70
   2   0 -10  290.07   18.70
  -2   0  10  296.77   18.60
  -2   0  10  286.27   18.70
  -2   0  10  286.97   18.70
   1   0 -10    6.10    0.70
  -1   0  10    6.30    0.50
  -1   0  10    7.20    0.60
  -1   0  10    6.80    0.50
   0   0 -10  186.68   12.10
   0   0 -10  187.88   12.10
   0   0  10  192.18   12.10
   0   0  10  180.68   12.10
  -1   0 -10  111.49    7.50
  -1   0 -10   98.09    7.50
  -1   0 -10  110.99    7.50
   1   0  10  131.19    7.50
   1   0  10  129.79    7.60
  -2   0 -10   59.69    3.80
  -2   0 -10   54.19    3.80
  -2   0 -10   56.79    3.80
  -2   0 -10   56.99    3.80
   2   0  10   59.69    3.80
   2   0  10   58.49    3.80
  -3   0 -10    7.10    0.60
  -3   0 -10    5.20    0.50
   3   0  10    6.00    0.70
  -4   0 -10   58.09    3.70
  -4   0 -10   54.69    3.70
  -4   0 -10   54.99    3.70
  -4   0 -10   54.79    3.80
   4   0  10   57.69    3.70
  -5   0 -10   20.20    1.50
  -5   0 -10   16.10    1.70
  -5   0 -10   15.70    1.30
  -5   0 -10   18.90    1.40
   5   0  10   18.90    1.40
  -6   0 -10   25.40    1.80
  -6   0 -10   24.50    2.00
   6   0  10   25.50    1.80
  -7   0 -10    0.30    0.70
  -7   0 -10    0.80    0.50
   7   0  10    0.20    0.50
  -8   0 -10   23.10    1.80
  -8   0 -10   24.40    2.50
   8   0  10   23.00    1.90
  -9   0 -10   30.10    3.10
   9   0  10   26.80    2.30
 -10   0 -10    1.50    1.30
  10   0  10    5.60    1.20
 -11   0 -10   10.10    1.80
  11   0  10   10.20    1.60
  11  -1 -10    2.10    1.40
 -10   1  10    0.80    1.10
  -9   1  10    0.20    0.50
  -9   1  10    1.00    0.90
   8  -1 -10   -0.80    0.70
  -8   1  10   -0.40    0.50
  -8   1  10   -0.70    0.70
   7  -1 -10    6.80    1.00
  -7   1  10    6.30    0.90
  -7   1  10    5.60    0.90
  -7   1  10    6.20    0.80
  -6   1  10    6.30    0.70
  -6   1  10    6.90    1.00
  -6   1  10    7.20    0.80
   5  -1 -10   42.70    2.90
  -5   1  10   40.20    2.90
   4  -1 -10   17.00    1.30
   4  -1 -10   14.60    1.40
  -4   1  10   16.40    1.40
  -4   1  10   18.70    1.30
  -4   1  10   18.00    1.20
   3  -1 -10  146.39    9.40
   3  -1 -10  141.89    9.40
  -3   1  10  132.29    9.40
  -3   1  10  150.28    9.40
  -3   1  10  154.58    9.40
   2  -1 -10   78.49    5.50
   2  -1 -10   84.09    5.50
  -2   1  10   88.59    5.50
  -2   1  10   85.29    5.50
   1  -1 -10    2.30    0.30
   1  -1 -10    2.90    0.50
  -1   1  10    1.10    0.30
  -1   1  10    1.70    0.20
   0  -1 -10   11.30    0.80
   0   1  10   10.80    0.90
   0   1  10   11.30    0.80
  -1  -1 -10   10.40    0.80
  -1  -1 -10   10.90    0.90
  -1  -1 -10   11.10    0.80
   1   1  10   10.50    0.90
   1   1  10   10.60    0.80
  -2  -1 -10   81.99    5.10
  -2  -1 -10   79.49    5.20
  -2  -1 -10   81.19    5.20
   2   1  10   77.99    5.20
   2   1  10   73.19    5.10
  -3  -1 -10    2.10    0.30
  -3  -1 -10    1.90    0.30
  -3  -1 -10    2.20    0.30
  -3  -1 -10    1.40    0.60
   3   1  10    2.00    0.30
   3   1  10    3.30    0.50
  -4  -1 -10    1.80    0.30
  -4  -1 -10    3.00    0.50
  -4  -1 -10    1.60    0.70
   4   1  10    2.60    0.40
  -5  -1 -10   24.10    1.80
  -5  -1 -10   24.50    1.90
   5   1  10   24.30    1.80
  -6  -1 -10   10.70    1.10
  -6  -1 -10    9.00    1.20
   6   1  10   11.30    1.00
  -7  -1 -10   14.60    1.60
  -7  -1 -10   14.60    1.40
   7   1  10   14.40    1.40
  -8  -1 -10   53.29    4.40
  -8  -1 -10   56.39    3.80
   8   1  10   52.09    3.80
  -9  -1 -10   13.80    2.10
  -9  -1 -10   13.60    1.50
   9   1  10   15.20    1.70
 -10  -1 -10   26.80    2.90
  10   1  10   23.30    2.40
 -11   2  10    5.10    1.30
 -10   2  10   -0.80    1.00
   9  -2 -10    4.60    1.00
  -9   2  10    5.20    1.40
   8  -2 -10   12.60    1.40
  -8   2  10   11.20    1.30
  -8   2  10   13.20    1.10
   7  -2 -10   21.90    1.80
  -7   2  10   21.90    1.70
  -7   2  10   22.60    1.60
  -7   2  10   20.90    1.70
   6  -2 -10   21.30    1.60
  -6   2  10   20.90    1.50
  -6   2  10   20.20    1.60
  -6   2  10   19.30    1.60
   5  -2 -10    8.20    0.80
  -5   2  10    8.30    1.10
   4  -2 -10   19.90    1.30
  -4   2  10   17.70    1.30
  -4   2  10   17.50    1.40
  -4   2  10   17.60    1.30
   3  -2 -10    2.40    0.50
   3  -2 -10    1.20    0.30
  -3   2  10    1.20    0.30
  -3   2  10    1.30    0.20
   2  -2 -10   13.00    1.10
   2  -2 -10   12.80    1.00
  -2   2  10   12.50    1.20
  -2   2  10   12.60    1.00
  -2   2  10   12.80    0.90
   1  -2 -10  135.19    9.00
   1  -2 -10  143.89    9.00
  -1   2  10  138.69    9.00
  -1   2  10  136.49    9.00
   0  -2 -10    1.50    0.30
   0  -2 -10    2.00    0.30
   0  -2 -10    1.60    0.30
   0   2  10    1.80    0.30
   0   2  10    1.60    0.20
  -1  -2 -10    5.90    0.60
  -1  -2 -10    6.80    0.70
  -1  -2 -10    5.90    0.60
   1   2  10    6.10    0.70
   1   2  10    6.10    0.50
  -2  -2 -10   78.99    5.00
  -2  -2 -10   76.19    5.00
  -2  -2 -10   78.59    5.00
   2   2  10   73.09    5.00
   2   2  10   74.19    5.00
  -3  -2 -10  103.39    6.60
  -3  -2 -10   99.09    6.60
   3   2  10  100.09    6.60
   3   2  10  100.49    6.60
  -4  -2 -10   21.60    1.70
  -4  -2 -10   25.80    1.90
   4   2  10   20.00    1.60
  -5  -2 -10  164.48   10.80
  -5  -2 -10  166.08   10.80
   5   2  10  165.48   10.80
  -6  -2 -10   14.00    1.50
  -6  -2 -10   17.10    1.40
   6   2  10   14.00    1.30
  -7  -2 -10   82.49    5.40
  -7  -2 -10   76.69    5.80
   7   2  10   79.09    5.50
  -8  -2 -10    6.90    1.80
   8   2  10    7.80    1.20
  -9  -2 -10    6.10    1.40
  -9  -2 -10    4.90    0.90
   9   2  10    4.80    1.10
 -10  -2 -10    1.20    0.80
 -10  -2 -10    0.20    1.50
  10   2  10    0.70    1.20
 -11   3  10    0.80    1.10
  10  -3 -10    1.80    1.20
 -10   3  10    2.30    1.00
   9  -3 -10   15.80    1.80
  -9   3  10   16.10    1.80
   8  -3 -10    5.40    0.90
  -8   3  10    4.50    0.80
  -8   3  10    7.10    1.00
   7  -3 -10    0.10    0.50
  -7   3  10    0.30    0.50
  -7   3  10    0.80    0.30
  -7   3  10    0.40    0.50
   6  -3 -10    5.00    0.70
  -6   3  10    4.40    0.80
  -6   3  10    5.70    0.80
  -6   3  10    5.60    0.60
   5  -3 -10    7.00    1.10
  -5   3  10    9.50    0.80
  -5   3  10    8.70    0.90
  -5   3  10    8.80    0.90
   4  -3 -10  105.39    7.00
  -4   3  10   99.39    7.00
  -4   3  10  112.49    7.00
  -4   3  10  113.69    7.10
   3  -3 -10    8.20    0.80
   3  -3 -10    9.20    1.00
  -3   3  10   10.20    0.80
  -3   3  10    9.40    0.80
   2  -3 -10    2.00    0.40
   2  -3 -10    1.80    0.30
  -2   3  10    1.90    0.30
  -2   3  10    3.10    0.60
  -2   3  10    1.20    0.30
   1  -3 -10    0.10    0.40
   1  -3 -10   -0.10    0.30
  -1   3  10    0.30    0.20
  -1   3  10    0.70    0.30
   0  -3 -10   49.50    3.00
   0  -3 -10   46.50    3.10
   0  -3 -10   46.70    3.00
   0   3  10   41.80    3.00
   0   3  10   41.20    3.00
  -1  -3 -10  297.17   19.20
  -1  -3 -10  297.67   19.20
  -1  -3 -10  297.17   19.10
   1   3  10  297.87   19.20
   1   3  10  294.57   19.10
  -2  -3 -10  495.65   31.90
  -2  -3 -10  530.25   31.90
  -2  -3 -10  512.15   31.90
   2   3  10  473.35   31.90
   2   3  10  464.15   31.90
  -3  -3 -10   23.10    1.70
  -3  -3 -10   23.40    1.70
   3   3  10   20.00    1.80
   3   3  10   22.90    1.60
  -4  -3 -10  191.08   11.90
   4   3  10  172.98   11.80
  -5  -3 -10   76.19    5.30
  -5  -3 -10   79.49    5.30
   5   3  10   78.59    5.20
  -6  -3 -10    9.00    1.20
  -6  -3 -10    7.80    1.10
   6   3  10   11.60    1.30
  -7  -3 -10    1.40    0.80
  -7  -3 -10    0.50    1.20
   7   3  10    0.70    0.70
  -8  -3 -10   -1.30    0.80
   8   3  10    1.60    0.80
  -9  -3 -10   -1.10    0.90
  -9  -3 -10   -0.10    1.40
   9   3  10   -0.30    1.00
 -11   4  10    4.50    1.30
  10  -4 -10   -1.10    1.10
 -10   4  10    0.90    0.90
   9  -4 -10    2.20    0.90
  -9   4  10    1.90    0.90
   8  -4 -10    1.50    0.70
  -8   4  10    2.30    0.70
   7  -4 -10    6.40    1.00
  -7   4  10    6.30    0.90
  -7   4  10    6.70    0.90
  -7   4  10    5.60    0.70
   6  -4 -10   -0.10    0.50
  -6   4  10   -0.20    0.30
  -6   4  10    0.20    0.50
  -6   4  10   -0.10    0.50
   5  -4 -10    2.10    0.50
  -5   4  10    3.50    0.50
  -5   4  10    1.40    0.50
  -5   4  10    2.80    0.50
  -4   4  10  336.47   21.60
  -4   4  10  339.27   21.60
  -4   4  10  328.17   21.60
   3  -4 -10  127.89    8.70
   3  -4 -10  123.59    8.70
  -3   4  10  142.89    8.70
  -3   4  10  139.19    8.70
   2  -4 -10  342.47   22.50
   2  -4 -10  341.67   22.50
  -2   4  10  357.46   22.50
  -2   4  10  353.46   22.50
   1  -4 -10  243.68   15.80
   1  -4 -10  231.88   15.90
   1  -4 -10  237.98   15.80
  -1   4  10  251.87   15.90
  -1   4  10  259.47   15.80
   0  -4 -10    2.70    0.40
   0   4  10    2.20    0.40
   0   4  10    2.10    0.50
  -1  -4 -10  139.59   10.00
  -1  -4 -10  148.39   10.00
  -1  -4 -10  153.08   10.00
   1   4  10  164.88   10.00
   1   4  10  163.18   10.00
  -2  -4 -10    3.00    0.50
  -2  -4 -10    2.60    0.50
  -2  -4 -10    3.80    0.70
  -3  -4 -10   19.20    1.50
   3   4  10   17.00    1.40
  -4  -4 -10   10.40    1.30
  -4  -4 -10   11.30    1.30
   4   4  10   11.40    1.00
  -5  -4 -10    2.20    0.80
  -5  -4 -10    2.60    0.80
   5   4  10    3.20    0.70
  -6  -4 -10    0.20    0.80
  -6  -4 -10   -0.10    0.90
   6   4  10    0.60    0.70
  -7  -4 -10    3.00    0.90
  -7  -4 -10    3.50    1.10
   7   4  10    2.10    0.80
  -8  -4 -10   -0.30    0.90
  -8  -4 -10   -2.70    1.30
   8   4  10    0.50    0.90
  -9  -4 -10    0.30    1.10
  -9  -4 -10   -0.20    1.50
   9   4  10    0.70    1.10
  11  -5 -10   13.30    1.90
 -11   5  10   12.20    1.60
  10  -5 -10    5.50    1.60
 -10   5  10    4.40    1.10
   9  -5 -10    0.50    0.90
  -9   5  10    3.30    0.90
   8  -5 -10   16.50    1.60
  -8   5  10   14.10    1.50
   7  -5 -10    8.50    1.20
  -7   5  10    8.60    0.80
  -7   5  10    8.40    1.10
  -7   5  10    9.00    1.00
   6  -5 -10    7.30    1.00
  -6   5  10    5.30    0.70
  -6   5  10    4.30    0.70
  -6   5  10    5.10    0.80
   5  -5 -10  185.68   12.90
  -5   5  10  201.08   12.90
  -5   5  10  207.08   12.80
   4  -5 -10  100.59    6.00
  -4   5  10   82.39    5.90
  -4   5  10   86.29    5.90
  -3   5  10    6.00    0.90
   2  -5 -10   47.70    3.20
   2  -5 -10   50.89    3.10
  -2   5  10   40.50    3.10
  -2   5  10   43.20    3.10
   1  -5 -10   31.40    2.30
   1  -5 -10   31.70    2.10
   1  -5 -10   27.90    2.10
  -1   5  10   31.10    2.20
   0  -5 -10    5.10    0.70
   0   5  10    3.40    0.60
   0   5  10    4.40    0.60
  -1  -5 -10   30.40    2.10
  -1  -5 -10   25.60    1.90
  -1  -5 -10   27.20    1.90
   1   5  10   24.40    2.00
   1   5  10   24.70    1.90
  -2  -5 -10    5.40    0.90
  -2  -5 -10    5.70    0.90
  -2  -5 -10    5.10    0.70
  -3  -5 -10    4.40    0.90
  -3  -5 -10    4.70    0.70
   3   5  10    3.60    0.60
  -4  -5 -10    3.20    0.90
  -4  -5 -10    2.90    0.80
   4   5  10    2.10    0.80
  -5  -5 -10    1.20    1.00
  -5  -5 -10    0.50    0.90
   5   5  10    1.50    0.80
  -6  -5 -10   -2.30    1.60
  -6  -5 -10    1.20    1.00
   6   5  10    0.40    0.80
  -7  -5 -10   -1.10    1.20
  -7  -5 -10    0.30    1.00
   7   5  10   -0.10    0.80
  -8  -5 -10    2.50    1.20
  -8  -5 -10    2.10    1.50
   8   5  10    4.20    1.10
  11  -6 -10    4.50    1.60
 -11   6  10    0.80    1.20
  10  -6 -10   49.00    3.70
 -10   6  10   45.50    3.60
   9  -6 -10   68.39    4.90
  -9   6  10   72.09    4.90
   8  -6 -10   27.70    2.30
  -8   6  10   29.20    2.30
   7  -6 -10    3.80    0.90
  -7   6  10    3.30    0.80
  -7   6  10    1.90    0.80
  -7   6  10    5.80    0.90
   6  -6 -10    1.90    0.70
  -6   6  10    1.50    0.40
  -6   6  10    2.20    0.60
   5  -6 -10    9.80    1.20
  -5   6  10   13.10    1.10
  -5   6  10   12.20    1.10
   4  -6 -10    2.00    0.60
  -4   6  10    1.20    0.40
  -4   6  10    1.30    0.50
   3  -6 -10   12.30    1.20
  -3   6  10   12.60    1.10
  -3   6  10   12.00    1.00
   2  -6 -10    0.80    0.50
   2  -6 -10    0.30    0.50
  -2   6  10    0.90    0.50
  -2   6  10    1.10    0.40
   1  -6 -10    1.50    0.50
   1  -6 -10    1.10    0.80
   1  -6 -10    1.50    0.50
  -1   6  10    0.60    0.50
  -1   6  10    1.30    0.40
   0  -6 -10   29.70    2.10
   0  -6 -10   30.40    2.10
   0  -6 -10   28.20    2.40
   0   6  10   29.40    2.10
   0   6  10   28.90    2.20
  -1  -6 -10   20.40    1.90
  -1  -6 -10   19.00    1.50
  -1  -6 -10   18.70    1.50
   1   6  10   16.80    1.40
   1   6  10   17.30    1.70
  -2  -6 -10    1.20    0.70
  -2  -6 -10    1.60    1.00
   2   6  10    0.80    0.90
   2   6  10    1.70    0.50
  -3  -6 -10    5.60    0.90
  -3  -6 -10    6.40    1.10
   3   6  10    5.20    0.90
  -4  -6 -10    8.50    1.50
  -4  -6 -10    9.30    1.70
   4   6  10    6.80    1.20
  -5  -6 -10    3.20    1.10
  -5  -6 -10    0.10    1.10
   5   6  10    1.50    1.40
  -6  -6 -10    5.20    1.30
  -6  -6 -10    4.70    1.30
   6   6  10    4.20    1.00
  -7  -6 -10   -1.40    1.50
  -7  -6 -10   -0.20    1.20
   7   6  10   -0.80    0.90
  11  -7 -10   13.00    1.90
 -11   7  10   12.30    1.70
  10  -7 -10    2.70    1.20
 -10   7  10    1.80    1.20
   9  -7 -10    7.00    1.20
  -9   7  10    8.50    2.00
   8  -7 -10    1.70    0.90
  -8   7  10   -0.40    0.80
   7  -7 -10    0.60    0.80
  -7   7  10    0.90    0.70
  -7   7  10    0.50    0.40
   6  -7 -10   22.60    1.90
  -6   7  10   20.90    1.80
  -6   7  10   21.70    1.70
   5  -7 -10    7.80    1.10
  -5   7  10    6.80    0.90
  -5   7  10    5.50    0.90
   4  -7 -10    4.70    0.80
  -4   7  10    5.00    0.80
  -4   7  10    4.70    0.70
   3  -7 -10   19.50    1.60
  -3   7  10   18.90    1.50
  -3   7  10   19.80    1.60
   2  -7 -10   10.50    1.10
   2  -7 -10    7.30    1.10
  -2   7  10    8.60    0.90
  -2   7  10    7.40    1.10
   1  -7 -10    4.10    0.70
   1  -7 -10    2.60    0.70
  -1   7  10    4.30    0.60
  -1   7  10    5.10    0.80
   0  -7 -10   -0.20    0.60
   0   7  10   -0.70    0.60
   0   7  10    0.30    0.50
  -1  -7 -10    1.00    1.20
  -1  -7 -10   -0.20    0.70
   1   7  10    0.50    0.70
   1   7  10    0.50    0.60
  -2  -7 -10   40.10    3.10
  -2  -7 -10   43.20    3.40
   2   7  10   41.20    3.00
  -3  -7 -10    0.00    1.30
  -3  -7 -10    0.50    0.90
   3   7  10   -0.10    0.60
  -4  -7 -10    3.40    1.10
  -4  -7 -10   -0.30    1.30
   4   7  10    0.00    0.90
  -5  -7 -10    2.40    1.50
  -5  -7 -10    6.70    1.40
   5   7  10    4.80    1.00
  -6  -7 -10    5.40    1.60
  -6  -7 -10    8.80    1.70
   6   7  10    5.80    1.30
  11  -8 -10   -1.30    1.60
 -11   8  10    0.50    1.50
  10  -8 -10    2.70    1.30
 -10   8  10    2.60    1.30
   9  -8 -10   -0.10    1.00
  -9   8  10    0.20    1.00
   8  -8 -10    6.70    1.10
  -8   8  10    4.90    1.00
   7  -8 -10    0.80    0.90
  -7   8  10    0.40    0.50
  -7   8  10    0.50    0.80
   6  -8 -10   15.10    1.70
  -6   8  10   13.90    1.30
  -6   8  10   12.50    1.40
  -5   8  10   10.00    1.20
  -5   8  10    9.30    1.20
   4  -8 -10    4.80    0.90
  -4   8  10    5.80    1.00
  -4   8  10    5.50    0.80
   3  -8 -10    1.60    0.70
  -3   8  10    1.60    0.60
  -3   8  10    1.20    0.60
   2  -8 -10   45.50    3.70
  -2   8  10   58.49    3.80
  -2   8  10   55.09    3.70
   1  -8 -10    8.70    1.20
   1  -8 -10    6.90    1.20
  -1   8  10    9.50    1.30
  -1   8  10    6.90    1.00
   0  -8 -10    0.70    0.80
   0  -8 -10   -1.30    0.70
   0   8  10   -0.90    0.70
   0   8  10    0.50    0.60
  -1  -8 -10   21.40    2.10
   1   8  10   22.90    1.90
   1   8  10   21.60    2.20
  -2  -8 -10   16.30    1.90
   2   8  10   15.90    1.70
   3   8  10    2.90    0.90
  -4  -8 -10   21.70    3.00
  -4  -8 -10   28.00    2.60
   4   8  10   21.60    2.20
  -5  -8 -10    5.70    1.50
  -5  -8 -10    1.90    1.80
   5   8  10    2.40    1.10
  10  -9 -10   -0.40    1.40
 -10   9  10    0.70    1.40
   9  -9 -10    0.20    1.20
  -9   9  10    0.50    1.20
   8  -9 -10    7.20    1.30
  -8   9  10    5.50    1.20
   7  -9 -10    1.90    1.00
  -7   9  10    0.40    0.50
  -7   9  10    0.60    1.30
   6  -9 -10    1.10    1.00
  -6   9  10    2.90    0.80
  -6   9  10    2.20    0.80
   5  -9 -10    2.60    0.90
  -5   9  10    0.50    0.60
  -5   9  10    1.50    0.80
   4  -9 -10    2.80    0.90
  -4   9  10    1.00    0.70
  -4   9  10    2.40    0.80
   3  -9 -10    2.10    0.90
  -3   9  10    3.00    0.80
  -3   9  10    1.70    0.70
  -2   9  10   18.60    1.80
  -2   9  10   20.40    2.00
   1  -9 -10    7.70    1.30
   1  -9 -10    5.50    1.10
  -1   9  10    4.70    0.90
  -1   9  10    5.10    1.00
   0  -9 -10   10.50    1.60
   0   9  10    6.60    1.20
  -1  -9 -10    2.00    1.20
   1   9  10    1.90    1.50
  -2  -9 -10   39.50    3.10
   2   9  10   29.50    2.70
  -3  -9 -10    1.70    1.50
   3   9  10   -0.40    1.10
  -4  -9 -10   -0.70    1.60
   4   9  10   -0.80    1.20
   9 -10 -10    2.50    1.30
   8 -10 -10    8.00    1.40
  -8  10  10    7.20    1.50
   7 -10 -10    7.80    1.40
  -7  10  10    8.20    1.10
  -7  10  10    7.70    1.30
   6 -10 -10    4.80    1.20
  -6  10  10    3.00    1.30
  -6  10  10    1.20    0.70
   5 -10 -10   24.80    2.40
  -5  10  10   24.50    2.10
  -5  10  10   24.70    2.20
  -4  10  10   24.30    2.30
  -4  10  10   25.90    2.30
  -3  10  10    4.70    1.10
  -3  10  10    4.40    1.30
   2 -10 -10   50.39    3.80
  -2  10  10   52.19    4.50
  -2  10  10   52.69    3.80
  -1  10  10   12.40    2.20
  -1  10  10    8.40    1.50
   0  10  10   10.70    1.60
  -1 -10 -10    0.80    1.60
   1  10  10    2.30    1.10
  -2 -10 -10   34.50    3.40
   2  10  10   30.20    2.80
   8 -11 -10   36.00    3.20
   7 -11 -10    6.20    1.50
  -7  11  10    5.00    0.90
   6 -11 -10    8.40    1.60
  -6  11  10    7.60    1.30
   5 -11 -10    3.00    1.30
  -5  11  10    1.50    0.90
   4 -11 -10    9.80    1.60
  -4  11  10   12.00    2.30
  -4  11  10    6.00    1.20
   3 -11 -10   -0.50    1.30
  -3  11  10    3.10    1.30
  -3  11  10    3.10    1.00
  -2  11  10   11.10    1.60
  -2  11  10   11.70    1.60
  -1  11  10    5.80    1.40
  -1  11  10    5.10    1.40
   0  11  10   -0.30    1.30
  -5  12  10    0.60    0.90
  -4  12  10   12.40    2.00
  -3  12  10   18.40    2.40
  -4  12 -11   13.30    2.10
  -4  12 -11    9.00    1.50
   4 -12  11    7.70    1.50
   0  11 -11   -0.60    1.60
   0  11 -11    2.20    1.50
   0 -11  11   -2.20    1.20
  -1  11 -11   -0.40    1.40
  -1  11 -11    2.60    1.30
  -1  11 -11   -0.10    1.00
   1 -11  11   -0.50    1.20
  -2  11 -11   -0.60    0.90
  -2  11 -11    1.50    1.10
  -2  11 -11   -0.80    1.20
   2 -11  11    0.30    1.10
  -3  11 -11    1.60    1.00
  -3  11 -11    1.30    1.10
  -3  11 -11    1.60    0.90
   3 -11  11    0.80    1.10
  -4  11 -11   -1.20    1.00
  -4  11 -11    2.40    1.00
   4 -11  11   -0.60    1.10
  -5  11 -11    3.50    1.00
  -5  11 -11    2.30    0.90
   5 -11  11    2.20    1.20
  -6  11 -11    0.60    0.90
  -6  11 -11    1.80    1.00
   6 -11  11    3.00    1.20
  -7  11 -11    1.20    0.90
   7 -11  11    3.00    1.40
  -2 -10  11    2.40    1.20
  -1 -10  11    0.10    1.00
   0  10 -11    3.70    1.00
   0  10 -11    3.90    1.50
   0 -10  11    3.60    1.10
  -1  10 -11    3.00    0.90
  -1  10 -11    1.80    1.30
   1 -10  11    1.50    0.90
  -2  10 -11    0.50    1.10
  -2  10 -11    0.40    0.80
   2 -10  11   -0.30    0.90
  -3  10 -11    3.90    1.10
  -3  10 -11    1.50    0.80
   3 -10  11    1.90    0.90
  -4  10 -11    3.50    1.10
  -4  10 -11    4.60    1.00
   4 -10  11    4.50    1.10
  -5  10 -11    0.60    0.70
  -5  10 -11    1.00    0.80
  -5  10 -11   -0.80    0.80
   5 -10  11    1.50    1.00
  -6  10 -11    0.90    0.80
  -6  10 -11    1.10    0.70
   6 -10  11    1.50    1.10
  -7  10 -11    5.60    1.10
   7 -10  11    0.70    1.20
  -8  10 -11    0.10    0.90
   8 -10  11   -0.50    1.30
  -9  10 -11    3.00    1.00
   9 -10  11    1.30    1.60
  -4  -9  11   -1.00    1.30
  -3  -9  11    2.00    1.10
  -2  -9  11    0.90    0.90
   1   9 -11    1.70    0.90
   1   9 -11    3.80    1.30
  -1  -9  11    1.30    0.90
   0   9 -11    0.50    1.10
   0   9 -11    0.50    0.80
  -1   9 -11   -2.00    1.00
  -1   9 -11   -0.60    0.70
   1  -9  11    0.50    0.70
  -2   9 -11    3.30    1.00
  -2   9 -11    3.20    0.90
   2  -9  11    5.20    1.10
  -3   9 -11    0.40    0.70
  -3   9 -11    0.40    0.80
   3  -9  11    1.10    0.80
  -4   9 -11    3.20    0.80
  -4   9 -11    3.20    0.80
   4  -9  11    3.90    0.90
  -5   9 -11   17.20    1.70
  -5   9 -11   19.80    1.70
   5  -9  11   15.10    1.80
  -6   9 -11    1.50    0.90
   6  -9  11    1.40    1.10
  -7   9 -11    0.40    0.80
   7  -9  11    1.90    1.00
  -8   9 -11    2.60    0.90
   8  -9  11   -0.50    1.10
  -9   9 -11    7.40    1.10
   9  -9  11    6.00    1.60
 -10   9 -11    6.70    1.30
  10  -9  11    8.30    1.60
  -5  -8  11   -0.60    1.10
  -4  -8  11   -1.20    1.00
  -3  -8  11    0.60    0.90
   2   8 -11    4.60    0.90
  -2  -8  11    4.70    1.10
   1   8 -11    0.30    0.60
   1   8 -11    0.20    1.00
  -1  -8  11   -0.40    0.70
   0   8 -11    5.30    1.10
   0   8 -11    4.80    0.80
   0  -8  11    6.70    1.20
  -1   8 -11    1.10    0.60
  -1   8 -11    1.00    0.80
   1  -8  11    0.10    0.60
  -2   8 -11    0.00    0.60
  -2   8 -11    0.60    0.70
  -3   8 -11    5.40    0.90
  -3   8 -11    3.60    0.70
   3  -8  11    4.00    0.80
  -4   8 -11    1.20    0.70
  -4   8 -11    1.80    0.70
   4  -8  11    0.70    0.90
  -5   8 -11    3.00    0.80
  -5   8 -11    2.60    0.70
   5  -8  11    2.70    0.80
  -6   8 -11    1.20    0.80
  -6   8 -11    0.20    0.60
   6  -8  11    0.50    0.80
  -7   8 -11    4.60    0.90
   7  -8  11    6.00    1.00
  -8   8 -11   29.90    2.60
   8  -8  11   31.20    2.60
  -9   8 -11    9.30    1.50
   9  -8  11    9.60    1.40
 -10   8 -11    2.40    1.10
  10  -8  11    1.10    1.30
  -6  -7  11   -1.10    1.60
  -6  -7  11    0.10    1.20
  -5  -7  11   -0.80    1.60
  -5  -7  11   -0.90    1.00
  -4  -7  11    6.00    1.40
  -4  -7  11    5.90    1.60
   3   7 -11    2.10    0.70
  -3  -7  11    2.10    0.80
  -3  -7  11    1.20    1.20
   2   7 -11    2.30    1.00
   2   7 -11    0.80    0.70
  -2  -7  11    2.00    0.70
   1   7 -11    6.30    1.10
   1   7 -11   10.00    1.60
  -1  -7  11    6.90    1.10
   0   7 -11    3.10    0.80
   0   7 -11    3.40    0.70
  -1   7 -11    3.80    0.80
  -1   7 -11    5.10    0.80
   1  -7  11    6.90    1.20
  -2   7 -11   33.50    2.40
  -2   7 -11   30.90    2.50
   2  -7  11   35.40    2.40
  -3   7 -11   17.20    1.50
  -3   7 -11   16.50    1.50
   3  -7  11   18.10    1.50
  -4   7 -11   29.00    2.30
  -4   7 -11   31.10    2.20
   4  -7  11   28.70    2.30
  -5   7 -11    0.90    0.50
  -5   7 -11   -0.10    0.60
   5  -7  11   -0.10    0.50
  -6   7 -11    8.30    0.90
  -6   7 -11    6.20    1.10
   6  -7  11    7.30    1.20
  -7   7 -11    0.80    0.70
   7  -7  11    0.50    0.70
  -8   7 -11   14.90    1.60
   8  -7  11   16.00    1.80
  -9   7 -11    4.00    1.40
   9  -7  11    4.30    1.10
 -10   7 -11   36.90    3.10
  10  -7  11   45.10    3.60
  11  -7  11    3.10    1.60
   7   6 -11    1.00    1.10
  -7  -6  11   -0.80    1.30
  -7  -6  11   -0.40    1.20
   6   6 -11    0.80    1.60
  -6  -6  11   -0.70    0.90
  -6  -6  11   -2.20    1.30
   5   6 -11    4.40    0.80
  -5  -6  11    2.80    0.90
  -5  -6  11    2.10    1.20
   4   6 -11    2.90    0.70
   4   6 -11    2.60    0.70
  -4  -6  11    2.60    1.10
  -4  -6  11    3.00    0.80
   3   6 -11   12.50    1.20
   3   6 -11   13.80    1.30
  -3  -6  11   11.70    1.80
  -3  -6  11   13.10    1.40
   2   6 -11    3.80    0.60
   2   6 -11    4.60    0.80
   2   6 -11    6.00    1.10
  -2  -6  11    6.50    1.00
  -2  -6  11    3.50    0.70
   1   6 -11    0.20    0.60
   1   6 -11    0.20    0.40
  -1  -6  11   -0.10    0.40
  -1  -6  11   -0.70    0.80
   0   6 -11    1.60    0.50
   0  -6  11    0.40    1.00
   0  -6  11    1.40    0.50
  -1   6 -11    0.80    0.60
  -1   6 -11    1.40    0.40
   1  -6  11    0.90    0.40
  -2   6 -11  146.89    9.60
  -2   6 -11  140.99    9.60
   2  -6  11  151.68    9.60
  -3   6 -11  117.89    7.60
  -3   6 -11  125.29    7.60
   3  -6  11  102.99    7.60
  -4   6 -11   86.09    5.60
  -4   6 -11   84.79    5.60
   4  -6  11   82.09    5.60
  -5   6 -11    5.60    0.90
  -5   6 -11    4.00    0.70
   5  -6  11    4.30    0.70
  -6   6 -11    2.50    0.70
  -6   6 -11    3.80    0.60
  -6   6 -11    1.70    0.50
   6  -6  11    2.50    0.60
  -7   6 -11    4.80    0.80
   7  -6  11    3.20    0.80
  -8   6 -11    7.00    1.20
   8  -6  11    8.40    1.50
  -9   6 -11    3.20    0.80
  10  -6  11    4.30    1.40
  11  -6  11   11.50    1.90
   8   5 -11    1.20    1.20
  -8  -5  11    0.80    1.30
  -8  -5  11    1.80    1.20
   7   5 -11    5.00    1.00
  -7  -5  11    2.00    1.20
  -7  -5  11    2.90    1.20
   6   5 -11    0.20    0.70
  -6  -5  11    0.00    1.10
  -6  -5  11    0.20    0.90
   5   5 -11    6.00    1.00
  -5  -5  11    9.90    1.60
  -5  -5  11    5.60    0.90
   4   5 -11    9.10    1.10
   4   5 -11    9.80    1.00
  -4  -5  11    9.00    1.30
  -4  -5  11   12.20    1.50
   3   5 -11    1.30    0.50
   3   5 -11    1.80    1.20
   3   5 -11    2.10    0.50
  -3  -5  11    1.50    0.60
  -3  -5  11    2.90    0.80
   2   5 -11   69.39    4.80
   2   5 -11   69.79    4.60
   2   5 -11   70.49    4.70
  -2  -5  11   71.39    4.70
  -2  -5  11   68.49    4.80
   1   5 -11   13.10    1.20
   1   5 -11   16.60    1.50
  -1  -5  11   12.90    1.20
  -1  -5  11   14.40    1.50
   0   5 -11   34.20    2.40
   0   5 -11   27.50    2.20
   0  -5  11   33.40    2.40
  -1   5 -11    2.70    0.50
  -1   5 -11    2.90    0.60
   1  -5  11    1.60    0.70
   1  -5  11    3.00    0.50
  -2   5 -11   87.19    6.00
  -2   5 -11   88.29    6.10
   2  -5  11   96.99    6.00
  -3   5 -11   45.80    3.10
  -3   5 -11   42.80    3.10
   3  -5  11   48.40    3.10
  -4   5 -11  177.68   11.80
  -4   5 -11  183.38   11.70
  -4   5 -11  179.38   11.70
   4  -5  11  182.78   11.80
  -5   5 -11   18.40    1.30
  -5   5 -11   12.80    1.30
  -5   5 -11   14.90    1.40
   5  -5  11   16.80    1.40
  -6   5 -11   33.40    2.30
  -6   5 -11   32.20    2.40
  -6   5 -11   36.90    2.50
   6  -5  11   35.70    2.60
  -7   5 -11    6.00    1.00
   7  -5  11    8.00    1.10
  -8   5 -11    1.00    0.70
  -9   5 -11   13.40    1.40
   9  -5  11   11.00    1.90
  10  -5  11    0.80    1.20
  11  -5  11    1.50    1.60
   9   4 -11    1.00    1.30
  -9  -4  11    1.10    1.10
   8   4 -11    1.20    1.00
  -8  -4  11    0.80    1.10
  -8  -4  11    0.40    1.10
   7   4 -11    2.30    0.80
  -7  -4  11    0.80    1.10
  -7  -4  11   -2.30    1.30
   6   4 -11    7.60    1.20
  -6  -4  11   10.90    1.50
  -6  -4  11    7.30    1.40
   5   4 -11    4.50    0.60
   5   4 -11    5.20    0.80
  -5  -4  11    4.60    0.90
  -5  -4  11    4.40    0.80
   4   4 -11  142.79    9.40
   4   4 -11  150.48    9.50
  -4  -4  11  129.89    9.50
  -4  -4  11  156.28    9.50
   3   4 -11   38.80    2.50
   3   4 -11   28.20    2.20
  -3  -4  11   28.70    2.20
   2   4 -11  257.47   16.60
   2   4 -11  257.47   16.70
  -2  -4  11  256.97   16.70
   1   4 -11    2.40    0.60
   1   4 -11    2.50    0.40
  -1  -4  11    1.40    0.60
  -1  -4  11    2.70    0.40
   0   4 -11   14.80    1.10
   0   4 -11   14.10    1.30
   0  -4  11   13.20    1.30
   0  -4  11   17.00    1.10
  -1   4 -11    6.90    0.80
  -1   4 -11    6.60    0.70
   1  -4  11    7.30    0.70
   1  -4  11    7.30    1.00
  -2   4 -11    0.50    0.40
  -2   4 -11   -0.50    0.30
   2  -4  11    0.10    0.30
   2  -4  11    0.40    0.50
  -3   4 -11   29.30    1.90
  -3   4 -11   22.50    1.80
  -3   4 -11   27.00    1.90
   3  -4  11   27.90    1.90
  -4   4 -11    0.90    0.40
  -4   4 -11    1.80    0.40
  -4   4 -11    1.40    0.50
   4  -4  11    1.30    0.50
  -5   4 -11   10.70    1.20
  -5   4 -11   11.70    1.00
  -5   4 -11   11.30    1.00
   5  -4  11   10.60    1.20
  -6   4 -11   11.30    1.10
  -6   4 -11   12.30    0.90
  -6   4 -11    8.80    1.10
  -6   4 -11    9.90    1.00
   6  -4  11    8.20    1.00
  -7   4 -11    0.70    0.60
  -7   4 -11    0.80    0.50
   7  -4  11   -0.10    0.60
  -8   4 -11    0.50    0.80
  -8   4 -11    1.30    0.60
  -9   4 -11   10.10    1.60
 -10   4 -11    1.30    1.10
 -11   4 -11    2.50    1.40
   9   3 -11    2.90    1.10
  -9  -3  11    0.40    0.90
   8   3 -11   33.70    2.70
  -8  -3  11   35.90    2.90
  -8  -3  11   31.50    2.70
   7   3 -11    3.50    0.80
  -7  -3  11    2.40    0.90
  -7  -3  11    2.50    0.80
   6   3 -11   23.60    1.90
   6   3 -11   27.90    2.00
  -6  -3  11   23.60    2.10
  -6  -3  11   24.20    2.00
   5   3 -11    2.30    0.50
  -5  -3  11    3.90    0.70
  -5  -3  11    3.10    0.70
  -5  -3  11    4.30    0.70
   4   3 -11    2.40    0.40
  -4  -3  11    3.00    0.70
   3   3 -11   64.39    4.90
   3   3 -11   74.49    4.80
  -3  -3  11   83.29    4.80
  -3  -3  11   71.59    4.80
  -3  -3  11   69.49    4.90
   2   3 -11   28.10    2.00
   2   3 -11   28.00    2.10
  -2  -3  11   27.60    2.10
  -2  -3  11   29.10    2.00
  -2  -3  11   29.00    2.00
   1   3 -11   59.89    4.30
   1   3 -11   63.09    4.20
  -1  -3  11   62.49    4.30
  -1  -3  11   64.09    4.20
  -1  -3  11   67.69    4.20
   0   3 -11   53.59    3.60
   0   3 -11   52.89    3.50
   0  -3  11   52.99    3.50
   0  -3  11   54.19    3.60
  -1   3 -11   12.30    0.90
  -1   3 -11   13.60    1.00
   1  -3  11   10.90    0.90
   1  -3  11   10.00    1.00
  -2   3 -11    6.50    0.60
  -2   3 -11    6.20    0.60
  -2   3 -11    6.70    0.90
   2  -3  11    6.30    0.60
   2  -3  11    5.60    0.80
  -3   3 -11   21.90    1.60
  -3   3 -11   24.30    1.60
   3  -3  11   22.10    1.70
  -4   3 -11   15.80    1.30
  -4   3 -11   16.10    1.20
  -4   3 -11   16.10    1.30
  -4   3 -11   15.10    1.30
   4  -3  11   16.60    1.10
  -5   3 -11    7.60    0.70
  -5   3 -11    5.90    0.80
  -5   3 -11    4.50    0.80
  -5   3 -11    7.00    0.90
  -6   3 -11    1.40    0.50
  -6   3 -11    0.80    0.50
  -6   3 -11    0.70    0.50
  -6   3 -11    0.50    0.30
   6  -3  11    0.10    0.40
  -7   3 -11    1.40    0.60
  -7   3 -11    1.90    0.90
  -8   3 -11    1.00    0.80
   8  -3  11    1.50    0.70
  -9   3 -11    0.00    0.90
   9  -3  11    0.70    0.80
 -10   3 -11    2.10    1.20
  10  -3  11    1.30    1.10
 -11   3 -11   10.30    1.70
 -10  -2  11    8.40    1.20
   9   2 -11    2.10    1.20
  -9  -2  11    2.20    0.90
   8   2 -11   29.90    2.40
  -8  -2  11   24.80    2.30
  -8  -2  11   25.10    2.70
  -7  -2  11    2.60    0.80
  -7  -2  11    1.90    0.70
  -7  -2  11    1.40    0.80
   6   2 -11   -0.10    0.40
  -6  -2  11    0.50    0.60
  -6  -2  11    0.30    0.60
  -6  -2  11    1.10    0.50
   5   2 -11    1.20    0.40
  -5  -2  11    1.50    0.50
  -5  -2  11   -0.10    0.50
  -5  -2  11    0.30    0.50
   4   2 -11    0.50    0.30
  -4  -2  11    0.80    0.40
  -4  -2  11    0.60    0.40
  -4  -2  11    1.50    0.50
   3   2 -11    1.20    1.10
   3   2 -11    2.20    0.40
  -3  -2  11    1.50    0.50
  -3  -2  11    2.40    0.40
   2   2 -11    5.70    0.90
   2   2 -11    4.30    0.50
  -2  -2  11    4.70    0.60
  -2  -2  11    5.60    0.60
  -2  -2  11    6.00    0.70
   1   2 -11   24.10    1.90
   1   2 -11   26.60    1.80
  -1  -2  11   28.40    1.80
  -1  -2  11   27.60    1.90
  -1  -2  11   26.90    1.80
   0   2 -11    9.30    0.80
   0   2 -11    8.90    0.70
   0  -2  11    8.60    0.70
   0  -2  11    8.60    0.80
   0  -2  11    8.00    0.70
  -1   2 -11   19.40    1.40
  -1   2 -11   19.10    1.40
   1  -2  11   19.10    1.40
   1  -2  11   22.50    1.50
   1  -2  11   21.10    1.40
  -2   2 -11    0.70    0.20
  -2   2 -11    0.40    0.40
  -2   2 -11    0.40    0.20
   2  -2  11    0.50    0.20
   2  -2  11    0.90    0.40
   2  -2  11    0.70    0.30
  -3   2 -11   10.30    0.80
  -3   2 -11   11.20    0.80
  -3   2 -11   10.10    0.90
  -3   2 -11   10.70    0.80
   3  -2  11    8.70    1.00
   3  -2  11    9.70    0.80
  -4   2 -11   19.10    1.60
  -4   2 -11   22.50    1.60
  -4   2 -11   21.50    1.60
  -4   2 -11   22.20    1.50
   4  -2  11   21.90    1.50
  -5   2 -11    3.30    0.60
  -5   2 -11    2.40    0.50
  -5   2 -11    3.20    0.60
  -5   2 -11    3.90    0.60
   5  -2  11    3.90    0.60
  -6   2 -11    5.50    0.90
  -6   2 -11    4.90    0.80
  -6   2 -11    4.00    0.70
  -6   2 -11    4.10    0.60
   6  -2  11    5.10    0.60
  -7   2 -11    8.30    0.80
  -7   2 -11    8.10    1.20
  -7   2 -11    6.30    0.90
  -7   2 -11    8.30    0.90
   7  -2  11    9.30    1.00
  -8   2 -11   -0.50    0.80
   8  -2  11    0.10    0.60
  -9   2 -11    0.40    0.90
   9  -2  11    0.60    0.80
 -10   2 -11    0.90    1.20
  10  -2  11    4.30    1.20
 -11   2 -11   -0.10    1.40
  11  -2  11    3.80    1.40
  10   1 -11    3.00    1.30
 -10  -1  11   -0.50    0.80
   9   1 -11    1.30    1.10
  -9  -1  11    0.20    0.70
  -8  -1  11   -0.60    1.00
  -8  -1  11    1.40    0.90
  -8  -1  11    0.40    0.70
   7   1 -11    0.70    0.50
  -7  -1  11    1.10    0.60
  -7  -1  11    0.70    0.90
  -7  -1  11    0.70    0.60
   6   1 -11   11.40    1.10
  -6  -1  11   10.90    1.10
  -6  -1  11   11.00    1.10
  -6  -1  11   10.40    1.20
   5   1 -11   15.90    1.30
  -5  -1  11   15.00    1.20
  -5  -1  11   14.10    1.30
  -5  -1  11   14.70    1.20
   4   1 -11    0.50    0.60
   4   1 -11    0.20    0.30
  -4  -1  11    0.20    0.30
  -4  -1  11   -0.10    0.30
  -4  -1  11    0.70    0.30
   3   1 -11   22.20    1.60
   3   1 -11   21.20    1.80
  -3  -1  11   23.60    1.70
  -3  -1  11   22.60    1.60
  -3  -1  11   24.40    1.60
   2   1 -11    1.20    0.60
   2   1 -11    1.30    0.20
  -2  -1  11    1.20    0.30
  -2  -1  11    1.20    0.30
  -2  -1  11    1.90    0.30
   1   1 -11   43.30    2.90
   1   1 -11   42.50    2.90
  -1  -1  11   43.50    2.90
  -1  -1  11   44.30    2.90
  -1  -1  11   43.90    2.90
   0   1 -11   61.79    4.00
   0   1 -11   62.69    4.00
   0  -1  11   60.49    4.00
   0  -1  11   60.89    4.00
   0  -1  11   59.99    4.00
  -1   1 -11   10.30    0.90
   1  -1  11   11.60    0.80
   1  -1  11   11.10    0.90
  -2   1 -11   28.80    2.10
  -2   1 -11   30.90    2.10
  -2   1 -11   31.40    2.10
  -2   1 -11   31.60    2.10
   2  -1  11   31.60    2.20
   2  -1  11   31.70    2.10
  -3   1 -11    6.80    0.70
  -3   1 -11    6.80    0.80
  -3   1 -11    7.30    0.60
   3  -1  11    8.10    0.90
   3  -1  11    8.90    0.60
  -4   1 -11   10.90    0.90
  -4   1 -11   10.30    1.00
  -4   1 -11   10.90    0.90
  -4   1 -11   11.70    0.90
   4  -1  11   11.60    0.90
  -5   1 -11   54.99    3.50
  -5   1 -11   52.49    3.50
  -5   1 -11   53.49    3.60
  -5   1 -11   49.60    3.60
   5  -1  11   50.79    3.50
  -6   1 -11    2.50    0.60
  -6   1 -11    1.90    0.50
  -6   1 -11    2.40    0.50
  -6   1 -11    2.40    0.60
   6  -1  11    3.10    0.50
  -7   1 -11    2.80    0.70
  -7   1 -11    3.20    0.80
  -7   1 -11    4.30    0.70
   7  -1  11    2.70    0.60
  -8   1 -11    0.50    0.90
   8  -1  11    0.80    0.70
  -9   1 -11    4.20    1.80
   9  -1  11    8.30    1.40
 -10   1 -11   12.50    2.20
  10  -1  11   14.10    1.90
 -11   1 -11   13.90    2.60
  11  -1  11   15.40    2.30
  11   0 -11    2.30    1.60
  10   0 -11    0.40    1.10
 -10   0  11   -0.20    0.60
  -9   0  11    1.00    0.60
  -9   0  11    0.30    1.10
   8   0 -11    2.60    0.70
  -8   0  11    0.70    0.80
  -8   0  11    2.70    0.80
   7   0 -11    2.30    0.70
  -7   0  11    2.20    0.70
  -7   0  11    2.60    0.60
  -7   0  11    2.40    0.60
   6   0 -11   -0.30    0.50
  -6   0  11    0.00    0.50
  -6   0  11    0.00    0.40
  -6   0  11   -0.20    0.40
   5   0 -11   15.70    1.30
  -5   0  11   15.40    1.30
  -5   0  11   15.60    1.20
  -5   0  11   16.10    1.30
   4   0 -11    3.70    0.60
   4   0 -11    2.40    0.70
  -4   0  11    2.70    0.40
  -4   0  11    2.90    0.40
  -4   0  11    3.30    0.50
   3   0 -11    3.60    0.50
   3   0 -11    4.60    0.60
  -3   0  11    5.40    0.50
  -3   0  11    3.20    0.60
  -3   0  11    5.10    0.50
  -3   0  11    5.20    0.60
   2   0 -11    1.90    0.30
   2   0 -11    1.00    0.40
  -2   0  11    1.50    0.30
  -2   0  11    1.90    0.30
   1   0 -11   94.49    6.80
   1   0 -11  105.59    6.80
  -1   0  11  110.79    6.80
  -1   0  11  107.99    6.80
  -1   0  11  104.69    6.80
   0   0 -11   28.40    1.90
   0   0 -11   27.80    1.90
   0   0  11   27.00    1.80
   0   0  11   26.30    1.80
   0   0  11   28.10    1.90
  -1   0 -11   10.30    0.80
  -1   0 -11    8.80    0.80
   1   0  11   10.70    0.70
   1   0  11    9.10    0.90
  -2   0 -11   82.09    5.90
  -2   0 -11   93.09    5.80
  -2   0 -11   91.39    5.90
  -2   0 -11   88.29    5.80
   2   0  11   93.09    5.90
   2   0  11   89.09    5.80
  -3   0 -11   10.40    0.90
  -3   0 -11    8.30    0.80
  -3   0 -11   10.90    0.80
   3   0  11   10.10    1.00
   3   0  11   11.70    0.80
  -4   0 -11    0.90    0.40
  -4   0 -11    1.30    0.30
  -4   0 -11    1.00    0.30
  -4   0 -11    1.40    0.60
   4   0  11    2.20    0.40
  -5   0 -11    0.80    0.40
  -5   0 -11    0.30    0.40
  -5   0 -11    0.10    0.40
  -6   0 -11   22.30    1.60
  -6   0 -11   19.60    1.80
   6   0  11   21.60    1.60
  -7   0 -11    3.00    0.80
  -7   0 -11    2.90    0.80
   7   0  11    3.70    0.70
  -8   0 -11   40.30    3.30
  -8   0 -11   41.60    3.00
   8   0  11   43.60    3.10
  -9   0 -11   62.19    4.60
   9   0  11   59.59    4.80
 -10   0 -11    9.30    1.60
  10   0  11    7.60    1.40
  11  -1 -11    1.90    1.50
 -10   1  11   -0.60    1.10
   9  -1 -11   -0.60    1.20
  -9   1  11    1.00    0.60
  -9   1  11   -0.70    0.80
   8  -1 -11    1.20    0.80
  -8   1  11    0.00    0.60
  -8   1  11   -0.50    0.90
   7  -1 -11    0.50    0.60
  -7   1  11    0.10    0.60
  -7   1  11    0.20    0.50
   6  -1 -11    0.40    0.50
  -6   1  11    0.50    0.40
  -6   1  11    0.90    0.50
   5  -1 -11    4.70    0.80
  -5   1  11    4.50    0.70
  -5   1  11    3.50    0.60
  -5   1  11    4.30    0.70
   4  -1 -11    5.10    0.60
   4  -1 -11    4.90    0.70
  -4   1  11    3.60    0.60
  -4   1  11    5.40    0.50
  -4   1  11    5.40    0.50
   3  -1 -11    6.50    0.90
   3  -1 -11    6.60    0.70
  -3   1  11    7.10    0.90
  -3   1  11    7.90    0.60
  -3   1  11    8.10    0.70
   2  -1 -11   47.20    3.00
   2  -1 -11   49.20    3.00
  -2   1  11   41.30    3.00
  -2   1  11   42.50    3.00
   1  -1 -11  213.38   14.40
   1  -1 -11  213.18   14.40
  -1   1  11  231.68   14.30
  -1   1  11  230.58   14.40
   0  -1 -11   38.50    2.40
   0  -1 -11   37.90    2.40
   0  -1 -11   37.00    2.40
   0   1  11   31.50    2.30
   0   1  11   32.50    2.40
  -1  -1 -11   80.39    5.10
  -1  -1 -11   76.49    5.10
  -1  -1 -11   80.89    5.20
   1   1  11   75.49    5.20
   1   1  11   80.29    5.10
  -2  -1 -11    3.60    0.50
  -2  -1 -11    4.50    0.60
  -2  -1 -11    3.80    0.50
   2   1  11    4.50    0.40
   2   1  11    3.60    0.70
  -3  -1 -11    7.20    0.60
  -3  -1 -11    6.50    0.70
  -3  -1 -11    6.50    1.00
  -3  -1 -11    6.20    0.70
   3   1  11    4.90    0.60
   3   1  11    6.80    0.90
  -4  -1 -11   11.80    1.00
   4   1  11   14.00    1.00
  -5  -1 -11   56.09    3.90
  -5  -1 -11   56.89    4.00
   5   1  11   61.89    3.90
  -6  -1 -11   13.00    1.40
  -6  -1 -11   12.40    1.20
   6   1  11   11.20    1.20
  -7  -1 -11   12.10    1.70
  -7  -1 -11   13.80    2.00
   7   1  11   13.50    1.30
  -8  -1 -11   12.30    1.40
  -8  -1 -11   13.80    2.40
   8   1  11   13.80    1.50
  -9  -1 -11   33.80    3.00
  -9  -1 -11   32.00    2.50
   9   1  11   28.70    2.60
 -10  -1 -11   32.40    3.20
  10   1  11   28.30    2.70
 -11   2  11    2.60    1.30
 -10   2  11    2.70    1.10
   9  -2 -11    0.30    0.90
  -9   2  11   -0.90    1.00
   8  -2 -11   -0.60    0.70
  -8   2  11   -0.40    0.60
  -8   2  11    0.30    0.70
   7  -2 -11    9.20    1.20
  -7   2  11    8.70    0.90
  -7   2  11    8.40    1.00
   6  -2 -11    2.70    0.60
  -6   2  11    1.90    0.40
  -6   2  11    2.40    0.50
  -5   2  11   13.20    1.10
  -5   2  11   11.60    1.00
  -5   2  11   11.90    1.20
   4  -2 -11   10.60    1.60
   4  -2 -11   12.50    1.00
  -4   2  11   13.20    1.00
  -4   2  11   11.70    1.20
  -4   2  11   12.30    1.00
   3  -2 -11    0.70    0.30
   3  -2 -11    1.20    0.50
  -3   2  11    0.90    0.30
  -3   2  11    0.70    0.40
  -3   2  11    1.00    0.20
   2  -2 -11    4.30    0.80
   2  -2 -11    3.10    0.60
  -2   2  11    4.90    0.40
  -2   2  11    4.90    0.60
   1  -2 -11    1.40    0.60
   1  -2 -11    0.60    0.20
  -1   2  11    0.90    0.20
  -1   2  11    1.70    0.30
   0  -2 -11   60.49    4.10
   0  -2 -11   57.79    4.10
   0  -2 -11   60.69    4.00
   0   2  11   62.79    4.00
   0   2  11   64.89    4.10
  -1  -2 -11    1.90    0.40
  -1  -2 -11    2.10    0.40
  -1  -2 -11    2.20    0.40
   1   2  11    3.40    0.50
   1   2  11    2.00    0.30
  -2  -2 -11  138.39    8.90
  -2  -2 -11  137.99    9.00
  -2  -2 -11  134.29    8.90
   2   2  11  136.99    8.90
   2   2  11  139.79    9.00
  -3  -2 -11  514.15   33.40
  -3  -2 -11  521.45   33.50
  -3  -2 -11  520.65   33.50
   3   2  11  518.55   33.50
   3   2  11  525.75   33.50
  -4  -2 -11  125.79    8.10
  -4  -2 -11  125.59    8.10
   4   2  11  120.49    8.10
  -5  -2 -11   54.99    3.80
  -5  -2 -11   56.29    3.70
   5   2  11   50.89    3.60
  -6  -2 -11   42.50    3.10
  -6  -2 -11   44.30    3.00
   6   2  11   40.10    3.00
  -7  -2 -11   64.19    4.60
  -7  -2 -11   63.69    4.50
   7   2  11   63.49    4.60
  -8  -2 -11    3.50    1.20
  -8  -2 -11    2.60    0.80
   8   2  11    2.90    1.20
  -9  -2 -11    9.90    1.60
  -9  -2 -11    8.20    1.40
   9   2  11    8.90    1.30
 -10  -2 -11    0.10    0.90
 -10  -2 -11    1.80    1.60
  10   2  11    0.10    1.20
 -11   3  11   -0.10    1.20
  10  -3 -11    0.30    1.20
 -10   3  11    1.60    1.00
   9  -3 -11    0.80    0.90
  -9   3  11    0.80    0.80
   8  -3 -11    6.90    1.00
  -8   3  11    7.10    0.80
  -8   3  11    7.70    1.20
  -8   3  11    5.30    1.10
   7  -3 -11    2.70    0.70
  -7   3  11    2.00    0.40
  -7   3  11    1.20    0.80
  -7   3  11    3.00    0.70
   6  -3 -11    0.40    0.50
  -6   3  11    0.40    0.30
  -6   3  11    0.80    0.50
  -6   3  11    0.30    0.40
   5  -3 -11   39.60    2.80
  -5   3  11   38.40    3.10
  -5   3  11   40.80    2.80
  -5   3  11   40.60    2.70
   4  -3 -11   26.60    1.80
  -4   3  11   24.60    1.80
  -4   3  11   23.50    1.80
  -4   3  11   23.50    1.70
   3  -3 -11    1.30    0.60
   3  -3 -11    0.50    0.40
  -3   3  11    0.90    0.30
  -3   3  11    1.20    0.60
   2  -3 -11   61.19    4.10
   2  -3 -11   61.99    4.10
  -2   3  11   61.59    4.10
  -2   3  11   62.39    4.10
   1  -3 -11   55.19    4.00
   1  -3 -11   55.69    3.90
  -1   3  11   61.69    4.00
  -1   3  11   64.39    3.90
   0  -3 -11  242.98   16.10
   0  -3 -11  251.67   16.10
   0  -3 -11  252.37   16.20
   0   3  11  254.77   16.10
   0   3  11  248.08   16.20
  -1  -3 -11  178.88   11.30
  -1  -3 -11  175.58   11.30
  -1  -3 -11  177.08   11.30
   1   3  11  164.88   11.30
   1   3  11  173.38   11.30
  -2  -3 -11   24.10    1.80
  -2  -3 -11   24.00    1.70
  -2  -3 -11   23.90    1.80
   2   3  11   24.90    1.70
   2   3  11   24.20    1.80
  -3  -3 -11  327.77   21.30
   3   3  11  333.17   21.40
   3   3  11  327.57   21.30
  -4  -3 -11   27.50    2.00
  -4  -3 -11   27.00    2.00
   4   3  11   24.90    1.90
  -5  -3 -11   12.20    1.30
  -5  -3 -11   11.00    1.40
   5   3  11   12.50    1.10
  -6  -3 -11    0.40    0.90
  -6  -3 -11    1.20    0.70
   6   3  11    0.30    0.60
  -7  -3 -11    0.50    0.80
  -7  -3 -11   -0.50    1.00
   7   3  11    2.00    0.90
  -8  -3 -11    1.20    0.90
  -8  -3 -11    0.60    1.20
   8   3  11    2.20    0.90
  -9  -3 -11   -1.40    0.90
  -9  -3 -11    1.40    1.40
   9   3  11   -1.20    1.10
 -11   4  11    7.80    1.40
  10  -4 -11    2.60    1.50
 -10   4  11   -0.20    1.10
   9  -4 -11   -0.50    0.90
  -9   4  11   -0.30    0.80
   8  -4 -11    1.40    0.80
  -8   4  11    2.90    0.80
   7  -4 -11   -0.70    0.60
  -7   4  11    0.00    0.50
  -7   4  11    0.00    0.50
  -7   4  11    0.10    0.30
   6  -4 -11   16.80    1.40
  -6   4  11   13.00    1.50
  -6   4  11   17.70    1.30
  -6   4  11   17.40    1.40
   5  -4 -11    9.70    1.00
  -5   4  11    9.40    0.90
  -5   4  11    9.30    1.10
  -5   4  11    8.50    0.90
   4  -4 -11   22.70    1.60
  -4   4  11   23.80    1.90
  -4   4  11   17.70    1.60
   3  -4 -11  728.63   48.40
   3  -4 -11  749.03   48.30
  -3   4  11  775.92   48.30
  -3   4  11  751.12   48.30
   2  -4 -11  102.59    6.00
   2  -4 -11   98.39    6.10
  -2   4  11   82.89    6.00
  -2   4  11   81.69    6.00
   1  -4 -11  377.46   27.40
   1  -4 -11  415.56   27.40
  -1   4  11  454.05   27.40
  -1   4  11  453.65   27.40
   0  -4 -11   50.19    3.30
   0  -4 -11   55.29    3.30
   0  -4 -11   51.39    3.40
   0   4  11   43.60    3.30
   0   4  11   45.40    3.30
  -1  -4 -11   39.40    2.70
  -1  -4 -11   37.20    2.60
  -1  -4 -11   41.10    2.60
   1   4  11   34.00    2.60
   1   4  11   34.80    2.60
  -2  -4 -11    1.50    0.50
  -2  -4 -11    2.50    0.60
  -2  -4 -11    1.10    0.50
   2   4  11    0.40    0.60
   2   4  11    0.90    0.40
  -3  -4 -11    6.20    1.00
  -3  -4 -11    5.80    0.80
   3   4  11    5.90    0.70
  -4  -4 -11    2.10    0.70
  -4  -4 -11    2.30    0.70
   4   4  11    1.10    0.40
  -5  -4 -11    0.80    0.80
  -5  -4 -11    0.80    0.80
   5   4  11    1.80    0.80
  -6  -4 -11   -0.10    0.90
  -6  -4 -11    0.50    0.80
   6   4  11    1.20    0.60
  -7  -4 -11   -0.90    1.10
  -7  -4 -11    0.00    0.90
   7   4  11    1.00    0.80
  -8  -4 -11   -0.50    1.00
   8   4  11   -0.60    0.90
  -9  -4 -11    4.00    1.60
  -9  -4 -11   -0.30    1.10
   9   4  11   -0.30    1.10
  11  -5 -11   20.30    2.80
 -11   5  11   18.50    2.20
  10  -5 -11   18.20    2.20
 -10   5  11   21.20    2.10
   9  -5 -11   13.60    1.70
  -9   5  11   14.20    1.60
   8  -5 -11    5.00    0.90
  -8   5  11    5.00    0.90
   7  -5 -11   37.30    3.00
  -7   5  11   43.90    2.80
  -7   5  11   40.30    3.00
   6  -5 -11   42.70    2.80
  -6   5  11   37.80    2.80
  -6   5  11   36.50    2.70
  -5   5  11   13.70    1.20
  -5   5  11   13.60    1.10
   4  -5 -11   24.20    1.90
  -4   5  11   25.50    1.80
  -4   5  11   24.10    1.80
   3  -5 -11  195.28   12.40
  -3   5  11  188.18   12.40
  -3   5  11  189.88   12.50
   2  -5 -11    0.50    0.50
   2  -5 -11    1.60    0.70
  -2   5  11    1.20    0.40
  -2   5  11    0.50    0.40
   1  -5 -11   13.10    1.20
   1  -5 -11   14.50    1.20
   1  -5 -11   13.60    1.40
  -1   5  11   15.50    1.20
  -1   5  11   15.60    1.30
   0  -5 -11   -0.40    0.40
   0  -5 -11    0.40    0.60
   0  -5 -11    0.90    0.50
   0   5  11    0.00    0.50
   0   5  11    0.20    0.30
  -1  -5 -11   15.50    1.30
  -1  -5 -11   16.00    1.30
  -1  -5 -11   15.80    1.50
   1   5  11   17.10    1.30
   1   5  11   13.00    1.50
  -2  -5 -11    0.30    0.70
  -2  -5 -11    1.80    0.80
  -2  -5 -11    1.10    0.60
   2   5  11    0.40    0.70
   2   5  11    1.00    0.40
  -3  -5 -11   -0.70    0.80
  -3  -5 -11    0.20    0.60
   3   5  11    0.40    0.50
  -4  -5 -11   -0.60    0.80
  -4  -5 -11    0.40    0.70
   4   5  11   -0.50    0.50
  -5  -5 -11   -0.40    0.90
   5   5  11   -0.30    1.00
  -6  -5 -11    4.50    1.50
  -6  -5 -11    3.40    1.20
   6   5  11    4.00    0.80
  -7  -5 -11    1.70    1.10
  -7  -5 -11    1.20    1.30
   7   5  11   -0.70    0.80
  -8  -5 -11    4.10    1.30
  -8  -5 -11   -1.10    1.50
   8   5  11    2.30    1.10
  11  -6 -11    0.10    1.60
 -11   6  11    0.00    1.30
  10  -6 -11    2.60    1.20
 -10   6  11    2.40    1.10
   9  -6 -11   95.59    6.70
  -9   6  11   93.99    6.70
  -8   6  11    4.30    0.90
   7  -6 -11  233.28   14.80
  -7   6  11  218.18   14.60
  -7   6  11  223.58   14.70
   6  -6 -11    1.80    0.70
  -6   6  11    3.40    0.70
  -6   6  11    3.40    0.60
   5  -6 -11    5.80    1.00
  -5   6  11    7.00    0.90
  -5   6  11    6.70    0.80
   4  -6 -11    1.10    0.60
  -4   6  11    1.30    0.50
  -4   6  11    1.80    0.50
   3  -6 -11    1.30    0.50
  -3   6  11    1.00    0.40
  -3   6  11    0.50    0.40
   2  -6 -11    4.70    0.80
  -2   6  11    3.90    0.60
  -2   6  11    4.20    0.60
   1  -6 -11    2.60    1.30
   1  -6 -11    2.50    0.60
  -1   6  11    2.70    0.50
   0  -6 -11    4.10    0.70
   0  -6 -11    5.60    1.00
   0  -6 -11    5.20    0.70
   0   6  11    2.00    0.70
   0   6  11    3.00    0.50
  -1  -6 -11   10.10    1.50
  -1  -6 -11    6.80    1.10
  -1  -6 -11    8.10    1.00
   1   6  11    5.90    0.90
   1   6  11    7.60    0.90
  -2  -6 -11   -1.30    0.90
  -2  -6 -11    0.50    0.70
   2   6  11    0.50    0.50
   2   6  11    0.00    1.20
  -3  -6 -11    6.50    1.00
  -3  -6 -11    4.70    1.10
   3   6  11    4.50    0.80
  -4  -6 -11   55.19    4.20
  -4  -6 -11   57.69    4.00
   4   6  11   53.29    3.90
  -5  -6 -11   -0.40    1.10
  -5  -6 -11    0.20    1.80
   5   6  11   -0.80    0.70
  -6  -6 -11    3.70    1.30
  -6  -6 -11    1.60    1.30
   6   6  11    2.50    1.00
  -7  -6 -11    0.40    1.60
  -7  -6 -11    1.10    1.30
   7   6  11   -0.80    1.00
  11  -7 -11    6.40    1.80
 -11   7  11    6.30    1.50
  10  -7 -11   -1.20    1.20
 -10   7  11    1.70    1.10
   9  -7 -11   12.70    1.70
  -9   7  11   10.20    1.40
   8  -7 -11    0.40    0.90
  -8   7  11    0.30    0.80
   7  -7 -11    2.10    0.80
  -7   7  11    1.80    0.80
  -7   7  11    2.00    0.50
   6  -7 -11   21.00    1.70
  -6   7  11   18.20    1.70
  -6   7  11   18.70    1.50
   5  -7 -11    1.90    0.70
  -5   7  11    3.70    0.70
  -5   7  11    3.30    0.60
   4  -7 -11    5.50    0.80
  -4   7  11    4.40    0.70
  -4   7  11    3.50    0.60
   3  -7 -11    1.20    0.60
  -3   7  11    1.20    0.50
  -3   7  11    1.00    0.50
   2  -7 -11    1.20    0.60
   2  -7 -11    0.40    0.60
  -2   7  11    0.60    0.50
  -2   7  11    1.30    0.50
   1  -7 -11    1.60    0.70
   1  -7 -11    2.60    0.70
  -1   7  11    2.90    0.60
  -1   7  11    3.20    0.70
   0  -7 -11   32.90    2.50
   0  -7 -11   27.50    2.40
   0   7  11   36.80    2.60
   0   7  11   36.20    2.40
  -1  -7 -11    0.30    0.70
   1   7  11    1.20    0.80
   1   7  11    0.40    0.50
  -2  -7 -11    3.70    0.90
  -2  -7 -11    2.40    1.10
   2   7  11    3.00    0.80
  -3  -7 -11   10.30    1.60
  -3  -7 -11   14.00    1.70
   3   7  11   12.70    1.40
  -4  -7 -11   -0.70    2.00
  -4  -7 -11   -0.30    1.30
   4   7  11    0.00    0.80
  -5  -7 -11   10.00    1.60
  -5  -7 -11    7.20    1.70
   5   7  11    9.70    1.40
  -6  -7 -11    1.50    1.50
  -6  -7 -11   -1.10    1.50
   6   7  11   -1.80    0.90
  10  -8 -11    0.80    1.30
 -10   8  11    2.00    1.30
   9  -8 -11   -1.70    1.10
  -9   8  11    0.30    1.00
   8  -8 -11    4.40    1.10
  -8   8  11    5.20    1.20
   7  -8 -11    0.90    0.90
  -7   8  11    0.20    0.50
  -7   8  11    0.60    0.80
   6  -8 -11   10.20    1.50
  -6   8  11   12.30    1.20
  -6   8  11   12.80    1.30
   5  -8 -11    1.10    0.80
  -5   8  11    0.90    0.60
  -5   8  11    2.00    0.70
   4  -8 -11    0.40    0.80
  -4   8  11    1.20    0.70
  -4   8  11    0.80    0.60
   3  -8 -11    8.60    1.30
  -3   8  11   10.60    1.30
  -3   8  11   10.30    1.20
   2  -8 -11   69.09    4.70
  -2   8  11   70.49    4.70
  -2   8  11   67.59    4.80
   1  -8 -11    0.30    0.80
   1  -8 -11    0.40    0.80
  -1   8  11    0.10    0.60
  -1   8  11    1.50    0.80
   0  -8 -11    6.60    1.00
   0  -8 -11    7.90    1.20
   0   8  11    6.90    1.10
   0   8  11    6.00    1.10
  -1  -8 -11    7.30    1.10
   1   8  11    6.90    1.20
   1   8  11    7.10    1.30
  -2  -8 -11    2.30    1.10
   2   8  11    0.60    0.80
  -3  -8 -11    6.50    1.50
   3   8  11    6.90    1.10
  -4  -8 -11   12.00    2.20
  -4  -8 -11   12.70    2.10
   4   8  11   12.40    1.70
  -5  -8 -11   -1.40    1.80
  -5  -8 -11   -1.30    1.50
   5   8  11   -1.70    1.00
  10  -9 -11    2.00    1.40
 -10   9  11    1.80    1.50
   9  -9 -11    0.00    1.20
  -9   9  11    0.80    1.30
   8  -9 -11    3.70    1.10
  -8   9  11    1.40    1.10
   7  -9 -11    3.10    1.10
  -7   9  11    3.60    0.60
  -7   9  11    3.00    1.10
   6  -9 -11   13.30    2.10
  -6   9  11   13.60    1.50
  -6   9  11   14.40    1.50
   5  -9 -11    0.50    0.90
  -5   9  11    1.00    0.60
  -5   9  11    1.40    0.80
   4  -9 -11    2.90    1.00
  -4   9  11    5.90    1.00
  -4   9  11    5.40    0.90
   3  -9 -11    6.80    1.20
  -3   9  11   10.20    1.30
  -3   9  11   10.90    1.40
   2  -9 -11   19.70    1.80
  -2   9  11   15.20    1.70
  -2   9  11   16.80    1.80
  -1   9  11   11.60    1.40
  -1   9  11   11.90    1.80
   0  -9 -11   15.80    1.90
   0   9  11   13.80    1.60
   0   9  11   16.70    2.20
  -1  -9 -11    1.30    1.20
   1   9  11    0.00    0.80
  -2  -9 -11    2.20    1.30
   2   9  11   -0.40    1.00
  -3  -9 -11    3.00    1.50
   3   9  11    3.90    1.20
   4   9  11    6.70    1.50
   9 -10 -11    4.30    1.40
   8 -10 -11    2.60    1.20
  -8  10  11    1.00    1.30
   7 -10 -11    3.30    1.20
  -7  10  11    1.40    0.60
  -7  10  11    1.60    1.10
   6 -10 -11    1.10    1.10
  -6  10  11    1.30    1.00
  -6  10  11    1.00    0.70
   5 -10 -11   33.80    2.80
  -5  10  11   31.30    2.50
   4 -10 -11   18.30    2.20
  -4  10  11   20.50    2.20
  -4  10  11   22.50    2.00
   3 -10 -11    6.60    1.40
  -3  10  11    8.50    1.50
  -3  10  11   10.10    1.60
   2 -10 -11    4.00    1.20
  -2  10  11    3.70    1.30
  -2  10  11    5.10    1.10
  -1  10  11   -1.10    0.90
  -1  10  11    1.20    1.10
   0  10  11    8.20    1.30
   1  10  11    2.50    1.10
  -2 -10 -11    4.30    1.80
   2  10  11    0.50    1.20
   7 -11 -11    6.00    1.50
  -7  11  11    2.80    0.80
   6 -11 -11    5.50    1.40
  -6  11  11    2.70    0.80
   5 -11 -11    6.00    1.50
  -5  11  11    3.80    2.10
  -5  11  11    2.90    0.80
   4 -11 -11   18.30    2.30
  -4  11  11   17.10    2.00
  -4  11  11   17.50    2.20
   3 -11 -11    2.80    1.40
  -3  11  11    4.80    1.40
  -3  11  11    6.50    1.30
  -2  11  11    1.00    1.20
  -2  11  11    1.50    1.30
  -1  11  11   -2.10    1.20
  -1  11  11    0.40    1.40
   0  11  11   -0.20    1.20
   0  11 -12    3.10    1.60
   0  11 -12    0.30    1.90
   0 -11  12   -0.30    1.20
  -1  11 -12    2.10    1.10
  -1  11 -12    0.50    1.50
   1 -11  12    0.50    1.20
  -2  11 -12    2.70    1.30
  -2  11 -12    3.80    1.40
   2 -11  12    3.10    1.20
  -3  11 -12    0.90    1.00
  -3  11 -12    1.90    1.00
  -3  11 -12   -0.10    1.20
   3 -11  12    1.50    1.10
  -4  11 -12   -0.70    0.90
  -4  11 -12   -0.50    1.00
  -5  11 -12    0.20    1.00
  -5  11 -12    0.70    0.90
   5 -11  12    1.50    1.20
  -6  11 -12    1.90    1.00
  -6  11 -12    1.90    0.90
   6 -11  12    3.30    1.30
  -7  11 -12    1.60    1.00
   7 -11  12    1.60    1.40
  -2 -10  12    1.70    1.20
  -1 -10  12    1.00    1.10
   0  10 -12    1.50    1.60
   0  10 -12    1.00    0.90
   0 -10  12    0.80    1.00
  -1  10 -12    0.60    0.80
  -1  10 -12    1.60    1.40
   1 -10  12    1.30    0.90
  -2  10 -12    0.60    0.80
  -2  10 -12    2.30    1.20
   2 -10  12    0.20    0.90
  -3  10 -12    1.20    1.10
  -3  10 -12   -0.30    0.80
   3 -10  12   -0.40    0.90
  -4  10 -12    2.40    1.10
  -4  10 -12    4.20    0.90
   4 -10  12    3.20    1.00
  -5  10 -12    2.70    0.90
  -5  10 -12    0.60    0.90
   5 -10  12    2.10    1.10
  -6  10 -12    0.50    0.80
  -6  10 -12    0.30    0.80
   6 -10  12    1.00    1.10
  -7  10 -12    6.40    1.20
   7 -10  12    5.60    1.40
  -8  10 -12    1.40    1.00
   8 -10  12   -0.20    1.30
  -9  10 -12    1.90    1.10
   9 -10  12    0.40    1.50
  -4  -9  12   -1.40    1.30
  -3  -9  12    0.50    1.10
  -2  -9  12    1.70    1.00
   1   9 -12   -0.10    0.90
   1   9 -12    0.10    1.30
  -1  -9  12   -0.30    0.80
   0   9 -12    1.50    0.80
   0   9 -12   -0.70    1.20
   0  -9  12    0.80    0.80
  -1   9 -12    1.10    0.80
  -1   9 -12   -1.50    1.10
   1  -9  12    1.40    0.90
  -2   9 -12   -1.10    0.90
  -2   9 -12    0.30    0.70
   2  -9  12    0.30    0.80
  -3   9 -12    5.20    1.10
  -3   9 -12    4.60    1.00
   3  -9  12    3.60    0.80
  -4   9 -12    2.20    0.90
  -4   9 -12    2.70    0.80
   4  -9  12    3.20    0.90
  -5   9 -12   21.20    2.10
  -5   9 -12   22.80    2.30
   5  -9  12   23.20    2.20
  -6   9 -12    1.20    0.70
  -6   9 -12    1.40    0.70
   6  -9  12    1.70    1.00
  -7   9 -12    8.80    1.30
   7  -9  12   12.90    1.80
  -8   9 -12   11.90    1.70
   8  -9  12    8.90    1.50
  -9   9 -12    4.80    1.10
   9  -9  12    4.50    1.30
  -5  -8  12   -1.40    1.20
  -4  -8  12    0.00    1.00
  -3  -8  12   -0.10    0.90
   2   8 -12    3.60    0.90
  -2  -8  12    3.20    1.40
   1   8 -12    2.20    1.10
   1   8 -12    1.00    0.70
  -1  -8  12    0.20    0.70
   0   8 -12    1.10    0.60
   0   8 -12    2.20    1.00
   0  -8  12    1.40    1.00
  -1   8 -12    3.80    0.70
  -1   8 -12    4.40    1.00
   1  -8  12    4.30    0.80
  -2   8 -12   -0.10    0.60
  -2   8 -12    0.50    0.70
   2  -8  12    0.90    0.70
  -3   8 -12    1.30    0.70
  -3   8 -12   -0.30    0.70
   3  -8  12    1.60    1.00
  -4   8 -12   20.90    1.90
  -4   8 -12   19.00    1.90
   4  -8  12   24.00    2.80
  -5   8 -12    3.90    1.00
  -5   8 -12    5.80    0.90
   5  -8  12    5.10    1.10
  -6   8 -12    1.50    0.90
  -6   8 -12    2.30    0.60
   6  -8  12    3.40    0.80
  -7   8 -12    1.00    0.80
   7  -8  12    0.80    0.90
  -8   8 -12    5.00    1.10
   8  -8  12    7.30    1.10
  -9   8 -12   28.80    2.50
   9  -8  12   29.40    2.70
 -10   8 -12    1.70    1.10
  10  -8  12    1.10    1.40
  -6  -7  12   -1.00    1.20
  -6  -7  12   -0.90    1.60
  -5  -7  12   -1.80    1.50
  -4  -7  12   -0.70    1.30
  -4  -7  12   -0.70    1.00
   3   7 -12    1.80    0.80
  -3  -7  12    1.40    0.80
  -3  -7  12    2.40    1.20
   2   7 -12    8.50    1.20
   2   7 -12    9.60    1.80
  -2  -7  12   10.20    1.40
   1   7 -12   32.90    2.70
   1   7 -12   31.40    2.40
  -1  -7  12   31.10    2.40
   0   7 -12    8.30    1.10
   0   7 -12    8.50    1.10
   0  -7  12   10.40    1.20
  -1   7 -12   49.40    3.30
  -1   7 -12   45.90    3.40
   1  -7  12   45.70    3.30
  -2   7 -12   34.10    2.60
  -2   7 -12   34.80    2.60
   2  -7  12   37.50    2.70
  -3   7 -12    0.70    0.60
  -3   7 -12    0.10    0.50
   3  -7  12    0.20    0.50
  -4   7 -12    2.90    0.80
  -4   7 -12    3.10    0.60
   4  -7  12    3.20    0.70
  -5   7 -12   12.60    1.10
  -5   7 -12   10.80    1.30
   5  -7  12    9.40    1.30
  -6   7 -12   30.70    2.50
  -6   7 -12   33.00    2.40
   6  -7  12   32.50    2.50
  -7   7 -12    1.80    0.70
   7  -7  12    0.60    0.80
  -8   7 -12    0.50    0.80
   8  -7  12    0.70    1.00
  -9   7 -12   -0.40    0.90
   9  -7  12    1.80    1.00
  10  -7  12   34.40    3.30
  11  -7  12    3.80    1.70
  -7  -6  12    1.00    1.30
  -7  -6  12    0.10    1.50
  -6  -6  12   -1.30    1.30
  -6  -6  12    0.30    1.00
   5   6 -12    2.30    0.80
  -5  -6  12    1.60    1.20
  -5  -6  12    1.50    0.90
   4   6 -12    0.10    0.60
   4   6 -12    0.00    0.60
  -4  -6  12    1.10    1.10
  -4  -6  12   -0.30    0.70
   3   6 -12    0.70    0.60
   3   6 -12    0.30    0.80
  -3  -6  12    0.30    0.60
  -3  -6  12   -0.40    0.90
   2   6 -12    7.50    1.00
   2   6 -12    4.60    1.00
  -2  -6  12    8.00    1.10
  -2  -6  12    5.90    1.50
   1   6 -12    1.10    0.50
  -1  -6  12    0.30    0.50
  -1  -6  12   -0.10    0.90
   0   6 -12   10.10    1.00
   0   6 -12   10.90    1.30
   0  -6  12    7.20    1.00
  -1   6 -12    2.90    0.60
  -1   6 -12    3.60    0.70
  -2   6 -12    2.10    0.60
  -2   6 -12    2.80    0.60
  -3   6 -12   67.39    4.50
  -3   6 -12   68.89    4.50
   3  -6  12   64.99    4.50
  -4   6 -12   18.90    1.70
  -4   6 -12   20.30    1.70
   4  -6  12   24.90    1.70
  -5   6 -12   12.90    1.20
  -5   6 -12   12.60    1.30
   5  -6  12   12.10    1.30
  -6   6 -12   15.70    1.60
  -6   6 -12   18.60    1.50
   6  -6  12   17.70    1.60
  -7   6 -12    3.20    0.70
   7  -6  12    3.90    0.90
  -8   6 -12    3.80    0.80
   8  -6  12    5.00    1.10
  -9   6 -12    1.90    0.80
   9  -6  12    2.50    1.10
  10  -6  12    2.30    1.40
  11  -6  12   15.50    2.90
   8   5 -12    3.20    1.20
  -8  -5  12    1.80    1.50
  -8  -5  12    1.40    1.30
   7   5 -12    3.00    1.00
  -7  -5  12    1.70    1.20
  -7  -5  12    1.00    1.10
   6   5 -12    7.00    1.20
  -6  -5  12    6.30    1.30
  -6  -5  12    6.20    1.10
   5   5 -12   19.00    1.70
  -5  -5  12   23.90    2.20
  -5  -5  12   20.70    1.90
   4   5 -12   25.90    1.90
   4   5 -12   23.00    1.90
  -4  -5  12   22.60    2.00
  -4  -5  12   30.60    2.30
   3   5 -12    0.50    0.50
   3   5 -12   -0.10    0.50
  -3  -5  12   -0.40    0.50
  -3  -5  12    1.40    0.80
   2   5 -12    7.00    0.80
   2   5 -12    7.00    0.90
  -2  -5  12    7.70    1.00
   1   5 -12   11.40    1.40
   1   5 -12   10.70    1.00
  -1  -5  12    8.80    1.00
  -1  -5  12    9.40    1.40
   0   5 -12  108.79    7.10
   0   5 -12  101.79    7.20
   0  -5  12  120.89    7.10
   0  -5  12  100.99    7.20
  -1   5 -12    5.80    0.90
  -1   5 -12    4.00    0.60
   1  -5  12    2.80    0.50
   1  -5  12    4.10    0.80
  -2   5 -12   29.70    2.20
   2  -5  12   33.30    2.30
  -3   5 -12    8.80    0.90
  -3   5 -12    8.40    0.90
   3  -5  12    8.70    0.90
  -4   5 -12    5.90    0.90
  -4   5 -12    6.50    0.80
   4  -5  12    7.70    0.90
  -5   5 -12   11.10    1.10
  -5   5 -12    8.90    1.00
  -5   5 -12   10.20    1.10
   5  -5  12   11.00    1.10
  -6   5 -12   10.90    1.20
  -6   5 -12   12.90    1.10
  -6   5 -12   13.50    1.30
   6  -5  12   16.00    1.40
  -7   5 -12   -0.40    0.60
   7  -5  12    0.60    0.70
  -8   5 -12    3.80    0.80
   8  -5  12    3.20    1.00
  -9   5 -12    2.80    1.20
   9  -5  12    1.00    1.90
  10  -5  12    2.90    1.30
  11  -5  12    7.20    1.80
   9   4 -12    1.60    1.30
  -9  -4  12    0.40    1.20
   8   4 -12    0.30    0.90
  -8  -4  12   -0.50    1.20
  -8  -4  12   -0.20    1.10
   7   4 -12    0.70    0.80
  -7  -4  12    0.90    1.00
  -7  -4  12    0.30    1.00
   6   4 -12   31.50    2.40
  -6  -4  12   32.80    2.50
  -6  -4  12   30.50    2.60
   5   4 -12    5.10    0.80
   5   4 -12    5.50    0.90
  -5  -4  12    4.90    0.80
  -5  -4  12    8.30    1.40
   4   4 -12   14.70    1.30
   4   4 -12   15.30    1.30
  -4  -4  12   15.00    1.40
  -4  -4  12   14.10    1.60
   3   4 -12   15.10    1.80
   3   4 -12   14.20    1.20
  -3  -4  12   13.00    1.20
  -3  -4  12   15.30    1.70
   2   4 -12   -0.10    0.40
   2   4 -12   -0.40    0.70
  -2  -4  12    0.00    0.40
  -2  -4  12   -0.40    0.60
  -1  -4  12   14.40    1.20
   0   4 -12    0.40    0.20
   0   4 -12    0.40    0.50
   0  -4  12   -0.10    0.50
   0  -4  12    0.60    0.30
  -1   4 -12    8.50    0.80
   1  -4  12    7.90    1.10
  -2   4 -12    9.90    0.90
  -2   4 -12    8.30    0.90
   2  -4  12    8.90    1.10
   2  -4  12    9.20    0.80
   3  -4  12    0.30    0.50
  -4   4 -12   -1.00    0.50
  -4   4 -12    0.10    0.50
  -4   4 -12   -0.20    0.40
   4  -4  12    0.40    0.40
  -5   4 -12   16.90    1.50
  -5   4 -12   19.70    1.50
  -5   4 -12   18.00    1.40
   5  -4  12   18.90    1.60
  -6   4 -12    1.90    0.60
  -6   4 -12    4.10    0.70
  -6   4 -12    2.40    0.40
  -7   4 -12   47.20    3.30
  -7   4 -12   45.10    3.20
  -8   4 -12   10.00    1.20
  -8   4 -12   12.10    1.50
  -9   4 -12    2.70    1.10
 -10   4 -12   28.10    2.70
 -11   4 -12   -0.10    1.30
   9   3 -12    2.40    1.10
  -9  -3  12    0.60    1.00
   8   3 -12    3.30    1.00
  -8  -3  12    2.60    1.00
  -8  -3  12    5.50    1.10
   7   3 -12    1.00    0.80
  -7  -3  12    0.20    0.80
  -7  -3  12    2.70    0.80
   6   3 -12    8.70    1.10
  -6  -3  12    9.30    1.40
  -6  -3  12    9.10    1.20
   5   3 -12    1.00    0.40
  -5  -3  12    1.30    0.60
  -5  -3  12    2.10    0.70
  -5  -3  12    0.90    0.70
   4   3 -12    7.20    0.80
  -4  -3  12    7.40    1.10
  -4  -3  12    5.80    0.90
  -4  -3  12    8.00    0.90
   3   3 -12    0.30    0.80
   3   3 -12    1.10    0.40
  -3  -3  12    0.30    0.50
  -3  -3  12    1.80    0.40
  -3  -3  12    1.20    0.50
   2   3 -12    0.70    0.30
   2   3 -12    0.00    0.50
  -2  -3  12    0.50    0.40
  -2  -3  12    0.20    0.50
  -2  -3  12    0.30    0.40
   1   3 -12    0.10    0.50
   1   3 -12    0.20    0.20
  -1  -3  12    0.80    0.30
  -1  -3  12    0.50    0.30
  -1  -3  12   -0.80    0.50
   0   3 -12   33.40    2.40
   0   3 -12   34.40    2.30
   0  -3  12   32.60    2.40
   0  -3  12   35.60    2.30
  -1   3 -12    1.90    0.50
  -1   3 -12    2.70    0.50
   1  -3  12    3.10    0.50
   1  -3  12    3.80    0.60
  -2   3 -12   16.10    1.20
  -2   3 -12   15.60    1.20
  -2   3 -12   15.60    1.30
   2  -3  12   14.00    1.30
   2  -3  12   16.10    1.20
  -3   3 -12   12.00    1.10
  -3   3 -12   12.60    0.90
  -3   3 -12   10.50    1.00
   3  -3  12   12.00    1.00
  -4   3 -12   92.69    6.30
  -4   3 -12   97.29    6.30
  -4   3 -12   98.69    6.40
  -5   3 -12   76.09    5.00
  -5   3 -12   73.49    5.00
  -5   3 -12   72.99    4.90
  -5   3 -12   72.69    4.90
   5  -3  12   76.69    4.90
  -6   3 -12   30.10    2.10
  -6   3 -12   33.70    2.00
  -6   3 -12   33.20    2.20
  -6   3 -12   23.80    2.30
   6  -3  12   25.40    2.10
  -7   3 -12   21.60    1.70
  -7   3 -12   19.50    1.60
   7  -3  12   16.00    1.60
  -8   3 -12    0.20    0.80
   8  -3  12    0.80    0.70
  -9   3 -12    0.80    1.00
   9  -3  12    0.90    0.90
 -10   3 -12    0.70    1.10
 -11   3 -12   13.90    2.40
  10   2 -12    4.20    1.30
 -10  -2  12    1.50    1.00
   9   2 -12    2.90    1.20
  -9  -2  12    2.10    0.90
   8   2 -12    1.40    1.10
  -8  -2  12    0.70    0.80
   7   2 -12   13.10    1.30
  -7  -2  12   14.00    1.60
  -7  -2  12   17.90    1.60
  -7  -2  12   16.00    1.60
   6   2 -12   -0.50    0.40
  -6  -2  12   -0.90    0.60
  -6  -2  12    0.80    0.50
  -6  -2  12   -0.10    0.60
   5   2 -12    2.40    0.50
  -5  -2  12    1.80    0.70
  -5  -2  12    2.70    0.60
  -5  -2  12    2.20    0.60
   4   2 -12    2.20    0.50
  -4  -2  12    2.50    0.60
  -4  -2  12    3.00    0.50
  -4  -2  12    2.40    0.70
   3   2 -12    7.70    1.20
   3   2 -12   11.10    0.90
  -3  -2  12    9.30    1.00
  -3  -2  12    9.60    0.90
  -3  -2  12   11.80    0.90
   2   2 -12   16.40    1.40
   2   2 -12   14.30    1.10
  -2  -2  12   15.30    1.10
  -2  -2  12   14.70    1.30
  -2  -2  12   15.20    1.20
   1   2 -12  117.39    7.90
   1   2 -12  120.89    7.80
  -1  -2  12  120.79    7.90
  -1  -2  12  119.99    7.80
  -1  -2  12  121.19    7.80
   0   2 -12   18.10    1.20
   0  -2  12   13.80    1.20
   0  -2  12   14.60    1.10
   0  -2  12   14.50    1.10
  -1   2 -12  403.36   25.50
  -1   2 -12  410.16   25.50
   1  -2  12  384.86   25.40
   1  -2  12  393.06   25.50
   1  -2  12  383.96   25.50
  -2   2 -12   33.40    2.20
  -2   2 -12   30.90    2.30
  -2   2 -12   33.40    2.30
   2  -2  12   35.40    2.20
   2  -2  12   33.00    2.30
   2  -2  12   32.60    2.30
  -3   2 -12    2.30    0.50
   3  -2  12    1.90    0.60
   3  -2  12    2.40    0.30
  -4   2 -12   51.09    3.80
  -4   2 -12   64.59    3.70
  -4   2 -12   48.60    3.80
  -4   2 -12   53.89    3.70
   4  -2  12   58.89    3.70
  -5   2 -12    1.30    0.50
  -5   2 -12    0.40    0.50
  -5   2 -12    0.20    0.40
  -5   2 -12    0.90    0.60
   5  -2  12    0.40    0.40
  -6   2 -12    2.60    0.60
  -6   2 -12    2.70    0.50
  -6   2 -12    2.40    0.70
  -6   2 -12    3.10    0.70
   6  -2  12    2.90    0.60
  -7   2 -12    5.50    1.00
  -7   2 -12    5.20    0.90
  -7   2 -12    5.70    1.00
  -7   2 -12    7.50    0.80
   7  -2  12    7.60    0.90
  -8   2 -12    0.90    0.90
   8  -2  12    1.10    0.70
  -9   2 -12    1.50    1.50
   9  -2  12    1.30    0.90
 -10   2 -12    5.90    1.40
  10  -2  12    5.40    1.30
 -11   2 -12    5.30    1.50
  10   1 -12    1.80    1.20
 -10  -1  12   -0.90    0.80
  -9  -1  12   -0.30    0.70
  -8  -1  12    0.20    0.90
  -8  -1  12   -1.20    0.80
   7   1 -12    4.20    0.70
  -7  -1  12    4.80    0.80
  -7  -1  12    5.00    0.90
  -7  -1  12    5.90    1.00
   6   1 -12   18.20    1.50
  -6  -1  12   18.10    1.50
  -6  -1  12   17.70    1.50
  -6  -1  12   17.30    1.70
   5   1 -12   20.40    1.60
  -5  -1  12   22.00    1.60
  -5  -1  12   18.80    1.50
  -5  -1  12   20.70    1.60
   4   1 -12    7.50    0.80
  -4  -1  12    7.40    0.80
  -4  -1  12    5.50    0.80
  -4  -1  12    8.00    0.80
   3   1 -12   55.19    3.60
   3   1 -12   51.99    3.50
  -3  -1  12   52.29    3.50
  -3  -1  12   50.59    3.50
  -3  -1  12   48.90    3.40
   2   1 -12   87.89    5.70
   2   1 -12   87.29    5.80
  -2  -1  12   88.99    5.70
  -2  -1  12   86.09    5.70
  -2  -1  12   85.89    5.70
   1   1 -12   47.70    3.20
   1   1 -12   48.60    3.20
  -1  -1  12   47.60    3.20
  -1  -1  12   48.70    3.20
  -1  -1  12   47.80    3.20
   0   1 -12   15.10    1.10
   0   1 -12   14.50    1.10
   0  -1  12   13.80    1.00
   0  -1  12   13.90    1.00
   0  -1  12   13.70    1.10
  -1   1 -12    1.40    0.30
  -1   1 -12    2.50    0.40
   1  -1  12    1.70    0.40
   1  -1  12    1.70    0.30
   1  -1  12    2.10    0.30
  -2   1 -12    5.80    0.60
  -2   1 -12    3.90    0.70
  -2   1 -12    5.10    0.50
  -2   1 -12    5.60    0.60
   2  -1  12    4.90    0.70
   2  -1  12    4.00    0.50
  -3   1 -12   25.80    1.70
  -3   1 -12   25.70    1.80
  -3   1 -12   25.90    1.80
   3  -1  12   24.60    1.70
   3  -1  12   23.60    1.90
  -4   1 -12    0.90    0.30
  -4   1 -12    0.90    0.50
  -4   1 -12    0.50    0.30
  -4   1 -12    0.60    0.40
   4  -1  12    1.60    0.40
  -5   1 -12   36.00    2.70
  -5   1 -12   40.20    2.60
  -5   1 -12   37.10    2.70
  -5   1 -12   38.20    2.60
   5  -1  12   39.00    2.60
  -6   1 -12   39.20    2.60
  -6   1 -12   37.70    2.50
  -6   1 -12   36.00    2.70
   6  -1  12   34.40    2.60
  -7   1 -12   15.00    1.20
  -7   1 -12   14.80    1.50
   7  -1  12   13.10    1.30
  -8   1 -12   45.90    3.50
  -8   1 -12   42.00    2.90
   8  -1  12   35.20    2.90
  -9   1 -12   24.30    2.50
   9  -1  12   25.20    2.20
 -10   1 -12    7.70    1.50
  10  -1  12    8.50    1.40
 -11   1 -12    2.90    1.60
  11  -1  12    3.80    1.50
 -10   0  12    1.40    1.20
 -10   0  12   -0.30    0.70
  -9   0  12   -0.70    0.90
  -9   0  12   -0.80    0.60
   8   0 -12   13.40    1.50
  -8   0  12   13.60    1.50
  -8   0  12   13.10    1.40
   7   0 -12    4.10    0.80
  -7   0  12    5.90    1.10
  -7   0  12    5.30    0.70
   6   0 -12   26.70    2.00
  -6   0  12   26.30    1.90
  -6   0  12   23.60    1.90
  -6   0  12   25.70    1.90
   5   0 -12   45.10    3.40
  -5   0  12   46.50    3.20
  -5   0  12   50.29    3.30
  -5   0  12   49.10    3.30
   4   0 -12    1.30    0.40
  -4   0  12    1.10    0.30
  -4   0  12    1.50    0.40
   3   0 -12   29.50    2.10
   3   0 -12   28.70    2.20
  -3   0  12   31.80    2.10
  -3   0  12   30.90    2.10
   2   0 -12   67.09    4.20
   2   0 -12   60.79    4.20
  -2   0  12   61.39    4.20
  -2   0  12   61.39    4.10
  -2   0  12   64.39    4.20
   1   0 -12   20.80    1.50
   1   0 -12   19.60    1.50
  -1   0  12   20.80    1.40
  -1   0  12   20.80    1.40
  -1   0  12   21.10    1.50
   0   0 -12   37.40    2.40
   0   0 -12   37.10    2.40
   0   0  12   35.00    2.40
   0   0  12   35.00    2.40
   0   0  12   33.30    2.40
  -1   0 -12    2.50    0.40
   1   0  12    3.40    0.40
   1   0  12    2.60    0.50
  -2   0 -12   31.60    2.10
  -2   0 -12   32.40    2.00
   2   0  12   26.20    2.10
  -3   0 -12   31.20    2.20
  -3   0 -12   33.40    2.30
  -3   0 -12   32.90    2.20
   3   0  12   32.60    2.30
   3   0  12   33.70    2.20
  -4   0 -12    1.30    0.40
  -4   0 -12    2.00    0.70
   4   0  12    1.30    0.40
  -5   0 -12    5.30    0.70
  -5   0 -12    3.80    0.50
  -5   0 -12    3.90    0.70
   5   0  12    3.00    0.50
  -6   0 -12   18.80    1.50
  -6   0 -12   18.90    1.70
   6   0  12   17.40    1.50
  -7   0 -12    5.20    1.00
   7   0  12    6.00    0.80
  -8   0 -12    0.80    1.10
  -8   0 -12   -0.10    0.60
   8   0  12    0.80    0.80
   9   0  12    8.90    1.60
 -10   0 -12    1.00    1.30
  10   0  12    0.90    1.20
  11  -1 -12    5.50    1.50
 -10   1  12    0.70    1.10
   9  -1 -12   10.70    1.70
  -9   1  12   11.70    1.90
   8  -1 -12    2.10    0.90
  -8   1  12    2.00    0.80
  -8   1  12    2.10    0.70
   7  -1 -12   -0.40    0.70
  -7   1  12    1.20    0.60
  -7   1  12    0.40    0.50
   6  -1 -12   -0.30    0.60
  -6   1  12   -0.50    0.40
  -6   1  12    0.10    0.50
   5  -1 -12    0.80    0.50
  -5   1  12    1.50    0.50
  -5   1  12    0.70    0.40
   4  -1 -12    0.30    0.30
  -4   1  12   -0.10    0.20
  -4   1  12    0.40    0.30
   3  -1 -12    5.20    0.90
  -3   1  12    5.20    0.60
  -3   1  12    5.60    0.50
   2  -1 -12    0.60    0.40
   2  -1 -12    0.20    0.40
  -2   1  12   -0.10    0.30
  -2   1  12    0.30    0.20
   1  -1 -12    2.40    0.40
  -1   1  12    2.40    0.40
  -1   1  12    2.30    0.30
   0  -1 -12  263.77   16.50
   0  -1 -12  253.07   16.50
   0  -1 -12  262.97   16.50
   0   1  12  249.28   16.50
   0   1  12  248.78   16.50
  -1  -1 -12   71.59    4.60
  -1  -1 -12   76.39    4.60
  -1  -1 -12   69.39    4.60
   1   1  12   60.99    4.50
  -2  -1 -12  225.88   14.10
  -2  -1 -12  230.28   14.20
  -2  -1 -12  222.88   14.10
   2   1  12  209.58   14.20
   2   1  12  204.78   14.10
  -3  -1 -12   56.99    3.70
  -3  -1 -12   51.69    3.80
  -3  -1 -12   54.59    3.80
   3   1  12   62.19    3.80
   3   1  12   58.89    3.90
  -4  -1 -12   18.10    1.40
  -4  -1 -12   18.80    1.50
  -4  -1 -12   19.80    1.50
  -5  -1 -12    1.50    0.60
  -5  -1 -12    1.20    0.50
   5   1  12    2.20    0.50
  -6  -1 -12   41.00    3.00
  -6  -1 -12   41.60    3.10
   6   1  12   45.00    3.00
  -7  -1 -12   29.70    2.70
  -7  -1 -12   32.90    2.60
   7   1  12   28.30    2.30
  -8  -1 -12    9.20    1.30
  -8  -1 -12    9.10    1.70
   8   1  12   10.20    1.40
  -9  -1 -12    3.80    1.30
   9   1  12    3.20    1.00
 -10  -1 -12    0.90    1.50
  10   1  12    1.20    1.20
 -11   2  12    1.40    1.40
 -10   2  12    2.80    1.10
   9  -2 -12    6.10    1.20
  -9   2  12    6.90    1.00
  -9   2  12    6.90    1.10
   8  -2 -12    6.50    1.10
  -8   2  12    7.80    1.10
  -8   2  12    7.70    1.20
   7  -2 -12    1.10    0.70
  -7   2  12    0.60    0.60
  -7   2  12    0.30    0.50
   6  -2 -12   32.00    2.40
  -6   2  12   32.00    2.30
  -6   2  12   32.20    2.30
   5  -2 -12   25.70    2.10
  -5   2  12   28.70    2.00
  -5   2  12   28.80    2.00
   4  -2 -12   36.80    2.30
  -4   2  12   31.90    2.20
  -4   2  12   29.00    2.30
  -4   2  12   31.10    2.20
   3  -2 -12   18.90    1.30
   3  -2 -12   19.00    1.40
  -3   2  12   16.00    1.40
  -3   2  12   15.30    1.20
  -3   2  12   15.20    1.20
  -2   2  12   17.20    1.30
  -2   2  12   15.40    1.20
   1  -2 -12   12.10    1.10
   1  -2 -12   13.20    1.20
  -1   2  12   15.00    1.10
  -1   2  12   14.60    1.00
   0  -2 -12  101.49    7.20
   0  -2 -12  108.59    7.10
   0  -2 -12   96.59    7.20
   0   2  12  121.39    7.10
   0   2  12  120.99    7.20
  -2  -2 -12    8.50    0.90
  -2  -2 -12    8.70    0.90
  -2  -2 -12    8.00    0.80
   2   2  12   10.40    0.70
  -3  -2 -12   60.79    4.00
  -3  -2 -12   58.49    3.90
  -3  -2 -12   56.99    4.00
   3   2  12   58.89    4.00
  -4  -2 -12   36.90    2.80
  -4  -2 -12   37.70    2.70
   4   2  12   41.60    2.70
  -5  -2 -12  207.68   13.20
  -5  -2 -12  205.48   13.20
   5   2  12  193.38   13.10
  -6  -2 -12    8.60    1.20
  -6  -2 -12    8.10    1.40
   6   2  12    9.00    1.30
  -7  -2 -12   26.90    2.30
  -7  -2 -12   23.40    2.10
   7   2  12   21.90    1.90
  -8  -2 -12    1.30    1.10
  -8  -2 -12    0.30    0.80
   8   2  12    0.70    0.90
  -9  -2 -12    1.50    0.90
  -9  -2 -12    2.10    1.40
   9   2  12    0.60    1.00
 -10  -2 -12   -1.00    1.60
 -10  -2 -12   -1.40    0.90
  10   2  12   -0.80    1.10
  10  -3 -12    2.30    1.40
 -10   3  12    0.50    1.00
   9  -3 -12    1.00    1.00
  -9   3  12    1.90    0.80
   8  -3 -12    1.00    0.80
  -8   3  12    0.60    0.60
  -8   3  12    0.70    0.70
   7  -3 -12    1.20    0.70
  -7   3  12    2.00    0.50
  -7   3  12    2.10    0.60
   6  -3 -12   34.00    2.60
  -6   3  12   36.50    2.50
  -6   3  12   35.50    2.50
   5  -3 -12   89.39    5.80
  -5   3  12   85.69    5.80
  -5   3  12   86.79    5.70
   4  -3 -12  209.58   14.30
  -4   3  12  232.08   14.40
   3  -3 -12   -0.50    0.60
   3  -3 -12    0.20    0.40
  -3   3  12   -0.40    0.60
  -3   3  12   -0.10    0.30
  -2   3  12    8.90    0.90
  -2   3  12    9.90    0.80
   1  -3 -12   30.80    2.10
   1  -3 -12   33.50    2.10
  -1   3  12   27.90    2.00
  -1   3  12   26.50    2.10
   0  -3 -12    1.40    0.50
   0  -3 -12    0.80    0.50
   0  -3 -12    3.10    0.60
   0   3  12    2.00    0.40
   0   3  12    1.70    0.30
  -1  -3 -12  330.57   21.20
  -1  -3 -12  327.67   21.10
  -1  -3 -12  321.77   21.10
   1   3  12  334.97   21.10
   1   3  12  322.67   21.20
  -2  -3 -12   14.80    1.20
  -2  -3 -12   13.10    1.20
  -2  -3 -12   14.80    1.20
   2   3  12   11.50    1.10
   2   3  12   12.00    1.30
  -3  -3 -12    3.50    0.60
   3   3  12    3.80    0.60
  -4  -3 -12    0.50    0.60
  -4  -3 -12   -0.80    0.60
   4   3  12   -0.10    0.40
  -5  -3 -12   24.40    2.00
  -5  -3 -12   25.70    2.10
   5   3  12   24.60    1.90
  -6  -3 -12    1.60    0.90
  -6  -3 -12    2.60    1.00
   6   3  12    3.50    0.80
  -7  -3 -12   11.60    1.80
  -7  -3 -12   12.20    1.60
   7   3  12    9.80    1.40
  -8  -3 -12    0.90    1.20
  -8  -3 -12   -0.20    0.90
   8   3  12   -0.30    0.80
  -9  -3 -12    1.20    1.50
  -9  -3 -12   -0.10    1.00
   9   3  12   -0.90    1.00
 -11   4  12    1.30    1.20
  10  -4 -12    6.80    1.50
 -10   4  12   10.40    1.60
   9  -4 -12    0.50    1.00
  -9   4  12    1.60    1.10
   8  -4 -12    3.10    0.90
  -8   4  12    2.00    0.50
  -8   4  12    3.20    0.80
   7  -4 -12   -0.10    0.70
  -7   4  12    0.40    0.40
  -7   4  12    1.50    0.60
   6  -4 -12    9.50    1.10
  -6   4  12    8.50    0.90
  -6   4  12    9.50    1.00
   5  -4 -12   11.50    1.20
  -5   4  12   11.50    1.00
  -5   4  12   10.60    1.00
   4  -4 -12    0.40    0.50
  -4   4  12    0.80    0.40
  -4   4  12    0.00    0.40
  -3   4  12   18.80    1.40
   2  -4 -12  126.39    8.00
   2  -4 -12  121.69    7.90
  -2   4  12  114.79    8.10
  -2   4  12  123.29    8.00
   1  -4 -12  556.34   34.30
   1  -4 -12  552.44   34.30
  -1   4  12  496.65   34.40
  -1   4  12  523.15   34.30
   0  -4 -12  115.19    7.40
   0  -4 -12  113.29    7.50
   0  -4 -12  111.59    7.50
   0   4  12  116.19    7.50
   0   4  12  115.19    7.60
  -1  -4 -12  189.88   12.30
  -1  -4 -12  190.18   12.40
  -1  -4 -12  194.78   12.30
   1   4  12  191.48   12.30
   1   4  12  183.28   12.40
  -2  -4 -12    5.00    0.80
  -2  -4 -12    5.70    0.70
  -2  -4 -12    5.10    0.80
   2   4  12    4.90    0.80
   2   4  12    4.50    0.60
  -3  -4 -12    8.00    1.10
  -3  -4 -12    6.90    1.10
   3   4  12    8.00    0.80
  -4  -4 -12   10.70    1.30
  -4  -4 -12   10.60    1.30
   4   4  12   10.00    1.00
  -5  -4 -12   -0.40    0.90
  -5  -4 -12    1.50    0.80
   5   4  12    0.70    0.70
  -6  -4 -12    1.30    1.00
  -6  -4 -12    3.60    1.00
   6   4  12    2.80    0.90
  -7  -4 -12    3.10    1.10
  -7  -4 -12    1.00    1.30
   7   4  12    5.10    1.00
  -8  -4 -12    1.70    1.10
  -8  -4 -12   -0.70    1.40
   8   4  12    0.00    1.00
  11  -5 -12   16.70    2.80
 -11   5  12   11.60    2.10
  10  -5 -12   34.10    3.10
 -10   5  12   35.40    2.90
   9  -5 -12    3.00    1.10
  -9   5  12    2.00    1.00
   8  -5 -12   23.60    2.10
  -8   5  12   25.80    2.10
   7  -5 -12   46.20    3.00
  -7   5  12   37.40    3.00
  -7   5  12   36.00    2.70
   6  -5 -12   14.50    1.40
  -6   5  12   15.20    1.20
  -6   5  12   14.40    1.30
   5  -5 -12  362.16   23.30
  -5   5  12  355.86   23.30
  -5   5  12  360.96   23.20
   4  -5 -12    1.00    0.50
  -4   5  12    2.10    0.50
  -4   5  12    1.60    0.50
   3  -5 -12   63.39    4.70
  -3   5  12   76.49    4.70
  -3   5  12   72.89    4.70
   2  -5 -12    0.90    0.50
   2  -5 -12    1.20    1.20
  -2   5  12    1.30    0.40
  -2   5  12    0.10    0.40
   1  -5 -12    1.00    0.50
   1  -5 -12    0.90    0.70
   1  -5 -12    0.80    0.40
  -1   5  12    0.40    0.40
  -1   5  12    0.70    0.50
   0  -5 -12   48.00    3.30
   0  -5 -12   49.30    3.40
   0  -5 -12   49.60    3.50
   0   5  12   49.20    3.30
   0   5  12   50.09    3.40
  -1  -5 -12    1.10    0.70
  -1  -5 -12    1.50    0.50
  -1  -5 -12    1.70    0.60
   1   5  12    0.60    0.60
   1   5  12    1.00    0.40
  -2  -5 -12    1.70    0.60
   2   5  12    2.20    0.50
   2   5  12    1.80    0.80
  -3  -5 -12    3.60    0.80
  -3  -5 -12    2.80    0.90
   3   5  12    3.10    0.60
  -4  -5 -12    0.40    0.80
  -4  -5 -12    0.20    0.90
   4   5  12   -0.10    0.70
  -5  -5 -12    3.90    1.00
  -5  -5 -12    5.00    1.10
   5   5  12    2.90    1.00
  -6  -5 -12   20.80    2.40
  -6  -5 -12   24.00    2.20
   6   5  12   17.80    1.90
  -7  -5 -12    1.90    1.40
  -7  -5 -12    3.00    1.20
   7   5  12    0.40    1.00
  -8  -5 -12    0.80    1.70
   8   5  12   -2.40    1.20
  11  -6 -12   18.20    2.80
 -11   6  12   21.60    2.40
  10  -6 -12    1.80    1.30
 -10   6  12    0.60    1.10
   9  -6 -12   13.90    1.90
  -9   6  12   14.70    1.80
   8  -6 -12    9.90    1.40
  -8   6  12    7.90    1.20
   7  -6 -12   79.89    4.90
  -7   6  12   64.59    4.70
  -7   6  12   66.29    4.80
   6  -6 -12   18.60    2.30
  -6   6  12   20.40    1.50
  -6   6  12   19.90    1.70
   5  -6 -12   18.70    1.60
  -5   6  12   17.30    1.50
  -5   6  12   17.70    1.50
   4  -6 -12    3.40    0.70
  -4   6  12    4.20    0.60
  -4   6  12    4.40    0.70
   3  -6 -12    6.80    0.90
  -3   6  12    6.50    0.80
  -3   6  12    7.50    0.90
   2  -6 -12    5.10    0.70
  -2   6  12    3.90    0.60
  -2   6  12    4.20    0.70
   1  -6 -12    0.70    0.50
   1  -6 -12    0.50    0.50
  -1   6  12    0.10    0.50
  -1   6  12   -0.10    0.40
   0  -6 -12    3.90    0.70
   0  -6 -12    2.80    0.90
   0  -6 -12    3.10    0.70
   0   6  12    2.40    0.80
   0   6  12    4.10    0.70
  -1  -6 -12   20.10    1.60
  -1  -6 -12   20.00    2.00
  -1  -6 -12   18.80    1.60
   1   6  12   16.80    1.80
   1   6  12   18.50    1.50
  -2  -6 -12    2.00    1.00
  -2  -6 -12    2.90    0.80
   2   6  12    5.10    0.90
  -3  -6 -12    5.20    1.20
  -3  -6 -12    5.90    1.00
   3   6  12    5.80    1.00
  -4  -6 -12   14.90    2.00
  -4  -6 -12   18.40    1.80
   4   6  12   12.30    1.50
  -5  -6 -12    2.20    1.30
  -5  -6 -12    1.30    1.10
   5   6  12    1.30    0.90
  -6  -6 -12    0.80    1.40
   6   6  12    1.60    1.00
  -7  -6 -12   -1.80    1.70
  -7  -6 -12    0.20    1.40
   7   6  12   -1.20    1.00
  11  -7 -12   21.00    2.80
 -11   7  12   20.60    2.70
  10  -7 -12    0.70    1.30
 -10   7  12    3.10    1.20
   9  -7 -12    0.80    1.10
  -9   7  12   -0.80    1.00
   8  -7 -12    0.60    1.60
  -8   7  12   -0.10    0.90
   7  -7 -12    5.80    1.00
  -7   7  12    6.40    1.00
  -7   7  12    7.10    1.10
   6  -7 -12   17.20    1.70
  -6   7  12   14.90    1.50
  -6   7  12   14.50    1.30
   5  -7 -12    1.50    0.70
  -5   7  12    0.70    0.60
  -5   7  12    0.40    0.50
   4  -7 -12    0.60    0.70
  -4   7  12    1.20    0.50
  -4   7  12    0.80    0.50
   3  -7 -12    7.30    1.10
  -3   7  12    8.20    1.00
  -3   7  12    8.90    1.10
   2  -7 -12    2.00    0.70
  -2   7  12    1.70    0.60
  -2   7  12    1.60    0.60
   1  -7 -12    8.50    1.10
   1  -7 -12    6.30    1.10
  -1   7  12    7.70    1.20
  -1   7  12    5.90    0.90
   0  -7 -12   42.60    3.00
   0  -7 -12   43.40    2.90
   0   7  12   38.70    2.90
   0   7  12   40.80    3.10
  -1  -7 -12   10.90    1.40
   1   7  12    9.60    1.20
   1   7  12   12.50    1.70
  -2  -7 -12   23.70    2.70
  -2  -7 -12   26.20    2.20
   2   7  12   24.60    2.00
  -3  -7 -12   -1.10    1.00
  -3  -7 -12   -1.40    1.20
   3   7  12    0.40    0.80
  -4  -7 -12    0.10    1.40
  -4  -7 -12    1.70    1.10
   4   7  12    2.20    0.90
  -5  -7 -12    7.10    1.60
  -5  -7 -12    4.80    1.50
   5   7  12    5.20    1.10
  -6  -7 -12    0.30    1.60
   6   7  12   -1.10    1.10
  10  -8 -12   -1.20    1.40
 -10   8  12    1.80    1.30
   9  -8 -12    1.60    1.10
  -9   8  12    0.70    1.10
   8  -8 -12    2.00    1.10
  -8   8  12    1.80    1.00
   7  -8 -12   -0.30    1.30
  -7   8  12    1.50    1.00
  -7   8  12    1.40    0.80
   6  -8 -12   13.00    1.60
  -6   8  12   10.20    1.30
  -6   8  12   10.80    1.30
   5  -8 -12   16.10    1.60
  -5   8  12   12.40    1.40
  -5   8  12   14.90    1.50
   4  -8 -12   21.80    2.00
  -4   8  12   23.30    1.90
  -4   8  12   22.80    1.90
   3  -8 -12    5.10    0.90
  -3   8  12    5.80    0.90
  -3   8  12    6.40    1.00
   2  -8 -12    2.30    0.80
  -2   8  12    2.60    0.80
  -2   8  12    2.00    0.70
   1  -8 -12   10.10    1.30
  -1   8  12   10.00    1.20
  -1   8  12   11.50    1.50
   0  -8 -12    1.00    0.80
   0   8  12    1.60    0.90
   0   8  12    0.40    0.70
  -1  -8 -12    5.20    1.10
   1   8  12    3.60    0.90
  -2  -8 -12   19.20    2.10
   2   8  12   15.60    2.20
  -3  -8 -12   -0.20    1.20
   3   8  12    0.10    0.90
  -4  -8 -12    0.50    2.10
  -4  -8 -12   -0.50    1.40
   4   8  12    1.10    1.00
  -5  -8 -12    1.80    1.90
  -5  -8 -12   -2.20    1.70
   5   8  12    2.20    1.20
  10  -9 -12    1.60    1.50
 -10   9  12    0.70    1.50
   9  -9 -12    5.40    1.40
  -9   9  12    4.70    1.30
   8  -9 -12    2.90    1.20
  -8   9  12    5.30    1.20
   7  -9 -12   -0.10    1.00
  -7   9  12    0.60    0.90
  -7   9  12    1.20    0.60
   6  -9 -12    3.70    1.10
  -6   9  12    2.80    0.90
  -6   9  12    1.80    0.60
   5  -9 -12    2.20    1.00
  -5   9  12    0.90    0.80
  -5   9  12    1.30    0.90
   4  -9 -12    3.80    1.00
  -4   9  12    2.80    0.90
  -4   9  12    1.30    0.70
   3  -9 -12    5.40    1.00
  -3   9  12    2.80    0.90
  -3   9  12    4.00    0.90
   2  -9 -12    0.50    1.00
  -2   9  12    3.30    0.90
  -2   9  12    3.00    0.90
   1  -9 -12   16.50    1.70
  -1   9  12   13.40    1.90
  -1   9  12   12.90    1.60
   0   9  12    6.10    1.20
  -1  -9 -12   11.40    2.00
   1   9  12    7.80    1.40
  -2  -9 -12   34.10    3.10
   2   9  12   30.90    2.70
  -3  -9 -12    6.40    1.70
   3   9  12    6.60    1.30
   9 -10 -12    4.70    1.50
  -9  10  12    4.30    1.90
   8 -10 -12   -0.60    1.30
  -8  10  12   -1.70    1.30
   7 -10 -12   -1.20    1.10
  -7  10  12   -0.30    1.10
  -7  10  12    0.20    0.60
   6 -10 -12    7.90    1.40
  -6  10  12    6.00    0.90
  -6  10  12    6.10    1.20
  -5  10  12    9.40    1.70
  -5  10  12    9.40    1.40
  -4  10  12    3.40    1.10
  -4  10  12    3.10    0.90
   3 -10 -12   -1.70    1.40
  -3  10  12    0.90    1.00
  -3  10  12   -1.50    0.90
   2 -10 -12    1.30    1.20
  -2  10  12    1.40    1.00
  -2  10  12    1.20    1.00
  -1  10  12    1.00    1.10
  -1  10  12    1.40    0.90
   0  10  12   -0.70    1.00
   1  10  12   -1.00    1.00
   2  10  12   -0.70    1.20
   7 -11 -12    2.00    1.40
  -7  11  12    1.60    0.70
   6 -11 -12    4.00    1.50
  -6  11  12    4.70    0.90
   5 -11 -12    6.50    1.60
  -5  11  12    7.00    1.50
  -5  11  12    9.90    1.50
   4 -11 -12   26.10    2.70
  -4  11  12   28.70    2.60
  -4  11  12   30.00    2.80
   3 -11 -12    6.20    1.70
  -3  11  12    8.10    1.40
  -3  11  12    7.50    1.50
  -2  11  12    4.30    1.40
  -2  11  12    3.80    1.40
  -1  11  12    5.60    1.50
  -1  11  12    2.30    1.40
   0  11  12    0.20    1.30
   0 -11  13    5.70    1.40
  -1  11 -13    2.70    1.20
  -1  11 -13    3.90    1.80
   1 -11  13    1.00    1.30
  -2  11 -13    1.00    1.00
  -2  11 -13    0.80    1.40
   2 -11  13   -0.60    1.10
  -3  11 -13    2.20    1.00
  -3  11 -13    1.60    1.30
   3 -11  13    1.70    1.10
  -4  11 -13    0.20    0.90
  -4  11 -13   -1.20    1.10
  -4  11 -13    0.80    1.00
  -5  11 -13    2.00    1.00
  -5  11 -13   -0.30    1.00
   5 -11  13    1.80    1.30
  -6  11 -13    3.50    1.10
  -6  11 -13    4.40    1.10
   6 -11  13    4.60    1.40
  -7  11 -13    1.90    1.10
   7 -11  13    1.30    1.50
  -2 -10  13    1.70    1.20
  -1 -10  13    4.50    1.20
   0  10 -13    2.10    1.70
   0  10 -13   -0.50    0.90
   0 -10  13    0.00    1.00
  -1  10 -13    6.40    1.50
  -1  10 -13    3.30    1.00
   1 -10  13    3.30    1.00
  -2  10 -13    1.80    1.30
  -2  10 -13   -0.80    0.80
   2 -10  13    0.10    0.90
  -3  10 -13   -0.10    0.80
  -3  10 -13    1.10    1.10
   3 -10  13    1.10    1.00
  -4  10 -13    8.50    1.40
   4 -10  13    7.30    1.20
  -5  10 -13    4.40    0.90
  -5  10 -13    4.40    1.00
   5 -10  13    3.00    1.10
  -6  10 -13    0.10    0.80
  -6  10 -13    0.90    0.80
   6 -10  13    1.60    1.20
  -7  10 -13    2.30    1.00
   7 -10  13   -0.20    1.20
  -8  10 -13    7.70    1.30
   8 -10  13    4.60    1.50
  -4  -9  13   -1.10    1.20
  -3  -9  13    4.00    1.20
  -2  -9  13    0.60    1.00
   1   9 -13    0.80    1.40
   1   9 -13   -0.40    1.80
  -1  -9  13    0.30    0.90
   0   9 -13   -1.50    1.20
   0   9 -13    0.20    0.80
   0  -9  13    0.20    0.80
  -1   9 -13    1.10    0.80
  -1   9 -13   -0.50    1.10
   1  -9  13    0.60    1.00
  -2   9 -13    1.90    0.80
  -2   9 -13    2.10    1.10
  -3   9 -13    1.20    0.80
  -3   9 -13    1.00    1.00
   3  -9  13    3.70    0.90
  -4   9 -13    1.20    1.00
  -4   9 -13    2.00    1.00
   4  -9  13    4.30    1.10
  -5   9 -13   12.50    1.60
  -5   9 -13    9.50    1.40
   5  -9  13    8.70    1.40
  -6   9 -13   13.00    1.50
  -6   9 -13   12.20    1.50
   6  -9  13   13.60    1.90
  -7   9 -13   22.50    2.20
   7  -9  13   25.60    2.40
  -8   9 -13    3.80    1.00
   8  -9  13   -0.70    1.20
  -9   9 -13    1.60    1.10
   9  -9  13    0.10    1.20
  -5  -8  13   -0.50    1.30
  -4  -8  13   -2.00    1.00
  -3  -8  13    0.00    0.90
   2   8 -13    3.20    0.90
  -2  -8  13    2.10    1.00
   1   8 -13    2.60    1.20
   1   8 -13    3.10    0.80
  -1  -8  13    3.10    0.90
   0   8 -13    0.00    0.70
   0   8 -13    0.60    1.00
  -1   8 -13    0.90    0.90
  -1   8 -13    0.50    0.60
   1  -8  13   -0.10    0.70
  -2   8 -13   17.10    1.80
  -2   8 -13   13.50    1.60
   2  -8  13   15.50    1.50
  -3   8 -13    9.30    1.40
  -3   8 -13   11.70    1.50
   3  -8  13   10.10    1.50
  -4   8 -13   10.00    1.40
  -4   8 -13   12.10    1.40
   4  -8  13    9.60    1.50
  -5   8 -13    1.50    0.70
  -5   8 -13   -0.10    0.70
   5  -8  13    1.10    1.00
  -6   8 -13    8.00    1.30
  -6   8 -13    7.60    1.30
   6  -8  13    8.50    1.50
  -7   8 -13    0.80    1.20
   7  -8  13    0.20    0.90
  -8   8 -13    3.20    1.00
   8  -8  13    3.10    1.00
  -9   8 -13   25.70    2.40
   9  -8  13   27.20    2.60
 -10   8 -13    2.70    1.20
  10  -8  13   -1.90    1.30
  -6  -7  13    1.60    1.90
  -6  -7  13   -0.90    1.30
  -5  -7  13   -2.80    1.50
  -5  -7  13   -1.30    1.00
  -4  -7  13    3.50    1.50
  -4  -7  13    0.10    0.90
   3   7 -13    5.20    0.90
  -3  -7  13    4.10    0.90
   2   7 -13    2.20    0.70
  -2  -7  13    2.40    0.70
   1   7 -13    0.40    0.60
   1   7 -13    1.60    1.00
  -1  -7  13    0.80    0.60
   0   7 -13   24.80    2.00
   0   7 -13   23.30    2.10
   0  -7  13   24.20    2.00
  -1   7 -13   50.19    3.40
  -1   7 -13   48.60    3.30
   1  -7  13   39.30    3.20
  -2   7 -13   21.10    1.80
  -2   7 -13   18.60    1.70
   2  -7  13   16.40    1.80
  -3   7 -13    4.30    0.70
  -3   7 -13    5.40    0.80
   3  -7  13    2.90    0.70
  -4   7 -13    7.90    1.10
  -4   7 -13    7.40    1.20
  -5   7 -13   12.70    1.60
  -5   7 -13   11.30    1.30
   5  -7  13   10.00    1.40
  -6   7 -13    9.90    1.40
  -6   7 -13   10.70    1.10
   6  -7  13   13.50    1.70
  -7   7 -13    2.60    0.80
   7  -7  13    2.90    1.10
  -8   7 -13    0.20    0.80
   8  -7  13    0.90    1.00
  -9   7 -13    0.90    0.90
   9  -7  13    1.90    1.10
  10  -7  13   18.00    2.50
  -7  -6  13   -2.00    1.60
  -7  -6  13    0.00    1.40
  -6  -6  13   -1.70    1.30
  -6  -6  13   -0.50    1.10
  -5  -6  13    0.90    1.30
   4   6 -13   11.20    1.30
  -4  -6  13    8.10    1.50
  -4  -6  13   11.30    1.50
   3   6 -13    9.70    1.20
  -3  -6  13    7.70    1.30
  -3  -6  13    8.10    1.30
   2   6 -13    3.90    0.70
   2   6 -13    5.20    1.60
  -2  -6  13    5.00    1.60
   1   6 -13    4.40    0.70
   1   6 -13    2.30    0.80
  -1  -6  13    4.50    0.70
  -1  -6  13    4.00    1.10
   0   6 -13    2.70    0.80
   0   6 -13    1.90    0.50
   0  -6  13    2.00    0.50
  -1   6 -13    3.80    0.70
  -1   6 -13    4.20    0.70
   1  -6  13    5.00    0.80
  -2   6 -13    2.20    0.50
  -2   6 -13    3.30    0.70
   2  -6  13    1.20    0.50
  -3   6 -13   26.60    2.00
  -3   6 -13   27.40    2.00
   3  -6  13   25.30    2.00
  -4   6 -13    1.20    0.50
  -4   6 -13    2.70    0.60
   4  -6  13    1.10    0.50
  -5   6 -13    4.40    0.80
  -5   6 -13    4.30    0.70
   5  -6  13    4.50    0.70
  -6   6 -13    3.60    0.60
  -6   6 -13    2.00    0.80
   6  -6  13    3.40    1.10
  -7   6 -13    3.00    0.80
   7  -6  13    2.70    1.10
  -8   6 -13    0.10    0.80
   8  -6  13    0.40    0.90
  -9   6 -13   -0.20    0.90
   9  -6  13    2.20    1.20
  10  -6  13    1.90    1.40
  11  -6  13    5.00    1.80
   8   5 -13    3.10    1.30
  -8  -5  13   -0.10    1.30
   7   5 -13    0.60    1.00
  -7  -5  13    0.50    1.20
  -7  -5  13    0.00    1.20
   6   5 -13    4.30    0.90
  -6  -5  13    6.50    1.90
  -6  -5  13    5.40    1.10
   5   5 -13   21.60    1.80
   5   5 -13   21.70    2.00
  -5  -5  13   22.10    2.00
  -5  -5  13   24.30    2.40
   4   5 -13   28.30    2.10
   4   5 -13   28.30    2.20
  -4  -5  13   31.00    2.60
  -4  -5  13   28.20    2.30
   3   5 -13    3.50    0.60
  -3  -5  13    2.60    0.70
  -3  -5  13    4.90    1.00
   2   5 -13   36.50    2.70
   2   5 -13   43.50    3.10
   2   5 -13   40.90    2.80
  -2  -5  13   39.90    3.10
  -2  -5  13   40.10    2.80
   1   5 -13    0.30    0.70
   1   5 -13    1.10    0.40
  -1  -5  13    0.00    0.50
  -1  -5  13    0.10    0.70
   0   5 -13    3.40    0.60
   0   5 -13    4.30    0.80
   0  -5  13    4.40    0.80
   0  -5  13    4.10    0.90
  -1   5 -13   -0.30    0.40
   1  -5  13   -0.10    0.40
  -2   5 -13   14.20    1.30
  -2   5 -13   16.50    1.30
   2  -5  13   13.20    1.20
  -3   5 -13    7.40    0.90
  -3   5 -13    6.30    0.90
   3  -5  13    5.40    0.80
  -4   5 -13    4.00    0.70
  -4   5 -13    3.40    0.60
   4  -5  13    2.70    0.60
  -5   5 -13    0.70    0.50
  -5   5 -13    0.90    0.50
   5  -5  13    0.70    0.50
  -6   5 -13    1.70    0.70
  -6   5 -13    0.70    0.50
  -6   5 -13    0.90    0.60
   6  -5  13    2.20    0.70
  -7   5 -13    1.90    0.70
   7  -5  13    2.00    1.00
  -8   5 -13    0.50    0.70
   8  -5  13    1.50    0.90
   9  -5  13   23.40    2.50
  10  -5  13    5.40    1.50
  11  -5  13    8.80    1.80
   8   4 -13    4.20    1.20
  -8  -4  13    2.90    1.20
   7   4 -13   -0.50    1.60
  -7  -4  13    1.70    1.10
  -7  -4  13   -0.50    1.00
   6   4 -13    3.00    0.80
  -6  -4  13    3.30    1.00
  -6  -4  13    2.10    0.80
   5   4 -13    2.80    0.70
   5   4 -13    2.90    0.60
  -5  -4  13    2.10    0.70
  -5  -4  13    3.60    0.90
   4   4 -13    5.20    0.90
   4   4 -13    6.00    1.00
  -4  -4  13    7.70    1.30
  -4  -4  13    5.10    0.80
   3   4 -13    3.20    1.00
   3   4 -13    3.60    0.60
  -3  -4  13    1.60    1.40
  -3  -4  13    4.60    0.70
   2   4 -13    4.30    0.70
  -2  -4  13    6.90    1.10
  -2  -4  13    4.80    0.60
  -2  -4  13    3.80    0.60
   1   4 -13   11.00    1.30
   1   4 -13   14.90    1.10
  -1  -4  13    9.80    1.30
  -1  -4  13   13.60    1.00
   0   4 -13   28.20    2.10
   0   4 -13   28.80    2.00
   0  -4  13   27.70    2.20
   0  -4  13   27.30    2.10
  -1   4 -13    8.80    1.00
  -1   4 -13    8.40    0.90
   1  -4  13    9.90    1.20
   1  -4  13   11.00    1.00
  -2   4 -13    0.50    0.40
  -2   4 -13   -0.30    0.40
  -3   4 -13   -0.10    0.40
  -3   4 -13   -0.70    0.40
   3  -4  13    0.60    0.40
  -4   4 -13    0.20    0.50
  -4   4 -13    1.10    0.50
   4  -4  13    1.90    0.50
  -5   4 -13   49.10    3.30
  -5   4 -13   50.19    3.20
   5  -4  13   42.00    3.30
  -6   4 -13   67.99    4.50
  -6   4 -13   59.99    4.40
  -6   4 -13   71.59    4.40
  -7   4 -13   21.80    1.80
  -8   4 -13   27.00    2.20
  -8   4 -13   29.20    2.60
  -9   4 -13   34.20    3.10
 -10   4 -13   20.20    2.40
 -11   4 -13    7.30    1.70
   9   3 -13    3.80    1.10
  -9  -3  13    1.40    1.10
   8   3 -13   20.60    2.10
  -8  -3  13   16.40    2.00
   7   3 -13    1.10    0.90
  -7  -3  13    0.50    0.90
  -7  -3  13   -0.50    0.80
   6   3 -13    4.20    0.70
  -6  -3  13    5.90    1.00
  -6  -3  13    7.60    1.20
  -6  -3  13    5.50    0.80
   5   3 -13    1.10    0.50
  -5  -3  13    2.00    0.70
  -5  -3  13    1.30    0.70
  -5  -3  13    0.70    0.60
   4   3 -13    4.30    0.60
  -4  -3  13    4.40    0.70
  -4  -3  13    4.20    0.60
  -4  -3  13    5.40    0.80
   3   3 -13    5.90    0.70
   3   3 -13    6.00    1.00
  -3  -3  13    6.50    0.80
  -3  -3  13    6.80    0.80
  -3  -3  13    5.80    1.00
   2   3 -13    1.90    0.70
  -2  -3  13    1.40    0.60
  -2  -3  13    1.60    0.40
   1   3 -13   -0.60    0.50
   1   3 -13    0.00    0.20
  -1  -3  13   -0.60    0.50
  -1  -3  13    0.00    0.30
  -1  -3  13   -0.20    0.40
   0   3 -13   15.90    1.50
   0   3 -13   19.00    1.30
   0  -3  13   17.30    1.50
   0  -3  13   20.30    1.40
  -1   3 -13    1.70    0.50
  -1   3 -13    2.60    0.40
   1  -3  13    3.20    0.50
   1  -3  13    1.40    0.60
  -2   3 -13   76.49    4.70
  -2   3 -13   74.79    4.70
   2  -3  13   70.09    4.70
   2  -3  13   64.59    4.80
  -3   3 -13  372.76   23.80
  -3   3 -13  397.06   23.80
  -3   3 -13  344.97   23.80
   3  -3  13  361.56   23.90
  -4   3 -13   30.30    2.20
  -4   3 -13   30.10    2.20
  -4   3 -13   33.60    2.30
  -5   3 -13   59.99    3.90
  -5   3 -13   51.49    4.10
   5  -3  13   59.69    3.80
  -6   3 -13  127.49    8.00
  -6   3 -13  122.29    8.10
  -6   3 -13  120.39    8.00
  -6   3 -13  119.89    8.00
   6  -3  13  120.39    7.90
  -7   3 -13    6.40    0.80
  -7   3 -13    2.70    1.10
  -7   3 -13    6.00    1.00
  -7   3 -13    4.30    0.70
  -8   3 -13    4.40    1.00
   8  -3  13    4.30    0.80
  -9   3 -13    2.40    1.20
 -10   3 -13    0.00    1.20
 -11   3 -13    3.70    1.50
  10   2 -13    2.00    1.40
 -10  -2  13    1.70    1.00
   9   2 -13    1.60    1.20
  -9  -2  13   -0.60    0.90
   8   2 -13    1.20    1.10
  -8  -2  13    1.30    0.90
   7   2 -13    7.70    1.10
  -7  -2  13    8.90    1.40
  -7  -2  13    9.40    1.50
  -7  -2  13   11.50    1.40
   6   2 -13    2.70    0.60
  -6  -2  13    3.50    0.70
  -6  -2  13    4.60    0.80
  -6  -2  13    4.10    0.90
   5   2 -13    2.00    0.50
  -5  -2  13    1.80    0.90
  -5  -2  13    1.50    0.70
  -5  -2  13    1.30    0.60
   4   2 -13    1.10    0.40
  -4  -2  13    0.60    0.50
  -4  -2  13    1.40    0.50
  -4  -2  13    1.20    0.70
   3   2 -13   29.70    2.20
   3   2 -13   23.40    2.00
  -3  -2  13   29.30    2.10
  -3  -2  13   27.60    2.00
  -3  -2  13   28.10    2.00
   2   2 -13   18.70    1.30
   2   2 -13   15.60    1.60
  -2  -2  13   18.20    1.50
  -2  -2  13   19.10    1.40
  -2  -2  13   20.10    1.40
   1   2 -13  299.67   19.00
   1   2 -13  313.47   19.00
  -1  -2  13  291.27   18.90
  -1  -2  13  287.27   19.00
  -1  -2  13  278.27   19.00
   0   2 -13  521.25   33.30
   0   2 -13  519.85   33.30
   0  -2  13  515.25   33.20
   0  -2  13  526.15   33.30
   0  -2  13  502.35   33.30
  -1   2 -13   32.60    2.40
  -1   2 -13   36.10    2.40
   1  -2  13   36.80    2.50
   1  -2  13   33.00    2.40
   1  -2  13   36.60    2.30
  -2   2 -13  122.89    9.40
  -2   2 -13  152.48    9.40
  -2   2 -13  158.68    9.40
   2  -2  13  143.29    9.30
   2  -2  13  139.99    9.40
   2  -2  13  151.28    9.40
  -3   2 -13   75.59    4.80
  -3   2 -13   71.99    4.80
  -3   2 -13   64.59    4.80
  -3   2 -13   73.49    4.80
   3  -2  13   77.29    4.70
  -4   2 -13   53.59    3.50
  -4   2 -13   48.20    3.60
  -4   2 -13   51.49    3.50
  -4   2 -13   50.79    3.50
   4  -2  13   56.19    3.50
  -5   2 -13    2.20    0.50
  -5   2 -13    2.30    0.70
  -5   2 -13    2.30    0.60
   5  -2  13    3.50    0.50
  -6   2 -13   -0.20    0.90
  -6   2 -13   -0.80    0.60
  -6   2 -13    0.90    0.40
  -6   2 -13   -0.20    0.50
   6  -2  13    0.80    0.60
  -7   2 -13    0.10    1.00
  -7   2 -13    0.80    0.40
  -7   2 -13    0.40    0.70
   7  -2  13    0.20    0.60
  -8   2 -13    1.60    1.10
   8  -2  13    0.00    0.70
  -9   2 -13    7.20    1.20
   9  -2  13    5.20    1.10
 -10   2 -13   22.90    2.60
  10  -2  13   25.00    2.40
 -11   2 -13   13.80    2.40
  10   1 -13    2.90    1.50
 -10  -1  13    0.00    0.80
  -9  -1  13    0.50    0.80
  -9  -1  13    0.40    1.10
  -8  -1  13   -1.10    0.70
  -8  -1  13    1.10    0.90
   7   1 -13    6.40    1.00
  -7  -1  13    7.50    1.20
  -7  -1  13    5.20    1.00
   6   1 -13   39.80    2.80
  -6  -1  13   41.00    2.90
  -6  -1  13   39.70    2.90
  -6  -1  13   42.20    3.00
   5   1 -13    0.20    0.40
  -5  -1  13    0.90    0.50
  -5  -1  13    0.50    0.50
  -5  -1  13    0.90    0.50
   4   1 -13  108.19    7.20
  -4  -1  13  107.09    7.00
   3   1 -13  302.57   19.00
   3   1 -13  267.77   19.10
  -3  -1  13  301.47   19.00
  -3  -1  13  298.47   19.00
  -3  -1  13  302.17   19.10
   2   1 -13    0.60    0.30
   2   1 -13    1.30    0.50
  -2  -1  13    1.60    0.40
  -2  -1  13    1.00    0.40
  -2  -1  13    1.50    0.30
   1   1 -13   45.00    2.90
   1   1 -13   44.20    2.90
  -1  -1  13   41.60    2.90
  -1  -1  13   41.80    2.80
  -1  -1  13   41.50    2.90
   0   1 -13  107.59    7.00
   0   1 -13  109.49    7.00
   0  -1  13  104.19    7.00
   0  -1  13  105.69    6.90
   0  -1  13  106.89    6.90
  -1   1 -13   62.69    4.10
  -1   1 -13   60.39    4.10
   1  -1  13   61.09    4.10
   1  -1  13   62.39    4.00
   1  -1  13   61.89    4.10
  -2   1 -13    1.00    0.30
  -2   1 -13    0.60    0.50
  -2   1 -13    1.20    0.30
  -2   1 -13    1.00    0.40
   2  -1  13    0.70    0.30
   2  -1  13    0.50    0.50
  -3   1 -13   12.40    1.00
  -3   1 -13   13.00    1.00
  -3   1 -13   12.90    1.00
   3  -1  13   12.80    1.30
   3  -1  13   12.30    1.00
  -4   1 -13   56.59    3.60
  -4   1 -13   59.69    3.60
   4  -1  13   45.70    3.60
  -5   1 -13   18.20    1.60
  -5   1 -13   18.40    1.50
  -5   1 -13   20.30    1.50
   5  -1  13   17.70    1.40
  -6   1 -13   13.20    1.10
  -6   1 -13   10.50    1.20
  -7   1 -13   42.60    2.80
  -7   1 -13   41.70    3.20
   7  -1  13   36.40    2.80
  -8   1 -13   82.29    5.60
   8  -1  13   87.49    5.70
  -9   1 -13    6.90    1.30
   9  -1  13    6.60    1.20
 -10   1 -13    3.60    1.40
  10  -1  13    5.10    1.30
 -10   0  13    7.70    1.40
 -10   0  13    4.30    0.80
  -9   0  13    5.50    1.20
  -9   0  13    7.60    1.20
   8   0 -13    0.30    0.80
  -8   0  13    0.10    0.80
  -8   0  13    0.10    0.80
   7   0 -13   46.90    3.50
  -7   0  13   51.29    3.60
  -7   0  13   50.59    3.50
   6   0 -13   60.09    4.10
  -6   0  13   58.59    4.00
  -6   0  13   57.89    4.00
  -6   0  13   60.09    4.00
   5   0 -13   -0.10    0.60
  -5   0  13    1.10    0.50
  -5   0  13    0.80    0.50
  -4   0  13   60.69    4.10
  -4   0  13   58.89    4.10
   3   0 -13    1.70    0.60
   3   0 -13    1.50    0.40
  -3   0  13    2.40    0.40
  -3   0  13    2.20    0.40
   2   0 -13   24.60    2.00
   2   0 -13   24.00    1.90
  -2   0  13   27.90    1.80
  -2   0  13   28.10    1.90
  -2   0  13   30.60    1.90
   1   0 -13   15.80    1.10
   1   0 -13   15.30    1.20
  -1   0  13   12.90    1.00
   0   0 -13    2.10    0.40
   0   0 -13    1.80    0.30
   0   0  13    1.70    0.30
   0   0  13    1.40    0.30
  -1   0 -13  105.09    7.10
  -1   0 -13  105.99    7.10
  -1   0 -13  101.19    7.20
   1   0  13  122.09    7.40
   1   0  13  115.99    7.10
  -2   0 -13   57.89    4.10
  -2   0 -13   59.99    4.10
  -2   0 -13   61.29    4.00
   2   0  13   61.19    4.10
   2   0  13   66.09    4.00
  -3   0 -13    8.30    0.80
   3   0  13    7.10    1.10
   3   0  13    6.60    0.70
  -4   0 -13  239.08   15.50
  -4   0 -13  240.48   15.60
  -4   0 -13  249.58   15.60
   4   0  13  233.88   15.60
  -5   0 -13   39.10    2.70
  -5   0 -13   31.50    2.50
  -5   0 -13   34.50    2.60
   5   0  13   42.30    2.60
  -6   0 -13    2.00    0.50
  -6   0 -13    2.00    0.70
   6   0  13    0.70    0.50
  -7   0 -13   61.39    4.30
  -7   0 -13   63.39    4.60
   7   0  13   62.69    4.30
  -8   0 -13    4.20    1.10
  -8   0 -13    2.70    0.80
   8   0  13    5.50    0.90
  -9   0 -13   16.60    2.10
  -9   0 -13   11.70    1.40
   9   0  13   15.00    1.80
 -10   0 -13    6.40    1.50
  10   0  13    6.00    1.40
 -11   1  13    4.50    1.50
 -10   1  13   10.00    1.70
   9  -1 -13   14.60    1.80
  -9   1  13   12.90    1.40
  -9   1  13   14.60    1.70
   8  -1 -13    9.60    1.60
  -8   1  13   10.20    1.20
  -8   1  13    9.40    1.90
   7  -1 -13    4.30    0.90
  -7   1  13    5.00    0.90
  -7   1  13    5.80    1.00
   6  -1 -13   -0.90    0.60
  -6   1  13    0.40    0.50
  -6   1  13    0.20    0.50
   5  -1 -13    6.90    1.00
  -5   1  13    7.40    0.90
  -5   1  13    6.00    0.80
  -4   1  13    8.70    0.80
   3  -1 -13   35.40    2.80
  -3   1  13   40.00    2.70
  -3   1  13   43.00    2.70
   2  -1 -13  267.97   15.70
   2  -1 -13  221.68   15.60
  -2   1  13  238.78   15.60
  -2   1  13  237.08   15.60
   1  -1 -13   18.40    1.70
  -1   1  13   24.50    1.60
  -1   1  13   23.50    1.50
   0  -1 -13   40.20    2.80
  -1  -1 -13  148.19   10.10
  -1  -1 -13  150.48   10.10
  -1  -1 -13  164.68   10.10
   1   1  13  157.88   10.10
   1   1  13  154.48   10.10
  -2  -1 -13  555.94   35.50
  -2  -1 -13  532.55   35.50
  -2  -1 -13  514.05   35.50
   2   1  13  587.14   35.50
   2   1  13  567.14   35.50
  -3  -1 -13   16.20    1.20
  -3  -1 -13   16.60    1.30
  -3  -1 -13   16.30    1.30
   3   1  13   13.80    1.40
   3   1  13   14.00    1.20
  -4  -1 -13   39.30    2.60
  -4  -1 -13   34.10    2.50
  -4  -1 -13   36.40    2.60
  -5  -1 -13   20.90    1.70
  -5  -1 -13   20.60    1.80
   5   1  13   20.80    1.60
  -6  -1 -13    2.00    0.80
  -6  -1 -13    1.70    0.70
   6   1  13    2.20    0.60
  -7  -1 -13    1.80    0.80
  -7  -1 -13    4.00    1.00
   7   1  13    3.30    0.70
  -8  -1 -13    5.00    1.00
  -8  -1 -13    8.50    1.80
   8   1  13    5.70    1.00
  -9  -1 -13    9.80    1.60
  -9  -1 -13    7.20    1.30
   9   1  13    8.50    1.30
 -10  -1 -13    3.10    1.50
  10   1  13    1.70    1.30
 -11   2  13    1.20    1.30
 -10   2  13   10.10    1.70
   9  -2 -13    5.80    1.20
  -9   2  13    5.00    1.40
   8  -2 -13    0.50    0.80
  -8   2  13    0.10    0.90
  -8   2  13    0.60    0.60
   7  -2 -13    5.20    0.90
  -7   2  13    5.10    0.80
  -7   2  13    6.60    1.00
   6  -2 -13   11.80    1.30
  -6   2  13   12.60    1.20
  -6   2  13   12.30    1.10
   5  -2 -13   33.70    2.30
  -5   2  13   30.30    2.20
  -5   2  13   28.80    2.20
   4  -2 -13   98.69    6.50
  -4   2  13   98.59    6.50
   3  -2 -13    1.20    0.40
   3  -2 -13    1.60    0.60
  -3   2  13    1.00    0.30
  -3   2  13    0.60    0.30
   2  -2 -13  306.77   20.70
   2  -2 -13  291.87   20.70
  -2   2  13  354.66   20.70
  -2   2  13  328.97   20.70
   1  -2 -13   24.40    2.00
   1  -2 -13   25.80    2.10
  -1   2  13   32.10    2.00
  -1   2  13   32.30    2.10
   0  -2 -13    5.30    0.60
   0   2  13    4.00    0.70
   0   2  13    3.80    0.40
  -1  -2 -13  202.08   13.20
  -1  -2 -13  200.58   13.20
  -1  -2 -13  198.38   13.20
   1   2  13  210.48   13.20
   1   2  13  205.78   13.20
  -2  -2 -13   15.10    1.20
  -2  -2 -13   13.90    1.20
  -2  -2 -13   14.50    1.30
   2   2  13   14.20    1.30
   2   2  13   15.00    1.10
  -3  -2 -13    2.50    0.50
  -3  -2 -13    3.20    0.70
  -3  -2 -13    3.80    0.70
   3   2  13    3.70    0.60
  -4  -2 -13    0.00    0.60
  -4  -2 -13   -0.20    0.50
   4   2  13    0.40    0.40
  -5  -2 -13    4.00    0.80
   5   2  13    2.50    0.60
  -6  -2 -13   22.00    1.90
  -6  -2 -13   19.90    1.80
   6   2  13   20.50    1.70
  -7  -2 -13    0.90    0.70
  -7  -2 -13    2.10    0.90
   7   2  13    1.30    0.70
  -8  -2 -13    1.20    1.20
  -8  -2 -13   -0.60    0.80
   8   2  13    0.50    0.80
  -9  -2 -13    1.80    0.90
  -9  -2 -13    2.10    1.40
   9   2  13    1.30    1.10
 -11   3  13   -0.60    1.30
  10  -3 -13    5.10    1.40
 -10   3  13    5.30    1.20
   9  -3 -13    0.50    1.00
   8  -3 -13   39.60    2.90
  -8   3  13   36.50    2.80
  -8   3  13   36.70    2.60
   7  -3 -13    0.20    0.70
  -7   3  13    0.20    0.50
  -7   3  13    1.30    0.70
   6  -3 -13   17.70    1.70
  -6   3  13   21.10    1.50
  -6   3  13   19.90    1.60
   5  -3 -13  153.48   10.10
  -5   3  13  155.38   10.00
  -5   3  13  151.98   10.00
   4  -3 -13  146.89    9.60
  -4   3  13  146.69    9.60
  -4   3  13  145.89    9.60
   3  -3 -13   62.09    4.50
  -3   3  13   72.09    4.50
   2  -3 -13    8.50    1.10
   2  -3 -13   10.20    0.90
  -2   3  13   10.20    0.80
  -2   3  13    9.10    1.00
   1  -3 -13   37.10    2.60
   1  -3 -13   40.30    2.60
  -1   3  13   35.10    2.60
  -1   3  13   35.60    2.50
   0  -3 -13   27.30    2.00
   0  -3 -13   26.60    1.90
   0  -3 -13   27.70    2.00
   0   3  13   27.50    1.90
   0   3  13   27.10    2.00
  -1  -3 -13   34.80    2.50
  -1  -3 -13   35.80    2.50
  -1  -3 -13   35.80    2.50
   1   3  13   35.00    2.50
  -2  -3 -13   77.79    5.00
  -2  -3 -13   76.79    5.10
  -2  -3 -13   74.69    5.00
   2   3  13   73.59    5.00
   2   3  13   75.99    5.10
  -3  -3 -13  150.98    9.70
  -3  -3 -13  145.39    9.50
  -3  -3 -13  150.18    9.70
   3   3  13  143.99    9.60
  -4  -3 -13    1.30    0.70
  -4  -3 -13    2.10    0.70
   4   3  13    1.90    0.50
  -5  -3 -13   13.20    1.40
  -5  -3 -13   11.90    1.50
   5   3  13   11.90    1.20
  -6  -3 -13    5.30    1.00
  -6  -3 -13    4.70    1.10
   6   3  13    5.80    0.90
  -7  -3 -13   -1.20    0.90
  -7  -3 -13   -0.70    1.20
   7   3  13   -0.40    0.80
  -8  -3 -13    1.90    0.90
  -8  -3 -13    5.10    1.40
   8   3  13    1.40    1.00
  -9  -3 -13    5.70    1.20
  -9  -3 -13    7.30    1.70
 -11   4  13    3.60    1.30
  10  -4 -13    0.60    1.40
 -10   4  13    2.60    1.10
   9  -4 -13    3.50    1.10
  -9   4  13    5.00    1.50
   8  -4 -13    8.80    1.20
  -8   4  13   10.20    1.30
  -8   4  13    8.70    1.00
   7  -4 -13    0.60    0.80
  -7   4  13   -0.60    0.80
  -7   4  13    0.30    0.60
   6  -4 -13    0.00    0.60
  -6   4  13    0.50    0.50
  -6   4  13    0.10    0.40
   5  -4 -13    1.10    0.60
  -5   4  13    1.60    0.50
  -5   4  13    0.30    0.40
   4  -4 -13   20.70    1.60
  -4   4  13   20.50    1.60
  -4   4  13   20.20    1.50
   3  -4 -13  194.78   12.20
  -3   4  13  180.18   12.20
   2  -4 -13    6.70    1.20
  -2   4  13    9.90    0.90
  -2   4  13    9.70    0.90
   1  -4 -13  165.18   11.40
   1  -4 -13  176.98   11.50
  -1   4  13  180.68   11.40
  -1   4  13  179.98   11.50
   0  -4 -13   28.10    1.90
   0  -4 -13   27.40    2.10
   0  -4 -13   25.90    1.90
   0   4  13   25.90    2.00
   0   4  13   25.10    1.90
  -1  -4 -13   10.20    1.20
  -1  -4 -13   11.20    1.10
  -1  -4 -13   10.10    1.20
   1   4  13   11.40    1.20
   1   4  13   11.40    1.00
  -2  -4 -13   19.60    1.70
  -2  -4 -13   21.00    1.60
   2   4  13   18.70    1.70
   2   4  13   19.80    1.50
  -3  -4 -13   10.20    1.20
  -3  -4 -13   10.90    1.30
   3   4  13    9.70    1.00
  -4  -4 -13    6.80    1.00
  -4  -4 -13    7.60    1.30
   4   4  13    6.80    0.90
  -5  -4 -13   14.70    1.70
  -5  -4 -13   14.30    1.60
   5   4  13   10.10    1.30
  -6  -4 -13    0.00    0.90
  -6  -4 -13   -1.40    1.00
   6   4  13   -0.60    0.70
  -7  -4 -13    0.10    1.20
  -7  -4 -13    2.00    1.00
   7   4  13    0.30    0.80
  -8  -4 -13    2.90    1.50
  -8  -4 -13    1.80    1.10
   8   4  13    0.90    1.10
  11  -5 -13    5.10    2.00
 -11   5  13    5.90    1.40
  10  -5 -13   16.60    2.30
 -10   5  13   15.10    2.00
   9  -5 -13    6.60    1.90
  -9   5  13    8.70    1.50
   8  -5 -13   30.50    2.50
  -8   5  13   29.90    2.50
  -8   5  13   30.00    2.20
   7  -5 -13  114.99    7.70
  -7   5  13  114.89    7.60
  -7   5  13  115.39    7.70
   6  -5 -13   21.60    1.80
  -6   5  13   21.90    1.60
  -6   5  13   21.60    1.80
   5  -5 -13   10.70    1.20
  -5   5  13    8.20    1.00
  -5   5  13    9.40    1.00
   4  -5 -13   25.00    1.90
  -4   5  13   24.70    1.80
  -4   5  13   22.70    1.80
  -3   5  13    4.00    0.60
  -3   5  13    5.60    0.80
   2  -5 -13    9.30    1.00
  -2   5  13   10.40    1.00
  -2   5  13   10.90    1.50
   1  -5 -13   31.20    2.40
  -1   5  13   30.40    2.20
  -1   5  13   27.70    2.10
   0  -5 -13    1.70    0.50
   0  -5 -13    2.20    0.80
   0  -5 -13    1.70    0.60
   0   5  13    0.70    0.60
   0   5  13    1.10    0.40
  -1  -5 -13    5.90    0.90
  -1  -5 -13    5.30    1.00
  -1  -5 -13    4.60    0.90
   1   5  13    6.00    0.80
   1   5  13    4.80    0.80
  -2  -5 -13    3.40    0.80
  -2  -5 -13    2.00    0.70
   2   5  13    2.10    1.00
   2   5  13    2.30    0.60
  -3  -5 -13   33.80    2.50
  -3  -5 -13   34.00    2.60
   3   5  13   29.70    2.30
  -4  -5 -13    6.60    1.10
  -4  -5 -13    6.80    1.10
   4   5  13    6.30    1.00
  -5  -5 -13    6.10    1.20
  -5  -5 -13    6.40    1.20
   5   5  13    5.80    1.00
  -6  -5 -13    1.10    1.20
  -6  -5 -13    1.00    1.10
   6   5  13    0.40    0.90
  -7  -5 -13    1.50    1.20
  -7  -5 -13   -0.90    1.50
   7   5  13   -0.10    1.00
  11  -6 -13    2.90    1.80
 -11   6  13    1.30    1.40
  10  -6 -13    1.50    1.40
 -10   6  13    2.20    1.20
   9  -6 -13   25.00    2.40
  -9   6  13   21.90    2.30
   8  -6 -13   -0.40    1.00
  -8   6  13    0.50    0.40
  -8   6  13    1.20    0.80
   7  -6 -13    1.30    0.80
  -7   6  13    1.20    0.50
  -7   6  13    0.40    0.70
   6  -6 -13   14.10    1.70
  -6   6  13   12.20    1.20
  -6   6  13   11.00    1.30
   5  -6 -13    5.90    1.00
  -5   6  13    5.40    0.90
  -5   6  13    5.70    0.90
   4  -6 -13    9.30    1.20
  -4   6  13    9.30    1.10
  -4   6  13    9.20    1.00
   3  -6 -13    7.50    1.00
  -3   6  13    8.30    1.00
  -3   6  13    7.70    0.90
   2  -6 -13    1.10    0.60
  -2   6  13    0.30    0.40
  -2   6  13   -0.20    0.50
   1  -6 -13   30.80    2.20
   1  -6 -13   28.20    2.20
  -1   6  13   29.90    2.20
  -1   6  13   32.30    2.30
   0  -6 -13    5.70    1.00
   0  -6 -13    6.80    1.10
   0   6  13    6.30    0.80
   0   6  13    5.10    1.00
  -1  -6 -13    0.80    0.90
  -1  -6 -13    0.50    0.60
  -1  -6 -13    0.20    0.80
   1   6  13    0.30    0.70
   1   6  13    1.20    0.50
  -2  -6 -13   19.90    2.00
  -2  -6 -13   19.30    1.80
   2   6  13   16.90    1.60
  -3  -6 -13    5.00    1.10
  -3  -6 -13    4.60    1.00
   3   6  13    2.60    0.80
  -4  -6 -13    5.40    1.30
  -4  -6 -13    4.40    1.20
   4   6  13    4.00    0.90
  -5  -6 -13   17.50    2.50
  -5  -6 -13   15.30    2.10
   5   6  13   13.20    1.60
  -6  -6 -13    0.90    1.30
  -6  -6 -13    2.60    1.50
   6   6  13    0.70    1.00
  -7  -6 -13   -2.80    1.80
  -7  -6 -13    2.30    1.50
   7   6  13    1.30    1.10
  10  -7 -13    4.40    1.50
 -10   7  13    2.70    1.30
   9  -7 -13    0.80    1.10
  -9   7  13   -0.50    1.00
   8  -7 -13    1.80    1.00
  -8   7  13    0.00    1.40
  -8   7  13    1.10    0.50
   7  -7 -13   18.10    1.80
  -7   7  13   15.00    1.60
  -7   7  13   16.00    1.40
   6  -7 -13    6.10    1.30
  -6   7  13    2.60    0.70
  -6   7  13    2.50    0.90
   5  -7 -13    0.00    0.70
  -5   7  13    2.00    0.60
  -5   7  13    1.60    0.70
   4  -7 -13    4.40    0.90
  -4   7  13    4.70    0.80
  -4   7  13    4.10    0.80
   3  -7 -13   55.19    3.80
  -3   7  13   52.39    3.70
  -3   7  13   52.59    3.70
   2  -7 -13   35.20    2.80
  -2   7  13   39.40    2.70
  -2   7  13   38.90    2.80
   1  -7 -13   20.40    1.90
  -1   7  13   23.10    1.90
  -1   7  13   25.60    2.00
   0  -7 -13   18.20    1.80
   0  -7 -13   23.10    1.90
   0   7  13   23.90    2.00
   0   7  13   23.00    1.80
  -1  -7 -13   13.00    1.60
   1   7  13   16.50    1.80
   1   7  13   13.40    1.40
  -2  -7 -13    0.30    0.90
  -2  -7 -13    2.00    1.20
   2   7  13    0.80    1.00
  -3  -7 -13    4.70    1.20
  -3  -7 -13    4.70    1.50
  -4  -7 -13    3.70    1.40
  -4  -7 -13    4.50    1.80
   4   7  13    5.40    1.10
  -5  -7 -13    0.40    1.50
  -5  -7 -13    0.70    1.50
   5   7  13    0.60    1.00
  -6  -7 -13    0.70    1.70
  -6  -7 -13    4.10    1.90
   6   7  13    0.40    1.10
  10  -8 -13    0.10    1.40
 -10   8  13   -0.40    1.30
   9  -8 -13   -0.20    1.20
  -9   8  13   -0.10    1.10
   8  -8 -13    1.30    1.10
  -8   8  13   -0.50    1.00
   7  -8 -13    7.00    1.20
  -7   8  13    7.40    1.20
  -7   8  13    9.90    1.10
   6  -8 -13    1.00    1.00
  -6   8  13    2.50    0.80
  -6   8  13    2.00    0.60
   5  -8 -13    3.80    1.10
  -5   8  13    8.30    1.20
  -5   8  13    6.30    0.90
   4  -8 -13    2.40    0.90
  -4   8  13    2.90    0.70
  -4   8  13    2.60    0.80
   3  -8 -13    6.20    1.10
  -3   8  13    8.00    1.10
  -3   8  13    7.50    1.30
   2  -8 -13    1.80    0.80
  -2   8  13    0.80    0.80
  -2   8  13    0.30    0.60
   1  -8 -13    4.80    1.00
  -1   8  13    7.20    1.10
  -1   8  13    5.80    1.00
   0  -8 -13    2.80    1.00
   0   8  13    2.40    0.70
   0   8  13    1.10    1.00
  -1  -8 -13   11.10    1.70
   1   8  13   12.00    1.40
  -2  -8 -13    4.40    1.30
   2   8  13    4.10    0.90
  -3  -8 -13    1.20    1.30
   3   8  13    0.90    0.90
  -4  -8 -13   -1.50    1.50
   4   8  13    0.10    1.00
  -5  -8 -13    4.80    2.10
  -5  -8 -13    1.30    1.80
   5   8  13    3.10    1.30
   9  -9 -13    8.20    1.50
   8  -9 -13   10.40    1.80
  -8   9  13   12.80    1.90
   7  -9 -13    5.20    1.20
  -7   9  13    4.50    0.80
  -7   9  13    4.10    1.10
   6  -9 -13   27.30    2.50
  -6   9  13   30.60    3.10
  -6   9  13   28.80    2.30
   5  -9 -13    2.50    1.40
  -5   9  13    4.90    1.00
  -5   9  13    2.10    0.80
   4  -9 -13   -0.40    0.90
  -4   9  13    0.50    0.70
  -4   9  13    0.80    0.90
   3  -9 -13    1.70    1.00
  -3   9  13    1.70    0.90
  -3   9  13    2.40    0.90
   2  -9 -13    5.40    1.10
  -2   9  13    4.30    1.10
  -2   9  13    4.30    1.00
  -1   9  13    0.70    0.90
  -1   9  13    1.20    1.00
   0   9  13    4.20    1.00
   0   9  13    4.90    1.20
   1   9  13    3.00    1.00
  -2  -9 -13   15.60    2.50
   2   9  13   14.40    1.90
  -3  -9 -13   10.80    1.90
   3   9  13    7.00    1.40
   8 -10 -13    2.10    1.40
  -8  10  13   -1.20    1.30
   7 -10 -13    0.20    1.20
  -7  10  13    1.50    0.70
  -7  10  13    0.50    1.20
   6 -10 -13   20.40    2.20
  -6  10  13   21.10    2.10
  -6  10  13   17.00    1.80
   5 -10 -13   12.80    2.00
  -5  10  13   16.60    1.90
  -5  10  13   13.90    1.70
   4 -10 -13   -0.40    1.20
  -4  10  13    0.40    0.80
   3 -10 -13   -0.10    1.20
  -3  10  13    1.00    1.10
  -3  10  13    0.90    1.00
  -2  10  13    0.60    1.00
  -2  10  13   -0.20    1.10
  -1  10  13    5.80    1.20
  -1  10  13    7.30    1.40
   0  10  13    0.80    1.10
   1  10  13   -1.10    1.10
  -7  11  13    0.40    0.80
   6 -11 -13    3.40    1.50
  -6  11  13    0.70    1.40
  -6  11  13    1.40    0.80
   5 -11 -13   10.70    1.70
  -5  11  13    8.70    1.60
  -5  11  13   10.00    1.70
   4 -11 -13   12.90    2.20
  -4  11  13   10.50    1.80
  -4  11  13    8.50    1.60
  -3  11  13    1.60    1.20
  -3  11  13    3.70    1.40
  -2  11  13    2.50    1.40
  -2  11  13    1.60    1.40
  -1  11  13    8.10    1.90
  -1  11  13    3.10    1.50
  -1  11 -14    0.50    1.80
  -1  11 -14    1.10    1.10
   1 -11  14    1.20    1.20
  -2  11 -14    0.30    1.60
  -2  11 -14    2.60    1.10
   2 -11  14    1.60    1.20
  -3  11 -14    6.90    1.50
  -3  11 -14    6.60    1.20
   3 -11  14    7.90    1.40
  -4  11 -14    3.10    1.00
  -4  11 -14    2.30    1.20
   4 -11  14    1.80    1.20
  -5  11 -14   -0.90    1.10
  -5  11 -14   -0.50    1.00
   5 -11  14    0.20    1.20
  -6  11 -14    5.10    1.20
  -6  11 -14    5.70    1.10
   6 -11  14    7.30    1.40
  -2 -10  14    1.20    1.30
  -1 -10  14    2.80    1.20
   0  10 -14    1.50    1.70
   0  10 -14   -0.40    1.00
   0 -10  14    0.40    1.00
  -1  10 -14    4.00    1.50
  -1  10 -14    0.80    1.00
   1 -10  14    1.90    1.10
  -2  10 -14    6.40    1.40
  -2  10 -14    2.50    1.00
   2 -10  14    4.00    1.10
  -3  10 -14    4.00    1.00
  -3  10 -14    5.70    1.30
   3 -10  14    1.60    1.00
  -4  10 -14    9.90    1.60
  -4  10 -14   10.30    1.50
   4 -10  14   11.20    1.80
  -5  10 -14    0.90    0.90
  -5  10 -14    0.00    1.00
   5 -10  14    0.90    1.10
  -6  10 -14   10.10    1.60
   6 -10  14    8.50    1.40
  -7  10 -14    1.30    1.00
   7 -10  14    0.10    1.20
   8 -10  14    9.10    1.70
  -3  -9  14    2.80    1.30
  -2  -9  14   -0.50    1.00
   1   9 -14   -0.10    0.90
  -1  -9  14    0.20    1.00
   0   9 -14    3.30    1.00
   0   9 -14    6.20    1.50
   0  -9  14    2.70    0.90
  -1   9 -14   -0.90    1.40
  -1   9 -14    0.00    1.10
   1  -9  14    0.20    0.80
  -2   9 -14    2.00    1.10
  -2   9 -14    0.20    1.10
   2  -9  14    0.90    0.90
  -3   9 -14    1.10    1.40
  -3   9 -14    1.70    1.10
   3  -9  14    1.00    0.90
  -4   9 -14    8.20    1.30
  -4   9 -14    6.00    1.10
   4  -9  14    6.60    1.10
  -5   9 -14    4.10    0.90
  -5   9 -14    3.80    1.00
   5  -9  14    5.70    1.10
  -6   9 -14    2.80    0.80
  -6   9 -14    1.80    0.90
   6  -9  14    2.50    1.00
  -7   9 -14   24.70    2.40
   7  -9  14   28.40    2.60
  -8   9 -14    2.90    1.10
   8  -9  14    0.50    1.30
  -9   9 -14    1.10    1.10
   9  -9  14    1.90    1.40
  -5  -8  14   -0.40    1.30
  -4  -8  14   -0.20    1.00
  -3  -8  14    2.70    1.00
   2   8 -14    6.10    1.00
  -2  -8  14    5.00    1.00
   1   8 -14    0.50    0.70
   1   8 -14    0.10    1.20
  -1  -8  14   -0.50    0.80
   0   8 -14   19.50    2.20
   0   8 -14   14.60    1.60
   0  -8  14   13.30    1.60
  -1   8 -14    2.20    1.00
  -1   8 -14    2.00    0.70
   1  -8  14    2.50    0.80
  -2   8 -14   23.40    2.30
  -2   8 -14   22.50    2.10
   2  -8  14   27.10    2.10
  -3   8 -14   12.70    1.40
   3  -8  14   11.60    1.50
  -4   8 -14    3.30    0.80
  -4   8 -14    3.60    1.00
   4  -8  14    2.70    0.90
  -5   8 -14    4.10    0.90
   5  -8  14    3.50    0.90
  -6   8 -14    0.70    0.80
  -6   8 -14    1.00    0.80
  -7   8 -14    0.50    0.90
  -8   8 -14   -0.60    0.90
   8  -8  14    0.60    1.00
  -9   8 -14   16.70    2.10
   9  -8  14   17.60    2.20
 -10   8 -14    1.60    1.30
  10  -8  14    0.00    1.40
  -6  -7  14   -0.20    1.30
  -6  -7  14    1.70    1.90
  -5  -7  14   -1.50    1.10
  -5  -7  14   -1.30    1.70
  -4  -7  14    0.00    0.90
   3   7 -14    0.40    0.80
  -3  -7  14    0.20    0.70
   2   7 -14   14.70    1.50
  -2  -7  14   14.90    1.60
   1   7 -14    1.70    0.70
   1   7 -14    1.70    1.00
  -1  -7  14    1.20    0.70
   0   7 -14    0.60    0.80
   0   7 -14   -1.00    0.60
   0  -7  14   -0.20    0.60
  -1   7 -14   20.20    1.90
  -1   7 -14   22.60    1.80
   1  -7  14   18.60    1.70
  -2   7 -14   17.80    1.60
  -2   7 -14   16.90    1.70
   2  -7  14   19.30    1.90
  -3   7 -14    0.30    0.70
  -3   7 -14   -0.80    0.70
   3  -7  14   -0.10    0.90
  -4   7 -14   10.10    1.30
  -4   7 -14    8.10    1.30
   4  -7  14    8.60    1.50
  -5   7 -14    1.30    0.70
  -5   7 -14    1.60    0.70
   5  -7  14    1.00    0.70
  -6   7 -14    5.70    1.00
  -6   7 -14    5.30    1.10
   6  -7  14    5.20    0.90
  -7   7 -14   -0.40    0.70
   7  -7  14    1.20    0.90
  -8   7 -14    0.10    1.30
   8  -7  14    1.60    1.00
  -9   7 -14    2.20    1.00
   9  -7  14    1.10    1.20
  10  -7  14    7.10    1.50
  -7  -6  14   -0.20    1.40
  -7  -6  14   -0.60    1.70
  -6  -6  14   11.60    1.90
  -6  -6  14   13.10    2.10
  -5  -6  14    6.20    1.70
   4   6 -14    3.80    0.80
  -4  -6  14    3.80    0.90
  -4  -6  14    2.80    1.30
   3   6 -14    4.20    0.70
  -3  -6  14    4.40    1.30
  -3  -6  14    2.30    0.80
   2   6 -14    0.60    0.60
   2   6 -14    0.20    1.00
  -2  -6  14    0.60    1.00
  -2  -6  14   -0.30    0.60
   1   6 -14    3.10    0.60
   1   6 -14    3.80    0.90
  -1  -6  14    2.40    0.70
   0   6 -14    2.80    0.60
   0   6 -14    4.00    0.90
   0  -6  14    2.50    0.60
  -1   6 -14    3.10    0.80
  -1   6 -14    3.20    0.60
   1  -6  14    1.90    0.60
  -2   6 -14    2.60    0.60
  -2   6 -14    3.20    0.70
   2  -6  14    2.00    0.60
  -3   6 -14   28.40    2.10
  -3   6 -14   26.00    2.10
   3  -6  14   26.60    2.10
  -4   6 -14    5.70    1.00
  -4   6 -14    7.20    1.00
   4  -6  14    5.50    0.90
  -5   6 -14   15.00    1.40
  -5   6 -14   13.60    1.30
  -6   6 -14    0.50    0.70
  -6   6 -14   -0.10    0.50
   6  -6  14    0.50    1.20
  -7   6 -14    2.60    0.80
   7  -6  14    2.00    1.20
  -8   6 -14   -0.20    0.80
  -9   6 -14    1.60    1.00
   9  -6  14    2.20    1.20
  10  -6  14    1.60    1.30
  -8  -5  14    3.20    1.50
   7   5 -14    1.90    1.00
  -7  -5  14    3.20    1.30
  -7  -5  14    3.60    1.40
   6   5 -14    1.30    0.90
  -6  -5  14    0.40    1.70
  -6  -5  14    3.00    1.30
   5   5 -14    5.30    0.90
   5   5 -14    7.60    1.10
  -5  -5  14    7.50    1.10
  -5  -5  14    6.60    1.30
   4   5 -14    7.60    1.00
   4   5 -14    6.30    1.10
  -4  -5  14    5.20    1.20
  -4  -5  14    6.10    0.90
   3   5 -14    0.50    0.50
  -3  -5  14    0.00    0.90
  -3  -5  14   -0.60    0.50
   2   5 -14   12.30    1.10
   2   5 -14   13.10    1.80
   2   5 -14   13.10    1.20
  -2  -5  14   10.00    1.70
  -2  -5  14   11.90    1.20
   1   5 -14   -0.30    0.80
   1   5 -14    1.00    0.50
  -1  -5  14   -1.30    0.80
  -1  -5  14    0.30    0.50
   0   5 -14    7.90    1.50
   0   5 -14    7.10    0.90
   0  -5  14    6.60    0.90
   0  -5  14    8.20    1.40
  -1   5 -14    1.20    0.50
  -1   5 -14    1.60    0.60
   1  -5  14    2.00    0.50
  -2   5 -14    0.50    0.40
  -2   5 -14    0.20    0.50
   2  -5  14    0.70    0.40
  -3   5 -14    0.50    0.50
  -3   5 -14    0.20    0.50
   3  -5  14    0.50    0.50
  -4   5 -14   11.90    1.10
  -4   5 -14   11.70    1.20
   4  -5  14   10.60    1.20
  -5   5 -14    2.40    0.50
  -5   5 -14    2.90    0.70
   5  -5  14    3.10    0.70
  -6   5 -14    1.40    0.50
  -6   5 -14    1.30    0.70
   6  -5  14    1.70    0.80
  -7   5 -14   16.80    1.60
   7  -5  14   18.10    1.80
  -8   5 -14   10.50    1.40
   8  -5  14   14.10    1.80
   9  -5  14    6.70    1.40
  10  -5  14   17.60    2.70
  11  -5  14   23.10    3.10
   8   4 -14    0.40    1.10
  -8  -4  14   -2.10    1.20
   7   4 -14    1.30    0.90
  -7  -4  14    0.00    1.10
  -7  -4  14    0.90    1.10
   6   4 -14    2.40    0.80
  -6  -4  14    1.80    1.00
  -6  -4  14    1.30    0.90
   5   4 -14    1.00    0.70
   5   4 -14   -0.20    0.50
  -5  -4  14   -0.80    0.70
  -5  -4  14   -0.40    0.90
   4   4 -14    2.80    0.60
  -4  -4  14    2.00    0.90
  -4  -4  14    2.80    0.70
   3   4 -14    9.40    1.00
  -3  -4  14    8.80    1.10
  -3  -4  14   11.30    1.40
  -3  -4  14    8.80    1.10
   2   4 -14   14.50    1.60
   2   4 -14   11.90    1.10
  -2  -4  14   12.30    1.10
  -2  -4  14   10.80    1.10
  -2  -4  14   11.20    1.40
   1   4 -14   23.30    1.80
   1   4 -14   19.60    1.50
  -1  -4  14   21.90    1.80
  -1  -4  14   17.60    1.50
  -1  -4  14   18.50    1.40
   0   4 -14    0.00    0.40
   0   4 -14    0.20    0.60
   0  -4  14   -0.50    0.40
   0  -4  14    0.20    0.60
  -1   4 -14   -0.60    0.50
  -1   4 -14    0.50    0.40
   1  -4  14    0.30    0.40
  -2   4 -14    2.40    0.90
  -2   4 -14    2.20    0.50
   2  -4  14    2.40    0.50
  -3   4 -14    9.60    1.00
  -3   4 -14   10.10    1.10
   3  -4  14    8.70    1.00
  -4   4 -14   16.10    1.40
  -4   4 -14   18.70    1.50
   4  -4  14   18.10    1.50
  -5   4 -14   84.19    5.70
  -5   4 -14   84.19    5.70
   5  -4  14   89.29    5.80
  -6   4 -14    0.90    0.70
  -6   4 -14    2.10    0.50
   6  -4  14    2.10    0.70
  -7   4 -14   62.69    4.40
  -7   4 -14   58.79    4.20
  -8   4 -14   34.90    2.70
  -8   4 -14   37.30    2.90
  -9   4 -14    2.70    1.10
 -10   4 -14    2.20    1.30
 -11   4 -14   13.10    2.00
   9   3 -14    2.00    1.20
  -9  -3  14    1.30    1.10
   8   3 -14    2.70    1.20
  -8  -3  14    3.60    1.10
   7   3 -14    0.70    0.90
  -7  -3  14   -0.30    1.40
  -7  -3  14    0.10    0.90
   6   3 -14   -1.00    0.50
  -6  -3  14   -0.50    0.80
  -6  -3  14    0.10    0.70
  -6  -3  14    1.20    0.80
   5   3 -14   -0.40    0.40
  -5  -3  14    0.70    0.80
  -5  -3  14    0.40    0.70
  -5  -3  14   -0.70    0.60
   4   3 -14    2.30    0.50
  -4  -3  14    2.90    0.60
  -4  -3  14    2.80    0.70
  -4  -3  14    2.00    0.60
   3   3 -14    0.50    0.40
   3   3 -14    0.10    0.80
  -3  -3  14    1.10    0.50
  -3  -3  14   -0.60    0.60
   2   3 -14    9.50    0.90
   2   3 -14   11.90    1.30
  -2  -3  14    9.50    1.00
  -2  -3  14   10.10    1.00
  -2  -3  14    9.90    1.20
   1   3 -14    1.00    0.70
   1   3 -14    1.50    0.40
  -1  -3  14    1.30    0.60
  -1  -3  14    1.30    0.40
  -1  -3  14    1.50    0.40
   0   3 -14    4.00    0.70
   0  -3  14    4.40    0.60
   0  -3  14    3.40    0.60
  -1   3 -14  218.68   13.10
  -1   3 -14  185.08   13.10
   1  -3  14  207.98   13.00
   1  -3  14  191.68   13.10
  -2   3 -14  150.78    9.40
  -2   3 -14  138.89    9.30
   2  -3  14  143.49    9.30
   2  -3  14  138.09    9.30
  -3   3 -14   19.90    1.50
   3  -3  14   16.60    1.50
  -4   3 -14  206.38   13.80
  -4   3 -14  227.28   14.00
   4  -3  14  205.28   13.80
  -5   3 -14   91.29    6.10
  -5   3 -14   89.99    6.20
  -5   3 -14   88.79    6.20
   5  -3  14  100.99    6.10
  -7   3 -14   20.00    1.50
  -7   3 -14   16.20    1.70
  -7   3 -14   16.40    1.50
   7  -3  14   16.70    1.50
  -8   3 -14    0.40    1.20
  -9   3 -14    2.50    1.10
 -10   3 -14    8.80    1.50
 -11   3 -14   -0.50    1.50
   9   2 -14    1.70    1.20
  -9  -2  14   -0.30    0.90
  -8  -2  14    4.20    1.00
   7   2 -14    7.40    1.20
  -7  -2  14    9.20    1.40
  -7  -2  14    9.10    1.20
   6   2 -14   -0.20    0.50
  -6  -2  14    0.70    0.60
  -6  -2  14    0.80    0.70
  -6  -2  14    0.50    0.70
   5   2 -14    8.60    1.00
  -5  -2  14    7.40    1.00
  -5  -2  14    9.10    1.30
   4   2 -14    9.20    0.90
  -4  -2  14    8.10    1.10
  -4  -2  14    8.70    1.00
  -4  -2  14    8.40    1.00
   3   2 -14   30.50    2.10
   3   2 -14   35.60    2.50
  -3  -2  14   29.10    2.20
  -3  -2  14   31.80    2.30
  -3  -2  14   27.20    2.10
   2   2 -14  121.09    7.80
  -2  -2  14  114.79    7.70
  -2  -2  14  117.39    7.70
  -2  -2  14  116.69    7.70
   1   2 -14  171.58   11.00
   1   2 -14  158.28   11.00
  -1  -2  14  172.98   11.00
  -1  -2  14  170.28   10.90
  -1  -2  14  170.28   10.90
   0   2 -14   39.90    2.50
   0   2 -14   41.60    2.60
   0  -2  14   33.90    2.50
   0  -2  14   35.70    2.50
   0  -2  14   33.10    2.60
  -1   2 -14  313.87   20.20
  -1   2 -14  323.77   20.10
   1  -2  14  306.57   20.10
   1  -2  14  298.47   20.20
   1  -2  14  317.17   20.10
  -2   2 -14   64.89    4.30
  -2   2 -14   61.49    4.20
   2  -2  14   68.19    4.20
   2  -2  14   60.19    4.30
   2  -2  14   65.59    4.30
  -3   2 -14    2.60    0.50
  -3   2 -14    3.90    0.60
   3  -2  14    2.70    0.40
  -4   2 -14   30.90    2.20
  -4   2 -14   30.70    2.20
  -4   2 -14   30.60    2.20
   4  -2  14   29.50    2.10
  -5   2 -14   15.40    1.30
  -5   2 -14   17.40    1.40
  -5   2 -14   15.40    1.40
   5  -2  14   16.70    1.30
  -6   2 -14    3.80    0.80
  -6   2 -14    5.40    0.90
  -6   2 -14    4.60    0.80
  -7   2 -14   14.50    1.90
  -7   2 -14   14.90    1.30
   7  -2  14   12.80    1.30
  -8   2 -14   35.00    2.90
   8  -2  14   25.40    2.20
  -9   2 -14   10.70    1.90
   9  -2  14   11.10    1.60
 -10   2 -14    8.30    1.50
 -11   2 -14    3.00    1.60
  10   1 -14    3.40    1.40
 -10  -1  14    0.30    0.90
  -9  -1  14    0.30    1.20
  -9  -1  14    0.70    0.80
  -8  -1  14    0.20    0.90
  -8  -1  14   -0.60    1.20
   7   1 -14   10.30    1.20
  -7  -1  14    8.90    1.30
  -7  -1  14    9.40    1.30
   6   1 -14    1.10    0.60
  -6  -1  14    1.30    0.70
  -6  -1  14    1.40    0.60
  -6  -1  14    0.80    0.60
   5   1 -14  135.29    8.80
  -5  -1  14  139.69    8.90
  -5  -1  14  127.29    8.80
  -5  -1  14  137.69    8.90
   4   1 -14   34.40    2.40
  -4  -1  14   34.40    2.40
  -4  -1  14   32.20    2.30
  -4  -1  14   33.60    2.50
   3   1 -14   17.40    1.60
   3   1 -14   17.80    1.60
  -3  -1  14   14.00    1.30
  -3  -1  14   13.40    1.20
  -3  -1  14   13.10    1.10
   2   1 -14  270.87   17.50
   2   1 -14  271.67   17.60
  -2  -1  14  276.07   17.50
  -2  -1  14  264.47   17.50
  -2  -1  14  272.97   17.60
   1   1 -14   96.39    6.60
   1   1 -14   97.49    6.60
  -1  -1  14  104.19    6.60
  -1  -1  14  100.09    6.50
  -1  -1  14  103.59    6.50
   0   1 -14   12.60    1.00
   0  -1  14   10.10    0.90
   0  -1  14    9.00    0.80
  -1   1 -14    2.20    0.50
  -1   1 -14    1.90    0.30
   1  -1  14    3.10    0.90
   1  -1  14    1.90    0.40
   1  -1  14    3.10    0.40
  -2   1 -14   24.10    1.70
  -2   1 -14   25.80    1.70
  -2   1 -14   24.30    1.70
   2  -1  14   18.60    1.80
  -3   1 -14   12.70    1.10
  -3   1 -14   13.70    1.10
  -3   1 -14   13.40    1.10
   3  -1  14   13.90    1.10
  -4   1 -14   23.90    1.80
  -4   1 -14   22.90    1.70
  -5   1 -14   10.90    1.10
  -5   1 -14   11.10    1.10
   5  -1  14   11.40    1.00
  -6   1 -14   16.40    1.40
  -6   1 -14   18.40    1.60
   6  -1  14   17.50    1.40
  -7   1 -14   38.20    2.80
  -7   1 -14   38.40    3.20
   7  -1  14   39.80    2.80
  -8   1 -14   22.70    2.10
  -8   1 -14   19.40    1.70
   8  -1  14   19.40    1.80
  -9   1 -14   20.50    2.20
   9  -1  14   13.70    2.50
 -10   1 -14    4.40    1.40
  10  -1  14    1.80    1.30
 -10   0  14    3.90    0.90
 -10   0  14    5.90    1.40
  -9   0  14   10.10    1.80
  -9   0  14   13.20    1.50
   8   0 -14   28.30    2.40
  -8   0  14   30.10    2.30
  -8   0  14   29.00    2.40
   7   0 -14   14.40    1.50
  -7   0  14   15.60    1.50
  -7   0  14   13.90    1.50
   6   0 -14   35.40    2.70
  -6   0  14   35.80    2.60
  -6   0  14   35.80    2.60
   5   0 -14   77.59    5.30
  -5   0  14   79.29    5.30
  -5   0  14   80.49    5.30
   4   0 -14    0.70    0.60
  -4   0  14    1.50    0.50
  -4   0  14    1.40    0.50
   3   0 -14   10.00    1.30
  -3   0  14   13.70    1.10
  -3   0  14   12.50    1.10
   2   0 -14   65.49    4.30
   2   0 -14   63.99    4.30
  -2   0  14   63.99    4.30
  -2   0  14   63.69    4.30
   1   0 -14   14.10    1.10
  -1   0  14   12.80    1.20
  -1   0  14   12.80    1.00
  -1   0  14   13.90    1.00
   0   0 -14    6.00    0.80
   0   0  14    7.80    0.60
   0   0  14    5.60    0.70
   0   0  14    6.40    0.90
  -1   0 -14   45.70    3.10
  -2   0 -14  162.28    9.60
  -2   0 -14  155.28    9.60
  -2   0 -14  151.68    9.60
   2   0  14  136.49    9.60
   2   0  14  132.79    9.60
  -3   0 -14   52.39    3.50
  -3   0 -14   53.59    3.50
  -3   0 -14   49.00    3.50
   3   0  14   54.39    3.50
  -4   0 -14   39.30    2.90
   4   0  14   41.70    2.80
  -5   0 -14   53.79    3.90
  -5   0 -14   61.69    3.90
  -5   0 -14   61.09    4.00
   5   0  14   55.29    3.90
  -6   0 -14   10.90    1.30
  -6   0 -14   13.80    1.50
   6   0  14   15.10    1.30
  -7   0 -14   11.30    1.40
  -7   0 -14   14.70    1.70
   7   0  14   15.40    1.40
  -8   0 -14    2.20    1.40
  -8   0 -14    0.90    0.80
   8   0  14    1.60    0.80
  -9   0 -14   26.90    2.70
  -9   0 -14   27.60    2.10
   9   0  14   24.60    2.40
 -10   0 -14    1.80    1.40
  10   0  14    0.80    1.30
 -10   1  14    0.50    1.10
 -10   1  14    0.90    0.70
   9  -1 -14    5.40    1.20
  -9   1  14    6.40    1.20
   8  -1 -14   15.00    1.90
  -8   1  14   16.50    2.00
  -8   1  14   19.50    1.90
   7  -1 -14    8.50    1.40
  -7   1  14    7.50    1.30
  -7   1  14    9.00    1.10
   6  -1 -14   19.80    1.80
  -6   1  14   19.80    1.60
  -6   1  14   19.20    1.60
   5  -1 -14    3.00    0.70
  -5   1  14    4.30    0.60
  -5   1  14    4.70    0.80
   4  -1 -14   13.00    1.20
  -4   1  14   10.00    1.20
  -4   1  14    9.60    1.00
   3  -1 -14    1.00    0.70
  -3   1  14    2.20    0.40
  -3   1  14    1.90    0.40
   2  -1 -14   18.80    1.60
  -2   1  14   20.50    1.50
  -2   1  14   20.20    1.40
   1  -1 -14   -0.20    0.40
   1  -1 -14    0.10    0.50
  -1   1  14    0.70    0.30
  -1   1  14    0.60    0.40
   0  -1 -14  158.08   12.10
   0  -1 -14  175.48   12.10
   0  -1 -14  177.78   12.10
   0   1  14  215.18   12.20
   0   1  14  208.38   12.10
  -1  -1 -14  109.79    7.30
  -1  -1 -14  105.69    7.30
  -1  -1 -14  113.49    7.30
   1   1  14  113.59    7.30
   1   1  14  115.79    7.30
  -2  -1 -14   47.30    3.10
  -2  -1 -14   44.10    3.10
  -3  -1 -14  175.28   11.30
  -3  -1 -14  172.08   11.30
  -3  -1 -14  172.38   11.40
   3   1  14  176.58   11.30
  -4  -1 -14    8.30    0.80
   4   1  14    7.00    0.80
  -5  -1 -14   10.00    1.20
  -5  -1 -14   11.30    1.30
   5   1  14   10.80    1.10
  -6  -1 -14    6.00    1.10
  -6  -1 -14    5.10    1.00
   6   1  14    5.90    0.80
  -7  -1 -14    2.30    0.80
  -7  -1 -14    3.10    1.50
   7   1  14    1.00    0.70
  -8  -1 -14    6.20    1.30
  -8  -1 -14    4.60    0.90
   8   1  14    5.60    1.70
  -9  -1 -14    0.90    1.30
  -9  -1 -14    0.70    0.80
   9   1  14    1.30    1.10
 -10  -1 -14   -0.30    1.40
  10   1  14   -0.90    1.30
 -11   2  14    1.60    1.40
 -10   2  14    0.10    1.10
   9  -2 -14    0.30    1.10
  -9   2  14   -0.40    0.60
  -9   2  14    1.10    0.90
   8  -2 -14    0.90    0.90
  -8   2  14    1.00    0.80
  -8   2  14    1.40    0.80
   7  -2 -14    2.10    0.90
  -7   2  14    2.60    0.70
  -7   2  14    1.90    0.60
   6  -2 -14    2.20    0.80
  -6   2  14    2.80    0.50
  -6   2  14    3.30    0.70
   5  -2 -14   28.80    2.10
  -5   2  14   25.50    2.00
  -5   2  14   24.40    1.90
   4  -2 -14  117.79    8.30
  -4   2  14  126.49    8.30
  -4   2  14  134.09    8.30
   3  -2 -14   90.49    6.40
   3  -2 -14   97.19    6.30
  -3   2  14  106.19    6.30
  -3   2  14   87.19    6.40
   2  -2 -14    2.60    0.60
   2  -2 -14    2.60    0.90
  -2   2  14    4.10    0.70
  -2   2  14    4.40    0.40
   1  -2 -14  247.38   17.70
   1  -2 -14  259.67   17.70
  -1   2  14  289.97   17.70
  -1   2  14  296.87   17.70
   0  -2 -14    7.90    1.00
   0  -2 -14    9.40    0.90
   0  -2 -14    9.00    1.10
   0   2  14   11.60    0.80
   0   2  14   10.60    1.00
  -1  -2 -14    3.40    0.60
  -1  -2 -14    3.20    0.50
  -1  -2 -14    3.20    0.60
   1   2  14    3.10    0.40
   1   2  14    2.90    0.60
  -2  -2 -14    1.90    0.50
  -2  -2 -14    2.60    0.50
  -2  -2 -14    1.90    0.60
   2   2  14    1.60    0.70
  -3  -2 -14   22.40    1.80
  -3  -2 -14   23.80    1.80
  -3  -2 -14   19.00    1.50
   3   2  14   17.50    1.50
  -4  -2 -14    3.10    0.70
  -4  -2 -14    4.60    0.70
   4   2  14    4.30    0.70
  -5  -2 -14    3.70    0.80
  -5  -2 -14    6.50    1.20
   5   2  14    5.80    0.90
  -6  -2 -14    9.00    1.50
  -6  -2 -14    7.60    1.30
   6   2  14    8.20    1.30
  -7  -2 -14    9.20    1.40
  -7  -2 -14    7.80    1.30
   7   2  14    7.20    1.10
  -8  -2 -14    0.80    0.90
  -8  -2 -14   -0.70    1.20
   8   2  14    0.10    0.90
  -9  -2 -14    2.50    1.50
  -9  -2 -14    0.50    0.90
   9   2  14   -0.20    1.20
 -11   3  14    1.00    1.40
  10  -3 -14    5.20    1.50
 -10   3  14    5.10    1.30
   9  -3 -14    4.20    1.20
  -9   3  14    3.40    0.70
  -9   3  14    4.90    1.10
   8  -3 -14    1.30    1.00
  -8   3  14    2.30    0.80
  -8   3  14    1.80    0.70
   7  -3 -14   35.90    2.90
  -7   3  14   38.80    2.80
  -7   3  14   37.00    2.60
   6  -3 -14    5.10    0.90
  -6   3  14    5.30    0.80
  -6   3  14    5.50    0.80
   5  -3 -14    6.10    1.00
  -5   3  14    4.80    0.80
  -5   3  14    4.80    0.80
   4  -3 -14   86.49    5.60
  -4   3  14   83.89    5.60
  -4   3  14   82.59    5.60
  -3   3  14   11.30    1.10
  -3   3  14   12.80    1.10
   2  -3 -14   65.59    4.40
   2  -3 -14   71.19    4.70
  -2   3  14   58.89    4.30
   1  -3 -14   97.19    6.50
   1  -3 -14   98.29    6.60
  -1   3  14  100.99    6.50
   0  -3 -14    3.10    0.70
   0  -3 -14    5.80    0.70
   0  -3 -14    4.10    0.80
   0   3  14    5.60    0.70
  -1  -3 -14  175.58   11.60
  -1  -3 -14  183.48   11.70
  -1  -3 -14  179.88   11.60
   1   3  14  181.18   11.60
   1   3  14  176.58   11.70
  -2  -3 -14    3.20    0.60
  -2  -3 -14    3.30    0.60
  -2  -3 -14    3.30    0.70
   2   3  14    2.80    0.50
   2   3  14    2.80    0.60
  -3  -3 -14   25.10    1.90
  -3  -3 -14   26.60    2.00
  -3  -3 -14   24.20    1.80
   3   3  14   23.50    1.80
  -4  -3 -14    6.20    0.90
  -4  -3 -14    7.70    1.20
   4   3  14    5.40    0.80
  -5  -3 -14   10.90    1.30
  -5  -3 -14    9.90    1.40
   5   3  14    6.50    1.10
  -6  -3 -14    3.10    0.90
  -6  -3 -14    4.00    1.10
   6   3  14    2.70    0.80
  -7  -3 -14    6.40    1.30
  -7  -3 -14    4.40    1.00
   7   3  14    3.60    0.90
  -8  -3 -14    1.70    1.00
  -8  -3 -14    1.80    1.40
  -9  -3 -14    5.40    1.70
  -9  -3 -14    3.40    1.10
   9   3  14    1.00    1.30
 -11   4  14   18.00    2.30
  10  -4 -14    1.60    1.40
 -10   4  14    1.80    1.20
   9  -4 -14    2.10    1.30
  -9   4  14    1.80    0.90
   8  -4 -14    1.80    0.90
  -8   4  14    1.30    1.00
  -8   4  14    2.00    0.60
   7  -4 -14    0.20    0.80
  -7   4  14    0.60    0.70
  -7   4  14   -0.10    0.50
   6  -4 -14    2.40    0.80
  -6   4  14    2.60    0.70
  -6   4  14    1.90    0.50
   5  -4 -14   69.49    4.60
  -5   4  14   67.79    4.60
  -5   4  14   66.69    4.60
   4  -4 -14    0.30    0.60
  -4   4  14    0.60    0.40
  -4   4  14    0.50    0.40
   3  -4 -14   81.19    5.50
  -3   4  14   78.89    5.40
  -3   4  14   86.09    5.50
   2  -4 -14    1.20    0.50
   2  -4 -14    0.00    0.70
  -2   4  14    1.10    0.40
  -2   4  14    0.40    0.40
   1  -4 -14   18.50    1.60
   1  -4 -14   16.40    1.50
  -1   4  14   17.60    1.50
  -1   4  14   17.80    1.30
   0  -4 -14   34.10    2.40
   0  -4 -14   33.20    2.40
   0  -4 -14   33.20    2.50
   0   4  14   33.80    2.30
   0   4  14   34.40    2.50
  -1  -4 -14   19.50    1.60
  -1  -4 -14   18.30    1.60
  -1  -4 -14   19.20    1.70
   1   4  14   20.80    1.70
   1   4  14   19.50    1.50
  -2  -4 -14    0.10    0.60
  -2  -4 -14    0.50    0.60
   2   4  14    1.00    0.50
   2   4  14    0.70    0.70
  -3  -4 -14    5.10    0.80
  -3  -4 -14    4.10    0.90
   3   4  14    4.70    0.80
  -4  -4 -14   -0.20    0.80
  -4  -4 -14    0.40    0.80
   4   4  14    0.50    0.60
  -5  -4 -14    6.30    1.10
  -5  -4 -14    6.40    1.10
   5   4  14    7.30    1.10
  -6  -4 -14    2.90    1.60
  -6  -4 -14    4.70    1.40
   6   4  14    2.40    0.90
  -7  -4 -14    1.20    1.10
  -7  -4 -14    0.80    1.30
   7   4  14   -1.50    0.90
  -8  -4 -14    1.10    1.10
  -8  -4 -14    3.00    1.60
  11  -5 -14    4.20    2.00
 -11   5  14    3.60    1.40
  10  -5 -14    6.20    1.60
 -10   5  14    3.10    1.30
   9  -5 -14    4.10    1.30
  -9   5  14    6.80    1.20
   8  -5 -14   29.10    2.40
  -8   5  14   25.10    2.00
  -8   5  14   25.60    2.30
   7  -5 -14   38.90    2.80
  -7   5  14   34.90    2.70
  -7   5  14   34.70    2.60
   6  -5 -14    1.50    0.80
  -6   5  14    1.90    0.70
  -6   5  14    1.60    0.50
   5  -5 -14   29.00    2.30
  -5   5  14   25.70    2.00
  -5   5  14   26.00    2.00
   4  -5 -14    2.60    0.70
  -4   5  14    3.20    0.60
  -4   5  14    2.90    0.60
   3  -5 -14    3.90    0.70
  -3   5  14    3.00    0.60
  -3   5  14    3.20    0.60
   2  -5 -14    8.00    1.00
  -2   5  14    7.60    0.90
  -2   5  14    8.60    1.00
   1  -5 -14   12.70    1.20
   1  -5 -14   12.70    1.50
  -1   5  14   10.60    1.10
  -1   5  14   13.70    1.30
   0  -5 -14   -0.30    0.60
   0  -5 -14    1.80    0.60
   0  -5 -14    1.10    0.80
   0   5  14    0.60    0.60
   0   5  14    0.70    0.40
  -1  -5 -14    8.10    1.40
  -1  -5 -14    9.30    1.30
   1   5  14    9.90    1.30
   1   5  14    9.20    0.90
  -2  -5 -14    0.20    0.80
  -2  -5 -14   -0.20    0.70
   2   5  14    0.10    0.50
  -3  -5 -14    7.80    1.10
  -3  -5 -14    9.30    1.50
   3   5  14    8.40    1.50
  -4  -5 -14   13.60    1.70
  -4  -5 -14   11.40    1.70
   4   5  14   11.70    1.30
  -5  -5 -14    0.50    1.10
  -5  -5 -14    0.30    1.10
   5   5  14   -0.40    1.20
  -6  -5 -14   12.40    1.80
  -6  -5 -14   16.10    2.00
   6   5  14   11.70    1.60
  -7  -5 -14    0.60    1.60
   7   5  14    0.20    1.00
  11  -6 -14   24.10    3.20
 -11   6  14   19.40    2.60
  10  -6 -14   -0.30    1.40
 -10   6  14    1.30    1.20
   9  -6 -14    7.10    1.30
  -9   6  14    5.60    1.20
   8  -6 -14    0.00    1.20
  -8   6  14    0.90    0.50
  -8   6  14    1.40    0.90
   7  -6 -14    7.80    1.40
  -7   6  14    9.10    1.30
  -7   6  14    8.60    1.50
   6  -6 -14    5.80    1.20
  -6   6  14    5.70    1.00
  -6   6  14    5.20    0.90
   5  -6 -14   15.50    1.50
  -5   6  14   14.00    1.30
  -5   6  14   13.60    1.30
   4  -6 -14    4.90    0.80
  -4   6  14    3.60    0.60
  -4   6  14    3.50    0.70
   3  -6 -14    4.40    0.80
  -3   6  14    4.50    0.80
   2  -6 -14   -0.50    0.60
  -2   6  14    0.30    0.50
  -2   6  14    0.50    0.50
   1  -6 -14    8.40    1.10
  -1   6  14    6.40    0.90
  -1   6  14    6.50    1.20
   0  -6 -14   13.50    1.40
   0  -6 -14   11.80    2.10
   0   6  14   15.30    1.50
   0   6  14   13.30    1.20
  -1  -6 -14    6.10    1.80
  -1  -6 -14    4.50    0.80
  -1  -6 -14    6.30    1.00
   1   6  14    3.70    0.70
  -2  -6 -14   36.10    2.90
  -2  -6 -14   38.80    3.10
   2   6  14   38.50    2.90
  -3  -6 -14   12.60    1.80
  -3  -6 -14   14.20    2.00
   3   6  14   15.70    1.70
  -4  -6 -14    6.50    1.30
  -4  -6 -14    5.50    1.30
   4   6  14    5.40    1.20
  -5  -6 -14    0.20    1.30
  -5  -6 -14    0.30    1.30
   5   6  14   -0.60    0.80
  -6  -6 -14   -0.80    1.70
  -6  -6 -14   -2.00    1.50
   6   6  14   -0.70    0.90
  10  -7 -14    2.30    1.50
 -10   7  14   -0.30    1.20
   9  -7 -14    1.20    1.20
  -9   7  14    2.10    1.10
   8  -7 -14    0.80    1.00
  -8   7  14    0.00    0.90
  -8   7  14    1.40    0.50
   7  -7 -14    9.00    1.40
  -7   7  14    7.10    1.00
  -7   7  14    6.30    1.10
   6  -7 -14    3.30    1.20
  -6   7  14    2.50    0.60
  -6   7  14    2.20    0.80
   5  -7 -14    5.80    1.00
  -5   7  14    5.80    0.90
  -5   7  14    4.30    0.80
   4  -7 -14   13.40    1.50
  -4   7  14   14.50    1.40
  -4   7  14   13.70    1.40
   3  -7 -14    6.30    0.90
  -3   7  14    7.30    1.00
  -3   7  14    4.50    0.80
   2  -7 -14    3.50    0.80
  -2   7  14    2.40    0.80
  -2   7  14    2.10    0.60
   1  -7 -14    4.10    0.90
  -1   7  14    7.00    1.00
  -1   7  14    6.10    1.00
   0  -7 -14   53.59    3.60
   0  -7 -14   54.69    3.60
   0   7  14   47.90    3.60
   0   7  14   50.19    3.80
  -1  -7 -14    2.30    0.90
   1   7  14    1.20    0.70
   1   7  14    1.30    1.60
  -2  -7 -14    2.30    1.40
  -2  -7 -14    1.30    1.00
   2   7  14    1.00    0.70
  -3  -7 -14    5.90    1.50
  -3  -7 -14    4.00    1.30
   3   7  14    4.90    1.00
  -4  -7 -14    2.70    1.60
  -4  -7 -14    2.30    1.30
   4   7  14    2.40    0.90
  -5  -7 -14   -3.10    1.60
  -5  -7 -14   -1.50    1.60
   5   7  14    0.60    1.00
  10  -8 -14    3.20    1.60
 -10   8  14   -1.70    1.40
   9  -8 -14   -1.20    1.20
  -9   8  14    1.40    1.20
   8  -8 -14    0.20    1.00
  -8   8  14   -0.30    1.00
  -8   8  14    0.30    0.60
   7  -8 -14    2.50    1.00
  -7   8  14    0.70    0.60
  -7   8  14    1.30    0.90
  -6   8  14    5.20    1.10
  -6   8  14    6.70    1.00
   5  -8 -14    7.70    1.20
  -5   8  14    7.60    1.30
   4  -8 -14   41.10    3.20
  -4   8  14   43.50    3.20
  -4   8  14   43.70    3.20
   3  -8 -14   24.90    2.10
  -3   8  14   23.30    2.00
  -3   8  14   23.60    2.10
   2  -8 -14   11.20    1.50
  -2   8  14   12.10    1.40
  -2   8  14   13.10    1.70
   1  -8 -14   -0.70    0.90
  -1   8  14    0.00    0.70
  -1   8  14   -0.40    0.90
   0   8  14   15.30    2.00
   0   8  14   15.20    1.50
  -1  -8 -14   21.40    2.20
   1   8  14   19.90    2.20
  -2  -8 -14   -0.30    1.20
   2   8  14   -0.80    0.80
  -3  -8 -14    2.50    1.50
   3   8  14    3.70    1.10
  -4  -8 -14    0.50    1.70
   9  -9 -14   -1.10    1.40
  -9   9  14   -1.30    1.40
   8  -9 -14    2.20    1.30
  -8   9  14    0.00    0.60
  -8   9  14    0.40    1.20
   7  -9 -14    2.10    1.10
  -7   9  14    1.30    1.10
  -7   9  14    0.80    0.70
   6  -9 -14   29.50    2.60
  -6   9  14   29.10    2.40
  -6   9  14   27.80    2.30
   5  -9 -14    1.40    1.10
  -5   9  14    3.70    1.30
  -5   9  14    2.20    0.80
   4  -9 -14    0.00    1.10
  -4   9  14    1.60    1.00
  -4   9  14    0.10    1.00
   3  -9 -14   -0.20    1.00
  -3   9  14   -0.50    0.90
  -3   9  14   -0.10    0.90
   2  -9 -14   -1.50    1.00
  -2   9  14    0.20    1.00
  -1   9  14    2.90    1.30
  -1   9  14    2.20    0.80
   0   9  14    4.10    2.20
   1   9  14   16.70    1.80
   2   9  14    6.10    1.20
   3   9  14   -0.70    1.20
   8 -10 -14    1.10    1.40
  -8  10  14    1.60    1.50
   7 -10 -14    4.00    1.40
  -7  10  14    0.10    1.30
  -7  10  14    1.60    0.80
   6 -10 -14   15.50    2.10
  -6  10  14   12.00    1.60
  -6  10  14   15.80    1.90
   5 -10 -14   24.40    2.60
  -5  10  14   30.80    2.60
  -5  10  14   28.00    2.40
   4 -10 -14    0.40    1.20
  -4  10  14    1.30    0.90
  -4  10  14   -2.10    1.10
   3 -10 -14    2.40    1.30
  -3  10  14    0.00    1.00
  -3  10  14    2.40    1.10
  -2  10  14    2.90    1.20
  -2  10  14    3.10    1.20
  -1  10  14    1.90    1.40
  -1  10  14    0.40    1.20
   0  10  14    0.50    1.10
   1  10  14    9.20    1.50
   6 -11 -14    4.80    1.50
  -6  11  14    0.50    1.40
  -6  11  14    0.90    0.90
   5 -11 -14   21.80    2.50
  -5  11  14   14.90    1.90
  -5  11  14   14.60    2.40
   4 -11 -14    5.20    1.60
  -4  11  14    4.40    1.50
  -4  11  14    3.90    1.10
  -3  11  14    3.20    1.50
  -3  11  14    3.50    1.40
  -2  11  14    4.70    1.60
  -2  11  14    4.00    1.50
  -1  11 -15    1.10    1.20
  -1  11 -15    2.70    2.00
  -2  11 -15   -0.20    1.70
  -2  11 -15    0.60    1.10
   2 -11  15   -2.30    1.20
  -3  11 -15    0.20    1.00
  -3  11 -15    1.30    1.50
   3 -11  15    3.50    1.20
  -4  11 -15    5.80    1.30
  -4  11 -15    7.20    1.50
   4 -11  15    2.70    1.30
  -5  11 -15    1.50    1.00
  -5  11 -15   -0.30    1.10
  -5  11 -15    1.60    1.10
   5 -11  15    1.20    1.30
  -1 -10  15    1.00    1.20
   0  10 -15    1.00    1.80
   0  10 -15    0.10    1.20
   0 -10  15   -0.80    1.10
  -1  10 -15   -0.10    1.00
  -1  10 -15    1.70    1.70
   1 -10  15    0.70    1.00
  -2  10 -15    2.00    1.10
  -2  10 -15    2.40    1.40
   2 -10  15    4.30    1.20
  -3  10 -15    0.70    0.90
  -3  10 -15    0.90    1.20
   3 -10  15    2.00    1.10
  -4  10 -15    0.40    0.90
  -4  10 -15    1.70    1.10
   4 -10  15    2.90    1.10
  -5  10 -15    1.30    1.10
  -5  10 -15    0.30    0.90
   5 -10  15    1.50    1.20
  -6  10 -15   18.30    2.00
  -6  10 -15   15.50    1.90
   6 -10  15   17.70    2.30
  -7  10 -15    4.70    1.20
   7 -10  15    4.10    1.40
  -8  10 -15    2.30    1.20
   8 -10  15    0.80    1.50
  -3  -9  15   -0.90    1.20
  -2  -9  15    4.70    1.20
   1   9 -15   -0.20    0.90
  -1  -9  15   -0.50    0.90
   0   9 -15    3.50    2.30
   0   9 -15    1.00    0.90
   0  -9  15    0.90    0.90
  -1   9 -15    0.90    0.80
  -1   9 -15    2.00    1.90
   1  -9  15    0.90    0.80
  -2   9 -15    7.30    1.10
   2  -9  15    7.50    1.20
  -3   9 -15    1.60    1.20
  -3   9 -15    2.60    0.90
   3  -9  15    3.80    0.90
  -4   9 -15    4.60    1.10
  -4   9 -15    3.10    1.00
   4  -9  15    4.80    1.00
  -5   9 -15    5.70    1.10
   5  -9  15    4.70    1.20
  -6   9 -15   14.00    1.60
  -6   9 -15    9.50    1.60
   6  -9  15   12.90    1.90
  -7   9 -15   10.50    1.70
   7  -9  15    9.20    1.40
  -8   9 -15   28.40    2.60
   8  -9  15   24.90    2.90
  -9   9 -15    3.30    1.30
   9  -9  15    1.00    1.30
  -4  -8  15   -0.60    1.10
  -3  -8  15   -0.70    0.90
   2   8 -15    1.10    0.90
  -2  -8  15   -0.70    0.80
   1   8 -15    1.30    0.90
   1   8 -15    2.30    1.40
  -1  -8  15    0.50    1.00
   0   8 -15   52.69    4.00
   0   8 -15   50.39    3.70
   0  -8  15   49.70    3.70
  -1   8 -15   31.20    2.60
  -1   8 -15   27.20    2.30
   1  -8  15   22.20    2.30
  -2   8 -15   13.60    1.60
  -2   8 -15   18.30    1.90
   2  -8  15   14.20    1.80
  -3   8 -15   14.60    2.10
  -3   8 -15   15.40    1.80
   3  -8  15   18.90    2.20
  -4   8 -15    1.40    0.90
   4  -8  15   -0.10    0.80
  -5   8 -15   14.70    1.50
  -5   8 -15   11.80    1.70
   5  -8  15   11.00    1.70
  -6   8 -15    0.60    0.80
  -6   8 -15   -1.10    0.90
   6  -8  15    2.10    0.90
  -7   8 -15   -1.30    0.90
   7  -8  15   -0.20    0.90
  -8   8 -15   -0.30    1.00
   8  -8  15    0.40    1.10
  -9   8 -15   18.10    2.20
   9  -8  15   12.70    2.30
  -5  -7  15   -1.80    1.10
  -5  -7  15   -1.20    2.10
  -4  -7  15   11.10    1.90
   3   7 -15    1.00    0.80
  -3  -7  15    1.00    1.50
   2   7 -15    1.50    0.70
  -2  -7  15    1.70    0.80
   1   7 -15   15.10    1.50
   1   7 -15   16.20    2.10
  -1  -7  15   10.40    1.60
   0   7 -15    8.70    1.20
   0   7 -15    9.10    1.20
   0  -7  15    7.30    1.30
  -1   7 -15   15.50    1.60
   1  -7  15   17.80    1.60
  -2   7 -15   38.20    2.80
  -2   7 -15   37.50    2.90
   2  -7  15   34.70    2.80
  -3   7 -15    2.60    0.80
  -3   7 -15    2.80    1.00
   3  -7  15    3.80    0.80
  -4   7 -15   15.70    1.70
  -4   7 -15   18.10    1.80
   4  -7  15   17.80    2.20
  -5   7 -15    0.50    1.00
  -5   7 -15    1.90    0.70
   5  -7  15    0.40    0.70
  -6   7 -15    0.70    0.60
  -6   7 -15    0.10    0.70
   6  -7  15   -1.30    1.00
  -7   7 -15    0.20    0.80
   7  -7  15    0.40    1.20
  -8   7 -15    0.70    0.90
   8  -7  15    0.80    1.00
  -9   7 -15    1.90    1.20
   9  -7  15    3.50    1.30
  10  -7  15    4.80    1.50
  -6  -6  15   22.70    2.60
  -6  -6  15   22.50    3.00
  -5  -6  15   12.30    1.90
   4   6 -15   14.10    1.60
  -4  -6  15   15.60    2.30
  -4  -6  15   14.10    1.80
   3   6 -15    3.20    0.80
  -3  -6  15    3.50    0.80
  -3  -6  15    2.90    1.20
   2   6 -15   -0.20    1.00
   2   6 -15    1.80    0.60
  -2  -6  15    1.20    0.70
  -2  -6  15    2.90    1.50
   1   6 -15    1.00    0.60
   1   6 -15    0.50    0.90
  -1  -6  15    1.10    0.60
   0   6 -15    7.60    1.00
   0  -6  15    8.50    1.10
  -1   6 -15    1.50    0.70
  -1   6 -15    1.70    0.60
   1  -6  15    2.10    0.60
  -2   6 -15    3.90    0.80
  -2   6 -15    3.00    0.60
   2  -6  15    3.10    0.70
  -3   6 -15   12.60    1.30
  -3   6 -15   11.60    1.40
   3  -6  15   13.50    1.40
  -4   6 -15    3.20    0.70
  -4   6 -15    2.80    0.70
   4  -6  15    3.00    0.90
  -5   6 -15   18.80    1.80
  -5   6 -15   21.10    1.90
   5  -6  15   21.30    1.80
  -6   6 -15    4.30    0.90
  -6   6 -15    4.30    0.70
   6  -6  15    3.60    1.20
  -7   6 -15    0.00    0.80
   7  -6  15    0.50    0.80
  -8   6 -15    0.50    0.90
   8  -6  15    0.50    1.00
  -9   6 -15    1.70    1.30
   9  -6  15    1.80    1.20
  10  -6  15    2.70    1.50
   7   5 -15    5.00    1.90
  -7  -5  15    4.30    1.60
  -7  -5  15    4.50    1.70
   6   5 -15    0.10    0.90
  -6  -5  15    2.00    1.30
  -6  -5  15   -0.40    1.30
   5   5 -15    4.90    0.80
   5   5 -15    3.70    0.80
  -5  -5  15    3.70    0.90
  -5  -5  15    3.80    1.30
   4   5 -15    3.20    0.70
   4   5 -15    3.80    0.70
  -4  -5  15    2.90    0.80
  -4  -5  15    3.60    1.10
   3   5 -15    6.40    1.00
   3   5 -15    7.50    1.30
  -3  -5  15    6.50    1.20
  -3  -5  15    6.70    0.90
   2   5 -15   26.40    2.40
   2   5 -15   23.50    1.90
  -2  -5  15   25.20    2.80
  -2  -5  15   24.10    1.90
   1   5 -15    0.80    0.50
   1   5 -15    0.50    1.40
  -1  -5  15   -0.90    0.80
  -1  -5  15    0.20    0.50
   0   5 -15   13.90    1.20
   0   5 -15   14.00    1.60
   0  -5  15   13.20    1.30
  -1   5 -15    7.80    0.90
  -1   5 -15   10.30    1.20
   1  -5  15    8.50    1.00
  -2   5 -15    0.30    0.60
  -2   5 -15    0.40    0.50
   2  -5  15    0.00    0.50
  -3   5 -15    2.30    0.60
  -3   5 -15    2.30    0.60
   3  -5  15    3.30    0.60
  -4   5 -15    0.90    0.60
  -4   5 -15    1.00    0.60
   4  -5  15    0.80    0.50
  -5   5 -15    0.30    0.50
  -5   5 -15    0.00    0.60
   5  -5  15    0.30    0.60
  -6   5 -15   -1.40    0.70
  -6   5 -15    0.10    0.50
   6  -5  15    1.10    0.90
  -7   5 -15    7.60    1.30
   7  -5  15   10.70    1.50
  -8   5 -15    1.30    0.80
   8  -5  15    2.60    1.70
   9  -5  15    2.50    1.20
  10  -5  15   18.80    2.70
   8   4 -15   -0.20    1.10
  -8  -4  15   -1.30    1.20
   7   4 -15    2.20    1.00
  -7  -4  15    1.10    1.20
   6   4 -15    2.10    0.90
  -6  -4  15    1.80    0.90
  -6  -4  15    1.80    1.20
   5   4 -15   -1.10    0.60
   5   4 -15    0.90    0.70
  -5  -4  15   -0.10    1.00
  -5  -4  15   -0.20    0.70
   4   4 -15    1.50    0.60
  -4  -4  15    1.10    0.60
  -4  -4  15    2.90    1.00
   3   4 -15    1.70    0.50
  -3  -4  15    1.50    0.90
  -3  -4  15    0.80    0.70
  -3  -4  15    2.50    0.60
   2   4 -15    2.30    0.50
   2   4 -15    2.60    0.90
  -2  -4  15    1.50    0.80
  -2  -4  15    1.80    0.60
  -2  -4  15    2.30    0.50
   1   4 -15   28.50    2.60
   1   4 -15   36.90    2.40
  -1  -4  15   30.50    2.60
  -1  -4  15   37.70    2.40
   0   4 -15    0.80    0.60
   0   4 -15    0.20    0.40
   0  -4  15    0.20    0.40
   0  -4  15    1.00    0.70
  -1   4 -15    0.30    0.40
  -1   4 -15    2.20    0.80
   1  -4  15    0.60    0.40
  -2   4 -15    6.50    0.80
   2  -4  15    4.70    0.80
  -3   4 -15    7.10    0.90
   3  -4  15    7.00    0.90
  -4   4 -15    3.60    0.70
  -4   4 -15    3.70    0.60
   4  -4  15    3.50    0.60
  -5   4 -15    1.50    0.50
  -5   4 -15    0.60    0.60
   5  -4  15    1.00    0.60
  -6   4 -15   34.10    2.40
  -6   4 -15   31.70    2.50
   6  -4  15   31.90    2.90
  -7   4 -15   16.40    1.60
  -8   4 -15    1.10    1.00
  -9   4 -15    8.60    1.40
 -10   4 -15    7.40    1.60
   9   3 -15    3.80    1.30
  -9  -3  15    1.40    1.20
   8   3 -15    4.50    1.20
  -8  -3  15    4.40    1.20
   7   3 -15    0.50    1.00
  -7  -3  15   -0.30    1.00
   6   3 -15    1.10    0.70
  -6  -3  15    1.70    0.80
  -6  -3  15    3.70    1.00
  -6  -3  15    2.90    1.00
   5   3 -15    2.40    0.60
  -5  -3  15    3.10    0.80
  -5  -3  15    3.10    0.90
  -5  -3  15    3.00    0.70
   4   3 -15    0.10    0.40
  -4  -3  15    0.90    0.60
  -4  -3  15    0.50    0.50
  -4  -3  15    1.20    0.70
   3   3 -15    1.40    0.50
   3   3 -15    1.10    1.10
  -3  -3  15    0.50    0.80
  -3  -3  15    1.30    0.60
  -3  -3  15    2.00    0.60
   2   3 -15    2.80    0.50
   2   3 -15    3.70    0.80
  -2  -3  15    3.50    0.60
  -2  -3  15    2.90    0.50
  -2  -3  15    4.30    0.70
   1   3 -15    0.30    0.40
   1   3 -15    0.20    0.70
  -1  -3  15    0.10    0.40
  -1  -3  15    0.60    0.40
  -1  -3  15    1.20    0.60
   0   3 -15    2.60    0.40
   0   3 -15    2.80    0.70
   0  -3  15    3.30    0.50
   0  -3  15    2.00    0.60
   0  -3  15    3.70    0.60
  -1   3 -15   15.60    1.30
   1  -3  15   16.10    1.30
  -2   3 -15   57.09    3.50
  -2   3 -15   45.80    3.60
  -3   3 -15   46.50    3.10
  -3   3 -15   44.60    3.10
   3  -3  15   43.30    3.10
  -4   3 -15   11.70    1.10
  -4   3 -15   10.80    1.10
   4  -3  15   12.20    1.20
  -5   3 -15   17.20    1.30
  -5   3 -15   17.10    1.40
  -5   3 -15   14.80    1.40
   5  -3  15   12.10    1.30
  -6   3 -15   -0.40    0.60
  -6   3 -15   -0.60    0.50
  -6   3 -15    0.40    0.60
   6  -3  15    0.20    0.60
  -7   3 -15    0.00    0.70
  -7   3 -15    0.00    0.80
  -7   3 -15    0.60    0.60
  -8   3 -15    6.10    1.10
  -9   3 -15   24.20    2.40
 -10   3 -15    8.70    1.60
   9   2 -15    1.30    1.20
  -8  -2  15   -1.10    0.90
  -8  -2  15    0.90    1.20
   7   2 -15    4.70    0.80
  -7  -2  15    5.50    1.00
  -7  -2  15    8.10    1.20
   6   2 -15    0.10    0.60
  -6  -2  15    0.40    0.60
  -6  -2  15    0.10    0.80
  -6  -2  15    0.20    0.80
   5   2 -15    1.70    0.50
  -5  -2  15    0.60    0.70
  -5  -2  15    1.50    0.70
  -5  -2  15    1.40    0.70
   4   2 -15    1.00    0.40
  -4  -2  15    1.00    0.60
  -4  -2  15    0.30    0.50
  -4  -2  15    1.10    0.60
   3   2 -15   41.90    2.90
   3   2 -15   39.20    3.20
  -3  -2  15   43.10    3.00
  -3  -2  15   44.60    2.90
  -3  -2  15   43.20    2.90
   2   2 -15    1.20    0.40
   2   2 -15    0.70    0.70
  -2  -2  15    1.40    0.40
  -2  -2  15    1.00    0.60
  -2  -2  15    1.00    0.50
   1   2 -15   90.59    5.90
   1   2 -15   94.29    5.90
  -1  -2  15   84.39    5.80
  -1  -2  15   85.99    5.90
  -1  -2  15   89.19    5.80
   0   2 -15   97.09    6.40
   0  -2  15   96.29    6.30
   0  -2  15   97.19    6.30
   0  -2  15   95.79    6.40
  -1   2 -15   15.80    1.20
   1  -2  15   13.30    1.40
   1  -2  15   16.30    1.20
   1  -2  15   15.20    1.20
  -2   2 -15   53.09    3.50
  -2   2 -15   52.99    3.40
   2  -2  15   50.59    3.40
   2  -2  15   50.79    3.50
   2  -2  15   47.70    3.50
  -3   2 -15   48.50    4.00
  -3   2 -15   59.99    3.80
  -3   2 -15   57.19    3.90
   3  -2  15   61.89    3.80
  -4   2 -15   47.10    3.30
  -4   2 -15   46.70    3.20
  -4   2 -15   48.30    3.20
   4  -2  15   46.40    3.20
  -5   2 -15   -0.10    0.50
  -5   2 -15    0.30    0.70
  -5   2 -15    0.60    0.60
   5  -2  15   -0.20    0.50
  -6   2 -15   62.09    4.00
  -6   2 -15   62.99    4.10
   6  -2  15   53.99    4.00
  -7   2 -15   60.49    3.90
  -7   2 -15   59.29    4.10
   7  -2  15   49.40    3.80
  -8   2 -15    6.80    1.20
  -8   2 -15    7.20    1.00
   8  -2  15    6.30    1.00
  -9   2 -15    2.70    1.20
   9  -2  15    2.10    1.10
 -10   2 -15    5.70    1.40
  10   1 -15    5.20    1.50
 -10  -1  15    0.40    1.00
  -9  -1  15    3.50    1.30
  -8  -1  15    1.30    0.80
  -8  -1  15   -0.30    1.20
   7   1 -15    2.70    0.70
  -7  -1  15    4.30    1.00
  -7  -1  15    4.90    0.90
   6   1 -15    9.60    1.20
  -6  -1  15   10.90    1.40
  -6  -1  15   10.00    1.30
   5   1 -15    7.60    1.00
  -5  -1  15    7.00    1.00
  -5  -1  15    7.20    1.00
  -5  -1  15    6.50    1.10
   4   1 -15  142.09    9.20
  -4  -1  15  136.09    9.10
  -4  -1  15  144.49    9.20
  -4  -1  15  139.79    9.20
   3   1 -15   60.19    4.70
   3   1 -15   68.19    4.50
  -3  -1  15   66.09    4.50
  -3  -1  15   72.99    4.50
  -3  -1  15   68.69    4.50
   2   1 -15   19.80    1.50
  -2  -1  15   13.30    1.20
  -2  -1  15   16.80    1.30
  -2  -1  15   15.20    1.40
   1   1 -15   42.80    3.00
   1   1 -15   40.00    2.90
  -1  -1  15   44.90    2.90
  -1  -1  15   43.10    2.90
  -1  -1  15   46.20    3.00
   0   1 -15    1.20    0.30
   0   1 -15    1.70    0.50
   0  -1  15    0.50    0.50
   0  -1  15    1.00    0.40
   0  -1  15    1.00    0.40
  -1   1 -15    5.90    0.70
  -1   1 -15    7.90    0.90
   1  -1  15    6.90    0.80
  -2   1 -15   54.99    3.50
  -2   1 -15   54.89    3.50
  -2   1 -15   53.89    3.50
   2  -1  15   48.40    3.40
   2  -1  15   47.90    3.60
  -3   1 -15   59.79    4.00
  -4   1 -15   10.40    1.10
  -4   1 -15   10.20    1.00
  -4   1 -15    9.10    1.10
   4  -1  15   11.20    1.00
  -6   1 -15   10.80    1.20
  -6   1 -15   11.60    1.40
  -7   1 -15   21.80    2.00
  -7   1 -15   20.70    1.80
   7  -1  15   22.10    1.80
  -8   1 -15   33.60    3.00
  -8   1 -15   35.70    2.50
   8  -1  15   30.10    2.50
  -9   1 -15    4.00    1.30
   9  -1  15    1.20    1.20
 -10   1 -15    5.40    1.40
  10  -1  15    0.10    1.40
 -10   0  15    3.80    1.40
  -9   0  15   25.30    2.40
  -9   0  15   21.90    2.10
   8   0 -15    4.30    0.90
  -8   0  15    3.50    1.10
  -8   0  15    3.90    1.10
   7   0 -15   58.99    4.10
  -7   0  15   55.89    4.10
  -7   0  15   58.49    4.10
   6   0 -15    3.10    0.70
  -6   0  15    2.90    0.70
  -6   0  15    2.30    0.70
   5   0 -15    0.70    0.60
  -5   0  15    1.10    0.60
  -5   0  15    0.70    0.60
   4   0 -15    2.40    0.60
  -4   0  15    3.50    0.60
  -4   0  15    2.80    0.60
  -3   0  15   45.80    3.00
  -3   0  15   41.50    3.00
  -2   0  15    6.50    0.70
  -2   0  15    4.30    0.60
  -2   0  15    6.50    0.90
   1   0 -15   32.70    2.20
  -1   0  15   27.90    2.10
  -1   0  15   30.80    2.10
  -1   0  15   31.10    2.20
   0   0 -15  146.59    8.80
   0   0 -15  148.49    8.80
   0   0  15  122.09    8.70
   0   0  15  133.49    8.70
   0   0  15  121.39    8.80
  -1   0 -15  292.67   19.40
  -1   0 -15  291.77   19.40
  -1   0 -15  301.17   19.40
   1   0  15  305.47   19.40
   1   0  15  310.77   19.40
  -2   0 -15   36.50    2.50
   2   0  15   34.30    2.60
   2   0  15   36.70    2.40
  -3   0 -15    1.20    0.60
  -3   0 -15    2.50    0.50
   3   0  15    1.30    0.40
  -4   0 -15   14.00    1.30
  -4   0 -15   11.90    1.20
  -5   0 -15   84.89    6.30
  -5   0 -15   94.89    6.40
  -5   0 -15   98.29    6.40
   5   0  15  103.99    6.30
  -6   0 -15    2.50    0.80
  -6   0 -15    1.70    0.70
   6   0  15    1.50    0.60
  -7   0 -15   15.90    2.70
  -7   0 -15   13.60    1.50
   7   0  15   16.50    1.50
  -8   0 -15    0.30    0.70
  -8   0 -15    1.10    1.20
   8   0  15    2.80    0.90
  -9   0 -15    1.90    0.80
  -9   0 -15    2.50    1.30
   9   0  15    0.20    1.10
 -10   0 -15    2.10    1.50
  10   0  15   -0.30    1.40
 -10   1  15   16.80    1.50
 -10   1  15   12.80    2.10
   9  -1 -15    3.60    1.10
  -9   1  15    4.10    0.80
  -9   1  15    4.10    1.20
   8  -1 -15    2.60    1.00
  -8   1  15    3.60    0.80
  -8   1  15    3.30    1.00
   7  -1 -15    1.30    0.80
  -7   1  15    0.80    0.70
  -7   1  15    0.60    0.60
   6  -1 -15   16.20    1.60
  -6   1  15   15.40    1.40
  -6   1  15   14.20    1.40
   5  -1 -15   11.90    1.40
  -5   1  15   12.10    1.20
  -5   1  15   10.70    1.20
   4  -1 -15    9.80    1.10
  -4   1  15    6.70    0.90
  -4   1  15    7.50    0.90
   3  -1 -15   12.70    1.40
  -3   1  15   11.10    1.10
   2  -1 -15  113.79    7.80
  -2   1  15  123.59    7.70
  -2   1  15  116.09    7.70
   1  -1 -15  133.99    9.00
   1  -1 -15  131.19    9.00
  -1   1  15  133.69    8.90
  -1   1  15  147.59    9.00
  -1   1  15  143.59    9.00
   0  -1 -15  153.18   10.60
   0  -1 -15  158.28   10.70
   0   1  15  175.28   10.70
   0   1  15  168.68   10.60
  -1  -1 -15  202.08   13.10
  -1  -1 -15  191.28   13.10
  -1  -1 -15  188.38   13.20
   1   1  15  220.58   13.20
   1   1  15  212.68   13.10
  -2  -1 -15  192.08   12.20
  -2  -1 -15  185.88   12.20
  -2  -1 -15  176.18   12.30
   2   1  15  184.38   12.30
   2   1  15  203.18   12.20
  -3  -1 -15   59.49    3.70
  -3  -1 -15   49.20    3.80
   3   1  15   56.69    3.80
  -4  -1 -15   41.50    2.80
  -4  -1 -15   35.20    2.70
  -4  -1 -15   42.10    2.80
   4   1  15   39.00    2.70
  -5  -1 -15   13.30    1.30
  -5  -1 -15   13.50    1.50
   5   1  15   12.10    1.20
  -6  -1 -15    4.90    1.00
  -6  -1 -15    3.40    0.80
   6   1  15    5.10    0.80
  -7  -1 -15    3.20    1.10
  -7  -1 -15    2.30    0.90
   7   1  15    2.50    0.90
  -8  -1 -15    3.60    1.30
  -8  -1 -15   -0.20    0.80
   8   1  15    1.00    0.90
  -9  -1 -15    0.80    0.80
  -9  -1 -15    1.70    1.40
   9   1  15    0.70    1.20
 -10   2  15    0.90    1.20
   9  -2 -15    5.00    1.30
  -9   2  15    7.20    1.10
  -9   2  15    6.20    1.20
   8  -2 -15    6.90    1.20
  -8   2  15   10.20    1.40
  -8   2  15    6.40    1.10
   7  -2 -15    8.20    1.40
  -7   2  15    7.10    1.20
  -7   2  15    7.80    1.30
   6  -2 -15  123.59    8.00
  -6   2  15  117.29    7.90
  -6   2  15  118.89    7.90
   5  -2 -15  300.87   19.70
  -5   2  15  302.17   19.60
  -5   2  15  305.97   19.60
   4  -2 -15   13.30    1.40
  -4   2  15   13.90    1.20
  -4   2  15   12.90    1.20
   3  -2 -15   91.99    7.20
   3  -2 -15  100.89    7.10
  -3   2  15  112.09    7.00
  -3   2  15  122.29    7.10
   2  -2 -15    3.50    0.70
  -2   2  15    2.80    0.50
  -2   2  15    3.40    0.50
  -1   2  15    4.20    0.50
   0  -2 -15   12.80    1.00
   0  -2 -15   12.90    1.20
   0  -2 -15   14.30    1.30
   0   2  15   11.20    1.00
   0   2  15   11.20    1.20
  -1  -2 -15    6.00    0.80
  -1  -2 -15    4.60    0.80
  -1  -2 -15    6.20    0.80
   1   2  15    7.00    1.00
   1   2  15    6.60    0.90
  -2  -2 -15    4.30    0.70
  -2  -2 -15    2.90    0.50
  -2  -2 -15    2.50    0.50
   2   2  15    2.10    0.50
   2   2  15    1.50    0.60
  -3  -2 -15   24.30    1.80
  -3  -2 -15   24.00    2.00
  -3  -2 -15   26.20    1.90
   3   2  15   26.40    1.80
  -4  -2 -15    2.30    0.70
  -4  -2 -15    1.70    0.70
   4   2  15    1.20    0.50
  -5  -2 -15    4.50    0.90
  -5  -2 -15    4.30    0.80
   5   2  15    3.20    0.70
  -6  -2 -15    8.80    1.30
  -6  -2 -15    8.60    1.40
   6   2  15    7.10    1.20
  -7  -2 -15    0.70    1.80
  -7  -2 -15    2.50    1.30
   7   2  15    0.90    0.90
  -8  -2 -15    1.10    0.90
  -8  -2 -15    1.20    1.30
   8   2  15   -1.00    1.00
  -9  -2 -15    2.90    1.00
  -9  -2 -15    5.30    1.60
   9   2  15    1.30    1.30
 -11   3  15    5.50    1.50
  10  -3 -15    0.70    1.50
 -10   3  15    0.60    1.20
   9  -3 -15   14.70    2.50
  -9   3  15   12.90    1.30
  -9   3  15   14.40    1.80
   8  -3 -15    5.60    1.20
  -8   3  15    6.80    1.00
  -8   3  15    4.80    0.90
   7  -3 -15    7.00    1.10
  -7   3  15    5.10    1.20
  -7   3  15    5.70    1.00
   6  -3 -15    1.30    0.80
  -6   3  15    2.40    0.70
  -6   3  15    3.10    0.50
   5  -3 -15   10.00    1.20
  -5   3  15    9.50    1.10
  -5   3  15   10.30    1.10
   4  -3 -15   16.50    1.60
  -4   3  15   18.80    1.50
  -4   3  15   17.70    1.40
   3  -3 -15    0.30    0.60
  -3   3  15   -0.60    0.40
   2  -3 -15   49.90    3.50
   2  -3 -15   49.90    3.60
  -2   3  15   49.90    3.40
  -2   3  15   51.69    3.50
   1  -3 -15    0.60    0.70
   1  -3 -15    1.80    0.60
  -1   3  15    0.90    0.50
  -1   3  15    0.90    0.40
   0  -3 -15    1.90    0.60
   0  -3 -15    4.20    0.70
   0  -3 -15    3.20    0.60
   0   3  15    2.90    0.40
   0   3  15    3.20    0.50
  -1  -3 -15    1.80    0.60
  -1  -3 -15    1.40    0.50
  -1  -3 -15    2.20    0.70
   1   3  15    0.90    0.60
   1   3  15    1.50    0.40
  -2  -3 -15   10.70    1.10
  -2  -3 -15   10.10    1.20
  -2  -3 -15   13.10    1.40
   2   3  15   10.20    1.30
   2   3  15   11.60    1.00
  -3  -3 -15   14.30    1.30
  -3  -3 -15   14.60    1.40
  -3  -3 -15   15.30    1.40
   3   3  15   13.90    1.20
  -4  -3 -15    0.10    0.70
  -4  -3 -15    0.60    0.70
   4   3  15   -0.30    0.50
  -5  -3 -15    3.10    0.90
  -5  -3 -15    3.90    1.00
   5   3  15    2.40    0.70
  -6  -3 -15    0.30    1.00
  -6  -3 -15   -0.10    0.90
   6   3  15   -1.20    0.70
  -7  -3 -15    1.80    1.00
  -7  -3 -15    4.30    1.40
   7   3  15    0.40    0.90
  -8  -3 -15    1.50    1.10
  -8  -3 -15    0.40    1.50
 -11   4  15   27.80    2.80
  10  -4 -15    1.80    1.50
 -10   4  15    0.80    1.20
   9  -4 -15   25.60    2.60
  -9   4  15   27.40    2.40
   8  -4 -15    1.30    1.00
  -8   4  15    0.50    0.70
  -8   4  15    0.10    0.80
   7  -4 -15    0.10    0.90
  -7   4  15    0.60    0.50
  -7   4  15    0.40    0.70
   6  -4 -15   16.20    1.70
  -6   4  15   16.80    1.60
  -6   4  15   17.20    1.50
   5  -4 -15    1.50    0.70
  -5   4  15    2.40    0.50
  -5   4  15    2.10    0.60
   4  -4 -15    3.70    0.70
  -4   4  15    3.00    0.60
  -4   4  15    3.80    0.60
   3  -4 -15    2.90    0.70
  -3   4  15    2.40    0.50
  -3   4  15    2.50    0.50
   2  -4 -15   -0.50    0.50
  -2   4  15    0.20    0.40
   1  -4 -15    1.10    0.60
   1  -4 -15    1.20    0.90
  -1   4  15    0.40    0.40
  -1   4  15    0.40    0.60
   0  -4 -15   13.20    1.40
   0  -4 -15   12.40    1.20
   0  -4 -15    8.00    1.10
   0   4  15   10.10    1.20
   0   4  15   10.30    1.00
  -1  -4 -15    3.80    0.70
  -1  -4 -15    2.90    0.80
  -1  -4 -15    3.30    0.60
   1   4  15    2.00    0.60
   1   4  15    2.30    0.60
  -2  -4 -15    2.60    0.80
  -2  -4 -15    3.00    0.70
  -2  -4 -15    0.90    0.60
   2   4  15    1.80    0.50
  -3  -4 -15    4.30    0.90
  -3  -4 -15    3.20    0.80
   3   4  15    3.80    0.70
  -4  -4 -15    1.50    0.90
  -4  -4 -15   -0.70    0.80
   4   4  15    1.00    0.60
  -5  -4 -15    6.50    1.10
  -5  -4 -15    5.80    1.20
   5   4  15    5.60    0.90
  -6  -4 -15    0.10    1.20
  -6  -4 -15   -0.10    1.10
   6   4  15   -1.70    0.80
  -7  -4 -15    0.60    1.40
  -7  -4 -15   -1.00    1.10
   7   4  15   -1.40    0.90
  -8  -4 -15    7.20    1.40
  -8  -4 -15   10.30    2.00
   8   4  15    5.40    1.30
 -11   5  15   -0.30    1.40
  10  -5 -15   -0.50    1.50
 -10   5  15    1.40    1.20
   9  -5 -15    4.50    1.40
  -9   5  15    4.70    1.20
   8  -5 -15   13.70    1.70
  -8   5  15   11.00    1.60
  -8   5  15   12.30    1.40
   7  -5 -15    1.50    0.90
  -7   5  15    0.30    0.50
  -7   5  15   -0.10    0.80
   6  -5 -15    1.30    0.90
  -6   5  15    1.40    0.50
  -6   5  15    0.80    0.60
   5  -5 -15    2.70    0.80
  -5   5  15    1.40    0.60
  -5   5  15    1.90    0.50
   4  -5 -15   -0.50    0.60
  -4   5  15    0.40    0.50
  -4   5  15   -0.70    0.50
   3  -5 -15    4.60    0.80
  -3   5  15    4.00    0.70
  -3   5  15    4.50    0.70
   2  -5 -15   12.40    1.30
  -2   5  15   12.10    1.20
  -2   5  15   10.60    1.10
   1  -5 -15    2.50    1.20
   1  -5 -15    0.30    0.60
  -1   5  15    1.90    0.50
  -1   5  15    1.00    0.70
   0  -5 -15   -1.10    0.80
   0  -5 -15    1.20    0.70
   0  -5 -15    2.20    0.60
   0   5  15    1.10    0.60
   0   5  15   -0.10    0.40
  -1  -5 -15   -0.60    0.90
  -1  -5 -15    0.50    0.80
   1   5  15   -0.20    0.70
   1   5  15   -0.10    0.50
  -2  -5 -15    1.30    0.90
  -2  -5 -15    0.40    0.70
   2   5  15    0.80    0.90
  -3  -5 -15   28.90    2.60
  -3  -5 -15   30.30    2.50
   3   5  15   30.30    2.40
  -4  -5 -15    2.10    1.00
  -4  -5 -15    2.20    1.10
   4   5  15    2.80    1.00
  -5  -5 -15   -0.80    1.70
  -5  -5 -15    2.20    1.20
   5   5  15   -0.20    0.80
  -6  -5 -15    3.40    1.20
  -6  -5 -15    0.90    1.50
   6   5  15   -0.40    0.90
  -7  -5 -15    6.30    1.80
  -7  -5 -15    4.70    1.40
  10  -6 -15    1.90    1.50
 -10   6  15    2.10    1.30
   9  -6 -15    0.60    1.20
  -9   6  15    1.00    1.10
   8  -6 -15    5.20    1.20
  -8   6  15    5.10    0.90
  -8   6  15    4.60    1.10
   7  -6 -15    2.40    0.90
  -7   6  15    1.40    0.80
  -7   6  15    1.90    0.60
   6  -6 -15    5.90    1.10
  -6   6  15    5.00    0.90
  -6   6  15    7.20    1.00
   5  -6 -15    0.00    0.70
  -5   6  15    0.00    0.50
  -5   6  15    0.00    0.50
   4  -6 -15   -0.30    0.70
  -4   6  15    0.20    0.60
  -4   6  15    0.30    0.60
   3  -6 -15   -0.40    0.60
  -3   6  15   -0.60    0.60
  -3   6  15   -0.50    0.50
   2  -6 -15   13.90    1.40
  -2   6  15   12.70    1.40
  -2   6  15   12.60    1.20
   1  -6 -15    6.20    1.00
  -1   6  15    8.20    1.10
  -1   6  15    7.90    1.30
   0  -6 -15   12.30    1.30
   0  -6 -15    9.90    1.40
   0   6  15    8.20    1.00
   0   6  15    8.30    1.40
  -1  -6 -15    3.30    1.10
  -1  -6 -15    3.40    0.90
   1   6  15    2.60    0.70
   1   6  15    2.70    0.90
  -2  -6 -15   34.10    2.60
  -2  -6 -15   30.90    2.80
   2   6  15   34.20    2.80
  -3  -6 -15    3.30    1.20
  -3  -6 -15    4.00    1.10
   3   6  15    5.10    0.90
  -4  -6 -15   22.70    2.30
  -4  -6 -15   18.90    2.50
   4   6  15   19.40    1.90
  -5  -6 -15   -0.30    1.50
  -5  -6 -15    1.10    1.40
   5   6  15    1.10    0.90
  -6  -6 -15   -0.70    1.60
  -6  -6 -15    3.70    1.50
   6   6  15    0.80    1.00
  10  -7 -15   -1.90    1.50
 -10   7  15   -2.20    1.20
   9  -7 -15    1.00    1.30
  -9   7  15    0.40    1.10
   8  -7 -15   -0.30    1.10
  -8   7  15    0.60    0.80
  -8   7  15   -0.50    1.00
   7  -7 -15    0.10    1.10
  -7   7  15    0.40    0.90
  -7   7  15   -0.80    0.90
   6  -7 -15    0.70    0.90
  -6   7  15    1.50    0.70
  -6   7  15    1.40    0.70
   5  -7 -15    0.30    0.80
  -5   7  15    0.40    0.60
  -5   7  15    0.20    0.70
   4  -7 -15    6.40    1.00
  -4   7  15    5.90    0.90
  -4   7  15    4.70    0.90
  -3   7  15   17.50    1.70
  -3   7  15   15.90    1.50
   2  -7 -15    9.80    1.40
  -2   7  15   11.50    1.30
  -2   7  15   11.00    1.50
  -1   7  15    2.90    0.90
  -1   7  15    3.80    0.80
   0  -7 -15    5.90    1.10
   0   7  15    5.70    1.10
   0   7  15    5.70    0.80
  -1  -7 -15   21.30    2.10
   1   7  15   19.60    1.80
  -2  -7 -15    0.10    1.10
   2   7  15   -1.40    0.90
  -3  -7 -15    2.70    1.50
  -3  -7 -15    2.40    1.30
   3   7  15    1.70    0.90
  -4  -7 -15   -1.10    1.60
  -4  -7 -15   -1.30    1.40
   4   7  15    0.10    1.00
  -5  -7 -15    3.00    1.80
  -5  -7 -15    1.40    1.70
   5   7  15    4.60    1.20
   9  -8 -15    2.50    1.40
  -9   8  15    1.50    1.20
   8  -8 -15    3.00    1.30
  -8   8  15    2.80    1.10
  -8   8  15    3.20    0.70
   7  -8 -15    2.80    1.10
  -7   8  15    3.80    0.70
  -7   8  15    4.80    1.00
   6  -8 -15    3.70    1.10
  -6   8  15    2.60    0.70
   5  -8 -15    5.80    1.10
  -5   8  15    5.00    0.90
  -5   8  15    7.90    1.30
   4  -8 -15   23.00    2.10
  -4   8  15   22.00    2.00
  -4   8  15   22.30    2.00
  -3   8  15    6.60    1.10
  -3   8  15    8.10    1.40
   2  -8 -15    8.00    1.50
  -2   8  15    8.90    1.30
  -2   8  15    8.30    1.20
   1  -8 -15    7.30    1.20
  -1   8  15    8.20    1.20
  -1   8  15    8.10    1.20
   0   8  15   -0.10    0.80
   0   8  15   -1.10    1.00
   1   8  15   63.79    4.50
  -2  -8 -15    2.30    1.60
   2   8  15    4.80    1.00
  -3  -8 -15    1.40    1.60
   3   8  15    0.40    1.00
  -4  -8 -15    0.60    1.90
   4   8  15    2.60    1.20
   9  -9 -15    4.10    1.50
  -9   9  15    0.70    1.50
   8  -9 -15    3.30    1.40
  -8   9  15    4.50    0.80
  -8   9  15    4.80    1.30
   7  -9 -15    4.40    1.30
  -7   9  15    3.70    1.20
  -7   9  15    4.90    0.80
   6  -9 -15   11.90    1.70
  -6   9  15    9.60    1.40
  -6   9  15    9.20    1.60
   5  -9 -15    2.10    1.10
  -5   9  15    2.10    1.00
   4  -9 -15    0.20    1.00
  -4   9  15    1.10    0.90
  -4   9  15    1.20    0.90
  -3   9  15    6.40    1.20
  -3   9  15    5.70    1.10
   2  -9 -15    1.80    1.20
  -2   9  15    2.20    1.00
  -2   9  15    0.90    1.80
  -1   9  15    4.80    1.40
  -1   9  15    2.60    0.90
   0   9  15    0.70    0.90
   1   9  15    0.90    1.00
   2   9  15    1.60    1.10
   3   9  15   12.10    1.90
   7 -10 -15    3.80    1.40
  -7  10  15    1.60    1.30
  -7  10  15    1.50    0.80
   6 -10 -15    4.00    1.30
  -6  10  15    1.20    0.80
  -6  10  15    3.00    1.10
   5 -10 -15   31.10    2.80
  -5  10  15   30.20    2.60
  -5  10  15   31.60    2.80
   4 -10 -15   -0.30    1.30
  -4  10  15    1.50    1.30
   3 -10 -15    5.50    1.60
  -3  10  15    7.70    1.30
  -3  10  15    8.50    1.40
  -2  10  15    6.60    1.50
  -2  10  15    8.00    1.30
  -1  10  15   27.50    2.70
  -1  10  15   33.70    3.30
   0  10  15    0.50    1.10
   1  10  15   -2.40    1.20
   5 -11 -15    1.40    1.60
  -5  11  15    1.60    1.60
  -5  11  15    3.40    1.00
   4 -11 -15    0.40    1.70
  -4  11  15    2.30    1.20
  -4  11  15    4.50    1.50
  -3  11  15    2.60    1.40
  -3  11  15    2.20    1.20
  -2  11  15   -0.60    1.60
  -3  11 -16    3.50    1.50
  -3  11 -16    2.30    1.20
   3 -11  16    1.90    1.20
  -4  11 -16   -0.50    1.30
  -4  11 -16    0.10    1.00
   4 -11  16   -1.50    1.30
  -5  11 -16    0.00    1.30
  -1 -10  16   -0.80    1.30
   0  10 -16   -1.80    1.20
   0  10 -16    0.40    1.90
   0 -10  16   -0.90    1.10
  -1  10 -16   -1.40    1.10
  -1  10 -16   -1.80    1.70
   1 -10  16   -1.40    1.00
  -2  10 -16    0.20    1.10
  -2  10 -16    1.60    1.50
   2 -10  16    1.40    1.10
  -3  10 -16    0.50    1.00
  -3  10 -16   -1.50    1.30
   3 -10  16    1.10    1.10
  -4  10 -16    2.40    1.30
  -4  10 -16    1.40    0.90
   4 -10  16    2.10    1.10
  -5  10 -16    0.70    0.90
  -5  10 -16    0.60    1.20
   5 -10  16    0.00    1.20
  -6  10 -16   11.00    1.80
  -6  10 -16    9.10    1.70
   6 -10  16   12.20    2.20
  -7  10 -16   27.60    2.60
   7 -10  16   26.30    2.90
  -3  -9  16    0.90    1.30
  -2  -9  16   -1.20    1.10
   1   9 -16    1.00    1.00
  -1  -9  16    1.40    1.00
   0   9 -16    8.40    1.70
   0   9 -16    3.60    1.00
   0  -9  16    5.20    1.10
  -1   9 -16    0.20    0.80
  -1   9 -16    0.20    1.40
   1  -9  16    1.00    1.00
  -2   9 -16    4.90    1.30
  -2   9 -16    2.80    1.00
  -3   9 -16   19.30    2.00
  -3   9 -16   23.00    2.30
   3  -9  16   17.30    2.00
  -4   9 -16   16.30    1.90
  -4   9 -16   20.30    2.10
   4  -9  16   17.30    2.10
  -5   9 -16    4.40    1.10
  -5   9 -16    4.40    1.10
   5  -9  16    4.10    1.10
  -6   9 -16    4.10    1.00
   6  -9  16    4.20    1.20
  -7   9 -16    4.10    1.10
   7  -9  16    2.40    1.20
  -8   9 -16   30.50    2.80
   8  -9  16   29.60    3.10
  -4  -8  16   -1.40    1.10
  -3  -8  16   -0.20    1.00
   2   8 -16    1.00    1.00
  -2  -8  16    0.00    0.90
   1   8 -16    2.20    1.50
   1   8 -16   -0.20    1.20
  -1  -8  16   -0.20    0.80
   0   8 -16    3.60    1.30
   0   8 -16    4.60    1.00
  -1   8 -16   96.59    6.60
  -1   8 -16   94.49    6.40
   1  -8  16   92.49    6.50
  -2   8 -16   16.10    2.00
  -2   8 -16   15.90    1.70
   2  -8  16   20.60    2.00
  -3   8 -16   23.60    2.20
  -3   8 -16   26.20    2.20
   3  -8  16   17.80    2.10
  -4   8 -16   18.80    1.90
   4  -8  16   16.80    1.90
  -5   8 -16    6.40    1.60
  -5   8 -16    9.50    1.80
   5  -8  16   11.80    1.90
  -6   8 -16    5.10    0.90
  -6   8 -16    4.40    1.00
   6  -8  16    2.80    1.00
  -7   8 -16    0.10    0.90
  -7   8 -16    0.40    0.70
   7  -8  16   -0.60    1.00
  -8   8 -16    0.30    1.00
   8  -8  16   -0.40    1.20
  -9   8 -16    7.40    1.50
   9  -8  16    7.50    1.50
  -5  -7  16   -0.70    1.20
  -4  -7  16    4.40    1.20
   3   7 -16   17.60    1.80
  -3  -7  16   14.80    1.90
   2   7 -16   34.80    2.70
  -2  -7  16   35.40    2.80
   1   7 -16    5.60    1.40
   1   7 -16    5.80    1.00
  -1  -7  16    8.10    1.30
   0   7 -16   13.30    1.40
   0   7 -16   16.80    1.90
   0  -7  16   10.20    1.50
  -1   7 -16    0.90    0.80
  -1   7 -16    1.90    1.00
   1  -7  16    2.80    0.70
  -2   7 -16   20.20    1.90
  -2   7 -16   19.20    1.80
   2  -7  16   18.80    1.80
  -3   7 -16    3.90    1.00
  -3   7 -16    3.50    0.80
   3  -7  16    2.90    1.00
  -4   7 -16    6.80    1.00
  -4   7 -16    6.90    1.10
   4  -7  16    5.80    1.20
  -5   7 -16   -1.50    0.80
  -5   7 -16   -0.30    0.70
   5  -7  16   -0.40    1.00
  -6   7 -16   -0.40    0.80
  -6   7 -16    0.70    0.80
   6  -7  16   -0.70    0.80
  -7   7 -16    1.60    0.70
   7  -7  16    1.90    1.00
  -8   7 -16    2.20    1.10
   8  -7  16    2.80    1.20
  -9   7 -16    0.90    1.20
   9  -7  16    0.70    1.20
  10  -7  16    0.50    1.50
  -6  -6  16    2.60    1.70
  -6  -6  16    2.00    1.30
  -5  -6  16   34.40    3.30
  -5  -6  16   33.80    2.90
   4   6 -16    3.20    0.90
  -4  -6  16    2.40    1.50
  -4  -6  16    3.50    1.00
   3   6 -16   15.80    1.60
  -3  -6  16   15.30    2.30
  -3  -6  16   14.10    1.70
   2   6 -16    3.30    0.70
  -2  -6  16    2.60    0.70
   1   6 -16    6.20    1.20
   1   6 -16    8.40    1.10
  -1  -6  16    8.60    1.20
   0   6 -16    1.00    0.80
   0   6 -16    0.40    0.60
   0  -6  16    1.30    0.60
  -1   6 -16    0.60    0.60
  -1   6 -16    1.10    0.80
   1  -6  16    0.50    0.60
  -2   6 -16   21.60    1.80
  -2   6 -16   18.40    1.90
   2  -6  16   23.80    1.80
  -3   6 -16    3.40    0.80
  -3   6 -16    2.80    0.80
   3  -6  16    1.30    0.70
  -4   6 -16   10.80    1.50
  -4   6 -16    9.00    1.30
   4  -6  16    9.30    1.40
  -5   6 -16    8.00    1.20
  -5   6 -16    6.80    1.10
   5  -6  16    7.10    1.30
  -6   6 -16    2.00    0.80
  -6   6 -16   -0.30    0.70
   6  -6  16    1.10    1.00
  -7   6 -16    2.30    0.60
  -7   6 -16    2.10    0.90
   7  -6  16    2.70    1.00
  -8   6 -16    1.20    0.90
   8  -6  16    1.40    1.10
   9  -6  16    0.60    1.30
  10  -6  16    0.60    1.40
  -7  -5  16    2.90    1.50
  -6  -5  16    5.10    1.40
  -6  -5  16    5.10    1.20
   5   5 -16    0.00    0.80
  -5  -5  16    1.40    1.30
  -5  -5  16   -0.40    0.90
   4   5 -16    0.40    0.60
  -4  -5  16    1.40    1.20
  -4  -5  16    0.00    0.70
   3   5 -16    3.50    0.70
  -3  -5  16    3.30    0.80
  -3  -5  16    4.60    1.20
   2   5 -16    0.10    0.50
  -2  -5  16    0.50    0.60
  -2  -5  16   -1.30    1.10
   1   5 -16    4.10    1.00
   1   5 -16    2.90    0.60
  -1  -5  16    2.50    0.70
  -1  -5  16    3.20    1.00
   0   5 -16    3.40    0.60
   0   5 -16    2.40    0.80
   0  -5  16    3.30    0.60
  -1   5 -16    3.80    0.80
  -1   5 -16    3.40    0.60
   1  -5  16    5.40    0.90
  -2   5 -16   10.60    1.30
  -2   5 -16   11.40    1.10
   2  -5  16    9.80    1.20
  -3   5 -16    1.80    0.60
  -3   5 -16    1.60    0.60
   3  -5  16    2.50    0.60
  -4   5 -16    4.40    0.70
  -4   5 -16    2.90    0.70
   4  -5  16    2.20    0.70
  -5   5 -16    7.00    1.00
  -5   5 -16    6.60    1.20
   5  -5  16    4.70    1.30
  -6   5 -16    1.80    0.70
  -6   5 -16   -0.20    0.70
   6  -5  16    2.00    0.90
  -7   5 -16    3.60    0.90
  -7   5 -16    5.40    0.70
   7  -5  16    5.00    1.20
  -8   5 -16    2.40    0.90
   8  -5  16    0.20    1.10
   9  -5  16    4.90    1.30
  10  -5  16    5.10    1.60
   8   4 -16    2.00    1.20
  -8  -4  16   -0.60    1.30
   7   4 -16    2.10    1.00
  -7  -4  16    1.60    1.20
   6   4 -16    0.80    0.90
  -6  -4  16    0.20    1.80
  -6  -4  16   -0.10    0.90
   5   4 -16   -0.40    0.60
   5   4 -16    0.90    0.80
  -5  -4  16    2.90    1.10
  -5  -4  16    0.50    0.80
   4   4 -16    8.10    1.10
  -4  -4  16    9.50    1.40
  -4  -4  16    8.70    1.20
   3   4 -16    1.80    0.60
  -3  -4  16    2.20    0.60
  -3  -4  16    1.80    0.90
   2   4 -16    4.20    1.10
   2   4 -16    4.50    0.70
  -2  -4  16    4.90    0.90
  -2  -4  16    4.20    0.70
   1   4 -16    8.30    1.40
   1   4 -16    5.70    0.80
  -1  -4  16    6.30    0.90
  -1  -4  16    6.80    1.00
   0   4 -16    5.60    0.80
   0  -4  16    7.90    1.30
   0  -4  16    4.40    0.80
  -1   4 -16   24.70    1.80
  -1   4 -16   19.60    1.60
   1  -4  16   19.40    1.60
  -2   4 -16   22.80    1.90
  -2   4 -16   24.10    1.80
   2  -4  16   23.30    1.80
  -3   4 -16    1.90    0.50
  -3   4 -16    0.80    0.60
   3  -4  16    1.80    0.50
  -4   4 -16   -0.50    0.50
  -4   4 -16   -0.40    0.60
   4  -4  16    0.60    0.50
  -5   4 -16    6.50    1.10
  -5   4 -16    9.30    1.00
   5  -4  16    6.90    1.20
  -6   4 -16    0.70    0.60
  -6   4 -16    0.00    0.70
   6  -4  16    0.40    0.80
  -7   4 -16    2.70    0.60
  -7   4 -16    1.90    0.80
   7  -4  16    2.70    1.00
  -9   4 -16    0.20    1.20
   8   3 -16    2.10    1.20
  -8  -3  16    1.80    1.20
   7   3 -16    2.30    1.40
  -7  -3  16    0.10    1.10
   6   3 -16   -0.60    0.70
  -6  -3  16    2.40    1.00
  -6  -3  16    0.80    0.80
  -6  -3  16    2.50    1.00
   5   3 -16    0.60    0.60
  -5  -3  16    1.40    0.80
  -5  -3  16    1.20    0.70
  -5  -3  16    2.00    1.00
   4   3 -16    1.10    0.50
  -4  -3  16    1.50    0.70
  -4  -3  16    1.60    0.80
  -4  -3  16    1.10    0.60
   3   3 -16    0.40    0.40
  -3  -3  16    0.70    0.50
  -3  -3  16   -0.30    0.70
  -3  -3  16    0.70    0.70
   2   3 -16   14.60    1.60
   2   3 -16   12.00    1.10
  -2  -3  16   13.20    1.40
  -2  -3  16   11.70    1.20
   1   3 -16    9.80    0.90
   1   3 -16   12.40    1.40
  -1  -3  16   11.20    1.30
  -1  -3  16    7.50    1.00
  -1  -3  16    9.40    1.00
   0   3 -16    3.20    0.70
   0   3 -16    3.80    0.70
   0  -3  16    4.30    0.70
   0  -3  16    4.70    0.80
   0  -3  16    4.00    0.70
  -1   3 -16    6.20    0.90
  -1   3 -16    4.30    0.70
   1  -3  16    2.80    0.80
  -2   3 -16    1.50    0.50
  -2   3 -16    1.50    0.60
   2  -3  16    2.00    0.50
  -3   3 -16   66.09    4.40
  -3   3 -16   64.79    4.40
   3  -3  16   63.09    4.40
  -4   3 -16    0.50    0.50
  -4   3 -16    0.40    0.50
   4  -3  16    0.50    0.60
  -5   3 -16    3.60    0.60
  -5   3 -16    2.10    0.70
  -5   3 -16    4.00    0.70
  -6   3 -16    1.20    0.70
  -6   3 -16    0.80    0.70
  -6   3 -16    0.70    0.60
  -7   3 -16   18.20    1.90
  -7   3 -16   19.60    1.60
  -7   3 -16   18.80    1.70
  -8   3 -16   12.60    1.90
  -9   3 -16   14.40    2.10
 -10   3 -16   -0.10    1.30
   9   2 -16   -0.50    1.30
  -9  -2  16   -1.20    1.00
  -8  -2  16    0.10    1.00
  -8  -2  16    2.10    1.20
   7   2 -16    1.80    0.80
  -7  -2  16    3.60    1.10
  -7  -2  16    2.40    1.00
  -6  -2  16    5.00    1.00
  -6  -2  16    5.40    1.00
   5   2 -16    0.30    0.50
  -5  -2  16   -0.60    0.60
  -5  -2  16    1.00    0.70
  -5  -2  16    1.00    0.80
   4   2 -16    9.00    1.00
  -4  -2  16    8.10    1.30
  -4  -2  16    9.10    1.10
  -4  -2  16    8.40    1.10
   3   2 -16    1.20    0.50
   3   2 -16    0.00    1.20
  -3  -2  16    1.30    0.50
  -3  -2  16    1.30    0.70
   2   2 -16   19.10    1.40
   2   2 -16   17.90    1.80
  -2  -2  16   18.90    1.50
  -2  -2  16   19.90    1.60
  -2  -2  16   16.70    1.40
   1   2 -16   18.40    1.40
  -1  -2  16   17.90    1.60
  -1  -2  16   17.60    1.40
  -1  -2  16   19.20    1.40
   0   2 -16   53.79    3.50
   0   2 -16   53.09    3.50
   0  -2  16   48.20    3.50
   0  -2  16   50.39    3.40
   0  -2  16   50.09    3.40
  -1   2 -16   74.19    5.20
  -1   2 -16   76.69    5.30
   1  -2  16   78.69    5.20
   1  -2  16   81.39    5.30
   1  -2  16   84.69    5.20
  -2   2 -16    0.50    0.50
   2  -2  16    1.20    0.60
   2  -2  16    0.80    0.40
  -3   2 -16    3.30    0.60
   3  -2  16    4.10    0.70
   3  -2  16    3.60    0.60
  -4   2 -16    3.20    0.60
  -4   2 -16    2.90    0.60
   4  -2  16    2.90    0.50
  -5   2 -16    9.80    1.10
  -5   2 -16    9.90    1.10
  -5   2 -16   10.90    1.20
  -6   2 -16    4.00    0.90
  -6   2 -16    6.00    0.90
   6  -2  16    4.70    0.70
  -7   2 -16   52.69    3.70
  -7   2 -16   48.70    3.40
   7  -2  16   44.50    3.40
  -8   2 -16    3.70    0.80
   8  -2  16    3.30    1.00
  -9   2 -16   20.50    2.40
 -10   2 -16    3.80    1.40
  -9  -1  16    2.80    1.40
  -9  -1  16    1.10    0.90
   8   1 -16   -0.20    0.90
  -8  -1  16    0.40    0.90
  -8  -1  16   -0.20    1.10
   7   1 -16    1.60    0.70
  -7  -1  16    1.50    0.90
  -7  -1  16    1.10    0.90
   6   1 -16    6.10    1.10
  -6  -1  16    6.80    1.00
  -6  -1  16    7.30    1.00
   5   1 -16   35.00    2.50
  -5  -1  16   34.30    2.50
  -5  -1  16   31.60    2.50
   4   1 -16    0.80    0.50
  -4  -1  16    0.40    0.50
  -4  -1  16    0.60    0.60
  -4  -1  16   -0.20    0.60
   3   1 -16  108.99    7.20
   3   1 -16  107.19    7.30
  -3  -1  16  113.19    7.30
  -3  -1  16  103.69    7.30
  -3  -1  16  111.19    7.10
   2   1 -16    1.40    0.40
   2   1 -16    0.80    0.60
  -2  -1  16    1.20    0.60
  -2  -1  16    0.90    0.50
  -2  -1  16    0.30    0.40
   1   1 -16    2.30    0.50
   1   1 -16    1.90    0.60
  -1  -1  16    2.30    0.50
  -1  -1  16    2.20    0.40
  -1  -1  16    1.80    0.60
   0   1 -16  100.79    6.50
   0  -1  16   96.79    6.50
   0  -1  16   95.69    6.50
   0  -1  16  101.89    6.50
  -1   1 -16   16.70    1.30
   1  -1  16   18.20    1.30
   1  -1  16   13.20    1.50
  -2   1 -16    1.10    0.50
  -2   1 -16    1.30    0.40
   2  -1  16    1.90    0.40
   2  -1  16    0.90    0.70
  -3   1 -16  100.99    6.40
  -3   1 -16   86.49    6.40
  -3   1 -16   95.29    6.40
   3  -1  16  103.39    6.30
  -4   1 -16    7.30    1.00
  -4   1 -16    8.00    1.00
  -5   1 -16   19.80    1.60
  -5   1 -16   19.10    1.60
  -5   1 -16   20.60    1.70
   5  -1  16   18.60    1.50
  -6   1 -16    6.00    1.10
  -6   1 -16    8.00    1.30
   6  -1  16    4.20    0.80
  -7   1 -16   14.00    1.50
  -7   1 -16   15.40    2.40
   7  -1  16   12.40    1.50
  -8   1 -16   21.90    2.40
  -8   1 -16   14.90    1.70
   8  -1  16   18.50    1.80
  -9   1 -16   23.30    2.40
   9  -1  16   16.80    2.10
 -10   1 -16    5.40    1.60
 -10   0  16    2.60    1.40
 -10   0  16   -0.30    0.90
  -9   0  16   -0.20    0.80
  -9   0  16    0.50    1.20
   8   0 -16    1.60    0.90
  -8   0  16    3.10    1.40
  -8   0  16    3.70    0.90
   7   0 -16    8.90    1.40
  -7   0  16    9.30    1.40
  -7   0  16   10.30    1.40
   6   0 -16    8.90    1.20
  -6   0  16    8.40    1.30
  -6   0  16    7.10    1.20
   5   0 -16   19.00    1.60
  -5   0  16   17.10    1.60
  -5   0  16   15.50    1.50
   4   0 -16    3.10    0.70
  -4   0  16    5.10    0.90
  -4   0  16    3.80    0.70
   3   0 -16    8.60    1.40
   3   0 -16   10.10    1.10
  -3   0  16   10.50    1.10
  -2   0  16    5.90    0.70
   1   0 -16   33.80    2.30
  -1   0  16   30.00    2.10
  -1   0  16   30.40    2.30
  -1   0  16   31.00    2.20
   0   0 -16   50.39    3.50
   0   0 -16   57.29    3.60
   0   0  16   44.60    3.50
   0   0  16   55.39    3.50
   0   0  16   56.79    3.60
  -1   0 -16  231.98   15.10
  -1   0 -16  224.58   15.20
   1   0  16  240.88   15.10
   1   0  16  237.88   15.20
  -2   0 -16   18.90    1.50
  -2   0 -16   19.70    1.60
   2   0  16   19.80    1.40
   2   0  16   18.50    1.70
  -3   0 -16  219.38   14.80
  -3   0 -16  229.58   14.70
  -3   0 -16  211.78   14.80
   3   0  16  248.58   14.70
  -4   0 -16   16.30    1.40
  -4   0 -16   13.30    1.40
   4   0  16   14.20    1.20
  -5   0 -16   20.60    1.70
  -5   0 -16   21.00    1.80
  -5   0 -16   17.20    1.60
   5   0  16   21.60    1.60
  -6   0 -16   11.50    1.50
  -6   0 -16   11.30    1.30
   6   0  16    8.20    1.20
  -7   0 -16    8.10    1.30
  -7   0 -16    6.80    1.20
   7   0  16    6.50    1.00
  -8   0 -16    0.00    1.10
  -8   0 -16   -0.90    0.70
   8   0  16   -0.30    0.90
  -9   0 -16    6.60    1.40
  -9   0 -16    5.50    0.90
   9   0  16    3.90    1.30
 -10   0 -16    1.40    1.50
  10   0  16   -3.00    1.50
 -10   1  16   -2.10    1.30
 -10   1  16    1.40    0.80
   9  -1 -16    5.50    1.80
  -9   1  16    6.50    1.00
  -9   1  16    5.50    1.30
   8  -1 -16    0.20    1.00
  -8   1  16    2.30    1.00
  -8   1  16    0.40    1.20
   7  -1 -16    2.20    1.00
  -7   1  16    3.50    1.00
  -7   1  16    4.00    0.90
   6  -1 -16   30.50    2.40
  -6   1  16   26.20    2.20
  -6   1  16   27.70    2.20
   5  -1 -16    1.20    0.70
  -5   1  16    1.60    0.60
  -5   1  16    1.30    0.60
   4  -1 -16   17.20    1.70
  -4   1  16   19.00    1.60
  -4   1  16   19.10    1.50
   3  -1 -16  156.48   10.70
  -3   1  16  174.98   10.80
  -3   1  16  159.98   10.70
   2  -1 -16   42.80    3.10
   2  -1 -16   42.20    3.10
  -2   1  16   45.40    3.10
  -2   1  16   44.40    3.00
   1  -1 -16  115.79    7.80
  -1   1  16  121.69    7.80
  -1   1  16  119.79    7.80
   0  -1 -16    3.10    0.70
   0  -1 -16    6.00    0.80
   0   1  16    4.20    0.60
   0   1  16    3.70    0.70
  -1  -1 -16    8.80    0.90
  -1  -1 -16    8.20    0.90
  -1  -1 -16    7.10    1.00
   1   1  16    7.10    1.10
   1   1  16    8.30    0.80
  -2  -1 -16    7.10    1.10
  -2  -1 -16    9.80    1.00
  -2  -1 -16    9.60    1.00
   2   1  16   12.30    1.30
   2   1  16   11.30    1.40
  -3  -1 -16    3.40    0.60
  -3  -1 -16    3.10    0.60
  -3  -1 -16    2.30    0.70
   3   1  16    4.10    0.70
  -4  -1 -16   10.70    1.20
  -4  -1 -16    9.20    1.10
  -4  -1 -16   12.00    1.30
   4   1  16   12.80    1.10
  -5  -1 -16   10.20    1.40
  -5  -1 -16   10.20    1.30
   5   1  16    9.80    1.10
  -6  -1 -16    4.20    1.10
  -6  -1 -16    3.40    0.90
  -7  -1 -16    3.60    0.90
  -7  -1 -16    3.50    1.20
   7   1  16    3.20    1.00
  -8  -1 -16   -0.90    0.80
  -8  -1 -16    2.90    1.30
   8   1  16   -0.30    1.00
  -9  -1 -16    1.70    1.40
  -9  -1 -16    0.20    0.90
 -10   2  16    0.40    1.20
   9  -2 -16    7.60    1.60
  -9   2  16    9.60    1.40
  -9   2  16   10.50    1.30
   8  -2 -16    6.20    1.20
  -8   2  16    6.30    1.10
  -8   2  16    5.50    0.90
   7  -2 -16   39.90    3.20
  -7   2  16   41.30    3.00
  -7   2  16   44.00    3.40
   6  -2 -16   22.60    2.00
  -6   2  16   21.30    1.80
  -6   2  16   20.60    1.70
   5  -2 -16   41.50    2.80
  -5   2  16   34.30    2.60
  -5   2  16   36.40    2.70
   4  -2 -16    8.10    1.10
  -4   2  16    9.00    1.00
  -4   2  16    6.70    0.90
   3  -2 -16  132.49    8.50
  -3   2  16  126.69    8.50
   2  -2 -16    1.90    0.80
   2  -2 -16    2.70    0.70
  -2   2  16    1.10    0.50
  -2   2  16    1.30    0.40
   1  -2 -16   31.60    2.80
   1  -2 -16   36.00    2.50
  -1   2  16   33.10    2.40
   0  -2 -16    2.60    0.60
   0  -2 -16    2.50    0.50
   0  -2 -16    1.40    0.70
   0   2  16    2.90    0.60
  -1  -2 -16   21.20    1.80
  -1  -2 -16   22.60    1.70
  -1  -2 -16   21.20    1.70
   1   2  16   22.60    1.60
   1   2  16   21.70    1.80
  -2  -2 -16    0.50    0.50
  -2  -2 -16    0.80    0.70
  -2  -2 -16    0.10    0.50
   2   2  16    0.30    0.40
   2   2  16    0.20    0.70
  -3  -2 -16   10.90    1.20
  -3  -2 -16    9.70    1.00
  -3  -2 -16   11.40    1.30
   3   2  16   10.80    1.10
  -4  -2 -16    1.30    0.70
  -4  -2 -16    1.50    0.80
   4   2  16    1.40    0.60
  -5  -2 -16    1.60    0.80
  -5  -2 -16    0.80    0.90
   5   2  16    0.50    0.60
  -6  -2 -16    1.00    1.00
  -6  -2 -16   -0.20    0.90
   6   2  16   -0.20    0.70
  -7  -2 -16    5.70    1.10
  -7  -2 -16    5.90    1.30
   7   2  16    2.20    1.20
  -8  -2 -16    1.30    0.90
  -8  -2 -16    2.60    1.40
   8   2  16   -1.70    1.10
  -9  -2 -16    4.90    1.70
  -9  -2 -16    2.20    1.00
 -10   3  16    0.70    1.20
   9  -3 -16   17.70    2.20
  -9   3  16   14.40    1.60
  -9   3  16   15.40    2.00
   8  -3 -16    4.00    1.10
  -8   3  16    2.00    0.70
  -8   3  16    2.80    1.00
   7  -3 -16   29.30    2.40
  -7   3  16   28.70    2.20
  -7   3  16   27.60    2.30
   6  -3 -16    2.50    1.00
  -6   3  16    1.60    0.70
  -6   3  16    2.30    0.60
   5  -3 -16    7.00    1.20
  -5   3  16    6.80    1.00
  -5   3  16    8.60    1.00
   4  -3 -16    6.50    1.10
  -4   3  16    5.10    0.90
  -4   3  16    7.80    1.00
   3  -3 -16    0.60    0.60
  -3   3  16    0.20    0.50
  -3   3  16    0.30    0.40
   2  -3 -16   -1.10    0.60
   2  -3 -16    1.60    0.90
  -2   3  16    0.20    0.40
  -2   3  16   -0.30    0.50
   1  -3 -16   16.00    1.60
   1  -3 -16   16.80    1.50
  -1   3  16   18.90    1.50
  -1   3  16   16.60    1.30
   0  -3 -16   10.40    1.00
   0  -3 -16   10.40    1.30
   0  -3 -16   10.90    1.30
   0   3  16   10.30    1.00
   0   3  16   11.20    1.20
  -1  -3 -16    9.90    1.20
  -1  -3 -16   12.40    1.20
  -1  -3 -16   11.90    1.40
   1   3  16   12.90    1.10
   1   3  16   12.90    1.40
  -2  -3 -16   -0.30    0.70
  -2  -3 -16    0.60    0.60
   2   3  16   -0.20    0.40
  -3  -3 -16    1.80    0.70
  -3  -3 -16    0.90    0.80
   3   3  16    1.10    0.50
  -4  -3 -16    1.40    0.80
  -4  -3 -16    0.80    0.80
   4   3  16    0.50    0.60
  -5  -3 -16    5.60    1.10
  -5  -3 -16    9.00    1.50
   5   3  16    6.00    1.00
  -6  -3 -16    1.80    1.10
  -6  -3 -16    1.20    0.90
   6   3  16   -0.30    0.80
  -7  -3 -16    1.70    1.40
  -7  -3 -16    1.60    1.10
   7   3  16   -0.70    0.90
  -8  -3 -16    3.20    1.60
  -8  -3 -16    3.40    1.20
   8   3  16    1.10    1.20
  10  -4 -16    0.60    1.50
 -10   4  16    0.20    1.20
   9  -4 -16   30.50    2.90
  -9   4  16   30.00    2.30
  -9   4  16   29.70    2.60
   8  -4 -16   24.50    2.40
  -8   4  16   22.40    2.10
  -8   4  16   23.10    2.50
   7  -4 -16   10.00    1.60
  -7   4  16    9.30    1.10
  -7   4  16    8.70    1.30
   6  -4 -16    2.00    0.80
  -6   4  16    1.90    0.70
  -6   4  16    1.50    0.60
   5  -4 -16    3.10    0.80
  -5   4  16    3.90    0.70
  -5   4  16    3.90    0.70
   4  -4 -16    7.00    1.20
  -4   4  16    8.20    0.90
  -4   4  16    8.70    1.00
   3  -4 -16   -0.30    0.60
  -3   4  16    0.00    0.50
  -3   4  16    0.60    0.50
   2  -4 -16    8.40    1.10
  -2   4  16    8.40    1.10
  -2   4  16    8.60    0.90
   1  -4 -16    1.20    0.70
   1  -4 -16    1.60    1.00
  -1   4  16    1.40    0.40
  -1   4  16    0.90    0.60
   0  -4 -16    6.90    1.00
   0  -4 -16    5.30    0.80
   0  -4 -16    3.70    0.70
   0   4  16    4.80    0.70
   0   4  16    3.20    0.70
  -1  -4 -16    8.50    1.20
  -1  -4 -16    7.00    0.90
   1   4  16    7.70    0.90
   1   4  16    7.20    1.30
  -2  -4 -16    4.90    0.90
  -2  -4 -16    5.00    0.80
  -2  -4 -16    6.90    1.10
   2   4  16    5.30    0.90
  -3  -4 -16    4.20    1.00
  -3  -4 -16    5.90    1.00
   3   4  16    6.80    1.00
  -4  -4 -16    0.70    0.90
  -4  -4 -16   -0.20    0.90
   4   4  16    0.70    0.70
  -5  -4 -16    3.00    1.10
  -5  -4 -16    3.80    1.20
   5   4  16    4.20    0.90
  -6  -4 -16    4.00    1.40
  -6  -4 -16    1.30    1.10
   6   4  16    1.70    0.90
  -7  -4 -16    3.90    1.60
  -7  -4 -16    1.50    1.20
   7   4  16    0.40    1.10
  -8  -4 -16    2.60    1.80
  -8  -4 -16    2.60    1.40
   8   4  16   -0.90    1.30
  10  -5 -16    1.70    1.60
 -10   5  16    0.30    1.30
   9  -5 -16    1.50    1.30
  -9   5  16    0.30    1.10
   8  -5 -16    6.80    1.50
  -8   5  16    6.70    1.10
  -8   5  16    5.90    1.10
   7  -5 -16    4.10    1.10
  -7   5  16    4.50    1.20
  -7   5  16    4.30    0.90
   6  -5 -16    3.00    0.90
  -6   5  16    2.40    0.80
  -6   5  16    2.90    0.90
   5  -5 -16    0.50    0.80
  -5   5  16   -0.20    0.70
  -5   5  16    0.40    0.50
   4  -5 -16    3.70    0.80
  -4   5  16    2.60    0.60
  -4   5  16    2.80    0.60
   3  -5 -16    7.50    1.20
  -3   5  16    7.80    1.10
  -3   5  16    7.80    0.90
   2  -5 -16    0.40    0.70
  -2   5  16    0.20    0.50
  -2   5  16    0.20    0.60
   1  -5 -16    2.00    0.80
  -1   5  16    2.10    0.60
  -1   5  16    1.90    0.50
   0  -5 -16    9.00    1.60
   0  -5 -16    6.70    1.10
   0  -5 -16    7.30    1.00
   0   5  16    5.80    0.80
  -1  -5 -16    6.70    1.60
  -1  -5 -16    9.70    1.30
   1   5  16   10.90    1.10
  -2  -5 -16   11.20    1.50
  -2  -5 -16   14.70    1.70
   2   5  16   12.10    1.60
  -3  -5 -16    4.90    1.10
  -3  -5 -16    6.70    1.20
   3   5  16    5.30    0.90
  -4  -5 -16    1.00    1.00
  -4  -5 -16    2.50    1.10
   4   5  16    1.60    0.80
  -5  -5 -16    2.70    1.50
  -5  -5 -16    3.20    1.40
   5   5  16    3.60    1.00
  -6  -5 -16    2.70    1.60
  -6  -5 -16   -0.20    1.30
   6   5  16    1.20    0.90
  -7  -5 -16    7.30    1.80
  -7  -5 -16    2.30    1.40
   7   5  16   -0.60    1.10
  10  -6 -16    2.70    1.70
 -10   6  16    1.30    1.30
   9  -6 -16    1.20    1.30
  -9   6  16   -1.50    1.10
   8  -6 -16    2.50    1.20
  -8   6  16    3.10    0.70
  -8   6  16    4.30    1.00
   7  -6 -16    0.10    1.00
  -7   6  16   -0.20    0.60
  -7   6  16    0.40    0.80
   6  -6 -16    1.90    1.50
  -6   6  16    1.20    0.60
  -6   6  16    0.80    0.70
   5  -6 -16    1.10    0.90
  -5   6  16    1.80    0.70
  -5   6  16    2.30    0.70
   4  -6 -16   38.10    2.90
  -4   6  16   36.10    2.80
  -4   6  16   38.70    2.80
   3  -6 -16    8.40    1.30
  -3   6  16   11.40    1.30
  -3   6  16   10.80    1.10
   2  -6 -16    7.90    1.30
  -2   6  16    9.00    1.10
  -2   6  16    9.00    1.30
   1  -6 -16   -0.80    0.80
  -1   6  16    0.30    0.60
  -1   6  16    0.40    0.70
   0  -6 -16    4.80    1.10
   0   6  16    6.70    0.90
   0   6  16    6.50    1.00
  -1  -6 -16    3.80    1.20
  -1  -6 -16    2.70    0.90
   1   6  16    3.40    0.70
  -2  -6 -16    1.90    1.20
  -2  -6 -16    1.80    1.00
   2   6  16    0.70    1.00
  -3  -6 -16   11.30    1.80
  -3  -6 -16   10.40    1.60
   3   6  16    6.40    1.30
  -4  -6 -16   10.80    1.80
  -4  -6 -16    4.80    2.60
   4   6  16   11.20    1.40
  -5  -6 -16    1.80    1.40
  -5  -6 -16   -1.00    1.50
   5   6  16    0.30    0.90
  -6  -6 -16    5.10    1.70
  -6  -6 -16    5.40    2.00
   6   6  16    5.20    1.20
  10  -7 -16   -0.10    1.60
 -10   7  16   -1.30    1.30
   9  -7 -16    2.90    1.40
  -9   7  16    3.60    1.20
   8  -7 -16   -0.10    1.20
  -8   7  16   -0.60    1.00
  -8   7  16   -0.50    0.60
   7  -7 -16    1.30    1.00
  -7   7  16   -0.60    0.80
  -7   7  16    1.50    0.70
   6  -7 -16    0.00    1.00
  -6   7  16    0.60    0.70
  -6   7  16    0.20    0.60
   5  -7 -16    0.50    0.90
  -5   7  16    0.80    0.80
  -5   7  16    1.40    0.70
   4  -7 -16   -0.60    0.90
  -4   7  16   -0.10    0.90
  -4   7  16    0.50    0.70
   3  -7 -16   11.30    1.50
  -3   7  16   11.30    1.50
  -3   7  16   12.50    1.50
   2  -7 -16    1.50    0.90
  -2   7  16    1.30    0.70
  -2   7  16    2.50    0.80
   1  -7 -16   22.20    2.10
  -1   7  16   23.50    2.20
  -1   7  16   24.00    1.90
   0  -7 -16    2.30    1.10
   0   7  16    1.00    1.10
   0   7  16   -0.80    0.60
   1   7  16   -0.30    0.90
  -2  -7 -16    3.20    1.30
   2   7  16    3.70    0.90
  -3  -7 -16   15.70    2.80
   3   7  16   20.90    1.90
  -4  -7 -16   -0.70    1.70
  -4  -7 -16   -1.60    1.60
   4   7  16   -0.60    0.90
  -5  -7 -16    2.10    1.80
  -5  -7 -16   -3.60    1.80
   5   7  16    0.80    1.10
   9  -8 -16    5.00    1.50
  -9   8  16    2.20    1.30
  -8   8  16    0.00    0.70
  -8   8  16    0.50    1.10
   7  -8 -16    9.00    1.40
  -7   8  16    6.20    1.20
  -7   8  16    6.70    1.20
   6  -8 -16   17.90    2.00
  -6   8  16   18.40    1.80
  -6   8  16   22.30    2.00
   5  -8 -16    4.10    1.60
  -5   8  16    5.60    1.60
  -5   8  16    4.80    1.20
   4  -8 -16    4.80    1.20
  -4   8  16    7.50    1.40
  -4   8  16    7.40    1.10
   3  -8 -16   -0.10    1.00
  -3   8  16    1.70    0.90
  -3   8  16    1.10    0.80
   2  -8 -16    0.30    1.00
  -2   8  16    0.10    0.90
  -2   8  16    0.20    0.80
   1  -8 -16    1.20    1.10
  -1   8  16    4.50    1.20
  -1   8  16    4.10    1.30
   0   8  16   -0.80    0.80
   0   8  16    1.20    1.20
   1   8  16   15.50    1.70
   2   8  16    3.80    1.00
   3   8  16    0.40    1.10
  -4  -8 -16    1.20    2.10
   4   8  16    1.30    1.20
   8  -9 -16    2.00    1.50
  -8   9  16    0.70    1.30
  -8   9  16    2.80    0.80
   7  -9 -16   10.50    1.60
  -7   9  16   10.90    1.40
  -7   9  16    8.40    1.40
   6  -9 -16   19.70    2.40
  -6   9  16   25.20    2.30
  -6   9  16   23.10    2.00
   5  -9 -16    1.60    1.20
  -5   9  16    3.00    0.90
  -5   9  16    3.20    1.10
   4  -9 -16   -1.00    1.10
  -4   9  16    0.50    1.00
  -4   9  16    1.70    0.90
   3  -9 -16    1.40    1.30
  -3   9  16    1.80    1.00
  -3   9  16    1.50    1.00
   2  -9 -16    2.10    1.30
  -2   9  16    3.00    1.10
  -2   9  16    4.20    1.20
  -1   9  16    9.40    1.30
  -1   9  16    7.70    1.60
   0   9  16   10.90    1.60
   1   9  16   33.70    2.80
   2   9  16    3.10    1.10
   7 -10 -16   -0.50    1.40
  -7  10  16    2.10    1.30
  -7  10  16    1.00    0.80
   6 -10 -16    5.50    1.50
  -6  10  16    5.20    1.00
  -6  10  16    4.40    1.30
   5 -10 -16   33.30    3.30
  -5  10  16   40.10    3.20
  -5  10  16   38.30    3.00
   4 -10 -16   -0.10    1.50
  -4  10  16   -0.60    1.00
  -4  10  16   -1.30    1.30
  -3  10  16   23.00    2.40
  -3  10  16   22.00    2.40
  -2  10  16    3.60    1.40
  -2  10  16    5.90    1.30
  -1  10  16    9.40    1.50
  -1  10  16    5.00    1.70
   0  10  16   -1.90    1.10
   0  10 -17   -1.90    2.20
   0  10 -17    0.40    1.20
   0 -10  17    0.10    1.20
  -1  10 -17    1.30    1.10
  -1  10 -17    1.80    1.80
   1 -10  17   -0.70    1.10
  -2  10 -17   -1.20    1.00
  -2  10 -17   -0.90    1.60
   2 -10  17    0.60    1.10
  -3  10 -17   -1.40    1.40
  -3  10 -17   -0.20    1.10
   3 -10  17   -1.40    1.10
  -4  10 -17    0.90    1.10
  -4  10 -17    0.70    1.30
   4 -10  17    1.70    1.10
  -5  10 -17    5.30    1.20
  -5  10 -17    7.20    1.40
   5 -10  17    4.50    1.40
  -6  10 -17    1.40    1.10
  -6  10 -17    3.50    1.10
   6 -10  17    4.10    1.40
  -7  10 -17    6.10    1.30
  -2  -9  17   -0.20    1.10
   1   9 -17    2.30    1.10
  -1  -9  17    0.90    1.10
   0   9 -17    0.80    0.90
   0   9 -17   -0.80    1.70
   0  -9  17    0.60    1.00
  -1   9 -17    5.00    1.50
  -1   9 -17    3.50    1.00
   1  -9  17    5.20    1.10
  -2   9 -17    2.90    1.30
  -2   9 -17   -0.40    0.80
   2  -9  17    1.30    1.00
  -3   9 -17   16.90    2.00
  -3   9 -17   20.80    2.40
   3  -9  17   22.20    2.10
  -4   9 -17   14.00    1.90
  -4   9 -17   10.80    1.70
   4  -9  17   13.20    1.90
  -5   9 -17   41.10    3.00
  -5   9 -17   36.30    3.00
   5  -9  17   32.90    3.10
  -6   9 -17   14.10    1.70
  -6   9 -17   12.30    1.80
   6  -9  17   12.40    2.00
  -7   9 -17    2.50    1.10
   7  -9  17    1.30    1.30
  -8   9 -17    6.40    1.40
   8  -9  17    6.50    1.60
  -4  -8  17   -1.40    1.20
  -3  -8  17   -1.60    1.00
   2   8 -17   -0.60    1.00
  -2  -8  17    0.00    0.90
   1   8 -17   24.90    2.30
  -1  -8  17   23.50    2.30
   0   8 -17    0.30    1.10
   0   8 -17    2.80    1.40
   0  -8  17    2.20    0.90
  -1   8 -17    5.40    1.40
  -1   8 -17    3.60    1.30
   1  -8  17    4.50    1.60
  -2   8 -17    6.20    1.30
  -2   8 -17    8.10    1.30
   2  -8  17    5.40    1.50
  -3   8 -17   44.90    3.60
  -3   8 -17   36.50    3.10
  -4   8 -17    2.60    1.00
  -4   8 -17    3.60    1.30
   4  -8  17    6.40    1.20
  -5   8 -17    1.10    0.90
  -5   8 -17    1.20    0.90
   5  -8  17    1.40    0.90
  -6   8 -17    3.80    1.00
  -6   8 -17    6.00    1.00
   6  -8  17    4.30    1.20
  -7   8 -17    0.60    1.00
   7  -8  17    0.00    1.00
  -8   8 -17    1.00    1.10
  -9   8 -17    3.00    1.50
   9  -8  17    2.80    1.40
  -5  -7  17   -0.10    1.30
  -4  -7  17    2.70    1.10
   3   7 -17    7.90    1.80
  -3  -7  17   13.20    1.80
   2   7 -17    3.20    0.90
  -2  -7  17    7.20    1.50
   1   7 -17   44.20    3.30
   1   7 -17   47.10    3.70
  -1  -7  17   41.40    3.30
   0   7 -17   16.60    2.00
   0   7 -17   17.20    1.80
   0  -7  17   18.70    1.80
  -1   7 -17    3.90    0.90
  -1   7 -17    5.60    1.10
   1  -7  17    3.80    1.20
  -2   7 -17    4.30    1.10
  -2   7 -17    4.10    1.00
   2  -7  17    5.30    0.90
  -3   7 -17   -0.90    0.70
  -3   7 -17    0.50    0.80
   3  -7  17   -0.20    0.90
  -4   7 -17    7.20    1.30
  -4   7 -17    7.70    1.40
   4  -7  17    7.60    1.40
  -5   7 -17   -1.20    0.80
  -5   7 -17    0.10    0.80
   5  -7  17    0.60    0.80
  -6   7 -17    3.00    1.00
  -6   7 -17    3.60    1.00
   6  -7  17    4.40    1.10
  -7   7 -17    0.10    0.90
   7  -7  17    0.10    0.90
  -8   7 -17    2.10    1.00
   8  -7  17    1.50    1.10
  -9   7 -17    2.10    1.30
   9  -7  17    1.90    1.40
  -6  -6  17    4.30    1.90
  -6  -6  17    0.30    1.30
  -5  -6  17    0.80    1.60
  -5  -6  17    0.20    1.10
   4   6 -17    4.80    1.00
  -4  -6  17    6.10    1.70
  -4  -6  17    3.80    1.80
   3   6 -17   22.60    2.00
  -3  -6  17   23.90    2.10
   2   6 -17    0.10    0.70
  -2  -6  17    0.40    0.70
   1   6 -17    0.90    1.00
   1   6 -17   -0.20    0.60
  -1  -6  17    0.40    0.70
   0   6 -17    0.70    0.60
   0   6 -17   -0.40    1.00
   0  -6  17    1.00    0.60
  -1   6 -17    0.80    0.70
  -1   6 -17    0.40    0.90
   1  -6  17    1.00    0.60
  -2   6 -17    2.50    0.70
  -2   6 -17    2.10    0.90
   2  -6  17    3.40    0.80
  -3   6 -17    0.10    0.60
  -3   6 -17    0.30    0.80
   3  -6  17    0.00    0.70
  -4   6 -17   -0.20    0.70
  -4   6 -17    0.50    0.80
  -5   6 -17    0.40    0.70
  -5   6 -17    0.20    0.70
   5  -6  17   -0.10    0.70
  -6   6 -17    3.50    1.00
  -6   6 -17    4.10    1.00
   6  -6  17    2.80    1.60
  -7   6 -17    2.10    0.90
  -7   6 -17    4.40    1.00
   7  -6  17    2.30    1.00
  -8   6 -17    2.30    1.30
   9  -6  17   13.20    2.30
  10  -6  17    3.30    1.60
  -7  -5  17    8.80    1.80
  -6  -5  17    2.20    1.20
  -6  -5  17   -1.00    1.40
   5   5 -17    0.70    0.80
  -5  -5  17    1.00    1.40
  -5  -5  17   -0.50    0.90
   4   5 -17    0.20    0.70
  -4  -5  17    1.30    0.80
  -4  -5  17    2.20    1.20
   3   5 -17   -0.10    0.60
  -3  -5  17    0.60    0.70
  -3  -5  17    0.00    1.00
   2   5 -17    4.10    0.70
   2   5 -17    3.10    1.00
  -2  -5  17    2.80    1.10
  -2  -5  17    5.30    0.80
   1   5 -17    3.80    0.70
   1   5 -17    1.70    1.00
  -1  -5  17    4.60    0.80
   0   5 -17    8.20    1.40
   0   5 -17    8.80    1.10
   0  -5  17    9.20    1.10
  -1   5 -17    1.90    0.60
  -1   5 -17    3.20    0.90
   1  -5  17    1.50    0.60
  -2   5 -17    3.00    0.70
  -2   5 -17    2.20    0.80
   2  -5  17    2.70    0.60
  -3   5 -17   11.70    1.30
  -3   5 -17   10.20    1.20
   3  -5  17    6.90    1.20
  -4   5 -17   35.40    2.70
  -4   5 -17   36.20    2.60
   4  -5  17   35.40    2.70
  -5   5 -17    1.20    0.80
   5  -5  17    2.20    0.80
  -6   5 -17   10.80    1.40
   6  -5  17    9.70    1.80
  -7   5 -17    3.10    1.00
  -7   5 -17    4.50    0.90
   7  -5  17    4.00    1.10
  -8   5 -17    0.30    0.90
   8  -5  17    1.00    1.10
   9  -5  17    9.80    1.60
  10  -5  17    5.80    1.70
   8   4 -17    3.70    1.40
  -8  -4  17    1.40    1.40
   7   4 -17    3.20    1.10
  -7  -4  17    1.00    1.30
   6   4 -17    1.70    0.90
   6   4 -17   -0.90    1.10
  -6  -4  17    2.00    1.40
   5   4 -17   -0.10    0.70
   5   4 -17    2.10    0.80
  -5  -4  17    0.70    1.10
  -5  -4  17    0.20    0.80
   4   4 -17    6.50    1.10
  -4  -4  17    5.10    1.20
  -4  -4  17    9.50    1.20
   3   4 -17    0.40    0.50
  -3  -4  17    0.50    0.60
  -3  -4  17    0.40    0.60
  -3  -4  17   -0.60    0.90
   2   4 -17    4.50    0.70
   2   4 -17    3.50    1.10
  -2  -4  17    4.30    0.70
  -2  -4  17    4.00    0.80
   1   4 -17   -0.50    0.90
   1   4 -17   -0.40    0.50
  -1  -4  17    0.30    0.50
  -1  -4  17    0.50    0.90
   0   4 -17   24.00    2.20
   0   4 -17   25.00    1.90
   0  -4  17   24.20    1.90
   0  -4  17   25.50    2.60
  -1   4 -17   10.50    1.20
  -1   4 -17    7.60    1.00
   1  -4  17    6.70    1.00
  -2   4 -17    3.70    0.80
  -2   4 -17    4.30    0.60
   2  -4  17    4.90    0.90
  -3   4 -17   25.80    2.00
  -3   4 -17   25.20    1.90
   3  -4  17   22.50    1.90
  -4   4 -17    3.70    0.70
  -4   4 -17    3.60    0.70
   4  -4  17    4.70    0.70
  -5   4 -17    8.80    1.10
  -5   4 -17    6.20    1.00
   5  -4  17    6.70    1.20
  -6   4 -17   -0.20    0.60
  -6   4 -17    0.20    0.70
   6  -4  17    0.80    1.20
  -7   4 -17   -0.20    0.80
  -7   4 -17    0.30    0.70
   7  -4  17   -0.10    0.90
   8  -4  17    8.30    1.40
   9  -4  17    9.90    1.60
  10  -4  17    1.20    1.60
   8   3 -17    6.10    1.40
  -8  -3  17    6.00    1.40
   7   3 -17    3.10    1.10
  -7  -3  17    1.30    1.20
   6   3 -17   -0.90    0.70
  -6  -3  17    2.70    1.00
  -6  -3  17    0.80    1.00
   5   3 -17    0.20    0.60
  -5  -3  17    0.20    1.00
  -5  -3  17   -0.10    0.70
  -5  -3  17    0.80    0.80
   4   3 -17    1.50    0.60
  -4  -3  17    1.80    0.90
  -4  -3  17    1.40    0.70
  -4  -3  17    1.70    0.70
   3   3 -17    5.60    0.90
  -3  -3  17    4.00    0.70
  -3  -3  17    4.60    0.80
  -3  -3  17    5.40    1.00
   2   3 -17   17.00    1.90
   2   3 -17   18.20    1.50
  -2  -3  17   18.90    1.80
  -2  -3  17   18.70    1.50
  -2  -3  17   16.80    1.50
   1   3 -17    2.30    0.80
   1   3 -17    0.50    0.40
  -1  -3  17    1.40    0.60
  -1  -3  17    2.30    0.80
  -1  -3  17    0.50    0.60
   0   3 -17   15.20    1.50
   0   3 -17   14.30    1.20
   0  -3  17   12.90    1.20
   0  -3  17   11.90    1.30
   0  -3  17   16.30    1.60
  -1   3 -17    0.50    0.40
   1  -3  17    0.80    0.40
  -2   3 -17   -0.30    0.50
  -2   3 -17   -0.20    0.40
   2  -3  17    0.10    0.40
  -3   3 -17   68.39    4.50
  -3   3 -17   66.49    4.50
   3  -3  17   65.99    4.50
  -4   3 -17    7.60    1.00
  -4   3 -17    7.80    1.00
   4  -3  17    8.30    1.20
  -5   3 -17   26.20    2.10
  -5   3 -17   26.80    2.00
   5  -3  17   28.50    2.20
  -6   3 -17   51.19    3.60
  -6   3 -17   52.49    3.70
  -6   3 -17   48.10    3.60
  -7   3 -17   15.70    2.30
  -7   3 -17   15.10    1.50
  -7   3 -17   10.40    1.50
  -8   3 -17   -1.00    1.00
  -9   3 -17    4.00    1.20
 -10   3 -17    0.20    1.40
   9   2 -17    1.50    1.50
  -9  -2  17   -0.10    1.10
  -8  -2  17   -0.40    1.00
  -8  -2  17    2.20    1.30
   7   2 -17   -0.30    0.80
  -7  -2  17    0.60    1.00
  -7  -2  17    0.80    1.20
   6   2 -17   12.80    1.40
  -6  -2  17   14.90    1.60
  -6  -2  17   10.30    1.80
   5   2 -17   -0.60    0.50
  -5  -2  17   -0.10    0.80
  -5  -2  17   -0.20    0.80
  -5  -2  17   -0.40    0.60
   4   2 -17    1.70    0.60
  -4  -2  17    1.60    0.60
  -4  -2  17    1.60    0.80
  -4  -2  17    1.90    0.70
   3   2 -17    1.70    0.50
  -3  -2  17    1.90    0.60
  -3  -2  17    2.50    0.70
  -3  -2  17    1.50    0.70
   2   2 -17    6.80    0.90
   2   2 -17    4.90    1.10
  -2  -2  17    9.50    1.20
  -2  -2  17    7.10    0.90
  -2  -2  17    6.80    1.00
   1   2 -17   18.70    1.80
   1   2 -17   19.70    1.50
  -1  -2  17   19.50    1.70
  -1  -2  17   21.10    1.50
  -1  -2  17   19.10    1.50
   0   2 -17    2.80    0.70
   0   2 -17    3.40    0.50
   0  -2  17    2.90    0.50
   0  -2  17    4.00    0.70
   0  -2  17    3.10    0.80
  -1   2 -17    8.80    1.00
  -1   2 -17    7.40    0.90
   1  -2  17    7.50    0.90
   1  -2  17    8.80    1.30
   1  -2  17    8.20    0.90
  -2   2 -17   73.49    4.90
  -2   2 -17   71.79    4.80
   2  -2  17   72.39    4.90
   2  -2  17   72.89    4.80
  -3   2 -17    8.00    1.00
  -3   2 -17    8.70    0.90
   3  -2  17    8.80    0.90
   3  -2  17    8.50    1.10
  -4   2 -17   12.20    1.20
  -4   2 -17   10.80    1.30
  -4   2 -17   12.20    1.20
   4  -2  17   13.70    1.20
  -5   2 -17    0.80    0.70
  -5   2 -17    2.20    0.60
  -5   2 -17    0.60    0.60
   5  -2  17   -0.30    0.60
  -6   2 -17    2.90    0.80
  -6   2 -17    3.40    0.80
  -6   2 -17    4.20    1.10
   6  -2  17    4.10    0.70
  -7   2 -17   20.20    2.10
  -7   2 -17   20.30    1.80
   7  -2  17   14.70    1.70
  -8   2 -17    2.80    0.70
  -8   2 -17    3.90    1.10
  -9   2 -17    6.30    1.40
 -10   2 -17   -0.70    1.40
  -9  -1  17    1.40    1.40
  -9  -1  17    0.40    0.90
   8   1 -17   -0.40    0.90
  -8  -1  17   -0.20    0.90
  -8  -1  17   -1.10    1.20
   7   1 -17    2.20    0.80
  -7  -1  17    2.50    1.00
  -7  -1  17    2.70    1.00
   6   1 -17    2.90    0.70
  -6  -1  17    1.30    0.80
  -6  -1  17    1.70    0.80
   5   1 -17    1.90    0.60
  -5  -1  17    2.70    0.70
  -5  -1  17    2.10    0.80
   4   1 -17    4.70    0.70
  -4  -1  17    3.40    0.70
  -4  -1  17    5.20    0.80
  -4  -1  17    5.20    0.80
   3   1 -17   34.20    2.40
  -3  -1  17   31.70    2.60
  -3  -1  17   35.50    2.40
  -3  -1  17   34.00    2.40
   2   1 -17    0.00    0.70
   2   1 -17    0.70    0.50
  -2  -1  17    0.00    0.40
  -2  -1  17    0.00    0.60
  -2  -1  17   -0.10    0.50
   1   1 -17   47.00    3.10
   1   1 -17   46.50    3.20
  -1  -1  17   45.50    3.10
  -1  -1  17   44.70    3.10
  -1  -1  17   44.00    3.20
   0   1 -17  123.89    7.90
   0   1 -17  121.89    7.90
   0  -1  17  114.99    7.90
   0  -1  17  118.19    7.80
   0  -1  17  123.09    7.80
  -1   1 -17   24.30    1.70
  -1   1 -17   25.20    1.80
   1  -1  17   23.40    2.00
   1  -1  17   24.50    1.70
   1  -1  17   20.50    1.70
  -2   1 -17    4.30    0.70
   2  -1  17    3.20    0.50
   2  -1  17    3.50    0.70
  -3   1 -17    4.10    0.70
  -3   1 -17    3.10    0.60
   3  -1  17    5.00    0.80
  -4   1 -17    0.60    0.80
  -4   1 -17    1.70    0.60
  -4   1 -17    1.00    0.60
   4  -1  17    1.00    0.60
  -5   1 -17   28.10    2.20
  -5   1 -17   28.20    2.30
   5  -1  17   32.70    2.20
  -6   1 -17    6.10    1.00
   6  -1  17    4.00    0.80
  -7   1 -17    7.20    1.20
  -7   1 -17    6.40    1.00
   7  -1  17    6.30    1.00
  -8   1 -17    5.30    0.90
  -8   1 -17    6.00    1.30
  -9   1 -17   -0.10    1.30
   9  -1  17   -1.70    1.40
 -10   1 -17    3.20    1.50
 -10   0  17    1.10    1.50
 -10   0  17    0.60    0.90
  -9   0  17    1.70    1.30
  -9   0  17    1.80    0.90
   8   0 -17    1.50    0.90
  -8   0  17    0.20    1.00
  -8   0  17    2.00    0.90
   7   0 -17    2.70    0.90
  -7   0  17    3.60    1.00
  -7   0  17    2.60    0.90
   6   0 -17    0.60    0.70
  -6   0  17    0.40    0.70
  -6   0  17    0.00    0.70
   5   0 -17    4.50    0.80
  -5   0  17    3.80    0.80
  -5   0  17    4.20    0.80
   4   0 -17   29.70    2.20
  -4   0  17   27.80    2.20
  -4   0  17   29.70    2.30
   3   0 -17    0.60    0.50
  -3   0  17    0.10    0.50
  -3   0  17    0.50    0.80
   2   0 -17    4.80    0.80
  -2   0  17    3.00    0.60
  -2   0  17    2.10    0.50
   1   0 -17    8.50    1.00
  -1   0  17    8.90    0.80
  -1   0  17    9.30    0.90
  -1   0  17    9.60    1.20
   0   0 -17   15.70    1.40
   0   0 -17   14.80    1.20
   0   0  17   12.60    1.10
   0   0  17   12.70    1.10
   0   0  17   11.40    1.40
  -1   0 -17    9.40    1.10
   1   0  17    7.40    1.20
   1   0  17    8.80    1.00
  -2   0 -17    2.50    0.60
  -2   0 -17    3.20    0.60
   2   0  17    3.80    0.50
  -3   0 -17    0.50    0.60
  -3   0 -17    1.50    0.60
  -3   0 -17    1.40    0.50
  -4   0 -17   34.80    2.50
  -4   0 -17   31.70    2.40
  -4   0 -17   35.10    2.50
   4   0  17   31.80    2.40
  -5   0 -17    0.90    0.70
  -5   0 -17   -0.20    1.00
  -5   0 -17    0.00    0.70
   5   0  17    0.10    0.60
  -6   0 -17    0.80    0.90
  -6   0 -17    0.90    1.00
   6   0  17    0.40    0.70
  -7   0 -17    2.30    0.80
  -7   0 -17    4.50    1.10
   7   0  17    1.80    0.90
  -8   0 -17   -0.10    1.20
  -8   0 -17   -1.30    0.70
   8   0  17   -1.70    1.60
  -9   0 -17    5.40    1.50
  -9   0 -17    2.40    0.80
   9   0  17   -1.00    1.30
 -10   1  17   -1.30    1.40
 -10   1  17    1.20    0.90
   9  -1 -17    1.00    1.20
  -9   1  17    1.70    0.80
  -9   1  17    0.90    1.20
   8  -1 -17    0.20    1.00
  -8   1  17    0.30    0.80
  -8   1  17    0.40    1.00
   7  -1 -17    7.60    1.20
  -7   1  17   10.30    1.70
   6  -1 -17   54.69    3.90
  -6   1  17   53.39    3.80
  -6   1  17   51.69    3.80
   5  -1 -17   32.50    2.60
  -5   1  17   36.60    2.60
  -5   1  17   33.40    2.50
   4  -1 -17    5.30    0.80
  -4   1  17    3.90    0.70
  -4   1  17    4.30    0.70
   3  -1 -17   14.00    1.40
  -3   1  17   15.30    1.50
  -3   1  17   15.20    1.30
   2  -1 -17   -0.60    0.50
   2  -1 -17   -0.30    0.80
  -2   1  17    0.50    0.40
  -2   1  17   -0.20    0.50
   1  -1 -17    6.80    1.00
   1  -1 -17    9.10    1.20
  -1   1  17    5.90    0.90
  -1   1  17    7.40    1.00
   0  -1 -17   19.20    1.70
   0  -1 -17   21.30    1.60
   0   1  17   19.40    1.50
   0   1  17   20.30    1.50
   0   1  17   18.80    1.70
  -1  -1 -17   41.00    2.70
  -1  -1 -17   35.80    2.60
  -1  -1 -17   37.20    2.60
   1   1  17   37.10    2.80
  -2  -1 -17    0.30    0.50
  -2  -1 -17    1.00    0.50
   2   1  17    0.50    0.40
  -3  -1 -17    7.10    1.00
  -3  -1 -17    7.00    0.90
  -3  -1 -17    6.20    1.10
   3   1  17    4.90    0.90
  -4  -1 -17    1.10    0.70
  -4  -1 -17    0.40    0.70
  -4  -1 -17    0.40    0.60
   4   1  17    0.90    0.50
  -5  -1 -17   -0.60    0.80
  -5  -1 -17    0.60    0.90
   5   1  17   -0.50    0.60
  -6  -1 -17   -0.10    0.80
  -6  -1 -17    1.30    1.00
   6   1  17    0.20    0.80
  -7  -1 -17   -0.80    1.80
  -7  -1 -17    0.00    0.90
   7   1  17   -1.00    0.80
  -8  -1 -17   -1.00    1.30
  -8  -1 -17    0.20    0.80
  -9  -1 -17    2.90    1.60
  -9  -1 -17    0.60    0.90
   9   1  17   -2.30    1.30
 -10   2  17    1.10    1.40
 -10   2  17    1.90    0.80
   9  -2 -17    2.30    1.40
  -9   2  17    2.80    0.80
  -9   2  17    3.90    1.20
   8  -2 -17    3.30    1.20
  -8   2  17    4.10    1.30
  -8   2  17    1.60    0.80
   7  -2 -17    4.90    1.10
  -7   2  17    4.10    0.80
  -7   2  17    3.40    1.00
   6  -2 -17    1.20    0.90
  -6   2  17    0.70    0.70
  -6   2  17    0.90    0.60
   5  -2 -17    0.40    0.70
  -5   2  17   -0.10    0.60
  -5   2  17    0.20    0.50
   4  -2 -17    3.10    0.80
  -4   2  17    4.00    0.70
  -4   2  17    4.80    0.70
   3  -2 -17    0.40    0.60
  -3   2  17    0.40    0.40
  -3   2  17    1.00    0.50
   2  -2 -17  108.09    7.30
   2  -2 -17  112.89    7.30
  -2   2  17  111.79    7.20
  -2   2  17  104.99    7.20
   1  -2 -17    0.10    0.60
   1  -2 -17    0.40    0.80
  -1   2  17   -0.10    0.40
  -1   2  17   -0.40    0.60
   0  -2 -17   12.60    1.20
   0  -2 -17   12.10    1.40
   0  -2 -17   11.80    1.10
   0   2  17   10.90    1.30
   0   2  17   11.60    1.00
  -1  -2 -17   -0.70    0.70
  -1  -2 -17   -0.70    0.50
  -1  -2 -17   -0.10    0.50
   1   2  17   -0.30    0.40
   1   2  17    1.20    0.70
  -2  -2 -17    3.60    0.60
  -2  -2 -17    3.20    0.80
  -2  -2 -17    3.20    0.80
   2   2  17    2.80    0.50
  -3  -2 -17    0.80    0.60
  -3  -2 -17    1.00    0.70
  -3  -2 -17    0.90    0.70
   3   2  17    0.00    0.50
  -4  -2 -17    7.40    1.30
  -4  -2 -17    8.90    1.40
   4   2  17    5.70    1.00
  -5  -2 -17    5.10    1.10
  -5  -2 -17    4.80    1.00
   5   2  17    3.20    0.80
  -6  -2 -17    1.90    0.90
  -6  -2 -17    2.00    1.10
   6   2  17   -0.20    0.80
  -7  -2 -17    3.30    1.00
  -7  -2 -17    3.40    1.40
   7   2  17    2.50    1.00
  -8  -2 -17    5.20    1.20
  -8  -2 -17    5.50    1.60
   8   2  17    3.60    1.30
  -9  -2 -17    0.70    1.00
  -9  -2 -17   -3.00    1.60
  10  -3 -17    7.30    1.80
 -10   3  17    7.00    1.50
   9  -3 -17    7.30    1.50
  -9   3  17    3.90    0.90
  -9   3  17    4.80    1.20
   8  -3 -17    5.30    1.20
  -8   3  17    4.10    1.30
   7  -3 -17    5.20    1.10
  -7   3  17    5.10    0.90
  -7   3  17    3.90    1.20
   6  -3 -17   26.30    2.30
  -6   3  17   27.70    2.10
  -6   3  17   26.80    2.20
   5  -3 -17   17.60    1.80
  -5   3  17   16.00    1.50
  -5   3  17   15.20    1.40
   4  -3 -17    5.40    0.90
  -4   3  17    5.60    0.80
  -4   3  17    6.90    1.00
   3  -3 -17    1.60    0.70
  -3   3  17    1.40    0.50
  -3   3  17    1.20    0.60
   2  -3 -17   41.00    3.40
   2  -3 -17   35.00    2.60
  -2   3  17   32.30    2.50
   1  -3 -17   -0.10    0.60
   1  -3 -17   -0.30    0.80
  -1   3  17    0.60    0.60
  -1   3  17    0.10    0.40
   0  -3 -17   23.60    1.90
   0  -3 -17   27.30    2.20
   0  -3 -17   28.00    2.10
   0   3  17   24.50    1.90
   0   3  17   27.90    2.10
  -1  -3 -17   11.70    1.20
  -1  -3 -17    9.40    1.70
  -1  -3 -17   11.70    1.50
   1   3  17   11.10    1.00
   1   3  17   11.60    1.40
  -2  -3 -17    1.10    0.80
  -2  -3 -17    0.40    0.60
  -2  -3 -17    0.10    0.60
   2   3  17    0.00    0.40
  -3  -3 -17   11.30    1.50
  -3  -3 -17   13.30    1.50
   3   3  17   12.00    1.20
  -4  -3 -17    8.60    1.40
  -4  -3 -17    8.70    1.50
   4   3  17    6.90    1.10
  -5  -3 -17    1.30    1.00
  -5  -3 -17   -0.30    0.90
   5   3  17    0.00    0.70
  -6  -3 -17    1.40    1.20
  -6  -3 -17   -0.60    2.10
   6   3  17   -1.10    0.90
  -7  -3 -17    4.00    1.50
  -7  -3 -17    3.70    1.20
   7   3  17    1.90    1.10
  -8  -3 -17    2.80    1.20
  -8  -3 -17    0.40    1.70
   8   3  17    2.80    1.30
  10  -4 -17    3.00    1.70
 -10   4  17    1.40    1.30
   9  -4 -17    5.10    1.40
  -9   4  17    1.90    0.70
  -9   4  17    2.00    1.10
   8  -4 -17   14.10    2.30
  -8   4  17   15.60    1.50
  -8   4  17   15.50    1.80
   7  -4 -17    1.70    1.00
  -7   4  17    1.00    1.00
  -7   4  17    1.50    1.10
   6  -4 -17    0.20    1.10
  -6   4  17   -0.10    0.60
  -6   4  17   -0.10    0.70
   5  -4 -17    1.00    0.80
  -5   4  17    1.40    0.60
  -5   4  17    0.60    0.60
   4  -4 -17   -0.30    0.70
  -4   4  17    0.60    0.50
  -4   4  17    0.40    0.60
   3  -4 -17    7.20    1.20
  -3   4  17    7.90    1.00
  -3   4  17    8.60    1.10
   2  -4 -17    3.80    0.80
  -2   4  17    4.90    0.80
  -2   4  17    5.40    0.80
   1  -4 -17    8.40    1.30
   1  -4 -17    9.10    1.30
  -1   4  17    7.70    0.90
   0  -4 -17    9.30    1.20
   0  -4 -17    6.60    0.90
   0  -4 -17    9.20    1.50
   0   4  17    6.90    0.90
   0   4  17    6.50    1.20
  -1  -4 -17    1.70    0.80
  -1  -4 -17    1.70    0.70
  -1  -4 -17    2.80    1.50
   1   4  17    1.40    0.60
   1   4  17    0.20    0.70
  -2  -4 -17   52.99    3.90
  -2  -4 -17   55.29    3.80
  -2  -4 -17   56.79    3.70
   2   4  17   51.59    3.70
  -3  -4 -17    4.50    1.00
  -3  -4 -17    3.00    1.00
   3   4  17    3.70    0.90
  -4  -4 -17    4.90    1.10
  -4  -4 -17    3.50    1.10
   4   4  17    3.10    0.80
  -5  -4 -17    4.10    1.20
  -5  -4 -17    5.30    1.30
   5   4  17    3.90    1.70
  -6  -4 -17    0.70    1.10
  -6  -4 -17    2.70    1.50
   6   4  17   -0.70    1.00
  -7  -4 -17    1.80    1.30
  -7  -4 -17   -0.70    1.60
   7   4  17   -2.10    1.00
  10  -5 -17    3.10    1.70
 -10   5  17    0.40    1.30
   9  -5 -17    0.70    1.40
  -9   5  17    0.80    1.10
   8  -5 -17   10.30    1.80
  -8   5  17    5.10    1.10
  -8   5  17    6.80    1.10
   7  -5 -17    2.00    1.00
  -7   5  17    2.30    0.90
  -7   5  17    2.30    0.70
   6  -5 -17    2.30    1.00
  -6   5  17    1.50    1.00
  -6   5  17    2.10    0.80
   5  -5 -17    3.10    0.90
  -5   5  17    3.40    0.70
  -5   5  17    3.80    0.80
   4  -5 -17    9.20    1.40
  -4   5  17    9.70    1.20
  -4   5  17    9.70    1.20
   3  -5 -17   12.40    1.50
  -3   5  17   12.20    1.20
  -3   5  17   14.90    1.40
   2  -5 -17   34.90    2.80
  -2   5  17   39.00    2.60
  -2   5  17   36.40    2.70
   1  -5 -17   -1.20    0.80
  -1   5  17   -0.10    0.40
  -1   5  17   -0.40    0.60
   0  -5 -17   12.00    1.80
   0  -5 -17   11.20    1.50
   0   5  17    9.20    1.10
   0   5  17    9.60    1.40
  -1  -5 -17   13.50    1.80
  -1  -5 -17   15.90    1.60
  -1  -5 -17   13.90    1.60
   1   5  17   15.50    1.40
   1   5  17   17.00    2.10
  -2  -5 -17    1.20    1.00
  -2  -5 -17    0.70    0.80
   2   5  17    0.20    0.60
  -3  -5 -17    3.00    1.00
  -3  -5 -17    2.60    1.10
   3   5  17    1.60    1.30
  -4  -5 -17   11.50    2.00
  -4  -5 -17    9.30    1.50
   4   5  17   12.60    1.80
  -5  -5 -17    2.10    1.30
  -5  -5 -17    1.90    1.40
   5   5  17    1.40    1.00
  -6  -5 -17    2.70    1.40
   6   5  17    3.40    1.10
  -7  -5 -17   20.80    3.20
  -7  -5 -17   17.10    2.50
   7   5  17   14.00    2.00
  10  -6 -17    0.70    1.80
 -10   6  17    1.50    1.40
   9  -6 -17    0.10    1.40
  -9   6  17   -0.10    1.10
   8  -6 -17    8.70    1.50
  -8   6  17    9.50    1.60
  -8   6  17    9.10    1.20
   7  -6 -17    4.30    1.20
  -7   6  17    5.60    1.00
  -7   6  17    5.80    1.30
   6  -6 -17    1.50    1.00
  -6   6  17    1.50    0.80
  -6   6  17    1.80    0.70
   5  -6 -17    0.80    1.00
  -5   6  17    0.20    0.90
  -5   6  17    0.10    0.70
   4  -6 -17   10.20    1.50
  -4   6  17   12.00    1.40
  -4   6  17   10.50    1.50
   3  -6 -17    5.30    1.00
  -3   6  17    6.50    1.20
  -3   6  17    5.80    1.00
   2  -6 -17   -0.60    0.80
  -2   6  17   -0.90    0.70
  -2   6  17    0.30    0.60
   1  -6 -17   36.90    2.90
  -1   6  17   36.90    2.70
  -1   6  17   39.80    2.90
   0  -6 -17   15.30    1.80
   0   6  17   14.90    1.80
   0   6  17   15.40    1.50
  -1  -6 -17    1.40    1.00
   1   6  17    0.80    0.70
  -2  -6 -17   14.90    2.20
  -2  -6 -17   11.40    1.80
   2   6  17   12.10    1.70
  -3  -6 -17   -0.20    1.20
  -3  -6 -17    2.70    1.40
   3   6  17    1.10    0.90
  -4  -6 -17   17.30    2.50
  -4  -6 -17   18.00    2.80
   4   6  17   17.40    1.80
  -5  -6 -17    1.80    1.60
  -5  -6 -17    1.60    1.70
   5   6  17    3.30    1.00
  -6  -6 -17    2.00    2.00
  -6  -6 -17   -2.90    1.60
   6   6  17    1.40    1.10
   9  -7 -17    0.10    1.50
  -9   7  17    0.70    1.20
   8  -7 -17    0.20    1.20
  -8   7  17    0.50    1.00
  -8   7  17    0.70    0.70
   7  -7 -17    1.70    1.20
  -7   7  17    2.10    0.80
   6  -7 -17    1.50    1.10
  -6   7  17    2.30    1.50
  -6   7  17    0.60    0.80
  -5   7  17   15.60    1.60
  -5   7  17   16.20    1.60
   4  -7 -17    6.70    1.20
  -4   7  17    7.90    1.40
  -4   7  17    8.90    1.40
   3  -7 -17   -0.30    0.90
  -3   7  17    1.00    0.70
  -3   7  17    0.40    0.80
   2  -7 -17   55.69    4.60
  -2   7  17   75.59    4.70
  -2   7  17   67.89    4.70
  -1   7  17    1.40    0.80
  -1   7  17    1.90    0.90
   0   7  17   72.39    5.10
   0   7  17   74.89    5.30
   1   7  17   43.10    3.80
   2   7  17    3.30    0.90
  -3  -7 -17    6.00    1.70
   3   7  17    7.20    1.20
  -4  -7 -17    1.60    1.80
  -4  -7 -17   -0.30    1.70
   4   7  17    0.40    1.00
  -5  -7 -17   -1.80    1.90
  -5  -7 -17   -1.10    2.10
   9  -8 -17    1.00    1.50
  -9   8  17    0.10    1.30
   8  -8 -17   14.10    2.10
  -8   8  17   16.00    1.60
  -8   8  17   14.30    2.10
   7  -8 -17   27.80    2.70
  -7   8  17   27.50    2.50
  -7   8  17   29.20    2.30
   6  -8 -17    1.30    1.10
  -6   8  17    3.70    1.00
  -6   8  17    1.30    0.80
   5  -8 -17    1.70    1.10
  -5   8  17    1.60    0.80
  -5   8  17    2.80    0.90
   4  -8 -17   -0.60    1.20
  -4   8  17   -1.00    1.40
  -4   8  17   -0.20    1.00
   3  -8 -17    5.80    1.20
  -3   8  17    6.50    1.10
  -3   8  17    6.50    1.90
  -2   8  17    8.40    1.50
  -2   8  17    9.20    1.70
   1  -8 -17    6.90    1.40
  -1   8  17    6.00    1.00
  -1   8  17    6.50    1.40
   0   8  17    2.80    1.00
   1   8  17   13.90    1.60
   2   8  17    0.40    0.90
   3   8  17   23.20    2.20
   8  -9 -17    9.10    1.70
  -8   9  17    7.90    1.40
  -8   9  17    6.40    1.60
   7  -9 -17   12.40    2.20
  -7   9  17   12.50    1.90
  -7   9  17    9.60    1.40
   6  -9 -17   40.80    3.50
  -6   9  17   42.20    3.30
  -6   9  17   42.40    3.10
   5  -9 -17    1.30    1.30
  -5   9  17    0.60    0.90
  -5   9  17    1.70    1.10
   4  -9 -17   -1.20    1.20
  -4   9  17    0.90    0.90
  -4   9  17   -1.70    1.00
   3  -9 -17    3.60    1.30
  -3   9  17    2.00    1.10
  -3   9  17    1.90    1.10
   2  -9 -17    0.40    1.50
  -2   9  17    1.80    1.10
  -2   9  17    1.00    1.10
  -1   9  17    4.60    1.40
  -1   9  17    5.00    1.20
   0   9  17    1.30    1.00
   1   9  17    2.60    1.20
   2   9  17    0.50    1.10
   6 -10 -17    2.40    1.50
  -6  10  17    4.10    1.30
  -6  10  17    2.70    0.90
   5 -10 -17    5.10    1.60
  -5  10  17    2.90    1.10
  -5  10  17    4.70    1.40
   4 -10 -17    4.40    1.70
  -4  10  17    3.20    1.40
  -4  10  17    2.20    1.10
   3 -10 -17   34.50    3.40
  -3  10  17   37.80    3.20
  -3  10  17   37.90    3.40
  -2  10  17    2.00    1.40
  -2  10  17    1.40    1.30
  -1  10  17    4.10    1.40
   0  10  17    0.60    1.30
   0  10 -18    1.10    1.30
   0 -10  18   -1.80    1.20
  -1  10 -18    0.80    1.20
  -1  10 -18    0.50    1.90
   1 -10  18    1.30    1.20
  -2  10 -18   -0.60    1.10
  -2  10 -18    0.00    1.60
   2 -10  18    1.00    1.20
  -3  10 -18    0.70    1.10
  -3  10 -18   -1.70    1.40
   3 -10  18   -1.30    1.20
  -4  10 -18   -1.50    1.30
  -4  10 -18    0.40    1.00
   4 -10  18    0.60    1.10
  -5  10 -18    0.80    1.30
  -5  10 -18    0.20    1.00
   5 -10  18    1.10    1.20
  -6  10 -18   -0.20    1.10
  -6  10 -18    0.00    1.10
   6 -10  18    1.00    1.40
  -2  -9  18   -2.30    1.20
   1   9 -18    5.10    1.20
  -1  -9  18    6.00    1.30
   0   9 -18   16.40    2.90
   0   9 -18   13.90    1.90
   0  -9  18   11.50    1.90
  -1   9 -18    6.20    1.60
  -1   9 -18    3.00    1.00
   1  -9  18    3.90    1.10
  -2   9 -18    1.60    1.30
  -2   9 -18   -0.10    0.90
   2  -9  18   -0.20    1.00
  -3   9 -18    3.20    1.10
  -3   9 -18    7.40    1.40
   3  -9  18    4.20    1.10
  -4   9 -18    1.10    1.20
  -4   9 -18    0.20    1.00
   4  -9  18    0.80    1.00
  -5   9 -18    4.90    1.20
  -5   9 -18    6.20    1.30
   5  -9  18    7.80    1.30
  -6   9 -18    0.70    1.10
  -6   9 -18    3.20    1.10
   6  -9  18    3.20    1.20
  -7   9 -18    2.80    1.20
   7  -9  18    3.90    1.40
  -3  -8  18    1.30    1.10
   2   8 -18   -1.20    1.10
  -2  -8  18   -0.10    1.00
   1   8 -18   -1.50    0.90
  -1  -8  18    1.10    0.90
   0   8 -18    3.10    1.40
   0   8 -18    1.40    1.00
   0  -8  18    2.30    0.90
  -1   8 -18    3.00    1.30
  -1   8 -18    1.90    1.00
   1  -8  18    3.50    1.10
  -2   8 -18   10.80    1.80
  -2   8 -18   14.00    2.20
   2  -8  18   16.50    1.80
  -3   8 -18    0.80    1.30
  -3   8 -18   -0.20    0.80
   3  -8  18    0.70    0.90
  -4   8 -18    4.00    1.00
  -4   8 -18    6.30    1.10
   4  -8  18    5.10    1.10
  -5   8 -18    1.40    0.90
  -5   8 -18    2.20    1.00
   5  -8  18   -0.10    0.90
  -6   8 -18    1.70    0.90
  -6   8 -18    0.60    1.10
   6  -8  18   -0.60    1.10
  -7   8 -18    0.20    1.00
  -7   8 -18   -0.90    0.80
   7  -8  18    0.60    1.10
  -8   8 -18    0.20    1.20
   8  -8  18   -1.80    1.30
  -5  -7  18    1.20    1.50
  -4  -7  18    6.30    1.40
   3   7 -18   17.50    1.90
  -3  -7  18   14.10    2.00
   2   7 -18    4.40    1.50
  -2  -7  18    7.10    1.20
   1   7 -18    1.00    0.80
   1   7 -18    2.20    1.20
  -1  -7  18    2.00    0.80
   0   7 -18    0.80    0.80
   0   7 -18    2.10    1.20
   0  -7  18    0.70    0.90
  -1   7 -18   11.00    1.80
  -1   7 -18    8.80    1.40
   1  -7  18    8.40    1.40
  -2   7 -18   -0.10    0.80
  -2   7 -18    0.30    1.00
   2  -7  18    0.10    0.80
  -3   7 -18   -0.20    1.00
  -3   7 -18   -0.20    0.80
   3  -7  18   -0.70    1.10
  -4   7 -18   13.00    1.70
  -4   7 -18   11.20    1.60
   4  -7  18   13.00    1.90
  -5   7 -18    4.70    1.30
  -5   7 -18    5.30    1.10
  -6   7 -18    2.20    0.80
  -6   7 -18    1.50    1.00
   6  -7  18    2.50    1.00
  -7   7 -18   -0.70    0.90
  -7   7 -18    1.90    0.80
   7  -7  18   -0.10    1.00
  -8   7 -18    4.10    1.20
   8  -7  18    2.70    1.20
  -9   7 -18   -1.10    2.00
   9  -7  18    1.10    1.30
  -6  -6  18    3.90    2.00
  -5  -6  18   -0.80    1.10
  -5  -6  18   -0.40    1.80
   4   6 -18    0.30    1.10
  -4  -6  18    1.20    1.00
   3   6 -18    0.20    0.80
  -3  -6  18    1.10    0.90
   2   6 -18    3.80    0.90
  -2  -6  18    4.80    0.90
   1   6 -18    7.10    1.20
   1   6 -18    6.10    1.40
  -1  -6  18    8.00    1.30
   0   6 -18    1.10    0.90
   0   6 -18    2.00    0.90
   0  -6  18    2.90    0.70
  -1   6 -18    4.30    0.90
  -1   6 -18    4.20    1.10
   1  -6  18    4.80    0.80
  -2   6 -18    0.80    0.90
  -2   6 -18    0.10    0.90
   2  -6  18    0.70    0.70
  -3   6 -18   -0.10    0.80
  -3   6 -18    0.00    0.90
   3  -6  18    0.40    0.70
  -4   6 -18    4.70    1.00
  -4   6 -18    6.70    1.10
   4  -6  18    6.70    1.00
  -5   6 -18    3.50    0.90
  -5   6 -18    4.60    1.20
   5  -6  18    2.00    0.80
  -6   6 -18   24.80    2.40
  -6   6 -18   28.90    2.40
   6  -6  18   33.10    2.70
  -7   6 -18    0.10    0.70
  -7   6 -18   -1.40    1.10
   7  -6  18    0.50    0.90
  -8   6 -18   -1.10    1.00
   8  -6  18    1.40    1.20
   9  -6  18   17.10    2.50
  -7  -5  18    2.30    1.70
  -6  -5  18    0.50    1.60
   5   5 -18    3.90    1.10
  -5  -5  18    5.20    2.00
  -5  -5  18    4.50    1.30
   4   5 -18    0.00    0.70
  -4  -5  18    1.20    0.90
  -4  -5  18    1.70    1.30
   3   5 -18   -0.60    0.60
  -3  -5  18    0.30    1.30
  -3  -5  18    0.00    0.70
   2   5 -18   31.60    2.40
  -2  -5  18   30.70    3.10
  -2  -5  18   34.30    2.50
   1   5 -18    7.70    1.10
   1   5 -18    9.40    1.70
  -1  -5  18    7.20    1.20
   0   5 -18   35.00    2.60
   0   5 -18   35.60    2.80
   0  -5  18   35.90    2.60
  -1   5 -18    0.90    0.80
  -1   5 -18    0.30    0.60
   1  -5  18    0.40    0.60
  -2   5 -18   35.10    2.70
  -2   5 -18   39.70    2.80
   2  -5  18   33.90    2.70
  -3   5 -18    6.50    1.10
  -3   5 -18    4.40    0.90
   3  -5  18    4.00    1.00
  -4   5 -18    3.20    0.80
  -4   5 -18    2.70    0.80
   4  -5  18    3.10    0.70
  -5   5 -18    7.20    1.10
  -5   5 -18   11.00    1.30
   5  -5  18    8.00    1.40
  -6   5 -18    3.10    1.00
  -6   5 -18    3.90    0.90
   6  -5  18    5.60    1.10
  -7   5 -18   -0.70    0.90
  -7   5 -18    0.10    1.00
   7  -5  18    2.40    1.10
  -8   5 -18    0.00    1.00
   8  -5  18    1.90    1.20
   9  -5  18    6.30    1.50
  10  -5  18    1.90    1.60
   7   4 -18    2.50    1.60
  -7  -4  18    1.10    1.50
   6   4 -18    6.10    1.30
   6   4 -18    3.80    1.20
  -6  -4  18    5.40    1.50
   5   4 -18    3.70    0.90
   5   4 -18    1.90    0.80
  -5  -4  18    5.10    1.30
  -5  -4  18    2.40    0.90
   4   4 -18    0.70    0.70
  -4  -4  18    0.40    1.20
  -4  -4  18    2.00    0.80
  -4  -4  18    3.00    0.90
   3   4 -18   -0.30    0.60
  -3  -4  18   -0.10    0.60
  -3  -4  18   -0.20    1.00
   2   4 -18    1.60    1.20
   2   4 -18    1.30    0.60
  -2  -4  18    2.10    1.00
  -2  -4  18    2.60    0.60
   1   4 -18    3.20    1.20
   1   4 -18    1.00    0.50
  -1  -4  18    1.10    0.50
  -1  -4  18    1.60    1.00
   0   4 -18   27.20    2.40
   0   4 -18   30.90    2.20
   0  -4  18   29.30    2.20
  -1   4 -18    2.20    0.60
  -1   4 -18    3.10    0.80
   1  -4  18    1.80    0.60
  -2   4 -18    1.00    0.50
  -2   4 -18   -0.10    0.70
   2  -4  18    0.80    0.60
  -3   4 -18   10.50    1.20
  -3   4 -18   10.20    1.30
   3  -4  18   10.70    1.20
  -4   4 -18   -1.00    0.60
  -4   4 -18    0.20    0.70
   4  -4  18   -0.10    0.70
  -5   4 -18    1.20    0.70
  -5   4 -18    0.10    0.70
   5  -4  18    1.50    0.70
  -6   4 -18    4.20    0.90
  -6   4 -18    4.20    0.90
   6  -4  18    3.60    1.20
  -7   4 -18    7.80    1.30
   7  -4  18    7.20    1.40
   8  -4  18   20.20    2.40
   9  -4  18    8.60    1.70
  10  -4  18    8.80    1.80
   8   3 -18    5.10    1.40
  -8  -3  18    3.50    1.30
   7   3 -18    2.40    1.10
  -7  -3  18    1.80    1.30
   6   3 -18    4.70    1.00
  -6  -3  18    7.20    1.60
  -6  -3  18    8.40    1.30
   5   3 -18    0.30    0.60
  -5  -3  18    1.10    0.90
  -5  -3  18    0.70    0.90
  -5  -3  18    0.00    1.10
   4   3 -18   31.10    2.40
  -4  -3  18   33.30    2.70
  -4  -3  18   31.60    2.40
  -4  -3  18   32.30    2.40
   3   3 -18    1.70    0.60
  -3  -3  18    1.80    0.60
  -3  -3  18    2.00    1.00
  -3  -3  18    1.80    0.70
   2   3 -18    8.50    1.30
   2   3 -18    7.10    0.90
  -2  -3  18    7.00    1.30
  -2  -3  18    7.60    1.10
  -2  -3  18    7.10    1.00
   1   3 -18    1.40    0.90
   1   3 -18    1.60    0.50
  -1  -3  18    2.00    0.70
  -1  -3  18    2.20    0.50
  -1  -3  18    2.70    0.90
   0   3 -18   -0.70    1.10
   0   3 -18    0.60    0.40
   0  -3  18    0.60    0.60
   0  -3  18    2.20    0.90
   0  -3  18    0.90    0.50
  -1   3 -18    0.30    0.60
  -1   3 -18    0.40    0.40
   1  -3  18    0.00    0.50
  -2   3 -18    2.50    0.70
  -2   3 -18    3.30    0.60
   2  -3  18    2.80    0.60
  -3   3 -18   15.60    1.40
  -3   3 -18   16.00    1.50
   3  -3  18   14.70    1.40
  -4   3 -18   15.30    1.40
  -4   3 -18   13.20    1.40
   4  -3  18   15.90    1.50
  -5   3 -18   19.60    1.70
  -5   3 -18   19.20    1.70
   5  -3  18   18.70    1.90
  -6   3 -18   19.00    1.80
  -6   3 -18   19.70    2.10
  -6   3 -18   16.50    1.70
  -7   3 -18    5.70    1.20
  -7   3 -18    8.60    1.10
  -8   3 -18    0.10    0.70
  -8   3 -18   -1.00    1.10
  -9   3 -18    0.60    1.30
   9   2 -18    3.30    1.50
  -9  -2  18    0.30    1.20
  -8  -2  18    2.20    1.40
  -8  -2  18    1.30    1.20
   7   2 -18    1.20    0.90
  -7  -2  18    0.60    1.30
  -7  -2  18    1.10    1.10
   6   2 -18    2.00    0.70
  -6  -2  18    2.40    1.00
  -6  -2  18    1.30    1.10
   5   2 -18    3.90    0.80
  -5  -2  18    5.00    1.00
  -5  -2  18    4.70    1.00
   4   2 -18    0.70    0.60
  -4  -2  18    0.90    0.70
  -4  -2  18    0.70    0.80
   3   2 -18    2.20    0.60
  -3  -2  18    1.70    0.80
  -3  -2  18    3.50    0.60
  -3  -2  18    2.20    0.70
   2   2 -18    1.90    0.50
   2   2 -18    0.70    1.00
  -2  -2  18    1.90    0.70
  -2  -2  18    2.50    0.60
  -2  -2  18    0.90    0.60
   1   2 -18    3.40    0.90
   1   2 -18    4.80    0.80
  -1  -2  18    6.20    0.80
  -1  -2  18    5.50    0.90
  -1  -2  18    3.50    0.90
   0   2 -18   20.20    1.60
   0   2 -18   19.60    1.80
   0  -2  18   18.80    1.80
   0  -2  18   20.20    1.60
   0  -2  18   21.50    1.60
  -1   2 -18    4.60    0.80
   1  -2  18    5.00    0.70
   1  -2  18    6.90    1.20
  -2   2 -18   48.40    3.40
  -2   2 -18   49.30    3.30
   2  -2  18   46.90    3.20
   2  -2  18   47.90    3.30
  -3   2 -18    0.90    0.60
  -3   2 -18    0.90    0.50
   3  -2  18    1.30    0.60
   3  -2  18    0.30    0.50
  -4   2 -18   10.60    1.30
  -4   2 -18    9.80    1.20
  -4   2 -18    8.50    1.10
   4  -2  18   10.40    1.10
  -5   2 -18    0.70    0.60
  -5   2 -18    0.50    0.70
  -5   2 -18    0.70    0.80
  -6   2 -18   -0.50    0.90
  -6   2 -18    0.10    0.80
  -6   2 -18   -0.20    0.80
   6  -2  18    1.10    0.70
  -7   2 -18   23.30    2.30
  -7   2 -18   19.10    1.70
  -8   2 -18    0.90    1.10
  -8   2 -18    0.60    0.80
  -9   2 -18    1.70    1.30
 -10   2 -18   -2.20    1.40
  -9  -1  18    2.20    1.50
  -9  -1  18   -1.00    1.00
   8   1 -18    3.20    1.10
  -8  -1  18    4.80    1.40
  -8  -1  18    6.20    1.10
   7   1 -18    1.20    0.80
  -7  -1  18   -0.40    1.00
  -7  -1  18   -0.80    1.30
   6   1 -18    0.30    0.70
  -6  -1  18    0.70    0.90
  -6  -1  18   -0.70    0.80
   5   1 -18    4.30    0.80
  -5  -1  18    3.10    0.90
  -5  -1  18    5.50    0.90
   4   1 -18    5.90    1.00
  -4  -1  18    5.30    0.90
  -4  -1  18    5.20    0.90
   3   1 -18    0.60    0.50
  -3  -1  18    0.20    0.60
  -3  -1  18    1.10    0.50
  -3  -1  18    0.50    0.60
   2   1 -18   33.30    2.20
   2   1 -18   30.40    2.50
  -2  -1  18   31.40    2.40
  -2  -1  18   32.20    2.40
  -2  -1  18   29.40    2.20
   1   1 -18   16.00    1.50
   1   1 -18   13.80    1.20
  -1  -1  18   12.60    1.50
  -1  -1  18   12.10    1.20
  -1  -1  18   13.90    1.20
   0   1 -18   45.00    3.00
   0   1 -18   44.00    3.20
   0  -1  18   43.10    3.00
   0  -1  18   44.90    3.00
   0  -1  18   43.80    3.20
  -1   1 -18    4.30    0.80
  -1   1 -18    3.30    0.80
   1  -1  18    2.90    0.90
   1  -1  18    3.30    0.60
   1  -1  18    4.10    0.70
  -2   1 -18   -0.40    0.60
  -2   1 -18    0.10    0.50
   2  -1  18   -0.40    0.50
   2  -1  18    0.80    0.50
  -3   1 -18    0.50    0.60
  -3   1 -18    0.60    0.60
  -3   1 -18    0.90    0.50
   3  -1  18    0.10    0.50
  -4   1 -18   32.80    2.40
  -4   1 -18   31.50    2.40
  -4   1 -18   31.20    2.30
   4  -1  18   27.80    2.30
  -5   1 -18    0.00    0.70
  -5   1 -18    0.10    0.70
  -5   1 -18    1.10    0.80
   5  -1  18    1.60    0.60
  -6   1 -18    8.30    1.70
  -6   1 -18    9.60    1.20
   6  -1  18    8.10    1.20
  -7   1 -18    0.00    1.00
  -7   1 -18    0.50    0.80
   7  -1  18   -1.40    0.80
  -8   1 -18   19.40    2.20
  -8   1 -18   19.20    1.70
   8  -1  18   15.30    2.00
  -9   1 -18   -2.10    1.30
  -9   0  18    1.90    1.00
  -9   0  18    1.70    1.40
   8   0 -18    1.40    1.60
  -8   0  18    1.30    0.90
  -8   0  18   -1.10    1.10
   7   0 -18   12.30    1.60
  -7   0  18   14.20    1.70
  -7   0  18   12.00    1.60
   6   0 -18    7.80    1.10
  -6   0  18    8.90    1.40
  -6   0  18    7.60    1.40
   5   0 -18    0.10    0.70
  -5   0  18    0.50    0.70
  -5   0  18   -1.00    0.70
   4   0 -18    6.50    1.10
  -4   0  18    8.10    1.20
  -4   0  18    5.70    0.90
   3   0 -18    1.60    0.60
  -3   0  18    2.00    0.60
  -3   0  18    2.10    0.70
   2   0 -18    2.60    0.80
   2   0 -18    2.00    0.50
  -2   0  18    1.70    0.50
  -2   0  18    1.30    0.60
   1   0 -18   12.30    1.50
   1   0 -18   13.70    1.20
  -1   0  18   15.30    1.20
  -1   0  18   15.00    1.20
  -1   0  18   15.00    1.50
   0   0 -18    1.90    0.50
   0   0 -18    1.60    0.70
   0   0  18    1.40    0.60
   0   0  18    0.90    0.40
   0   0  18    1.70    0.50
  -1   0 -18   91.09    6.00
  -1   0 -18   90.99    6.00
   1   0  18   90.29    6.10
   1   0  18   87.69    6.00
   1   0  18   90.99    5.90
  -2   0 -18   17.40    1.60
  -2   0 -18   18.10    1.40
   2   0  18   16.60    1.50
  -3   0 -18    2.00    0.70
  -3   0 -18    2.80    0.60
  -3   0 -18    2.40    0.70
   3   0  18    2.00    0.50
  -4   0 -18    7.60    1.20
  -4   0 -18    7.20    1.00
   4   0  18    8.70    1.00
  -5   0 -18    7.40    1.40
  -5   0 -18   10.70    1.30
   5   0  18    8.00    1.10
  -6   0 -18   12.00    1.60
  -6   0 -18    9.10    1.70
   6   0  18    7.10    1.30
  -7   0 -18   -0.30    1.60
  -7   0 -18    0.10    1.00
   7   0  18    0.00    0.90
  -8   0 -18   -1.00    1.30
  -8   0 -18   -0.20    0.80
   8   0  18   -0.90    1.10
  -9   0 -18    0.70    0.90
  -9   0 -18    2.40    1.50
   9   0  18   -2.20    1.40
 -10   1  18   -0.20    1.50
 -10   1  18    2.10    0.90
   9  -1 -18    0.70    1.30
  -9   1  18    1.30    0.90
  -9   1  18   -1.30    1.20
   8  -1 -18    4.50    1.80
  -8   1  18    6.70    1.10
  -8   1  18    5.60    1.20
   7  -1 -18   24.70    2.30
  -7   1  18   27.10    2.20
  -7   1  18   27.20    2.30
   6  -1 -18   32.30    2.60
  -6   1  18   31.60    2.80
  -6   1  18   30.40    2.50
   5  -1 -18    2.20    0.80
  -5   1  18    1.50    0.70
  -5   1  18    1.20    0.70
   4  -1 -18    9.20    1.20
  -4   1  18    8.00    1.10
  -4   1  18    8.30    1.20
   3  -1 -18    2.30    0.70
  -3   1  18    3.00    0.60
  -3   1  18    2.80    0.70
   2  -1 -18    9.00    1.20
   2  -1 -18    9.90    1.40
  -2   1  18    7.20    1.20
  -2   1  18   10.50    1.00
   1  -1 -18   14.00    1.50
   1  -1 -18   13.30    1.30
  -1   1  18   13.40    1.20
  -1   1  18   14.00    1.40
   0  -1 -18   66.49    4.40
   0  -1 -18   68.99    4.50
   0   1  18   64.89    4.40
   0   1  18   64.59    4.50
   0   1  18   62.39    4.30
  -1  -1 -18    0.50    0.70
  -1  -1 -18    1.20    0.60
  -1  -1 -18    0.60    0.50
   1   1  18   -0.10    0.40
   1   1  18   -0.60    0.70
  -2  -1 -18   44.70    3.10
   2   1  18   41.80    3.00
  -3  -1 -18    0.30    0.60
  -3  -1 -18    0.40    0.60
  -3  -1 -18   -0.40    0.70
   3   1  18    0.20    0.50
  -4  -1 -18   -0.80    0.80
  -4  -1 -18   -0.30    0.60
  -4  -1 -18    0.70    0.70
   4   1  18    1.10    0.60
  -5  -1 -18   15.80    1.70
  -5  -1 -18   15.00    1.70
   5   1  18   12.80    1.40
  -6  -1 -18    0.10    1.10
  -6  -1 -18    0.70    1.00
   6   1  18   -0.20    0.80
  -7  -1 -18    1.70    0.90
  -7  -1 -18    0.70    1.20
   7   1  18    1.60    1.50
  -8  -1 -18    3.00    1.50
  -8  -1 -18    1.30    0.90
   8   1  18    1.90    1.30
  -9  -1 -18    0.80    1.00
  -9  -1 -18    3.30    1.60
   9   1  18    1.30    1.60
 -10   2  18    0.30    1.40
 -10   2  18    0.30    0.80
   9  -2 -18    2.60    1.30
  -9   2  18    1.50    1.20
  -9   2  18    2.00    0.80
   8  -2 -18    0.70    2.00
  -8   2  18    1.30    0.80
  -8   2  18    1.50    1.00
   7  -2 -18    5.50    1.20
  -7   2  18    4.50    1.30
  -7   2  18    6.10    0.90
   6  -2 -18    4.00    1.00
  -6   2  18    2.90    0.80
  -6   2  18    3.40    0.90
   5  -2 -18   11.40    1.50
  -5   2  18   11.10    1.30
  -5   2  18   10.70    1.30
   4  -2 -18   31.20    2.50
  -4   2  18   31.60    2.40
  -4   2  18   30.70    2.30
   3  -2 -18   -0.30    0.70
  -3   2  18    0.60    0.60
  -3   2  18    0.60    0.50
   2  -2 -18    4.60    0.80
   2  -2 -18    5.40    1.00
  -2   2  18    6.60    0.80
   1  -2 -18    3.30    0.90
   1  -2 -18    3.30    0.70
  -1   2  18    3.60    0.80
  -1   2  18    3.80    0.60
   0  -2 -18    1.30    0.60
   0  -2 -18    0.90    0.60
   0  -2 -18    1.60    0.80
   0   2  18    1.80    0.50
   0   2  18    1.80    0.70
  -1  -2 -18    1.90    0.90
  -1  -2 -18    2.40    0.60
  -1  -2 -18    2.10    0.60
   1   2  18    1.40    0.80
   1   2  18    1.20    0.50
  -2  -2 -18   29.80    2.30
  -2  -2 -18   28.90    2.20
   2   2  18   25.70    2.00
  -3  -2 -18   19.20    1.80
  -3  -2 -18   18.00    1.70
  -3  -2 -18   19.70    1.60
   3   2  18   17.80    1.60
  -4  -2 -18    2.50    0.90
  -4  -2 -18    2.60    0.90
   4   2  18    2.20    0.70
  -5  -2 -18    4.70    1.00
  -5  -2 -18    5.00    1.10
   5   2  18    4.60    0.90
  -6  -2 -18    2.40    1.20
  -6  -2 -18    2.90    1.20
   6   2  18    2.20    0.90
  -7  -2 -18    8.80    1.60
  -7  -2 -18   10.90    1.60
   7   2  18    5.60    1.30
  -8  -2 -18    7.30    1.70
  -8  -2 -18    7.50    1.30
  10  -3 -18    4.80    1.80
 -10   3  18    5.30    1.50
   9  -3 -18    9.00    1.60
  -9   3  18    9.20    1.50
  -9   3  18    7.40    1.40
   8  -3 -18    0.80    1.20
  -8   3  18    0.70    1.00
   7  -3 -18    6.20    1.20
  -7   3  18    5.60    0.90
  -7   3  18    5.40    1.00
   6  -3 -18   13.50    1.60
  -6   3  18   12.30    1.40
  -6   3  18   11.00    1.50
   5  -3 -18    2.70    0.90
  -5   3  18    3.40    0.70
  -5   3  18    3.50    0.70
   4  -3 -18   -0.80    0.70
  -4   3  18    0.10    0.60
  -4   3  18    1.10    0.60
   3  -3 -18   12.60    1.40
  -3   3  18   12.30    1.30
  -3   3  18   11.80    1.20
   2  -3 -18    8.00    1.20
  -2   3  18    7.90    0.90
  -2   3  18    8.20    1.10
   1  -3 -18   61.19    4.40
   1  -3 -18   62.99    4.30
  -1   3  18   63.99    4.30
  -1   3  18   59.09    4.20
   0  -3 -18    3.80    0.70
   0  -3 -18    2.70    0.90
   0  -3 -18    3.30    0.80
   0   3  18    3.70    0.60
   0   3  18    4.50    0.90
  -1  -3 -18   10.20    1.20
  -1  -3 -18   10.40    1.20
  -1  -3 -18   10.10    1.70
   1   3  18   10.90    1.50
   1   3  18    9.90    1.00
  -2  -3 -18    0.80    0.90
  -2  -3 -18    0.80    0.70
   2   3  18    1.20    0.60
  -3  -3 -18    0.90    0.80
  -3  -3 -18    0.90    0.90
   3   3  18   -0.50    0.60
  -4  -3 -18   40.90    3.00
  -4  -3 -18   38.20    3.00
   4   3  18   34.30    2.80
  -5  -3 -18   18.40    2.10
  -5  -3 -18   17.60    2.00
   5   3  18   14.40    1.60
  -6  -3 -18    3.00    1.20
  -6  -3 -18    2.70    1.30
   6   3  18    1.60    1.00
  -7  -3 -18   -0.40    1.10
  -7  -3 -18    1.60    1.60
   7   3  18   -2.00    1.10
  -8  -3 -18    1.60    1.80
  -8  -3 -18   -0.80    1.20
   8   3  18    1.10    1.30
  10  -4 -18    7.20    1.80
 -10   4  18    3.10    1.40
   9  -4 -18    4.30    1.40
  -9   4  18    2.70    1.20
  -9   4  18    0.70    0.70
   8  -4 -18    3.10    1.30
  -8   4  18    2.90    1.10
   7  -4 -18    0.20    1.10
  -7   4  18    1.40    0.70
  -7   4  18    1.40    0.90
   6  -4 -18   -0.10    0.90
  -6   4  18    0.70    0.70
  -6   4  18   -0.70    0.70
   5  -4 -18    3.60    0.90
  -5   4  18    4.00    0.80
  -5   4  18    2.90    0.80
   4  -4 -18    3.00    0.90
  -4   4  18    3.70    0.70
  -4   4  18    3.00    0.70
   3  -4 -18    7.30    1.10
  -3   4  18    9.80    1.10
  -3   4  18    9.30    1.20
   2  -4 -18   18.50    1.70
  -2   4  18   17.20    1.50
  -2   4  18   18.30    1.70
   1  -4 -18   22.10    1.90
  -1   4  18   21.90    1.70
  -1   4  18   21.70    1.90
   0  -4 -18   33.20    2.60
   0  -4 -18   35.10    2.80
   0   4  18   33.80    2.40
   0   4  18   33.10    2.60
  -1  -4 -18   34.70    2.60
  -1  -4 -18   32.40    2.80
   1   4  18   35.30    2.50
  -2  -4 -18   14.30    1.70
  -2  -4 -18   13.00    1.50
   2   4  18   10.40    1.20
  -3  -4 -18    0.00    0.90
  -3  -4 -18    1.30    0.90
   3   4  18    0.80    0.70
  -4  -4 -18    1.50    1.00
  -4  -4 -18    0.30    1.10
   4   4  18    1.30    0.80
  -5  -4 -18    1.60    1.70
  -5  -4 -18    0.70    1.80
   5   4  18    0.20    0.90
  -6  -4 -18    1.80    1.30
  -6  -4 -18    1.10    1.50
   6   4  18   -0.80    1.00
  -7  -4 -18    2.10    1.80
  -7  -4 -18    0.50    1.40
   7   4  18    0.90    1.30
  10  -5 -18    2.10    1.70
 -10   5  18    0.80    1.40
   9  -5 -18    0.30    1.40
  -9   5  18    2.10    0.70
  -9   5  18    2.00    1.20
   8  -5 -18    1.70    1.20
  -8   5  18   -0.20    0.70
  -8   5  18    0.60    1.00
   7  -5 -18    4.80    1.80
  -7   5  18    1.20    1.70
   6  -5 -18    4.10    1.10
  -6   5  18    3.90    1.30
  -6   5  18    4.60    0.80
   5  -5 -18   39.10    3.20
  -5   5  18   39.50    3.00
  -5   5  18   39.80    2.90
   4  -5 -18    5.30    1.10
  -4   5  18    8.70    1.20
  -4   5  18    8.20    1.20
   3  -5 -18    3.00    0.90
  -3   5  18    4.40    0.90
  -3   5  18    4.40    0.80
   2  -5 -18    3.50    1.00
  -2   5  18    4.60    0.90
  -2   5  18    5.00    0.90
   1  -5 -18   10.80    1.60
  -1   5  18   11.90    1.50
  -1   5  18   11.40    1.20
   0  -5 -18    1.70    0.90
   0   5  18    1.30    0.80
   0   5  18    0.60    0.60
  -1  -5 -18   19.30    2.20
  -1  -5 -18   20.50    1.90
  -1  -5 -18   19.10    1.90
   1   5  18   18.10    2.10
  -2  -5 -18   15.30    1.70
  -2  -5 -18   10.10    1.50
   2   5  18   11.80    1.40
  -3  -5 -18   25.50    2.30
  -3  -5 -18   18.70    2.40
   3   5  18   21.00    1.90
  -4  -5 -18   23.90    2.70
  -4  -5 -18   30.50    2.70
   4   5  18   28.40    2.30
  -5  -5 -18    6.00    1.50
  -5  -5 -18   10.30    1.70
   5   5  18    9.60    1.50
  -6  -5 -18   74.39    5.30
  -6  -5 -18   65.29    5.10
   6   5  18   64.39    4.80
 -10   6  18    2.40    1.40
   9  -6 -18    4.20    1.50
  -9   6  18    5.20    1.30
   8  -6 -18    7.40    1.50
  -8   6  18    7.70    1.20
  -8   6  18    5.40    1.30
   7  -6 -18   -0.50    1.10
  -7   6  18    0.70    0.90
  -7   6  18    0.70    0.80
   6  -6 -18    3.70    1.20
  -6   6  18    5.20    0.90
  -6   6  18    3.90    0.90
   5  -6 -18   -0.30    0.90
  -5   6  18   -0.50    0.70
  -5   6  18   -0.80    0.70
   4  -6 -18   15.80    1.90
  -4   6  18   19.80    1.80
  -4   6  18   19.50    1.80
   3  -6 -18    3.60    1.00
  -3   6  18    4.90    0.80
  -3   6  18    4.60    0.90
   2  -6 -18   23.40    2.20
  -2   6  18   24.40    2.20
  -2   6  18   25.30    2.00
   1  -6 -18   14.10    1.70
  -1   6  18   10.60    1.60
  -1   6  18   11.50    1.30
   0  -6 -18   16.90    1.90
   0   6  18   18.80    2.00
   0   6  18   15.10    1.60
   1   6  18    1.60    1.10
  -2  -6 -18   49.10    4.20
  -2  -6 -18   58.29    4.00
  -3  -6 -18   30.40    2.90
  -3  -6 -18   24.00    3.00
   3   6  18   30.10    2.30
  -4  -6 -18    0.70    1.60
  -4  -6 -18   -0.30    1.50
   4   6  18    0.20    1.00
  -5  -6 -18   22.00    2.90
   5   6  18   23.00    2.20
   9  -7 -18    1.00    1.50
  -9   7  18    2.10    1.30
  -8   7  18   -1.10    1.00
  -8   7  18    0.00    0.70
   7  -7 -18    3.80    1.30
  -7   7  18    2.50    1.10
  -7   7  18    3.00    0.80
   6  -7 -18   11.00    1.80
  -6   7  18   10.20    1.40
  -6   7  18   11.40    1.50
   5  -7 -18   18.70    2.60
  -5   7  18   17.00    1.90
  -5   7  18   17.80    2.40
   4  -7 -18    6.80    1.30
  -4   7  18   10.50    1.50
  -4   7  18   11.50    1.50
   3  -7 -18   21.70    2.30
  -3   7  18   29.40    2.10
  -3   7  18   22.50    2.20
   2  -7 -18    7.10    1.30
  -2   7  18    3.30    1.00
  -2   7  18    4.30    1.00
   1  -7 -18   36.00    3.30
  -1   7  18   43.00    3.00
  -1   7  18   42.20    3.30
   0   7  18  115.89    8.10
   0   7  18  111.69    7.80
   1   7  18    1.50    0.80
   2   7  18    2.80    0.90
   3   7  18    1.20    1.00
  -4  -7 -18    0.00    2.20
  -4  -7 -18    1.80    2.10
   4   7  18    2.90    1.20
   8  -8 -18    3.10    1.50
  -8   8  18    1.30    1.30
  -8   8  18    5.10    0.90
   7  -8 -18    9.60    1.60
  -7   8  18    9.50    1.40
  -7   8  18    7.10    1.40
   6  -8 -18    8.30    1.40
  -6   8  18    5.60    1.10
  -6   8  18    5.80    1.10
   5  -8 -18    2.60    1.20
  -5   8  18    4.90    1.10
  -5   8  18    4.80    1.00
   4  -8 -18   23.00    2.40
  -4   8  18   26.40    2.40
  -4   8  18   28.00    2.40
   3  -8 -18   -1.50    1.30
  -3   8  18    0.10    1.40
  -3   8  18   -0.10    0.90
   2  -8 -18    0.80    1.30
  -2   8  18    1.30    1.00
  -2   8  18    0.80    0.90
  -1   8  18   13.30    2.10
  -1   8  18   11.60    1.80
   0   8  18    0.20    0.80
   1   8  18   -0.90    0.90
   2   8  18   -1.30    1.00
   3   8  18    3.00    1.10
   7  -9 -18    7.60    1.70
  -7   9  18    5.40    1.00
  -7   9  18    6.00    1.40
   6  -9 -18   31.80    3.00
  -6   9  18   31.40    2.60
  -6   9  18   31.20    2.80
   5  -9 -18   -2.30    1.30
  -5   9  18    1.30    1.20
  -5   9  18    0.50    0.90
   4  -9 -18   -0.30    1.30
  -4   9  18   -1.10    1.20
  -4   9  18    0.40    1.00
   3  -9 -18    4.10    1.60
  -3   9  18    6.50    1.30
  -3   9  18    6.60    1.20
   2  -9 -18   21.50    3.40
  -2   9  18   25.60    2.70
  -2   9  18   22.40    2.30
  -1   9  18    9.40    1.70
  -1   9  18    6.80    1.30
   0   9  18    2.20    1.10
   1   9  18    8.50    1.40
   6 -10 -18    5.60    1.70
  -6  10  18    8.00    1.60
  -6  10  18    9.40    1.60
   5 -10 -18    3.20    1.60
  -5  10  18    2.50    1.10
  -5  10  18    4.20    1.50
   4 -10 -18    5.10    1.80
  -4  10  18    9.90    1.60
  -4  10  18    5.80    1.40
  -3  10  18    1.80    1.30
  -3  10  18    1.00    1.30
  -2  10  18   25.20    3.00
  -2  10  18   18.00    2.40
  -1  10  18   -0.50    1.40
  -1  10 -19    0.70    1.90
  -1  10 -19    1.70    1.20
   1 -10  19   -0.40    1.20
  -2  10 -19    4.40    1.30
  -2  10 -19    4.30    1.80
   2 -10  19    4.40    1.30
  -3  10 -19   -0.80    1.20
  -3  10 -19    0.60    1.60
   3 -10  19    0.00    1.20
  -4  10 -19    3.00    1.50
  -4  10 -19    1.80    1.20
   4 -10  19    3.70    1.30
  -5  10 -19   -0.10    1.30
  -5  10 -19   -0.30    1.10
   5 -10  19    3.80    1.40
   1   9 -19    3.50    1.20
  -1  -9  19    4.30    1.20
   0   9 -19   13.60    2.20
   0   9 -19   11.80    1.90
   0  -9  19   10.20    1.50
  -1   9 -19    1.90    1.00
  -1   9 -19    2.60    1.50
   1  -9  19    2.70    1.10
  -2   9 -19   10.00    1.70
  -2   9 -19    6.70    1.30
   2  -9  19    7.50    1.30
  -3   9 -19    0.80    1.30
   3  -9  19    1.40    1.00
  -4   9 -19    4.20    1.20
  -4   9 -19    2.70    1.00
   4  -9  19    4.90    1.20
  -5   9 -19   -0.90    1.10
  -5   9 -19   -0.20    1.20
   5  -9  19    0.70    1.20
  -6   9 -19    1.70    1.10
  -6   9 -19    1.50    1.10
   6  -9  19    0.90    1.20
  -7   9 -19    0.90    1.20
   7  -9  19   -1.30    1.30
  -3  -8  19    0.80    1.20
   2   8 -19    3.50    1.30
  -2  -8  19    3.20    1.10
   1   8 -19    3.50    1.10
  -1  -8  19    4.60    1.20
   0   8 -19   10.20    2.10
   0   8 -19   11.70    1.80
   0  -8  19   14.80    1.80
  -1   8 -19   23.20    2.90
  -1   8 -19   17.20    2.10
   1  -8  19   20.30    2.20
  -2   8 -19    3.30    1.20
   2  -8  19    3.30    1.00
  -3   8 -19    7.20    1.20
  -3   8 -19    8.40    1.30
   3  -8  19    9.80    1.70
  -4   8 -19    2.60    1.00
  -4   8 -19    1.90    1.00
  -5   8 -19   -0.20    1.00
  -5   8 -19    0.00    1.00
   5  -8  19    0.90    1.00
  -6   8 -19    0.50    1.00
  -6   8 -19   -0.80    1.10
   6  -8  19   -2.30    1.10
  -7   8 -19    1.80    1.00
  -7   8 -19    0.50    1.10
   7  -8  19    2.20    1.10
  -8   8 -19    1.90    1.30
   8  -8  19   -0.70    1.30
  -4  -7  19    0.90    1.20
   3   7 -19   -0.50    1.00
  -3  -7  19   -0.90    1.00
   2   7 -19    0.10    0.90
  -2  -7  19    2.30    1.00
   1   7 -19   -0.80    0.90
   1   7 -19   -0.10    1.30
  -1  -7  19    1.40    1.10
   0   7 -19    7.70    1.40
   0   7 -19    6.40    1.40
   0  -7  19    8.10    1.20
  -1   7 -19    1.30    1.20
  -1   7 -19    2.00    0.80
   1  -7  19    2.00    0.80
  -2   7 -19    3.30    1.20
  -2   7 -19    1.20    1.00
   2  -7  19    2.60    0.90
  -3   7 -19    0.70    0.90
  -3   7 -19    2.50    1.10
   3  -7  19    1.70    1.10
  -4   7 -19   -0.70    1.20
  -4   7 -19    1.20    1.30
  -5   7 -19    0.80    0.90
  -5   7 -19    1.20    0.90
   5  -7  19    0.30    1.00
  -6   7 -19   -0.30    0.80
  -6   7 -19    2.20    1.10
   6  -7  19   -0.10    1.00
  -7   7 -19   -0.50    1.10
  -7   7 -19    1.80    0.80
   7  -7  19    0.50    1.00
  -8   7 -19    9.90    1.60
   8  -7  19   14.90    2.10
   9  -7  19    0.80    1.40
  -5  -6  19   -0.10    2.40
  -5  -6  19    0.10    1.30
   4   6 -19    7.90    1.20
  -4  -6  19    7.20    1.30
  -3  -6  19    0.00    1.20
   2   6 -19   -1.10    0.70
  -2  -6  19   -0.40    0.80
   1   6 -19    0.20    0.80
   1   6 -19   -0.30    1.30
  -1  -6  19   -0.50    0.70
   0   6 -19    1.50    0.70
   0   6 -19    0.90    1.10
   0  -6  19    1.60    0.70
  -1   6 -19    5.90    1.30
  -1   6 -19    7.30    1.30
   1  -6  19    7.50    1.30
  -2   6 -19   11.30    1.60
  -2   6 -19    9.40    1.70
   2  -6  19   10.90    1.50
  -3   6 -19    0.90    0.80
  -3   6 -19   -0.10    0.90
   3  -6  19    0.40    1.20
  -4   6 -19   18.90    2.00
  -4   6 -19   21.70    2.00
   4  -6  19   20.00    2.10
  -5   6 -19    3.80    1.00
  -5   6 -19    3.00    0.90
   5  -6  19    3.00    1.00
  -6   6 -19    0.50    1.00
  -6   6 -19    2.10    0.90
   6  -6  19    2.30    0.90
  -7   6 -19    6.20    1.00
  -7   6 -19    2.90    1.20
   7  -6  19    5.10    1.20
  -8   6 -19    1.10    1.10
   8  -6  19    2.70    1.20
   9  -6  19   14.30    2.50
  -6  -5  19   -3.20    1.70
   5   5 -19    1.10    1.00
  -5  -5  19   -0.90    1.30
  -5  -5  19    0.10    1.60
   4   5 -19    1.50    0.80
  -4  -5  19    2.80    1.40
  -4  -5  19    2.80    0.90
   3   5 -19    3.50    0.80
  -3  -5  19    5.30    1.40
  -3  -5  19    3.80    0.90
   2   5 -19    3.20    0.70
  -2  -5  19    3.40    0.80
   1   5 -19    0.90    1.10
   1   5 -19    1.20    0.70
  -1  -5  19    0.60    0.70
   0   5 -19    4.00    1.00
   0   5 -19    2.20    0.80
   0  -5  19    2.10    0.70
  -1   5 -19    0.40    0.90
  -1   5 -19    1.00    0.60
   1  -5  19    0.10    0.60
  -2   5 -19   26.80    2.40
  -2   5 -19   28.20    2.30
   2  -5  19   30.80    2.30
  -3   5 -19    0.10    0.70
  -3   5 -19   -0.20    0.80
   3  -5  19   -0.60    0.70
  -4   5 -19    1.00    1.00
  -4   5 -19    1.20    0.80
   4  -5  19    0.90    0.80
  -5   5 -19    4.10    1.00
  -5   5 -19    2.20    1.00
   5  -5  19    3.90    1.00
  -6   5 -19    0.40    0.90
  -6   5 -19    0.70    0.80
   6  -5  19    0.40    1.10
  -7   5 -19    1.20    0.90
  -7   5 -19    0.40    1.00
   7  -5  19    0.30    1.00
   8  -5  19   12.50    2.20
   9  -5  19    6.10    1.60
  -7  -4  19   -1.90    1.50
   6   4 -19   -1.20    1.00
  -6  -4  19   -0.30    1.40
   5   4 -19    0.20    0.80
  -5  -4  19    1.00    1.30
   4   4 -19    1.80    0.70
  -4  -4  19    1.60    1.30
  -4  -4  19    2.50    0.80
   3   4 -19    1.00    0.60
  -3  -4  19    1.10    0.70
  -3  -4  19   -0.20    1.10
   2   4 -19   21.40    1.80
  -2  -4  19   20.30    1.80
  -2  -4  19   23.30    2.20
   1   4 -19    9.50    1.20
   1   4 -19    9.80    1.80
  -1  -4  19   12.40    1.20
   0   4 -19    5.70    1.00
   0   4 -19    6.70    1.10
   0  -4  19    4.10    0.80
  -1   4 -19   13.00    1.60
  -1   4 -19   14.50    1.40
   1  -4  19   14.80    1.40
  -2   4 -19   21.70    1.90
  -2   4 -19   21.00    1.70
   2  -4  19   16.90    1.70
  -3   4 -19    4.90    0.80
  -3   4 -19    4.60    0.90
   3  -4  19    4.10    0.80
  -4   4 -19   14.10    1.50
  -4   4 -19   13.10    1.50
   4  -4  19   12.70    1.50
  -5   4 -19    0.90    0.80
  -5   4 -19    3.20    1.00
   5  -4  19    2.70    0.90
  -6   4 -19   18.30    2.40
  -6   4 -19   18.70    1.80
   6  -4  19   18.50    2.30
  -7   4 -19    9.90    1.60
  -7   4 -19   10.20    1.40
   7  -4  19    9.90    1.50
   8  -4  19    4.40    1.40
   9  -4  19    3.70    1.60
   8   3 -19    3.50    1.50
  -8  -3  19   -0.40    1.40
  -7  -3  19   -0.90    1.30
  -6  -3  19    7.30    1.30
  -6  -3  19    6.20    1.40
   5   3 -19    1.20    0.70
  -5  -3  19    2.60    1.00
  -5  -3  19    2.00    1.20
   4   3 -19    2.80    0.70
  -4  -3  19    1.70    1.10
  -4  -3  19    2.90    0.90
  -4  -3  19    3.30    0.80
   3   3 -19    5.70    1.00
  -3  -3  19    6.10    1.10
  -3  -3  19    5.80    0.90
  -3  -3  19    5.80    1.20
   2   3 -19    0.80    1.10
   2   3 -19    1.50    0.50
  -2  -3  19    1.40    0.60
  -2  -3  19    1.20    0.70
  -2  -3  19    1.10    1.00
   1   3 -19    2.00    0.60
   1   3 -19    2.40    1.30
  -1  -3  19    1.70    0.70
  -1  -3  19    2.70    0.60
  -1  -3  19    3.60    1.00
   0   3 -19    1.40    0.50
   0   3 -19    2.00    0.90
   0  -3  19    0.80    0.50
  -1   3 -19    0.20    0.50
  -1   3 -19    1.10    0.70
   1  -3  19    0.00    0.50
  -2   3 -19   10.10    1.30
  -2   3 -19   11.10    1.20
   2  -3  19   12.40    1.20
  -3   3 -19    3.60    0.70
  -3   3 -19    4.10    0.80
   3  -3  19    3.20    0.70
  -4   3 -19    1.50    0.70
  -4   3 -19    1.50    0.70
   4  -3  19    1.90    0.80
  -5   3 -19   24.10    2.10
  -5   3 -19   26.00    2.10
   5  -3  19   23.80    2.20
  -6   3 -19    9.10    1.30
  -6   3 -19    9.20    1.40
   6  -3  19   10.60    1.70
  -7   3 -19    5.20    2.10
  -7   3 -19    4.50    1.10
  -8   3 -19    5.60    0.90
  -8   3 -19    2.90    1.40
  -8  -2  19    0.40    1.20
  -8  -2  19    2.80    1.50
   7   2 -19   -0.40    1.10
  -7  -2  19   -2.30    1.20
  -7  -2  19   -0.60    1.10
   6   2 -19    1.60    0.80
  -6  -2  19    1.40    1.00
  -6  -2  19    0.30    1.10
   5   2 -19    3.20    0.80
  -5  -2  19    2.00    1.00
  -5  -2  19    3.10    1.10
   4   2 -19   11.10    1.30
  -4  -2  19   11.70    1.70
  -4  -2  19   11.60    1.40
   3   2 -19    3.50    0.70
  -3  -2  19    2.50    0.90
  -3  -2  19    3.50    0.80
  -3  -2  19    3.60    0.80
   2   2 -19   16.60    2.10
   2   2 -19   17.10    1.50
  -2  -2  19   17.00    1.50
   1   2 -19   22.20    1.70
   1   2 -19   20.00    2.00
  -1  -2  19   18.90    1.90
  -1  -2  19   22.60    1.70
  -1  -2  19   23.30    1.70
   0   2 -19   41.00    3.20
   0   2 -19   43.50    3.00
   0  -2  19   45.00    3.00
   0  -2  19   41.80    3.20
  -1   2 -19    2.30    0.50
  -1   2 -19    2.30    0.70
   1  -2  19    2.00    0.50
  -2   2 -19    1.20    0.70
  -2   2 -19    1.20    0.50
   2  -2  19    1.20    0.50
   2  -2  19    0.10    0.50
  -3   2 -19    4.00    0.70
  -3   2 -19    4.80    0.80
   3  -2  19    5.20    0.70
   3  -2  19    4.80    0.80
  -4   2 -19   10.10    1.20
  -4   2 -19   10.10    1.30
   4  -2  19   10.60    1.20
   4  -2  19   11.50    1.40
  -5   2 -19    1.50    0.70
  -5   2 -19    1.60    0.80
  -5   2 -19    1.90    0.90
   5  -2  19    1.70    0.80
  -6   2 -19   10.10    1.30
  -6   2 -19    9.40    1.40
  -6   2 -19   11.10    1.60
  -7   2 -19   14.50    2.40
  -7   2 -19   13.40    1.80
  -8   2 -19    4.20    0.90
  -8   2 -19    4.20    1.30
  -9   2 -19    2.60    1.40
  -9  -1  19    0.10    1.10
  -9  -1  19    3.40    1.70
   8   1 -19    0.80    1.10
  -8  -1  19    1.90    1.40
  -8  -1  19    2.50    1.10
   7   1 -19    0.30    0.90
  -7  -1  19   -1.40    1.00
  -7  -1  19   -0.40    1.30
   6   1 -19   -0.30    0.70
  -6  -1  19    1.00    1.00
  -6  -1  19    0.50    0.90
   5   1 -19    1.40    0.70
  -5  -1  19    1.60    0.80
  -5  -1  19    0.90    0.90
   4   1 -19    8.20    1.20
  -4  -1  19    6.50    1.00
  -4  -1  19    6.50    1.10
   3   1 -19    3.00    0.60
  -3  -1  19    3.10    0.90
  -3  -1  19    3.30    0.70
  -3  -1  19    3.30    0.80
   2   1 -19    0.20    1.00
   2   1 -19    0.60    0.40
  -2  -1  19    0.50    0.90
  -2  -1  19    0.70    0.60
  -2  -1  19   -0.50    0.50
   1   1 -19   38.90    2.70
   1   1 -19   41.80    2.90
  -1  -1  19   38.30    2.70
  -1  -1  19   36.80    2.70
  -1  -1  19   38.20    2.90
   0   1 -19   72.69    4.90
   0   1 -19   72.09    4.80
   0  -1  19   70.59    4.70
   0  -1  19   71.39    4.70
   0  -1  19   69.29    4.90
  -1   1 -19    4.40    1.30
  -1   1 -19    5.50    0.90
   1  -1  19    6.70    0.90
  -2   1 -19   88.29    5.80
  -2   1 -19   86.59    5.80
   2  -1  19   87.59    5.80
   2  -1  19   85.09    5.70
  -3   1 -19    0.30    0.60
  -3   1 -19    0.30    0.70
  -3   1 -19    0.30    0.70
   3  -1  19    0.50    0.60
  -4   1 -19    8.90    1.20
  -4   1 -19    6.70    1.20
  -4   1 -19    7.80    1.10
   4  -1  19   10.20    1.10
  -5   1 -19    0.40    0.70
  -5   1 -19   -0.50    0.80
  -5   1 -19    0.40    0.70
   5  -1  19    0.30    0.70
  -6   1 -19    2.60    1.00
  -6   1 -19    2.10    0.90
   6  -1  19    2.80    0.90
  -7   1 -19    3.70    1.50
  -7   1 -19    2.30    0.90
   7  -1  19    2.50    1.00
  -8   1 -19    8.20    1.40
  -9   1 -19    0.40    1.50
  -9   0  19    1.10    1.00
  -9   0  19    0.70    1.50
   8   0 -19    7.70    1.20
  -8   0  19    7.10    1.20
  -8   0  19    6.80    1.40
   7   0 -19   10.50    1.60
  -7   0  19   11.00    1.60
  -7   0  19   11.10    2.10
   6   0 -19    5.10    1.00
  -6   0  19    6.20    1.00
  -6   0  19    5.80    1.10
   5   0 -19    1.10    0.70
  -5   0  19    0.60    0.80
  -5   0  19    1.60    0.80
   4   0 -19    1.30    0.70
  -4   0  19    1.70    0.70
  -4   0  19    0.90    0.70
   3   0 -19    0.50    0.50
  -3   0  19    0.50    0.70
  -3   0  19    0.20    0.60
   2   0 -19    5.70    1.10
   2   0 -19    8.70    1.00
  -2   0  19    8.10    0.90
  -2   0  19    4.60    1.10
   1   0 -19   -1.40    0.80
   1   0 -19    0.90    0.50
  -1   0  19    0.20    0.70
  -1   0  19    1.00    0.50
  -1   0  19    1.20    0.50
   0   0 -19   25.50    2.10
   0   0 -19   25.20    1.90
   0   0  19   22.80    1.80
   0   0  19   27.40    2.10
  -1   0 -19   13.50    1.30
   1   0  19   14.20    1.30
   1   0  19   16.90    1.70
  -2   0 -19    1.30    0.70
  -2   0 -19    0.90    0.70
  -2   0 -19    1.90    0.60
   2   0  19    1.50    0.50
  -3   0 -19    5.60    0.90
  -3   0 -19    5.60    0.80
  -3   0 -19    5.20    0.90
   3   0  19    5.60    0.90
  -4   0 -19    2.50    0.80
  -4   0 -19    3.30    0.70
  -4   0 -19    2.20    0.80
   4   0  19    2.80    0.70
  -5   0 -19    8.80    1.50
  -5   0 -19   10.40    1.40
   5   0  19   13.40    1.40
  -6   0 -19   -0.30    0.80
  -6   0 -19    0.60    1.00
   6   0  19   -0.10    0.80
  -7   0 -19    0.20    0.80
  -7   0 -19    1.00    1.20
   7   0  19   -0.30    1.00
  -8   0 -19   -0.70    1.40
  -8   0 -19    0.40    0.90
   8   0  19   -1.50    1.20
  -9   0 -19    1.00    1.60
  -9   0 -19   -0.40    0.90
   9   0  19   -3.10    2.00
   9  -1 -19   -0.90    1.30
  -9   1  19   -1.00    1.30
  -9   1  19    1.90    1.00
   8  -1 -19    1.10    1.10
  -8   1  19    1.00    1.10
  -8   1  19    3.00    0.90
   7  -1 -19   11.50    1.70
  -7   1  19    9.60    1.70
  -7   1  19   12.80    1.60
   6  -1 -19   20.50    2.00
  -6   1  19   20.80    2.00
  -6   1  19   21.10    1.90
   5  -1 -19    0.60    0.80
  -5   1  19    0.30    0.70
  -5   1  19   -0.40    0.70
   4  -1 -19   56.79    3.90
  -4   1  19   53.99    3.80
  -4   1  19   55.19    3.90
   3  -1 -19    4.20    0.80
  -3   1  19    6.90    0.90
  -3   1  19    5.70    0.90
   2  -1 -19    6.00    1.10
   2  -1 -19    9.00    1.50
  -2   1  19    6.30    0.90
   1  -1 -19    4.40    0.70
   1  -1 -19    3.90    1.00
  -1   1  19    3.80    0.60
  -1   1  19    4.00    0.80
   0  -1 -19    4.60    0.70
   0  -1 -19    4.90    0.80
   0   1  19    4.70    0.70
   0   1  19    4.00    0.60
   0   1  19    4.00    0.90
  -1  -1 -19   12.30    1.30
  -1  -1 -19   18.20    2.30
  -1  -1 -19   12.50    1.20
   1   1  19   14.50    1.70
   1   1  19   14.00    1.20
  -2  -1 -19    8.40    1.10
  -2  -1 -19    8.40    1.30
  -2  -1 -19    7.70    1.00
   2   1  19    8.10    0.90
  -3  -1 -19    1.60    0.80
  -3  -1 -19    0.60    0.60
  -3  -1 -19    1.20    0.70
   3   1  19    1.30    0.60
  -4  -1 -19    2.00    0.90
  -4  -1 -19    3.30    0.80
   4   1  19    2.80    0.70
  -5  -1 -19    2.20    0.90
  -5  -1 -19    3.80    1.00
   5   1  19    3.40    0.80
  -6  -1 -19    5.10    1.00
  -6  -1 -19    7.00    1.20
   6   1  19    4.30    1.00
  -7  -1 -19    4.60    1.10
  -7  -1 -19    4.90    1.40
   7   1  19    4.10    1.20
  -8  -1 -19    3.70    1.60
  -8  -1 -19    2.00    1.00
   8   1  19    1.60    1.30
 -10   2  19   -1.00    0.90
 -10   2  19   -2.20    1.40
   9  -2 -19    0.00    1.30
  -9   2  19    0.50    0.90
  -9   2  19   -0.90    1.20
   8  -2 -19    0.50    1.20
  -8   2  19    1.30    0.80
  -8   2  19    1.70    1.10
   7  -2 -19    1.50    1.10
  -7   2  19    1.10    0.80
  -7   2  19    2.40    1.00
   6  -2 -19    2.80    1.00
  -6   2  19    4.00    1.00
  -6   2  19    4.50    1.00
   5  -2 -19    9.10    1.50
  -5   2  19   11.00    1.30
  -5   2  19    9.60    1.30
   4  -2 -19   -0.90    0.70
  -4   2  19    0.40    0.60
  -4   2  19    0.00    0.70
   3  -2 -19   20.40    2.00
  -3   2  19   21.70    1.80
  -3   2  19   25.00    1.90
   2  -2 -19    1.10    0.70
  -2   2  19    0.60    0.70
  -2   2  19    0.00    0.50
   1  -2 -19    0.10    1.00
   1  -2 -19    1.00    0.60
  -1   2  19    0.60    0.50
  -1   2  19   -0.10    0.80
   0  -2 -19   17.90    1.80
   0  -2 -19   18.00    1.50
   0   2  19   16.40    1.40
   0   2  19   16.50    1.70
  -1  -2 -19   16.80    1.40
  -1  -2 -19   13.40    2.30
  -1  -2 -19   15.50    1.50
   1   2  19   15.90    1.80
   1   2  19   14.30    1.30
  -2  -2 -19    4.80    1.00
  -2  -2 -19    3.50    0.70
  -2  -2 -19    4.50    0.80
   2   2  19    3.00    0.60
  -3  -2 -19    7.90    1.50
  -3  -2 -19    8.10    1.20
   3   2  19    7.60    1.10
  -4  -2 -19    1.40    1.00
  -4  -2 -19    0.80    0.90
   4   2  19    2.00    0.80
  -5  -2 -19    1.90    1.10
  -5  -2 -19    3.30    1.00
   5   2  19    2.40    0.90
  -6  -2 -19    5.60    2.00
  -6  -2 -19    5.10    1.20
   6   2  19    1.70    1.80
  -7  -2 -19   17.30    2.10
  -7  -2 -19   20.10    2.50
   7   2  19   17.90    2.10
  -8  -2 -19    2.80    1.10
  -8  -2 -19    4.80    1.70
   8   2  19    1.00    1.30
  10  -3 -19   11.40    2.00
 -10   3  19   10.70    1.80
   9  -3 -19    3.30    1.50
  -9   3  19    2.90    1.30
  -9   3  19    1.50    0.90
   8  -3 -19    1.80    1.30
  -8   3  19   -0.80    0.70
  -8   3  19   -1.00    1.00
   7  -3 -19    1.20    1.10
  -7   3  19    0.70    0.90
  -7   3  19    0.90    0.80
   6  -3 -19    0.60    1.30
  -6   3  19    0.10    0.70
  -6   3  19    0.00    0.90
   5  -3 -19    1.60    1.00
  -5   3  19    2.30    0.80
  -5   3  19    2.70    0.90
   4  -3 -19    0.40    0.80
  -4   3  19    0.90    0.70
  -4   3  19    0.00    0.60
   3  -3 -19    0.40    0.80
  -3   3  19    1.20    0.60
  -3   3  19    0.90    0.70
   2  -3 -19    4.10    0.90
  -2   3  19    3.90    0.80
  -2   3  19    4.40    0.70
   1  -3 -19    1.00    0.80
   1  -3 -19    0.60    1.10
  -1   3  19    0.60    0.50
   0  -3 -19    0.90    1.00
   0  -3 -19    0.80    0.70
   0   3  19    1.80    0.60
   0   3  19    1.90    0.80
  -1  -3 -19   58.59    3.90
  -1  -3 -19   54.59    3.90
  -1  -3 -19   56.59    4.10
   1   3  19   57.79    4.20
   1   3  19   56.99    3.90
  -2  -3 -19   30.80    2.50
  -2  -3 -19   28.30    2.30
  -2  -3 -19   29.00    2.20
   2   3  19   29.50    2.20
  -3  -3 -19   80.29    5.50
  -3  -3 -19   81.49    5.60
   3   3  19   80.59    5.50
  -4  -3 -19    4.00    1.20
  -4  -3 -19    3.60    1.10
  -5  -3 -19    3.80    1.30
  -5  -3 -19    3.20    1.20
   5   3  19    3.90    1.00
  -6  -3 -19    3.90    1.50
  -6  -3 -19    2.80    1.20
   6   3  19    2.00    1.10
  -7  -3 -19    1.20    1.60
  -7  -3 -19    1.70    1.20
   7   3  19   -1.00    1.20
  10  -4 -19    0.90    1.80
 -10   4  19    0.10    1.40
   9  -4 -19    7.70    1.60
  -9   4  19    7.90    1.40
  -9   4  19    5.20    0.90
   8  -4 -19    3.50    1.30
  -8   4  19    2.10    1.10
  -8   4  19    1.60    0.80
   7  -4 -19    2.30    1.70
  -7   4  19    1.40    1.20
  -7   4  19    2.20    1.20
   6  -4 -19    2.50    1.30
  -6   4  19    2.20    1.00
  -6   4  19    3.10    0.80
   5  -4 -19   -1.20    1.00
  -5   4  19   -0.30    0.60
  -5   4  19   -0.20    1.00
   4  -4 -19    0.40    0.90
  -4   4  19    1.70    0.70
  -4   4  19    2.00    0.80
   3  -4 -19   44.30    3.50
  -3   4  19   48.40    3.30
  -3   4  19   49.00    3.40
   2  -4 -19    1.70    0.90
  -2   4  19    1.60    0.80
  -2   4  19    0.90    0.60
   1  -4 -19   29.50    2.60
  -1   4  19   35.80    2.50
  -1   4  19   35.50    2.70
   0  -4 -19    4.60    1.20
   0  -4 -19    4.20    1.00
   0   4  19    3.70    0.70
   0   4  19    2.80    1.00
  -1  -4 -19   17.00    1.60
  -1  -4 -19   17.30    1.90
  -1  -4 -19   16.50    1.90
   1   4  19   15.70    1.50
  -2  -4 -19    8.40    1.50
  -2  -4 -19    8.90    1.40
   2   4  19    9.10    1.30
  -3  -4 -19   26.30    2.30
  -3  -4 -19   22.70    2.40
   3   4  19   24.40    2.00
  -4  -4 -19    6.50    1.30
  -4  -4 -19    5.10    1.30
   4   4  19    4.70    1.10
  -5  -4 -19    3.90    1.40
  -5  -4 -19    4.80    1.50
   5   4  19    3.80    1.00
  -6  -4 -19    4.40    1.70
  -6  -4 -19    3.40    1.50
   6   4  19    4.50    1.20
  -7  -4 -19   10.00    1.70
  -7  -4 -19   10.70    2.10
   7   4  19   11.40    2.00
   9  -5 -19    5.30    1.60
  -9   5  19    4.10    1.30
  -9   5  19    2.40    0.80
   8  -5 -19   -0.80    1.30
  -8   5  19    1.10    1.10
  -8   5  19    0.20    0.70
   7  -5 -19    7.40    1.50
  -7   5  19    9.00    1.30
  -7   5  19    7.80    1.20
   6  -5 -19    1.90    1.10
  -6   5  19    0.20    0.70
  -6   5  19   -0.90    0.80
   5  -5 -19   20.20    1.90
  -5   5  19   16.70    1.70
  -5   5  19   16.90    1.80
   4  -5 -19   19.90    2.00
  -4   5  19   18.70    1.90
  -4   5  19   19.50    1.80
   3  -5 -19   39.90    3.10
  -3   5  19   40.90    3.00
  -3   5  19   40.90    3.00
   2  -5 -19   -1.00    0.90
  -2   5  19    0.40    0.70
  -2   5  19   -0.30    0.80
   1  -5 -19    1.30    0.90
  -1   5  19    0.40    0.80
  -1   5  19    0.30    0.80
   0  -5 -19   19.60    1.90
   0   5  19   20.40    1.80
   0   5  19   18.60    2.00
  -1  -5 -19    0.70    1.30
  -1  -5 -19    0.20    0.90
   1   5  19   -0.30    0.70
  -2  -5 -19   10.00    1.70
  -2  -5 -19    8.90    1.40
   2   5  19    9.50    1.20
  -3  -5 -19    1.30    1.30
  -3  -5 -19    0.50    1.20
   3   5  19   -1.40    1.30
  -4  -5 -19   12.70    2.50
  -4  -5 -19   20.90    3.10
   4   5  19   17.60    1.80
  -5  -5 -19   10.60    1.80
  -5  -5 -19   12.60    2.00
   5   5  19   11.30    1.70
  -6  -5 -19    8.40    2.00
  -6  -5 -19    4.60    1.80
   9  -6 -19    2.10    1.70
  -9   6  19    3.70    0.80
  -9   6  19    6.60    1.40
   8  -6 -19    1.60    1.40
  -8   6  19    1.50    0.80
  -8   6  19    2.20    1.10
   7  -6 -19   13.10    1.90
  -7   6  19   12.30    1.60
  -7   6  19   10.80    1.70
   6  -6 -19    2.30    1.10
  -6   6  19    3.80    0.90
  -6   6  19    1.90    1.00
   5  -6 -19   -1.00    1.10
  -5   6  19   -1.10    0.70
  -5   6  19    0.50    0.80
   4  -6 -19    0.80    1.00
  -4   6  19    2.50    0.80
  -4   6  19    3.40    1.00
   3  -6 -19    0.80    1.10
  -3   6  19    1.60    1.00
  -3   6  19    1.50    0.90
   2  -6 -19    2.30    1.10
  -2   6  19    3.40    0.90
  -2   6  19    2.80    0.90
   1  -6 -19    2.70    1.10
  -1   6  19    2.00    0.80
  -1   6  19    2.10    1.00
   0  -6 -19   17.00    2.20
   0   6  19   21.90    1.90
   0   6  19   24.80    2.30
   1   6  19   42.20    3.20
   2   6  19   16.60    1.60
  -3  -6 -19   25.10    2.90
  -3  -6 -19   15.80    2.90
   3   6  19   20.90    2.00
  -4  -6 -19    3.80    1.70
  -4  -6 -19    8.30    1.90
   4   6  19    4.60    1.20
  -5  -6 -19    9.20    2.20
  -5  -6 -19    8.10    1.90
   9  -7 -19    4.50    1.80
  -9   7  19    3.00    1.40
   8  -7 -19   17.40    2.30
  -8   7  19   13.60    2.20
  -8   7  19   20.80    1.80
   7  -7 -19    7.80    1.50
  -7   7  19    6.90    1.20
  -7   7  19    8.10    1.40
   6  -7 -19   -0.10    1.20
  -6   7  19    0.50    0.90
  -6   7  19    0.20    0.80
   5  -7 -19    7.10    1.40
  -5   7  19   11.70    1.60
  -5   7  19   10.70    1.50
   4  -7 -19   10.40    1.60
  -4   7  19   11.60    1.80
  -4   7  19   11.30    1.60
   3  -7 -19   22.30    2.50
  -3   7  19   26.40    2.80
  -3   7  19   29.50    2.40
   2  -7 -19   27.20    2.60
  -2   7  19   28.40    2.80
  -2   7  19   26.70    2.60
   1  -7 -19    3.20    1.30
  -1   7  19    1.00    1.10
  -1   7  19    1.60    1.10
   0   7  19    4.00    0.90
   1   7  19    0.50    0.90
   2   7  19   -0.50    0.90
   3   7  19    1.30    1.10
   4   7  19    9.40    1.40
   8  -8 -19   -1.20    1.50
  -8   8  19   -1.00    1.30
  -8   8  19    1.60    0.90
   7  -8 -19   30.50    3.20
  -7   8  19   38.50    2.80
  -7   8  19   33.60    3.00
   6  -8 -19   13.30    2.10
  -6   8  19   15.60    1.80
  -6   8  19   16.40    1.90
   5  -8 -19    0.30    1.30
  -5   8  19   -0.20    0.80
  -5   8  19    0.50    1.00
   4  -8 -19   -0.70    1.20
  -4   8  19    1.50    1.00
  -4   8  19    1.10    1.00
   3  -8 -19    8.60    1.60
  -3   8  19   10.60    1.80
  -3   8  19   10.10    1.40
   2  -8 -19   12.10    2.30
  -2   8  19   11.10    1.60
  -2   8  19    7.90    1.80
  -1   8  19    5.50    1.10
  -1   8  19    7.00    2.20
   0   8  19   25.70    2.30
   1   8  19   -1.90    0.90
   2   8  19    3.30    1.10
   7  -9 -19   -0.80    1.60
  -7   9  19   -0.20    0.90
  -7   9  19   -0.30    1.30
   6  -9 -19   26.90    2.90
  -6   9  19   26.60    2.60
  -6   9  19   28.60    2.50
   5  -9 -19   -0.60    1.40
  -5   9  19    0.20    1.00
  -5   9  19    3.00    1.30
   4  -9 -19   20.20    2.70
  -4   9  19   26.20    2.60
  -4   9  19   30.30    2.60
   3  -9 -19   13.20    2.30
  -3   9  19    9.80    1.50
  -3   9  19   11.60    1.90
  -2   9  19   -0.10    1.40
  -2   9  19    1.80    1.20
  -1   9  19    1.40    1.20
   0   9  19    7.20    1.30
   1   9  19   -0.60    1.10
   4 -10 -19    3.00    2.00
  -4  10  19    5.00    1.60
  -4  10  19    1.00    1.30
  -3  10  19    1.40    1.40
  -3  10  19    2.50    1.40
  -2  10  19   -0.60    1.70
  -3  10 -20    3.20    1.70
  -3  10 -20    1.90    1.30
   1   9 -20   -0.40    1.20
  -1  -9  20   -0.30    1.20
   0   9 -20    0.40    1.10
   0   9 -20    2.40    2.40
   0  -9  20   -0.20    1.20
  -1   9 -20    0.50    1.00
  -1   9 -20    0.50    1.60
   1  -9  20   -0.80    1.10
  -2   9 -20   -0.50    1.00
  -2   9 -20    0.80    1.60
   2  -9  20   -0.90    1.10
  -3   9 -20    5.20    1.50
   3  -9  20    3.40    1.10
  -4   9 -20    0.00    1.10
  -4   9 -20    1.60    1.30
   4  -9  20    2.30    1.10
  -5   9 -20    4.20    1.30
  -5   9 -20    3.00    1.20
   5  -9  20    4.10    1.30
  -6   9 -20    1.60    1.20
  -6   9 -20   -1.20    1.10
  -3  -8  20    3.70    1.40
   2   8 -20    0.10    1.20
  -2  -8  20    0.00    1.10
   1   8 -20    5.70    1.30
  -1  -8  20    5.70    1.20
   0   8 -20    4.80    1.80
   0   8 -20    4.90    1.20
   0  -8  20    7.30    1.20
  -1   8 -20    1.10    1.30
   1  -8  20    0.60    1.00
  -2   8 -20    6.10    1.40
   2  -8  20    9.80    1.70
  -3   8 -20    2.90    1.00
  -3   8 -20    3.90    1.20
   3  -8  20    6.00    1.20
  -4   8 -20   -0.80    0.90
  -4   8 -20    0.10    1.10
   4  -8  20   -1.00    1.10
  -5   8 -20   -0.20    1.00
  -5   8 -20   -1.90    1.00
   5  -8  20    0.80    1.10
  -6   8 -20    2.10    1.10
  -6   8 -20   -2.20    1.10
   6  -8  20    0.90    1.20
  -7   8 -20    1.10    1.00
  -7   8 -20    1.10    1.20
   7  -8  20   -1.10    1.30
  -4  -7  20   -1.90    1.30
   3   7 -20   -0.30    1.10
  -3  -7  20   -0.70    1.10
   2   7 -20    1.80    1.00
  -2  -7  20    2.80    1.10
   1   7 -20   -0.10    0.90
  -1  -7  20   -0.20    0.90
   0   7 -20   -1.40    0.80
   0   7 -20    1.30    1.30
   0  -7  20   -1.60    0.90
  -1   7 -20    0.70    1.30
  -1   7 -20   -0.20    0.80
   1  -7  20    0.70    1.40
  -2   7 -20   -0.20    1.20
  -2   7 -20    0.10    0.90
   2  -7  20    1.20    1.40
  -3   7 -20   -2.00    1.50
  -3   7 -20   -0.40    0.80
   3  -7  20   -0.30    1.60
  -4   7 -20    0.50    1.00
  -4   7 -20    0.60    1.10
   4  -7  20    0.10    0.90
  -5   7 -20    0.70    0.90
  -5   7 -20    0.10    1.00
   5  -7  20    0.80    1.00
  -6   7 -20    0.30    0.90
  -6   7 -20    1.90    1.10
   6  -7  20    1.50    1.00
  -7   7 -20    0.60    0.90
  -7   7 -20   -1.50    1.10
   7  -7  20    0.60    1.20
  -8   7 -20    0.10    1.20
   8  -7  20    3.00    1.30
   4   6 -20    0.20    1.00
  -4  -6  20    0.90    1.20
   3   6 -20    0.90    0.90
  -3  -6  20    0.90    1.00
   2   6 -20    2.70    1.30
  -2  -6  20    0.00    0.90
   1   6 -20   -1.00    0.70
   1   6 -20    0.20    1.40
  -1  -6  20   -0.30    0.80
   0   6 -20    1.50    0.80
   0   6 -20    1.40    1.20
   0  -6  20    2.40    0.80
  -1   6 -20    0.80    0.90
  -1   6 -20    0.70    1.20
   1  -6  20    0.40    0.80
  -2   6 -20    5.00    1.20
  -2   6 -20    6.30    1.20
   2  -6  20    5.30    1.00
  -3   6 -20    1.60    0.80
  -3   6 -20    0.90    1.00
   3  -6  20    0.40    0.80
  -4   6 -20    3.60    1.00
  -4   6 -20    3.70    1.10
   4  -6  20    2.40    1.10
  -5   6 -20   -0.80    0.90
  -5   6 -20   -0.30    1.10
   5  -6  20    0.70    1.70
  -6   6 -20    2.70    0.90
  -6   6 -20    0.30    1.10
   6  -6  20    0.60    1.00
  -7   6 -20   -0.50    0.90
  -7   6 -20   -0.40    1.10
   7  -6  20    3.00    1.20
  -8   6 -20    2.90    1.30
   8  -6  20    4.30    1.40
   9  -6  20    2.50    1.50
  -6  -5  20   -0.50    1.80
   5   5 -20    2.20    1.00
  -5  -5  20    1.20    1.80
   4   5 -20    1.90    0.90
  -4  -5  20    1.10    1.50
  -4  -5  20    0.90    1.00
   3   5 -20    0.90    0.70
  -3  -5  20    1.60    0.90
   2   5 -20    2.30    0.80
  -2  -5  20    1.70    0.80
   1   5 -20    3.70    0.80
   1   5 -20    4.50    1.30
  -1  -5  20    2.50    0.80
   0   5 -20    4.60    1.20
   0   5 -20    7.50    1.20
   0  -5  20    8.90    1.30
  -1   5 -20    0.00    1.00
  -1   5 -20   -0.60    0.70
   1  -5  20   -0.10    0.70
  -2   5 -20    0.80    0.90
  -2   5 -20    0.50    0.90
   2  -5  20    1.10    0.70
  -3   5 -20   13.90    1.60
  -3   5 -20   14.10    1.60
   3  -5  20   11.90    1.60
  -4   5 -20    4.20    1.00
  -4   5 -20    4.40    1.00
  -5   5 -20    1.60    0.90
  -5   5 -20   -0.90    0.90
   5  -5  20    0.10    0.90
  -6   5 -20    6.10    1.10
   6  -5  20    8.80    1.60
  -7   5 -20    8.40    1.30
  -7   5 -20    4.60    1.50
   7  -5  20    6.60    1.40
   8  -5  20    7.50    1.50
   9  -5  20    4.90    1.50
  -7  -4  20   -1.20    1.60
   6   4 -20   -1.00    1.00
  -6  -4  20   -1.30    1.60
   5   4 -20    4.50    1.10
  -5  -4  20    6.00    2.20
   4   4 -20    8.50    1.40
  -4  -4  20    9.40    1.50
  -4  -4  20   10.80    1.70
   3   4 -20    5.90    0.90
  -3  -4  20    5.50    1.40
  -3  -4  20    7.90    1.30
   2   4 -20    4.50    1.00
  -2  -4  20    8.00    1.30
  -2  -4  20    6.80    1.20
   1   4 -20   11.30    1.90
   1   4 -20    9.80    1.40
  -1  -4  20   11.20    1.30
   0   4 -20    2.90    0.70
   0   4 -20    2.90    1.00
   0  -4  20    3.10    0.70
  -1   4 -20    0.80    0.80
  -1   4 -20    1.90    0.90
   1  -4  20    1.00    0.60
  -2   4 -20    2.40    0.70
  -2   4 -20    2.00    0.90
   2  -4  20    2.00    0.70
  -3   4 -20    4.40    0.80
  -3   4 -20    5.00    1.00
   3  -4  20    5.60    0.90
  -4   4 -20    9.70    1.40
  -4   4 -20    8.40    1.40
   4  -4  20    9.80    1.40
  -5   4 -20   41.50    3.30
  -5   4 -20   35.20    3.00
   5  -4  20   38.20    3.20
  -6   4 -20    9.30    1.60
  -6   4 -20   10.40    1.70
   6  -4  20   10.40    1.80
  -7   4 -20    4.70    0.90
  -7   4 -20    4.80    1.20
   7  -4  20    4.60    1.30
   8  -4  20    1.30    1.40
   9  -4  20   -0.10    1.50
  -7  -3  20   -2.50    1.40
   6   3 -20    2.00    0.90
  -6  -3  20    5.40    2.10
  -6  -3  20    0.90    1.30
   5   3 -20    1.40    0.80
  -5  -3  20    2.60    1.30
  -5  -3  20    1.40    1.10
   4   3 -20   -0.90    0.60
  -4  -3  20   -0.30    0.90
  -4  -3  20    0.50    1.10
   3   3 -20    0.80    0.60
  -3  -3  20    1.20    0.80
  -3  -3  20    1.00    0.70
  -3  -3  20    1.10    1.00
   2   3 -20    3.80    0.70
  -2  -3  20    3.80    1.00
  -2  -3  20    4.70    0.80
   1   3 -20   -0.10    0.50
   1   3 -20   -1.90    1.10
  -1  -3  20    1.20    0.60
  -1  -3  20    1.20    1.00
   0   3 -20    4.70    0.70
   0   3 -20    5.30    1.00
   0  -3  20    4.70    0.80
  -1   3 -20   15.40    1.60
  -1   3 -20   12.40    1.30
   1  -3  20   12.70    1.30
  -2   3 -20    1.70    0.80
  -2   3 -20    1.10    0.60
   2  -3  20    2.00    0.70
  -3   3 -20    3.10    0.70
  -3   3 -20    1.90    0.80
   3  -3  20    2.50    0.70
  -4   3 -20    5.60    1.00
  -4   3 -20    9.00    1.30
   4  -3  20    9.30    1.40
  -5   3 -20    8.10    1.40
  -5   3 -20    9.40    1.40
   5  -3  20    5.40    1.10
  -6   3 -20   11.60    1.60
  -6   3 -20   11.80    1.40
   6  -3  20   13.70    1.90
  -7   3 -20    0.50    0.80
   7  -3  20   -0.10    1.20
  -8   3 -20    3.40    0.90
  -8  -2  20    1.70    1.40
  -8  -2  20    4.40    1.70
   7   2 -20    1.20    1.00
  -7  -2  20    2.00    1.30
  -7  -2  20   -0.80    1.40
   6   2 -20    0.30    0.90
  -6  -2  20    1.20    1.90
  -6  -2  20   -0.20    1.10
   5   2 -20    1.10    0.70
  -5  -2  20    1.00    1.00
  -5  -2  20    2.20    1.10
   4   2 -20    1.10    0.60
  -4  -2  20    1.00    0.90
  -4  -2  20    0.30    1.00
   3   2 -20    0.40    0.60
  -3  -2  20    0.50    0.80
  -3  -2  20    0.30    0.90
   2   2 -20   22.20    1.70
   2   2 -20   18.30    2.40
  -2  -2  20   20.50    2.00
  -2  -2  20   18.90    1.70
   1   2 -20   62.59    4.20
   1   2 -20   63.89    4.40
  -1  -2  20   61.69    4.20
  -1  -2  20   61.49    4.30
  -1  -2  20   59.39    4.40
   0   2 -20    1.20    0.50
   0   2 -20    2.50    0.90
   0  -2  20    1.70    1.00
   0  -2  20    1.30    0.50
   0  -2  20    1.70    0.70
  -1   2 -20   12.20    1.20
  -1   2 -20   11.70    1.50
   1  -2  20   13.60    1.30
  -2   2 -20    1.00    0.60
  -2   2 -20    1.40    0.70
   2  -2  20    0.40    0.60
   2  -2  20    1.20    0.60
  -3   2 -20   13.30    1.40
  -3   2 -20   12.80    1.30
   3  -2  20   12.10    1.40
  -4   2 -20    9.90    1.30
  -4   2 -20    8.90    1.30
   4  -2  20    9.60    1.50
  -5   2 -20   12.60    1.60
  -5   2 -20    9.60    1.40
  -5   2 -20   10.00    1.40
  -6   2 -20    1.10    1.50
  -6   2 -20    1.10    0.80
  -6   2 -20   -0.10    1.00
  -7   2 -20   19.80    1.80
  -7   2 -20   19.30    2.20
  -8   2 -20    5.70    1.40
  -8   2 -20    5.60    1.00
  -9   2 -20    4.80    1.50
   8   1 -20    1.60    1.20
  -8  -1  20    0.80    1.50
  -8  -1  20    2.90    1.20
   7   1 -20   -0.10    1.00
  -7  -1  20   -0.20    1.20
  -7  -1  20   -0.40    1.20
   6   1 -20    2.60    0.90
  -6  -1  20    3.10    1.10
  -6  -1  20    3.20    1.10
   5   1 -20    1.00    0.70
  -5  -1  20    0.90    1.00
  -5  -1  20    1.90    0.90
   4   1 -20    0.30    0.60
  -4  -1  20   -0.60    0.90
  -4  -1  20    0.00    0.80
   3   1 -20    9.40    1.20
  -3  -1  20   10.00    1.50
  -3  -1  20   10.90    1.30
   2   1 -20    3.00    1.10
   2   1 -20    3.00    0.60
  -2  -1  20    3.80    0.80
  -2  -1  20    2.40    0.90
  -2  -1  20    2.80    0.60
   1   1 -20   18.80    1.90
  -1  -1  20   14.90    1.80
  -1  -1  20   18.60    1.50
   0   1 -20   23.60    2.10
   0   1 -20   20.60    1.60
   0  -1  20   16.70    1.60
   0  -1  20   18.30    2.00
   0  -1  20   19.30    1.60
  -1   1 -20    2.80    0.80
  -1   1 -20    2.60    0.60
   1  -1  20    2.80    0.60
   1  -1  20    2.00    0.60
  -2   1 -20   27.80    2.20
  -2   1 -20   27.20    2.00
   2  -1  20   24.70    2.10
   2  -1  20   27.10    2.00
  -3   1 -20   14.50    1.60
  -3   1 -20   15.20    1.40
   3  -1  20   15.20    1.40
   3  -1  20   17.20    1.60
  -4   1 -20    3.30    0.80
  -4   1 -20    4.40    0.90
  -4   1 -20    3.90    0.90
   4  -1  20    3.70    0.70
  -5   1 -20    4.40    1.00
  -5   1 -20    5.60    1.10
  -5   1 -20    4.50    0.90
   5  -1  20    4.50    0.90
  -6   1 -20   -0.10    0.80
  -6   1 -20   -0.80    1.00
   6  -1  20    0.40    0.90
  -7   1 -20    9.90    1.40
  -7   1 -20    6.80    1.40
  -8   1 -20    0.30    1.30
  -8   1 -20   -1.40    0.80
  -9   1 -20   -0.20    1.60
  -9   0  20    2.20    1.60
  -9   0  20    0.20    1.10
   8   0 -20    7.60    1.40
  -8   0  20   10.20    1.60
  -8   0  20   13.50    1.80
   7   0 -20   21.80    2.50
  -7   0  20   23.90    2.40
  -7   0  20   26.50    2.40
   6   0 -20    0.10    0.80
  -6   0  20    0.30    0.90
  -6   0  20    0.30    0.90
   5   0 -20    1.80    0.90
  -5   0  20    0.50    0.90
  -5   0  20    0.90    0.90
   4   0 -20    1.50    0.80
  -4   0  20    1.80    0.80
  -4   0  20    1.20    0.80
   3   0 -20    1.10    0.60
  -3   0  20    0.50    0.70
  -3   0  20    1.20    0.80
   2   0 -20   16.60    1.60
   2   0 -20   16.80    2.10
  -2   0  20   18.60    1.80
  -2   0  20   17.60    1.50
   1   0 -20   34.90    2.50
   1   0 -20   34.10    2.80
  -1   0  20   35.90    2.80
  -1   0  20   34.40    2.50
  -1   0  20   36.40    2.50
   0   0 -20    7.00    0.90
   0   0 -20    9.10    1.30
   0   0  20    5.90    1.00
   0   0  20    5.30    0.90
   0   0  20    6.30    0.90
  -1   0 -20   29.50    2.20
  -1   0 -20   30.60    2.30
   1   0  20   29.30    2.20
  -2   0 -20   10.30    1.30
  -2   0 -20   11.10    1.20
   2   0  20   11.50    1.20
  -3   0 -20   17.70    1.70
  -3   0 -20   17.30    1.70
  -3   0 -20   16.80    1.50
   3   0  20   19.60    1.50
  -4   0 -20    7.30    1.10
  -4   0 -20    7.50    1.30
  -4   0 -20    8.60    1.10
   4   0  20    7.90    1.20
  -5   0 -20    0.70    0.90
  -5   0 -20    0.10    0.80
   5   0  20   -0.30    0.80
  -6   0 -20   -2.30    1.10
  -6   0 -20    0.10    0.90
   6   0  20    1.70    0.90
  -7   0 -20    0.10    0.90
  -7   0 -20    0.10    1.30
   7   0  20   -0.10    1.20
  -8   0 -20    0.00    1.50
  -8   0 -20    2.60    1.00
   8   0  20    1.30    1.40
  -9   0 -20   -0.50    1.00
  -9   0 -20    2.10    1.70
   9  -1 -20   -0.20    1.40
  -9   1  20    0.80    1.50
  -9   1  20    2.50    1.00
   8  -1 -20   -0.20    1.10
  -8   1  20   -0.20    1.10
  -8   1  20    0.00    0.90
  -7   1  20    3.80    1.30
  -7   1  20    2.40    0.90
   6  -1 -20    2.50    1.00
  -6   1  20    1.80    0.90
  -6   1  20    2.90    1.00
   5  -1 -20    4.00    1.00
  -5   1  20    4.50    1.00
  -5   1  20    4.60    0.90
   4  -1 -20   24.60    2.10
  -4   1  20   24.90    2.10
  -4   1  20   24.10    2.00
   3  -1 -20   12.90    1.80
  -3   1  20   13.00    1.30
  -3   1  20   13.40    1.60
   2  -1 -20   13.80    1.40
  -2   1  20   15.00    1.60
  -2   1  20   15.20    1.30
   1  -1 -20    0.80    0.60
   1  -1 -20    0.20    1.00
  -1   1  20    0.40    0.60
  -1   1  20    0.80    0.60
   0  -1 -20    0.00    0.50
   0  -1 -20    0.60    0.80
   0   1  20   -0.50    0.80
   0   1  20    0.50    0.50
   0   1  20    0.00    0.50
  -1  -1 -20    4.40    0.70
  -1  -1 -20    3.30    0.90
   1   1  20    5.00    0.90
  -2  -1 -20    0.80    0.60
  -2  -1 -20   -0.10    0.60
  -2  -1 -20    0.90    0.80
   2   1  20   -0.40    0.60
  -3  -1 -20    1.20    0.80
  -3  -1 -20    0.60    0.60
  -3  -1 -20    1.10    0.80
   3   1  20    1.50    0.70
  -4  -1 -20    5.40    1.00
  -4  -1 -20    6.30    1.10
   4   1  20    4.90    0.90
  -5  -1 -20    4.00    1.10
  -5  -1 -20    5.20    1.20
   5   1  20    5.60    1.00
  -6  -1 -20    0.90    1.70
  -6  -1 -20    1.40    1.00
   6   1  20    2.00    1.00
  -7  -1 -20    1.50    1.40
  -7  -1 -20   -0.20    1.00
   7   1  20   -0.80    1.20
  -8  -1 -20    5.90    1.70
  -8  -1 -20    5.70    1.20
   8   1  20    4.20    1.50
   9  -2 -20    2.20    1.40
  -9   2  20    0.40    1.00
  -9   2  20   -0.50    1.30
   8  -2 -20    4.70    1.30
  -8   2  20    5.40    1.30
  -8   2  20    5.10    1.00
   7  -2 -20    3.30    1.90
  -7   2  20    3.40    0.90
  -7   2  20    2.20    1.20
   6  -2 -20    0.50    1.00
  -6   2  20    0.80    0.80
  -6   2  20    2.40    0.90
   5  -2 -20    4.20    1.20
  -5   2  20    4.20    0.90
  -5   2  20    3.90    0.90
   4  -2 -20    5.20    1.00
  -4   2  20    6.40    0.90
  -4   2  20    5.70    1.00
   3  -2 -20   15.30    1.70
  -3   2  20   18.10    1.70
  -3   2  20   17.00    1.50
   2  -2 -20    4.60    0.90
  -2   2  20    5.70    0.90
  -2   2  20    4.90    0.80
   1  -2 -20    3.30    0.70
   1  -2 -20    2.90    1.10
  -1   2  20    2.40    0.60
   0  -2 -20    2.60    1.00
   0  -2 -20    3.50    0.70
   0   2  20    2.40    0.70
   0   2  20    2.40    0.90
   0   2  20    2.10    0.60
  -1  -2 -20    0.10    0.70
  -1  -2 -20    0.00    0.80
  -1  -2 -20    1.60    0.60
   1   2  20    1.00    0.60
  -2  -2 -20    5.90    1.20
  -2  -2 -20    5.90    0.90
  -2  -2 -20    6.90    1.00
   2   2  20    6.50    1.00
  -3  -2 -20   23.80    2.00
  -3  -2 -20   27.10    2.20
  -3  -2 -20   24.90    2.30
   3   2  20   27.30    2.10
  -4  -2 -20    0.60    0.90
  -4  -2 -20   -1.00    1.00
   4   2  20    0.10    0.80
  -5  -2 -20   44.40    3.40
  -5  -2 -20   40.60    3.40
   5   2  20   45.40    3.30
  -6  -2 -20   -0.10    1.10
  -6  -2 -20   -0.70    1.30
   6   2  20    0.20    1.00
  -7  -2 -20    2.50    1.60
  -7  -2 -20    2.50    1.20
   7   2  20    3.00    1.30
  -8  -2 -20    0.20    1.20
  -8  -2 -20    0.50    1.80
   8   2  20   -0.30    1.50
   9  -3 -20    1.70    1.50
  -9   3  20    0.50    1.30
  -9   3  20    0.40    0.90
   8  -3 -20    3.10    1.30
  -8   3  20    2.80    1.20
  -8   3  20    1.40    0.90
   7  -3 -20    2.20    1.10
  -7   3  20    0.80    1.00
  -7   3  20    2.00    0.80
   6  -3 -20   -0.80    1.00
  -6   3  20    0.90    0.90
  -6   3  20   -0.10    0.80
   5  -3 -20   -1.50    1.40
  -5   3  20    0.70    0.70
  -5   3  20    0.30    0.80
   4  -3 -20   -0.50    0.90
  -4   3  20   -0.10    0.70
  -4   3  20    0.40    0.80
   3  -3 -20    7.70    1.40
  -3   3  20    9.00    1.40
  -3   3  20    9.60    1.10
   2  -3 -20   15.40    1.70
  -2   3  20   13.50    1.40
  -2   3  20   13.50    1.60
   1  -3 -20   29.60    2.50
  -1   3  20   31.80    2.50
  -1   3  20   33.00    2.30
   0  -3 -20    4.20    1.20
   0  -3 -20    1.90    1.20
   0   3  20    1.80    1.00
   0   3  20    1.50    0.70
  -1  -3 -20    5.30    1.20
  -1  -3 -20    7.20    1.10
   1   3  20    5.90    1.00
  -2  -3 -20   17.80    1.60
  -2  -3 -20   18.00    1.70
  -2  -3 -20   19.20    2.00
   2   3  20   17.90    1.60
  -3  -3 -20    3.20    1.10
  -3  -3 -20    0.80    1.00
   3   3  20    1.90    0.80
  -4  -3 -20    2.00    1.10
  -4  -3 -20    3.20    1.20
   4   3  20    2.00    0.80
  -5  -3 -20    7.70    1.70
  -5  -3 -20    6.00    1.60
   5   3  20    7.10    1.20
  -6  -3 -20    2.50    1.30
  -6  -3 -20    2.90    1.60
   6   3  20    5.00    1.30
  -7  -3 -20   10.10    1.70
  -7  -3 -20   10.60    2.00
   7   3  20   13.10    2.00
   9  -4 -20    4.20    1.50
  -9   4  20    0.80    0.90
  -9   4  20    1.30    1.30
   8  -4 -20    2.10    1.30
  -8   4  20    1.10    0.80
  -8   4  20    1.00    1.10
   7  -4 -20    3.90    1.20
  -7   4  20    2.00    1.00
  -7   4  20    3.40    0.90
   6  -4 -20    5.00    1.30
  -6   4  20    4.70    1.00
  -6   4  20    4.00    0.90
   5  -4 -20    4.80    1.40
  -5   4  20    5.10    1.00
  -5   4  20    7.70    1.30
   4  -4 -20    1.80    1.00
  -4   4  20    2.40    0.80
  -4   4  20    2.90    0.70
   3  -4 -20    9.60    1.50
  -3   4  20    8.10    1.30
  -3   4  20    7.40    1.40
   2  -4 -20   -0.70    0.90
  -2   4  20   -0.50    0.80
  -2   4  20   -0.30    0.70
   1  -4 -20   65.79    4.60
  -1   4  20   65.69    4.50
  -1   4  20   66.59    4.70
   0  -4 -20    4.60    1.60
   0  -4 -20    3.00    0.90
   0   4  20    1.70    1.00
   0   4  20    1.60    0.60
  -1  -4 -20   23.80    2.50
  -1  -4 -20   24.30    2.00
   1   4  20   20.60    1.90
  -2  -4 -20    3.30    1.30
  -2  -4 -20    0.70    1.00
   2   4  20   -0.30    0.70
  -3  -4 -20    6.10    1.30
  -3  -4 -20    6.10    1.20
   3   4  20    3.80    1.00
  -4  -4 -20    0.00    1.30
  -4  -4 -20   -0.20    1.30
   4   4  20   -0.20    0.80
  -5  -4 -20   44.60    3.60
  -5  -4 -20   44.30    3.50
   5   4  20   33.50    3.10
  -6  -4 -20   31.40    3.40
  -6  -4 -20   34.80    3.20
   6   4  20   29.20    2.80
   9  -5 -20    3.60    1.60
  -9   5  20    4.60    1.40
   8  -5 -20    1.50    1.40
  -8   5  20    0.60    0.80
  -8   5  20    1.60    1.10
   7  -5 -20   15.80    2.10
  -7   5  20   14.80    1.90
  -7   5  20   15.00    1.70
   6  -5 -20    0.00    1.10
  -6   5  20    0.40    1.00
  -5   5  20   13.20    1.60
  -5   5  20   12.60    1.60
   4  -5 -20   11.40    1.90
  -4   5  20   16.10    1.80
  -4   5  20   17.20    1.60
   3  -5 -20    3.80    1.10
  -3   5  20    3.40    0.80
  -3   5  20    3.00    0.90
   2  -5 -20   63.79    4.50
  -2   5  20   60.79    4.30
  -2   5  20   62.19    4.40
   1  -5 -20    1.50    1.00
  -1   5  20    0.90    0.90
  -1   5  20    0.80    0.70
   0  -5 -20   10.50    1.60
   0   5  20    9.20    1.70
   0   5  20    8.40    1.30
  -1  -5 -20    6.60    1.20
  -1  -5 -20    5.40    2.20
   1   5  20    4.00    0.90
  -2  -5 -20   24.20    2.70
   2   5  20   21.30    2.10
  -3  -5 -20   18.10    2.60
  -3  -5 -20   22.30    2.40
   3   5  20   15.80    1.80
  -4  -5 -20    1.40    1.60
  -4  -5 -20    3.30    1.60
   4   5  20    1.20    1.00
  -5  -5 -20   23.00    2.90
  -5  -5 -20   27.40    3.00
   5   5  20   18.10    2.20
  -6  -5 -20    2.70    1.80
  -6  -5 -20    6.80    2.20
   6   5  20    1.90    1.30
   9  -6 -20    2.30    1.70
  -9   6  20    1.10    0.80
  -9   6  20    2.90    1.40
   8  -6 -20    0.00    1.50
  -8   6  20    2.70    0.90
  -8   6  20    4.30    1.30
  -7   6  20    5.30    1.00
  -7   6  20    4.50    1.10
   6  -6 -20   23.20    2.40
  -6   6  20   23.10    2.10
  -6   6  20   19.20    2.10
   5  -6 -20    0.80    1.40
  -5   6  20   -0.30    0.90
  -5   6  20    1.80    1.10
   4  -6 -20    4.70    1.30
  -4   6  20    6.00    1.00
  -4   6  20    5.40    1.00
   3  -6 -20   29.60    2.70
  -3   6  20   30.20    2.60
   2  -6 -20    0.90    1.10
  -2   6  20    0.80    0.90
  -2   6  20   -0.50    0.90
   1  -6 -20  193.78   12.60
  -1   6  20  199.08   12.60
  -1   6  20  182.28   12.70
   0  -6 -20   57.49    4.30
   0   6  20   61.69    4.20
   1   6  20    9.80    1.40
   2   6  20   13.10    1.50
  -3  -6 -20   21.90    3.00
   3   6  20   17.80    1.90
  -4  -6 -20    9.00    2.10
   4   6  20    6.70    1.40
  -5  -6 -20   -0.10    2.00
  -5  -6 -20    4.20    2.30
   5   6  20   -2.30    1.10
   8  -7 -20   27.70    2.90
  -8   7  20   20.70    2.60
  -8   7  20   27.20    2.20
   7  -7 -20    5.80    1.60
  -7   7  20    3.90    1.20
  -7   7  20    3.70    1.00
   6  -7 -20    9.80    1.60
  -6   7  20    8.30    1.40
  -6   7  20    9.40    1.50
   5  -7 -20   14.80    2.20
  -5   7  20   20.60    2.00
  -5   7  20   18.80    2.00
   4  -7 -20   20.80    2.40
  -4   7  20   22.80    2.40
  -4   7  20   23.40    2.20
  -3   7  20    3.10    0.90
  -3   7  20    1.90    1.00
   2  -7 -20   17.60    2.40
  -2   7  20   20.90    1.90
  -2   7  20   19.90    2.20
   1  -7 -20   14.00    2.10
  -1   7  20   15.80    1.70
  -1   7  20   15.20    2.30
   0   7  20   54.29    3.90
   1   7  20   -1.40    0.90
   2   7  20   31.70    2.60
   3   7  20    0.10    1.00
  -8   8  20    3.70    1.00
  -8   8  20    3.70    1.50
   7  -8 -20   55.99    4.50
  -7   8  20   62.09    4.30
  -7   8  20   57.29    4.40
   6  -8 -20    0.70    1.40
  -6   8  20   -0.70    0.90
  -6   8  20    0.90    1.10
   5  -8 -20    5.70    1.60
  -5   8  20   10.50    1.70
  -5   8  20   10.30    1.50
   4  -8 -20   -0.80    1.40
  -4   8  20    0.00    1.10
  -4   8  20    2.20    1.10
   3  -8 -20   19.50    2.50
  -3   8  20   20.50    2.30
  -3   8  20   23.10    2.20
   2  -8 -20    2.00    1.60
  -2   8  20    4.40    1.20
  -2   8  20    2.60    1.20
  -1   8  20    1.40    1.10
  -1   8  20    0.50    1.40
   0   8  20    1.70    1.00
   1   8  20   -0.40    1.00
   6  -9 -20    5.20    1.80
  -6   9  20    5.50    1.20
  -6   9  20    4.50    1.30
   5  -9 -20    0.10    1.60
  -5   9  20    1.60    1.10
  -5   9  20    2.00    1.30
   4  -9 -20   24.20    2.90
  -4   9  20   20.00    2.50
  -4   9  20   26.10    2.60
   3  -9 -20    7.20    1.90
  -3   9  20    3.20    1.40
  -3   9  20    3.90    1.30
  -2   9  20    1.50    1.50
  -2   9  20   -1.80    1.20
  -1   9  20    1.60    1.20
   0   9  20   -1.30    1.20
   0   9 -21    0.40    1.20
   0  -9  21    1.30    1.20
  -1   9 -21    3.30    1.20
  -1   9 -21    3.50    1.70
   1  -9  21    3.10    1.30
  -2   9 -21    4.80    1.60
  -2   9 -21   -0.40    1.00
   2  -9  21   -0.90    1.20
  -3   9 -21    6.00    1.60
   3  -9  21    4.30    1.20
  -4   9 -21    1.80    1.20
  -4   9 -21    2.20    1.40
   4  -9  21    2.80    1.20
  -5   9 -21    1.90    1.30
  -5   9 -21   -1.10    1.20
   5  -9  21   -2.00    1.20
  -6   9 -21    1.10    1.30
  -6   9 -21   -1.10    1.20
   2   8 -21    0.60    1.30
  -2  -8  21    0.00    1.20
   1   8 -21   -1.00    1.10
  -1  -8  21   -0.80    1.00
   0   8 -21   -1.30    1.00
   0   8 -21    1.80    1.80
   0  -8  21    1.50    1.00
  -1   8 -21    1.70    1.50
  -1   8 -21   -2.00    1.00
   1  -8  21    0.20    1.10
  -2   8 -21   -1.80    1.00
  -2   8 -21    0.50    1.30
   2  -8  21    1.00    1.00
  -3   8 -21    1.40    1.20
  -3   8 -21    0.90    1.00
   3  -8  21    2.30    1.10
  -4   8 -21   -1.70    1.00
  -4   8 -21    2.00    1.20
   4  -8  21    2.10    1.20
  -5   8 -21   -1.80    1.10
  -5   8 -21   -0.40    1.10
   5  -8  21    1.20    1.20
  -6   8 -21    1.20    1.10
  -6   8 -21   -1.30    1.20
   6  -8  21    1.90    1.20
  -7   8 -21    3.60    1.10
  -7   8 -21    1.90    1.40
   7  -8  21   -0.80    1.30
   3   7 -21    1.70    1.20
  -3  -7  21    1.10    1.20
   2   7 -21   -1.20    1.00
  -2  -7  21   -0.40    1.00
   1   7 -21    0.60    0.90
  -1  -7  21   -1.00    0.90
   0   7 -21    3.40    1.60
   0   7 -21    2.80    1.00
   0  -7  21    0.90    1.00
  -1   7 -21    0.10    1.80
  -1   7 -21   -0.10    0.90
   1  -7  21    0.60    0.90
  -2   7 -21    1.80    1.60
  -2   7 -21   -0.90    0.90
   2  -7  21    0.10    1.00
  -3   7 -21   -0.80    0.90
  -3   7 -21    0.30    1.20
   3  -7  21   -0.50    1.00
  -4   7 -21   -1.00    1.10
  -4   7 -21   -0.40    1.00
   4  -7  21    0.80    1.00
  -5   7 -21    3.70    1.10
  -5   7 -21    4.20    1.20
   5  -7  21    3.20    1.20
  -6   7 -21    0.40    1.10
  -6   7 -21   -1.70    1.00
   6  -7  21    0.30    1.10
  -7   7 -21    0.80    1.30
  -7   7 -21    3.10    1.00
   7  -7  21    4.20    1.30
  -8   7 -21    3.70    1.40
   8  -7  21    6.30    1.40
   4   6 -21    0.80    1.10
  -4  -6  21    0.80    1.40
   3   6 -21    0.80    1.00
  -3  -6  21    1.60    1.10
   2   6 -21   -0.60    0.80
   1   6 -21    2.10    0.90
  -1  -6  21    3.00    0.90
   0   6 -21    1.80    1.40
   0   6 -21    2.40    1.10
   0  -6  21    2.20    0.90
  -1   6 -21   13.70    2.10
  -1   6 -21   12.60    1.70
   1  -6  21   11.40    1.70
  -2   6 -21    2.00    0.90
  -2   6 -21    3.60    1.30
   2  -6  21    0.50    0.90
  -3   6 -21    1.70    1.10
  -3   6 -21    2.50    1.00
   3  -6  21    1.90    0.90
  -4   6 -21    2.80    1.30
  -4   6 -21    1.10    1.40
   4  -6  21    1.90    1.60
  -5   6 -21    0.40    1.10
  -5   6 -21    0.70    1.00
   5  -6  21   -0.40    1.00
  -6   6 -21    0.10    1.10
  -6   6 -21    1.20    1.00
   6  -6  21    0.50    1.00
  -7   6 -21    5.80    1.10
  -7   6 -21    3.20    1.30
   7  -6  21    5.60    1.30
  -8   6 -21    1.70    2.30
   8  -6  21    2.90    1.50
  -6  -5  21   -1.20    2.00
   5   5 -21    1.40    1.10
  -5  -5  21   -0.70    1.90
   4   5 -21    0.50    0.90
   3   5 -21   -0.50    0.80
  -3  -5  21    0.60    0.90
   2   5 -21   -0.10    0.70
  -2  -5  21    0.20    0.80
   1   5 -21    1.50    1.40
   1   5 -21    0.80    0.80
  -1  -5  21   -0.60    0.80
   0   5 -21    5.10    1.30
   0   5 -21    4.60    0.90
   0  -5  21    7.10    1.30
  -1   5 -21   30.40    2.40
  -1   5 -21   32.60    2.70
   1  -5  21   27.00    2.40
  -2   5 -21   15.90    1.60
   2  -5  21   11.30    1.60
  -3   5 -21    3.10    0.90
  -3   5 -21    4.10    1.10
   3  -5  21    3.00    0.90
  -4   5 -21    3.60    1.00
   4  -5  21    2.20    0.90
  -5   5 -21    8.00    1.50
  -5   5 -21    7.90    1.20
   5  -5  21    6.60    1.20
  -6   5 -21    2.80    1.20
  -6   5 -21    2.50    1.00
   6  -5  21    2.60    1.10
  -7   5 -21   13.90    2.10
  -7   5 -21   15.10    1.70
   7  -5  21   18.10    2.30
   8  -5  21    7.50    1.60
   9  -5  21    2.20    1.60
   6   4 -21    1.20    1.20
  -6  -4  21    2.70    1.70
   5   4 -21    0.00    0.90
  -5  -4  21    0.70    1.60
   4   4 -21    2.00    1.30
  -4  -4  21    3.00    1.50
   3   4 -21    2.70    0.80
  -3  -4  21    2.70    0.90
  -3  -4  21    0.60    1.40
   2   4 -21    3.20    0.80
  -2  -4  21    3.40    0.80
   1   4 -21    0.90    0.70
   1   4 -21    1.80    1.30
  -1  -4  21    1.30    0.70
   0   4 -21   -0.80    1.00
   0   4 -21    0.70    0.70
   0  -4  21    1.30    0.70
  -1   4 -21    4.70    1.10
  -1   4 -21    2.40    0.70
   1  -4  21    2.60    0.80
  -2   4 -21   16.70    1.60
  -2   4 -21   12.80    1.80
   2  -4  21   17.70    1.70
  -3   4 -21    1.40    0.90
  -3   4 -21    2.00    0.80
   3  -4  21    1.90    0.80
  -4   4 -21   13.60    1.60
  -4   4 -21   13.10    1.70
   4  -4  21   14.30    1.70
  -5   4 -21   47.60    3.70
  -5   4 -21   48.80    3.70
   5  -4  21   54.69    3.80
  -6   4 -21    2.10    0.90
  -6   4 -21    1.10    1.00
   6  -4  21    1.70    1.10
  -7   4 -21    5.80    1.60
  -7   4 -21    8.60    1.40
   7  -4  21    5.10    1.40
   8  -4  21    0.50    1.40
   9  -4  21    4.20    1.70
  -7  -3  21   -1.00    1.50
   6   3 -21    0.40    0.90
  -6  -3  21   -0.50    1.40
   5   3 -21   11.20    2.00
  -5  -3  21    8.90    1.70
  -5  -3  21   14.90    2.50
   4   3 -21    0.90    0.70
  -4  -3  21    0.30    1.10
  -4  -3  21    2.70    1.30
   3   3 -21    2.50    0.70
  -3  -3  21    2.50    0.80
  -3  -3  21    2.10    1.20
   2   3 -21    2.80    0.70
  -2  -3  21    3.00    0.70
  -2  -3  21    5.50    1.20
   1   3 -21    8.50    1.30
   1   3 -21    8.40    1.40
  -1  -3  21   11.40    1.20
   0   3 -21    0.70    1.00
   0   3 -21   -0.40    0.60
   0  -3  21   -0.60    0.60
  -1   3 -21   42.10    3.20
  -1   3 -21   42.10    3.00
   1  -3  21   42.70    3.10
  -2   3 -21    2.20    0.70
  -2   3 -21    2.30    0.90
   2  -3  21    1.80    0.70
  -3   3 -21    1.60    0.90
  -3   3 -21    1.30    0.70
   3  -3  21    2.30    0.80
  -4   3 -21   16.30    1.70
  -4   3 -21   13.90    1.80
   4  -3  21   15.40    1.80
  -5   3 -21   19.40    1.80
  -5   3 -21   19.40    1.90
   5  -3  21   20.00    2.10
  -6   3 -21   49.50    3.60
  -6   3 -21   44.20    3.50
   6  -3  21   42.90    4.00
  -7   3 -21    4.50    1.00
   7  -3  21    3.80    1.40
  -8   3 -21    9.30    1.40
   8  -3  21    5.80    1.60
   9  -3  21   -2.10    1.60
  -8  -2  21    1.40    1.40
  -8  -2  21    3.90    1.80
   7   2 -21   -1.00    1.00
  -7  -2  21   -1.90    1.50
  -7  -2  21   -0.70    1.30
   6   2 -21   -1.00    0.90
  -6  -2  21   -0.60    1.30
  -6  -2  21    0.90    1.70
   5   2 -21    0.90    0.80
  -5  -2  21    0.00    1.10
  -5  -2  21    0.50    1.10
   4   2 -21    3.00    0.80
  -4  -2  21    3.20    1.00
  -4  -2  21    2.30    1.10
   3   2 -21    7.20    1.10
  -3  -2  21    7.90    1.30
  -3  -2  21    5.40    1.20
   2   2 -21   16.30    1.50
  -2  -2  21   16.00    1.50
  -2  -2  21   15.10    1.80
  -2  -2  21   14.00    1.40
   1   2 -21  110.79    7.50
   1   2 -21  105.89    7.00
  -1  -2  21  102.59    6.90
  -1  -2  21  102.39    7.10
   0   2 -21    0.70    0.50
   0   2 -21    1.20    1.00
   0  -2  21    1.00    0.80
   0  -2  21    1.10    0.60
  -1   2 -21   36.60    2.60
  -1   2 -21   39.50    2.80
   1  -2  21   30.80    2.60
   1  -2  21   34.60    2.60
  -2   2 -21    2.20    0.70
  -2   2 -21    2.00    0.80
   2  -2  21    2.80    0.70
  -3   2 -21   33.60    2.60
  -3   2 -21   31.20    2.50
   3  -2  21   34.40    2.60
  -4   2 -21   -0.30    0.80
  -4   2 -21    0.20    0.90
   4  -2  21    0.90    0.90
  -5   2 -21    0.60    0.80
  -5   2 -21    0.10    0.90
   5  -2  21   -0.10    1.00
  -6   2 -21    2.80    1.20
  -7   2 -21   13.00    1.70
  -7   2 -21   14.30    2.10
  -8   2 -21    1.00    1.40
  -8   2 -21    2.00    0.90
  -9   2 -21    7.60    1.80
   8   1 -21    1.00    1.30
  -8  -1  21    4.40    1.30
  -8  -1  21    2.30    1.70
   7   1 -21   -1.80    1.00
  -7  -1  21    0.90    1.30
  -7  -1  21    1.20    1.30
   6   1 -21    0.60    1.50
  -6  -1  21    1.30    1.10
  -6  -1  21    2.20    1.90
   5   1 -21   17.50    1.70
  -5  -1  21   17.70    1.90
  -5  -1  21   15.20    2.10
   4   1 -21    0.30    0.70
  -4  -1  21    0.30    1.00
  -4  -1  21   -0.20    0.90
   3   1 -21    1.50    0.80
  -3  -1  21    2.30    1.00
  -3  -1  21    2.20    0.80
   2   1 -21    5.60    1.00
  -2  -1  21    5.90    0.90
  -2  -1  21    5.90    1.10
   1   1 -21   21.80    2.20
   1   1 -21   19.80    1.80
  -1  -1  21   22.10    2.10
  -1  -1  21   22.90    1.80
  -1  -1  21   21.10    1.80
   0   1 -21   58.89    3.90
   0   1 -21   59.79    4.10
   0  -1  21   57.19    3.90
   0  -1  21   52.49    4.30
  -1   1 -21    7.20    1.10
  -1   1 -21    6.10    1.00
   1  -1  21    7.70    1.10
  -2   1 -21   10.40    1.20
  -2   1 -21   14.10    1.50
   2  -1  21   12.20    1.40
  -3   1 -21    5.90    0.90
  -3   1 -21    6.30    1.00
   3  -1  21    6.70    0.90
   3  -1  21    6.50    1.00
  -4   1 -21    1.30    0.80
  -4   1 -21    0.20    0.80
  -4   1 -21    0.50    0.90
   4  -1  21   -0.20    0.70
  -5   1 -21    2.60    1.00
  -5   1 -21    2.90    1.00
  -5   1 -21    1.10    0.90
   5  -1  21    3.80    0.90
  -6   1 -21    1.00    1.40
  -6   1 -21    0.30    1.20
   6  -1  21    3.60    1.50
  -7   1 -21    0.70    0.90
  -7   1 -21   -1.80    1.20
  -8   1 -21    0.90    0.90
  -8   1 -21    1.10    1.50
  -9   1 -21    4.30    1.70
  -9   0  21    3.10    1.20
  -9   0  21    2.70    1.80
   8   0 -21    6.30    1.30
  -8   0  21    6.00    1.50
  -8   0  21    7.10    1.30
   7   0 -21   28.60    2.50
  -7   0  21   30.00    2.70
  -7   0  21   29.50    2.70
   6   0 -21    2.20    1.00
  -6   0  21    3.70    1.10
  -6   0  21    4.90    1.20
   5   0 -21   16.40    2.10
  -5   0  21   17.80    2.00
  -5   0  21   18.90    1.90
   4   0 -21    0.10    0.70
  -4   0  21    0.90    0.90
  -4   0  21    1.50    0.90
   3   0 -21   25.80    2.00
  -3   0  21   24.90    2.20
  -3   0  21   22.70    2.00
   2   0 -21    0.30    0.60
  -2   0  21    0.00    0.70
  -2   0  21    0.10    0.90
   1   0 -21    0.70    1.00
   1   0 -21    1.00    0.60
  -1   0  21   -0.40    1.00
  -1   0  21    0.20    0.70
  -1   0  21    1.30    0.60
   0   0 -21    2.80    0.70
   0   0 -21    1.70    1.50
   0   0  21    1.90    1.00
   0   0  21    1.90    0.60
   0   0  21    3.20    0.70
  -1   0 -21   14.40    1.60
  -1   0 -21   14.10    1.30
   1   0  21   13.00    1.30
   1   0  21   12.80    1.30
  -2   0 -21    0.50    0.70
  -2   0 -21    2.70    0.90
   2   0  21    2.50    0.70
   2   0  21    1.20    0.70
  -3   0 -21    4.80    1.00
  -3   0 -21    5.50    0.80
  -3   0 -21    4.70    0.90
   3   0  21    5.00    0.80
  -4   0 -21    3.00    1.00
  -4   0 -21    2.60    0.90
  -4   0 -21    3.70    0.80
   4   0  21    3.40    0.80
  -5   0 -21    0.70    1.10
  -5   0 -21    0.70    0.90
   5   0  21    1.00    0.90
  -6   0 -21    3.60    1.00
   6   0  21    0.70    1.00
  -7   0 -21    5.60    1.50
  -7   0 -21    3.50    1.10
   7   0  21    4.50    1.30
  -8   0 -21    4.10    1.60
  -8   0 -21    0.70    1.00
   9  -1 -21    1.70    1.50
  -9   1  21    1.00    1.10
  -9   1  21   -1.70    1.50
   8  -1 -21   -0.40    1.20
  -8   1  21    0.50    1.20
  -8   1  21   -0.80    1.00
   7  -1 -21    2.60    1.10
  -7   1  21    3.40    1.10
  -7   1  21    3.90    1.20
   6  -1 -21   -0.40    0.90
  -6   1  21    0.40    1.00
  -6   1  21   -0.10    0.90
   5  -1 -21    3.90    1.00
  -5   1  21    5.00    1.00
  -5   1  21    3.70    1.00
   4  -1 -21    0.50    1.00
  -4   1  21    0.80    0.80
  -4   1  21    0.80    0.90
   3  -1 -21    0.80    0.80
  -3   1  21    1.70    1.00
  -3   1  21    1.40    0.70
   2  -1 -21    0.50    0.70
  -2   1  21    0.00    0.60
  -2   1  21    0.60    0.70
   1  -1 -21    6.70    1.20
   1  -1 -21    8.50    1.10
  -1   1  21    6.80    0.90
   0   1  21    4.20    0.70
   0   1  21    2.70    0.70
   0   1  21    2.90    1.00
  -1  -1 -21    7.90    1.00
  -1  -1 -21    7.10    1.10
   1   1  21    6.70    1.10
  -2  -1 -21    7.40    1.10
  -2  -1 -21    7.10    1.10
  -2  -1 -21    6.90    1.20
   2   1  21    7.10    1.10
  -3  -1 -21    2.60    1.00
  -3  -1 -21    3.40    0.90
  -3  -1 -21    2.90    0.70
   3   1  21    2.30    0.80
  -4  -1 -21    1.00    1.00
  -4  -1 -21    1.30    1.00
   4   1  21    0.90    0.80
  -5  -1 -21    1.40    1.10
  -5  -1 -21    1.10    1.00
   5   1  21    2.40    1.00
  -6  -1 -21    2.50    1.10
  -6  -1 -21    3.40    1.40
   6   1  21    3.30    1.80
  -7  -1 -21    0.40    1.00
  -7  -1 -21    1.60    1.50
   7   1  21    2.60    1.30
  -8  -1 -21   11.50    1.90
   8   1  21   14.00    2.30
   9  -2 -21    0.00    1.50
  -9   2  21    1.90    1.10
  -9   2  21   -0.50    1.40
   8  -2 -21    2.50    1.30
  -8   2  21    2.00    1.00
  -8   2  21    1.40    1.30
   7  -2 -21    0.40    1.10
  -7   2  21   -0.70    0.90
  -7   2  21   -0.30    1.10
   6  -2 -21   -0.80    1.00
  -6   2  21    1.30    0.90
  -6   2  21    0.40    0.90
   5  -2 -21    1.10    1.00
  -5   2  21    3.00    0.90
  -5   2  21    3.10    0.90
   4  -2 -21    0.80    0.90
  -4   2  21    0.20    0.80
  -4   2  21    1.00    0.90
   3  -2 -21    1.20    0.80
  -3   2  21    2.10    0.70
  -3   2  21    2.40    0.80
   2  -2 -21    5.80    1.00
  -2   2  21    5.60    1.00
  -2   2  21    6.90    0.90
   1  -2 -21    1.70    1.00
   1  -2 -21    1.80    0.80
  -1   2  21    1.90    0.90
  -1   2  21    1.50    0.60
   0  -2 -21   32.50    2.30
   0  -2 -21   26.90    3.40
   0   2  21   30.80    2.70
   0   2  21   29.60    2.30
  -1  -2 -21   20.80    1.60
  -1  -2 -21   15.80    1.90
   1   2  21   18.90    1.60
  -2  -2 -21   10.20    1.40
  -2  -2 -21   11.00    1.60
  -2  -2 -21   11.70    1.20
   2   2  21    8.30    1.20
  -3  -2 -21    1.70    1.00
  -3  -2 -21    1.60    0.80
  -3  -2 -21    0.60    1.10
   3   2  21    2.50    0.80
  -4  -2 -21    2.00    1.10
  -4  -2 -21    2.00    1.20
   4   2  21    1.10    0.90
  -5  -2 -21    1.20    1.20
  -5  -2 -21    0.20    1.70
   5   2  21    0.10    1.00
  -6  -2 -21    0.50    1.40
  -6  -2 -21   -0.40    1.10
   6   2  21    0.30    1.20
  -7  -2 -21   -1.50    1.70
  -7  -2 -21    1.40    1.20
   7   2  21    1.20    1.40
   9  -3 -21    3.60    1.60
  -9   3  21    0.80    1.40
  -9   3  21    3.00    1.00
   8  -3 -21    4.10    1.40
  -8   3  21    1.10    1.20
  -8   3  21    1.40    0.90
   7  -3 -21    0.50    1.10
  -7   3  21    0.70    0.90
  -7   3  21    0.00    1.10
   6  -3 -21    0.20    1.30
  -6   3  21    0.10    1.00
  -6   3  21    1.30    0.90
   5  -3 -21   -1.30    0.90
  -5   3  21    0.80    0.80
  -5   3  21    0.40    0.90
   4  -3 -21   22.60    2.30
  -4   3  21   21.10    2.00
  -4   3  21   21.90    2.10
   3  -3 -21    1.00    0.90
  -3   3  21    0.40    0.70
  -3   3  21    0.50    0.80
   2  -3 -21    1.30    0.90
  -2   3  21    0.70    0.70
  -2   3  21    1.40    0.90
   1  -3 -21    1.00    0.90
  -1   3  21   -0.40    0.90
  -1   3  21    1.20    0.70
   0  -3 -21    2.20    1.30
   0  -3 -21    4.00    0.90
   0   3  21    3.20    0.80
   0   3  21    3.50    1.00
  -1  -3 -21    0.70    0.70
  -1  -3 -21    0.20    1.00
   1   3  21    0.40    0.70
  -2  -3 -21   10.50    1.30
  -2  -3 -21   10.70    1.60
  -2  -3 -21   10.40    1.50
   2   3  21   13.60    1.30
  -3  -3 -21   20.90    2.30
  -3  -3 -21   17.50    2.00
   3   3  21   21.90    1.90
  -4  -3 -21    7.70    1.40
  -4  -3 -21    7.40    1.40
   4   3  21    7.80    1.20
  -5  -3 -21   23.70    2.60
  -5  -3 -21   27.20    2.80
   5   3  21   23.70    2.30
  -6  -3 -21    4.00    1.50
  -6  -3 -21    2.90    1.70
   6   3  21    2.10    1.30
  -7  -3 -21    6.60    1.50
  -7  -3 -21    5.40    2.10
   7   3  21    4.00    1.60
   9  -4 -21    2.50    1.60
  -9   4  21    1.20    1.30
   8  -4 -21    6.50    1.50
  -8   4  21    3.10    1.00
  -8   4  21    3.00    1.20
   7  -4 -21    0.80    1.20
  -7   4  21    1.40    0.90
  -7   4  21    0.80    1.10
   6  -4 -21   22.00    2.20
  -6   4  21   16.20    2.20
   5  -4 -21   19.60    2.10
  -5   4  21   21.30    2.00
  -5   4  21   18.20    1.90
   4  -4 -21    6.30    1.90
  -4   4  21    9.40    1.50
  -4   4  21    9.30    1.60
   3  -4 -21   34.40    2.90
  -3   4  21   36.40    2.90
  -3   4  21   36.00    2.70
   2  -4 -21    2.70    1.00
  -2   4  21    1.60    0.90
  -2   4  21    2.10    0.70
   1  -4 -21   19.20    2.00
  -1   4  21   20.80    1.90
  -1   4  21   21.00    2.10
   0  -4 -21   24.60    2.20
   0   4  21   23.70    2.40
   0   4  21   24.30    2.10
  -1  -4 -21    5.90    1.50
  -1  -4 -21    8.10    1.30
   1   4  21    8.00    1.10
  -2  -4 -21   12.30    2.10
   2   4  21   10.80    1.40
  -3  -4 -21    1.50    1.20
  -3  -4 -21    3.20    1.40
   3   4  21    0.40    1.10
  -4  -4 -21   16.40    2.30
   4   4  21   10.70    1.70
  -5  -4 -21   26.60    2.90
  -5  -4 -21   26.70    3.00
   5   4  21   26.10    2.40
  -6  -4 -21    5.10    1.90
  -6  -4 -21    3.50    1.60
   6   4  21    2.80    1.30
   9  -5 -21    1.20    1.70
  -9   5  21    0.40    0.90
  -9   5  21    2.50    1.40
   8  -5 -21    5.10    1.50
  -8   5  21    2.70    1.00
  -8   5  21    1.20    1.20
   7  -5 -21    3.90    1.40
  -7   5  21    4.80    1.00
  -7   5  21    2.90    1.20
   6  -5 -21    7.20    1.40
  -6   5  21    6.60    1.10
  -6   5  21    5.30    1.10
   5  -5 -21    3.60    2.00
  -5   5  21    4.60    1.60
  -5   5  21    5.10    1.00
   4  -5 -21    3.40    1.30
  -4   5  21    4.90    1.10
  -4   5  21    2.40    1.00
   3  -5 -21    4.00    1.20
  -3   5  21    1.70    1.00
  -3   5  21    1.40    1.40
   2  -5 -21    6.30    1.30
  -2   5  21    8.80    1.60
  -2   5  21    8.30    1.30
   1  -5 -21    8.40    1.30
  -1   5  21    6.90    1.20
  -1   5  21    7.20    1.40
   0  -5 -21    7.40    1.20
   0   5  21    4.80    0.90
   1   5  21   38.80    3.00
  -2  -5 -21    4.70    1.70
   2   5  21    5.10    1.00
  -3  -5 -21   13.00    2.00
   3   5  21   10.30    1.50
  -4  -5 -21   12.40    2.00
  -4  -5 -21   11.40    2.00
   4   5  21    9.90    1.70
  -5  -5 -21   13.50    2.30
  -5  -5 -21   17.40    2.80
   5   5  21   10.60    1.90
   8  -6 -21    2.70    1.60
  -8   6  21    2.50    0.90
  -8   6  21    4.10    1.40
   7  -6 -21    0.70    1.40
  -7   6  21    1.20    0.90
  -7   6  21    0.90    1.10
   6  -6 -21    6.60    1.60
  -6   6  21    6.30    1.30
  -6   6  21    9.10    1.60
   5  -6 -21    5.00    1.40
  -5   6  21    4.00    1.00
  -5   6  21    2.30    1.00
  -4   6  21    4.40    1.10
  -4   6  21    6.00    1.10
   3  -6 -21   11.20    1.60
  -3   6  21   11.40    2.10
  -3   6  21    9.10    1.70
   2  -6 -21   27.30    2.50
  -2   6  21   25.90    2.50
  -2   6  21   24.20    2.50
   1  -6 -21   31.50    2.70
  -1   6  21   27.00    2.70
   0  -6 -21    4.30    1.40
   0   6  21    2.00    0.80
   1   6  21   19.30    1.90
   2   6  21    7.80    1.40
   3   6  21    1.60    1.00
  -4  -6 -21   24.10    3.50
   4   6  21   23.90    2.30
   8  -7 -21    3.70    1.70
  -8   7  21    4.20    1.40
   7  -7 -21    2.90    1.60
  -7   7  21    1.70    1.10
  -7   7  21    2.80    1.20
   6  -7 -21    3.70    1.50
  -6   7  21    4.60    1.00
  -6   7  21    3.10    1.20
   5  -7 -21   13.30    2.10
  -5   7  21   10.80    1.80
  -5   7  21   13.70    1.90
   4  -7 -21    1.80    1.40
  -4   7  21    4.10    1.10
  -4   7  21    3.30    1.10
   3  -7 -21    1.20    1.40
  -3   7  21    3.30    1.00
  -3   7  21    3.50    1.20
   2  -7 -21    4.30    1.90
  -2   7  21   -0.20    0.90
  -2   7  21    1.70    1.20
   1  -7 -21   37.10    3.10
  -1   7  21   29.60    3.00
  -1   7  21   27.60    2.60
   0   7  21    0.90    0.90
   1   7  21   31.40    2.60
   2   7  21   10.60    1.50
   3   7  21    5.40    1.10
  -7   8  21   20.10    2.10
  -7   8  21   15.50    2.30
   6  -8 -21    2.40    1.50
  -6   8  21   -0.20    1.20
  -6   8  21   -0.70    1.00
   5  -8 -21   33.20    3.20
  -5   8  21   30.70    2.90
  -5   8  21   33.40    2.90
   4  -8 -21    0.70    1.60
  -4   8  21    0.10    1.10
  -4   8  21    3.00    1.30
   3  -8 -21    2.00    1.70
  -3   8  21    0.20    1.20
  -3   8  21    3.60    1.20
   2  -8 -21   24.80    2.90
  -2   8  21   20.50    2.60
  -2   8  21   19.20    2.20
  -1   8  21    1.70    1.10
   0   8  21   -0.60    1.10
   1   8  21    0.90    1.10
   5  -9 -21   18.80    2.80
  -5   9  21   14.00    2.10
  -5   9  21   12.30    1.90
   4  -9 -21    2.80    2.00
  -4   9  21    1.80    1.40
  -4   9  21    0.40    1.20
   3  -9 -21    6.80    2.10
  -3   9  21    9.40    1.70
  -3   9  21    9.30    1.60
  -2   9  21    1.10    1.20
  -2   9  21   -1.30    1.60
  -1   9  21   -1.50    1.20
  -1   9 -22    0.70    1.20
  -1   9 -22    3.40    1.90
   1  -9  22    1.60    1.30
  -2   9 -22    3.70    1.30
  -2   9 -22    9.10    1.90
   2  -9  22    6.30    1.40
  -3   9 -22    2.50    1.60
   3  -9  22    1.60    1.20
  -4   9 -22    1.20    1.50
  -4   9 -22   -1.50    1.10
   4  -9  22    1.20    1.30
  -5   9 -22    1.40    1.50
   1   8 -22   -0.40    1.20
  -1  -8  22   -0.90    1.20
   0   8 -22   -0.60    1.80
   0   8 -22   -1.60    1.10
   0  -8  22    0.10    1.10
  -1   8 -22    3.90    1.60
  -1   8 -22    1.40    1.10
   1  -8  22    3.80    1.20
  -2   8 -22    0.30    1.40
   2  -8  22    1.20    1.10
  -3   8 -22    3.00    1.20
  -3   8 -22    1.40    1.30
   3  -8  22    5.30    1.30
  -4   8 -22    0.10    1.20
  -4   8 -22   -1.60    1.10
   4  -8  22    0.40    1.20
  -5   8 -22   -0.50    1.20
  -5   8 -22   -0.40    1.20
   5  -8  22   -0.80    1.20
  -6   8 -22   -0.90    1.30
  -6   8 -22    2.10    1.20
   6  -8  22    0.50    1.30
   3   7 -22   -0.80    1.20
  -3  -7  22   -0.10    1.20
   2   7 -22   -0.90    1.20
  -2  -7  22    0.20    1.10
   1   7 -22    0.20    1.00
  -1  -7  22   -0.80    1.00
   0   7 -22    0.80    1.60
   0   7 -22   -0.70    1.00
   0  -7  22   -1.70    1.00
  -1   7 -22    0.40    0.90
  -1   7 -22    0.10    1.50
   1  -7  22    1.30    0.90
  -2   7 -22   -0.10    0.90
  -2   7 -22   -0.10    1.40
   2  -7  22   -0.10    1.00
  -3   7 -22    1.80    1.30
  -3   7 -22    2.30    1.00
   3  -7  22    2.90    1.10
  -4   7 -22    0.10    1.20
  -4   7 -22    0.90    1.10
   4  -7  22    1.40    1.10
  -5   7 -22    1.20    1.10
  -5   7 -22   -0.80    1.10
   5  -7  22    0.50    1.20
  -6   7 -22    1.20    1.20
  -6   7 -22    0.80    1.10
   6  -7  22    2.40    1.20
  -7   7 -22    3.10    1.10
   7  -7  22    1.90    1.40
   4   6 -22   -0.10    1.20
   3   6 -22   -0.20    1.00
  -3  -6  22    0.30    1.10
   2   6 -22   -0.60    0.90
  -2  -6  22   -1.30    1.00
   1   6 -22    2.40    1.00
   0   6 -22    0.70    1.40
   0   6 -22    0.30    0.80
   0  -6  22    0.60    0.90
  -1   6 -22    4.30    1.40
  -1   6 -22    6.00    1.10
   1  -6  22    6.90    1.10
  -2   6 -22    0.80    1.20
  -2   6 -22    0.70    0.90
   2  -6  22   -1.00    1.00
  -3   6 -22    4.80    1.10
  -3   6 -22    4.30    1.60
   3  -6  22    2.90    1.90
  -4   6 -22    3.60    1.10
  -4   6 -22    5.10    1.20
   4  -6  22    2.20    1.10
  -5   6 -22   11.00    1.70
  -5   6 -22    7.60    1.40
   5  -6  22    6.50    1.30
  -6   6 -22    6.00    1.20
  -6   6 -22    0.40    1.20
   6  -6  22    3.60    1.20
  -7   6 -22    1.60    1.40
  -7   6 -22    2.60    1.10
   7  -6  22    4.90    1.40
   8  -6  22    1.50    1.40
   5   5 -22    2.20    1.20
  -5  -5  22    1.00    2.70
   4   5 -22    1.10    1.00
   3   5 -22   -1.00    0.80
  -3  -5  22   -0.50    0.90
   2   5 -22    3.40    0.90
  -2  -5  22    2.40    0.90
   1   5 -22    3.40    1.60
   1   5 -22    3.50    1.00
  -1  -5  22    2.00    0.90
   0   5 -22   11.10    1.40
   0   5 -22   12.60    2.00
   0  -5  22    7.70    1.50
  -1   5 -22    2.40    1.20
  -1   5 -22    0.00    0.90
   1  -5  22    0.30    0.80
   2  -5  22    6.10    1.10
  -3   5 -22   17.90    2.00
  -3   5 -22   18.10    2.00
   3  -5  22   16.90    1.90
  -4   5 -22    3.00    1.00
  -4   5 -22    2.90    1.10
   4  -5  22    2.40    1.00
  -5   5 -22   10.00    1.60
  -5   5 -22   10.60    1.90
   5  -5  22   10.50    1.80
  -6   5 -22   11.90    1.60
  -6   5 -22   10.30    1.80
   6  -5  22   11.90    2.00
  -7   5 -22    4.20    1.40
  -7   5 -22    6.40    1.10
   7  -5  22    9.70    1.50
   8  -5  22    1.20    1.40
   6   4 -22   -0.70    1.20
  -6  -4  22    0.80    1.80
   5   4 -22    1.60    1.00
  -5  -4  22    1.40    1.70
   4   4 -22   -0.40    0.80
  -4  -4  22   -0.40    1.60
   3   4 -22    0.10    1.20
  -3  -4  22    0.90    1.10
   2   4 -22   -0.90    0.90
  -2  -4  22    1.00    0.80
   1   4 -22   12.80    1.40
   1   4 -22   15.70    2.20
  -1  -4  22   10.90    1.50
   0   4 -22    3.10    1.20
   0   4 -22    2.60    0.80
   0  -4  22    3.10    0.80
  -1   4 -22    1.70    1.10
  -1   4 -22    1.00    0.80
   1  -4  22    1.00    0.80
  -2   4 -22    1.50    1.00
  -2   4 -22    2.50    0.90
   2  -4  22    1.40    0.80
  -3   4 -22    4.20    1.00
  -3   4 -22    3.50    1.10
   3  -4  22    5.60    1.00
  -4   4 -22   21.60    2.10
  -4   4 -22   21.30    2.10
   4  -4  22   21.80    2.10
  -5   4 -22    6.60    1.40
  -5   4 -22    4.50    1.20
  -6   4 -22    0.60    1.10
  -6   4 -22    1.10    0.90
   6  -4  22    0.20    1.10
  -7   4 -22   23.50    2.10
   7  -4  22   23.10    2.70
  -8   4 -22    9.50    1.50
   8  -4  22    7.90    1.70
  -7  -3  22    0.60    1.70
   6   3 -22    1.30    1.00
  -6  -3  22    2.20    1.70
   5   3 -22   -0.30    0.80
  -5  -3  22    1.20    1.50
   4   3 -22   -0.80    1.00
  -4  -3  22    1.40    1.40
   3   3 -22    5.70    0.90
  -3  -3  22    7.60    1.50
   2   3 -22    1.90    0.80
  -2  -3  22    2.90    0.80
  -2  -3  22    2.50    1.30
   1   3 -22   16.90    2.30
   1   3 -22   22.80    1.90
  -1  -3  22   22.50    1.80
   0   3 -22   18.60    1.70
   0   3 -22   17.00    2.10
   0  -3  22   16.80    1.70
  -1   3 -22   10.30    1.70
  -1   3 -22    8.00    1.20
   1  -3  22    9.30    1.40
  -2   3 -22   12.30    1.70
  -2   3 -22   13.20    1.40
   2  -3  22   15.10    1.50
  -3   3 -22   52.19    3.70
  -3   3 -22   48.80    3.70
   3  -3  22   52.19    3.70
  -4   3 -22    5.00    1.00
  -4   3 -22    3.70    1.00
   4  -3  22    2.80    1.00
  -5   3 -22    5.60    1.00
  -5   3 -22    5.00    1.10
   5  -3  22    3.50    1.20
  -6   3 -22   16.90    1.80
  -6   3 -22   14.30    2.10
   6  -3  22   21.60    2.30
  -7   3 -22   20.00    2.00
   7  -3  22   19.10    2.60
  -8   3 -22   13.60    1.60
   8  -3  22   12.90    2.00
   7   2 -22   -0.90    1.10
  -7  -2  22    1.80    1.40
  -7  -2  22   -0.60    1.60
   6   2 -22    0.20    0.90
  -6  -2  22    2.20    1.40
  -6  -2  22    1.90    1.40
   5   2 -22   -0.30    1.00
  -5  -2  22    0.60    1.30
  -5  -2  22    0.80    1.20
   4   2 -22    1.30    0.80
  -4  -2  22   -0.60    1.20
  -4  -2  22    0.80    1.00
   3   2 -22   14.90    1.60
  -3  -2  22   14.70    2.10
  -3  -2  22   15.60    1.70
   2   2 -22   10.50    1.30
  -2  -2  22    9.30    1.40
  -2  -2  22   12.10    1.90
   1   2 -22    9.50    1.20
   1   2 -22    6.90    1.30
  -1  -2  22    7.20    1.30
  -1  -2  22    8.40    1.20
   0   2 -22    0.70    1.00
   0   2 -22    0.30    0.60
   0  -2  22    1.50    0.70
  -1   2 -22   80.29    5.50
  -1   2 -22   80.29    5.30
   1  -2  22   75.39    5.30
  -2   2 -22   13.30    1.70
  -2   2 -22   13.90    1.50
   2  -2  22   15.50    1.60
  -3   2 -22    0.60    0.70
  -3   2 -22    0.80    0.90
   3  -2  22    0.80    0.80
  -4   2 -22   13.40    1.70
  -4   2 -22   15.00    1.70
   4  -2  22   14.60    1.80
  -5   2 -22    9.30    1.50
  -5   2 -22    5.40    1.20
   5  -2  22    6.80    1.30
  -6   2 -22    1.20    1.00
   6  -2  22    2.10    1.30
  -7   2 -22   -0.30    1.40
  -8   2 -22   -2.40    1.60
  -8   2 -22    0.00    0.90
   8   1 -22    1.00    1.40
  -8  -1  22    2.80    1.80
  -8  -1  22    5.00    1.40
   7   1 -22    6.30    1.30
  -7  -1  22    7.60    1.70
  -7  -1  22    9.00    1.60
   6   1 -22    2.80    1.00
  -6  -1  22    3.60    1.60
  -6  -1  22    5.40    1.30
   5   1 -22    1.40    0.80
  -5  -1  22   -0.70    1.10
  -5  -1  22    3.00    1.10
   4   1 -22   21.70    1.90
  -4  -1  22   21.80    2.10
  -4  -1  22   21.10    2.30
   3   1 -22   30.20    2.30
  -3  -1  22   28.20    2.70
  -3  -1  22   31.00    2.40
   2   1 -22   19.20    1.80
  -2  -1  22   19.00    1.80
  -2  -1  22   20.10    2.00
   1   1 -22    5.10    1.50
   1   1 -22    8.50    1.10
  -1  -1  22    6.60    1.20
  -1  -1  22    7.10    2.10
   0   1 -22    3.70    1.00
   0   1 -22    2.30    0.70
   0  -1  22    3.20    0.80
   0  -1  22    2.60    0.70
  -1   1 -22   29.20    2.50
  -1   1 -22   28.50    2.20
   1  -1  22   30.40    2.20
   1  -1  22   28.60    2.20
  -2   1 -22    6.50    1.10
  -2   1 -22    9.50    1.40
   2  -1  22    7.10    1.30
   2  -1  22    6.40    1.10
  -3   1 -22    4.50    0.90
  -3   1 -22    6.90    1.10
   3  -1  22    5.30    0.90
   3  -1  22    5.90    1.00
  -4   1 -22    3.80    1.00
  -4   1 -22    3.40    0.90
   4  -1  22    3.60    1.10
   4  -1  22    3.00    0.90
  -5   1 -22   -0.70    1.10
  -5   1 -22    0.00    1.60
  -6   1 -22    2.50    1.00
  -6   1 -22   -0.30    1.30
  -7   1 -22   -0.90    1.30
  -7   1 -22   -1.40    0.90
  -8   1 -22    2.50    1.00
  -8   1 -22    2.50    1.60
   8   0 -22   -0.50    1.20
  -8   0  22   -0.40    1.20
  -8   0  22   -0.70    1.50
   7   0 -22    3.30    1.10
  -7   0  22    3.20    1.30
  -7   0  22    2.80    1.20
   6   0 -22    3.40    1.00
  -6   0  22    1.50    1.20
  -6   0  22    3.60    2.00
   5   0 -22   51.89    3.60
  -5   0  22   48.40    3.70
  -5   0  22   48.30    3.80
   4   0 -22    4.10    1.40
  -4   0  22    5.30    1.10
  -4   0  22    5.00    1.10
   3   0 -22    1.40    1.00
  -3   0  22    1.00    0.90
  -3   0  22    1.50    1.00
   2   0 -22    1.60    0.80
  -2   0  22    1.30    0.80
  -2   0  22    1.10    1.00
   1   0 -22   18.80    2.40
   1   0 -22   14.00    1.40
  -1   0  22   14.50    1.40
  -1   0  22   12.30    2.10
   0   0 -22   10.30    1.50
   0   0 -22    6.60    1.10
   0   0  22    8.50    1.20
   0   0  22    7.70    1.10
  -1   0 -22   12.40    1.60
  -1   0 -22   14.50    1.40
   1   0  22   13.80    1.40
   1   0  22   13.70    1.40
  -2   0 -22   -0.40    0.60
  -2   0 -22    0.00    0.90
   2   0  22    0.30    0.70
   2   0  22    1.00    0.80
  -3   0 -22    6.10    1.10
  -3   0 -22    3.40    0.90
   3   0  22    4.90    0.90
  -4   0 -22    1.60    1.00
  -4   0 -22    3.80    0.90
  -4   0 -22    2.90    1.00
   4   0  22    3.60    0.90
  -5   0 -22    2.60    1.10
  -5   0 -22    2.10    1.00
   5   0  22    2.10    1.00
  -6   0 -22   11.40    1.70
  -6   0 -22    7.80    1.50
   6   0  22    8.20    1.40
  -7   0 -22    2.20    1.00
  -7   0 -22    0.60    1.50
  -8   0 -22    4.70    1.10
  -8   0 -22    2.80    1.80
   8  -1 -22   -2.50    1.20
  -8   1  22   -1.70    1.10
  -8   1  22    1.10    1.40
   7  -1 -22    1.20    1.10
  -7   1  22    4.60    1.30
  -7   1  22    1.90    1.10
   6  -1 -22    1.40    1.00
  -6   1  22    3.40    1.70
  -6   1  22    0.30    1.70
   5  -1 -22   21.70    2.30
  -5   1  22   22.90    2.30
  -5   1  22   23.80    2.20
   4  -1 -22   13.40    1.60
  -4   1  22   10.10    1.70
  -4   1  22   10.20    1.50
   3  -1 -22   29.70    2.90
  -3   1  22   34.70    2.80
  -3   1  22   34.40    2.60
   2  -1 -22    1.20    0.70
  -2   1  22    0.60    0.70
  -2   1  22    0.40    1.00
   1  -1 -22   12.10    1.90
   1  -1 -22    9.30    1.30
  -1   1  22    7.40    1.20
  -1   1  22   11.90    1.70
   0  -1 -22    2.20    0.70
   0  -1 -22    1.50    1.00
   0   1  22    0.80    0.70
   0   1  22    1.30    1.20
  -1  -1 -22    7.70    1.10
  -1  -1 -22    8.00    1.20
   1   1  22    7.00    1.00
   1   1  22    9.10    1.30
  -2  -1 -22   25.70    2.00
  -2  -1 -22   24.20    2.30
   2   1  22   26.30    2.10
  -3  -1 -22    3.50    0.90
  -3  -1 -22    3.90    1.00
  -3  -1 -22    5.90    1.10
  -4  -1 -22    5.60    1.20
  -4  -1 -22    5.80    1.20
   4   1  22    5.90    1.00
  -5  -1 -22    6.00    1.70
  -5  -1 -22    3.20    1.20
   5   1  22    0.90    1.00
  -6  -1 -22    2.10    1.20
  -6  -1 -22    0.20    1.40
   6   1  22    2.50    1.20
  -7  -1 -22    3.80    1.20
  -7  -1 -22    3.40    1.70
   7   1  22    3.80    1.50
   9  -2 -22    5.70    1.60
  -9   2  22    2.70    1.20
  -9   2  22    4.30    1.60
   8  -2 -22   -0.40    1.30
  -8   2  22   -0.10    1.00
  -8   2  22   -0.10    1.30
   7  -2 -22    3.20    1.20
  -7   2  22    1.30    1.00
  -7   2  22    1.00    1.20
   6  -2 -22    0.10    1.00
  -6   2  22    1.80    1.70
  -6   2  22    0.50    1.80
   5  -2 -22   -1.10    1.00
  -5   2  22    0.40    0.90
  -5   2  22   -0.10    0.90
   4  -2 -22    4.10    1.10
  -4   2  22    2.60    1.00
  -4   2  22    3.90    1.00
   3  -2 -22    1.60    1.00
  -3   2  22    0.70    0.80
  -3   2  22    0.70    1.00
   2  -2 -22   21.20    2.00
  -2   2  22   20.70    2.10
  -2   2  22   21.40    1.90
   1  -2 -22    2.50    0.80
  -1   2  22    1.20    0.90
  -1   2  22    1.30    0.70
   0  -2 -22    7.70    1.20
   0  -2 -22    5.20    1.20
   0   2  22    7.60    1.20
  -1  -2 -22    3.80    1.10
  -1  -2 -22    4.50    0.80
   1   2  22    4.60    0.80
  -2  -2 -22    7.00    1.10
  -2  -2 -22    6.10    1.00
  -2  -2 -22    5.90    1.20
   2   2  22    6.10    1.00
  -3  -2 -22    1.70    1.10
  -3  -2 -22    0.90    1.10
   3   2  22    0.80    0.80
  -4  -2 -22   -0.60    1.20
  -4  -2 -22    0.60    1.10
   4   2  22    0.40    0.90
  -5  -2 -22   -0.70    1.20
  -5  -2 -22    2.00    2.00
   5   2  22   -1.00    1.10
  -6  -2 -22    5.40    1.40
  -6  -2 -22    7.00    1.70
   6   2  22    6.40    1.40
  -7  -2 -22   21.10    2.90
  -7  -2 -22   16.00    2.20
   7   2  22   15.30    2.40
   9  -3 -22    2.20    1.60
  -9   3  22    2.70    1.10
  -9   3  22    1.40    1.50
   8  -3 -22    2.40    1.40
  -8   3  22    3.00    1.30
  -8   3  22    0.00    1.00
   7  -3 -22    1.10    1.20
  -7   3  22    0.80    1.20
  -7   3  22    1.30    0.90
   6  -3 -22    4.40    1.30
  -6   3  22    4.40    1.20
  -6   3  22    3.50    1.10
   5  -3 -22   -0.10    1.10
  -5   3  22    1.20    0.90
  -5   3  22    1.10    1.00
   4  -3 -22   18.20    2.20
  -4   3  22   20.50    2.10
  -4   3  22   19.40    1.80
   3  -3 -22    2.50    1.10
  -3   3  22    2.00    0.90
  -3   3  22    2.10    0.90
   2  -3 -22   18.70    2.00
  -2   3  22   20.20    1.90
  -2   3  22   21.50    2.10
   1  -3 -22    5.00    1.00
  -1   3  22    5.90    0.90
  -1   3  22    5.20    1.20
   0  -3 -22    0.40    0.80
   0  -3 -22    0.00    1.20
   0   3  22    0.30    0.70
   0   3  22    0.30    1.30
  -1  -3 -22   47.90    3.90
  -1  -3 -22   52.69    3.60
   1   3  22   52.19    3.60
  -2  -3 -22    2.10    1.20
  -2  -3 -22    1.90    0.80
  -2  -3 -22    1.50    1.20
   2   3  22    0.30    0.80
  -3  -3 -22   14.10    2.30
  -3  -3 -22   13.90    1.90
   3   3  22   15.40    1.60
  -4  -3 -22   17.30    3.20
  -4  -3 -22   19.10    2.40
   4   3  22   21.30    2.00
  -5  -3 -22    9.70    1.70
  -5  -3 -22   11.00    1.70
   5   3  22    8.60    1.40
  -6  -3 -22    4.60    1.80
  -6  -3 -22   -0.50    1.50
   6   3  22    1.90    1.30
   9  -4 -22    0.20    1.70
  -9   4  22    1.10    1.00
  -9   4  22    1.20    1.50
   8  -4 -22   13.80    2.30
  -8   4  22   12.20    2.20
  -8   4  22   13.70    1.80
   7  -4 -22    2.30    1.20
  -7   4  22   -0.10    1.10
  -7   4  22    2.50    1.00
   6  -4 -22   -0.30    1.10
  -6   4  22   -1.00    1.00
   5  -4 -22    1.10    1.70
  -5   4  22    0.40    1.00
  -5   4  22    1.10    1.10
   4  -4 -22   -0.30    1.10
  -4   4  22   -0.20    0.90
  -4   4  22    0.50    0.90
   3  -4 -22    3.60    1.10
  -3   4  22    1.90    1.00
  -3   4  22    2.20    0.90
   2  -4 -22    7.40    1.30
  -2   4  22    7.10    1.10
  -2   4  22    6.20    1.20
   1  -4 -22    2.10    1.00
  -1   4  22    0.40    1.00
  -1   4  22    1.50    0.80
   0  -4 -22    4.70    1.10
   0   4  22    6.50    1.20
  -1  -4 -22   13.30    2.20
  -1  -4 -22   12.10    1.60
   1   4  22   12.30    1.50
  -2  -4 -22   10.70    1.70
  -3  -4 -22    0.30    1.50
   3   4  22   -0.30    0.90
  -4  -4 -22    7.40    1.70
  -4  -4 -22    4.30    2.10
   4   4  22    2.10    1.10
  -5  -4 -22    7.80    1.70
  -5  -4 -22    7.80    1.90
   5   4  22    5.10    1.40
  -6  -4 -22    0.90    1.70
  -6  -4 -22    5.30    2.20
   6   4  22    2.40    1.40
   8  -5 -22    6.20    1.50
  -8   5  22    2.60    1.00
  -8   5  22    0.70    1.30
   7  -5 -22    5.90    1.50
  -7   5  22    3.80    1.10
  -7   5  22    4.10    1.20
   6  -5 -22    2.00    1.20
  -6   5  22    1.70    1.10
  -6   5  22    1.20    1.10
   5  -5 -22   22.40    2.30
  -5   5  22   20.70    2.00
  -5   5  22   21.80    2.60
   4  -5 -22    1.50    1.40
  -4   5  22    1.20    1.00
   3  -5 -22    7.10    1.40
  -3   5  22    8.00    1.30
  -3   5  22    8.20    1.30
   2  -5 -22   60.49    4.10
  -2   5  22   49.30    4.00
  -2   5  22   52.59    3.90
   1  -5 -22   28.10    2.40
  -1   5  22   18.10    2.40
  -1   5  22   22.90    2.20
   0  -5 -22    1.50    1.10
   0   5  22   -0.60    0.90
   1   5  22    1.20    0.90
   2   5  22    6.20    1.20
  -3  -5 -22    6.50    1.90
   3   5  22    2.70    1.00
  -4  -5 -22    2.50    1.80
   4   5  22    0.00    1.20
  -5  -5 -22    0.50    1.80
   5   5  22    0.50    1.40
  -8   6  22    6.00    1.10
  -8   6  22    7.20    1.40
   7  -6 -22    4.00    1.60
  -7   6  22    0.60    1.00
  -7   6  22    0.40    1.30
   6  -6 -22    0.90    1.40
  -6   6  22    0.30    1.00
  -6   6  22   -0.40    1.10
   5  -6 -22   -2.00    1.30
  -5   6  22    0.60    1.00
  -5   6  22    0.60    1.00
   4  -6 -22   11.60    2.00
  -4   6  22   11.40    1.60
  -4   6  22    8.50    1.40
   3  -6 -22    2.00    2.50
  -3   6  22    0.60    1.00
  -3   6  22    0.70    1.10
   2  -6 -22    6.90    1.50
  -2   6  22    7.40    1.10
  -2   6  22    6.60    1.40
   1  -6 -22   20.40    2.20
  -1   6  22   13.40    2.30
  -1   6  22   15.80    1.80
   0   6  22    8.60    1.50
   1   6  22   25.20    2.20
   2   6  22   10.30    1.60
   3   6  22    9.40    1.60
  -4  -6 -22    7.60    2.40
   7  -7 -22    8.60    1.80
  -7   7  22   10.50    1.40
  -7   7  22    8.50    1.60
   6  -7 -22    1.00    1.60
  -6   7  22    2.00    1.10
  -6   7  22    0.70    1.20
   5  -7 -22   -2.30    1.50
  -5   7  22   -1.10    1.10
  -5   7  22    0.30    1.10
   4  -7 -22    3.60    1.50
  -4   7  22    4.10    1.20
  -4   7  22    3.50    1.30
   3  -7 -22   10.50    1.70
  -3   7  22   10.10    1.50
  -3   7  22    9.20    1.50
   2  -7 -22    0.60    1.50
  -2   7  22   -0.10    1.30
  -2   7  22   -0.20    1.00
  -1   7  22    1.90    1.10
   0   7  22   23.40    2.20
   1   7  22    2.70    1.10
   2   7  22   10.20    1.50
   6  -8 -22    4.80    1.90
  -6   8  22    6.80    1.60
   5  -8 -22   24.80    2.70
  -5   8  22   19.30    2.30
  -5   8  22   12.40    2.20
   4  -8 -22   48.00    4.40
  -4   8  22   60.19    4.20
  -4   8  22   53.59    4.20
   3  -8 -22   29.60    3.10
  -3   8  22   22.10    2.40
  -3   8  22   21.90    2.70
   2  -8 -22    2.60    2.10
  -2   8  22    2.80    1.50
  -2   8  22    0.60    1.20
  -1   8  22   14.30    1.90
   0   8  22    2.10    1.20
   1   8  22   -2.40    1.10
  -4   9  22    8.30    1.70
  -4   9  22   12.90    2.20
  -3   9  22    4.60    1.50
  -3   9  22    4.20    1.70
   1   8 -23   -0.60    1.20
  -1  -8  23   -1.10    1.30
   0   8 -23   -1.10    1.20
   0  -8  23    0.20    1.20
  -1   8 -23    1.90    1.70
   1  -8  23   -1.00    1.20
  -2   8 -23    0.70    1.50
   2  -8  23    1.80    1.20
  -3   8 -23    1.30    1.40
  -3   8 -23    3.80    1.30
   3  -8  23    5.70    1.40
  -4   8 -23    0.80    1.30
  -4   8 -23    1.60    1.10
   4  -8  23    0.80    1.30
  -5   8 -23   -2.10    1.20
  -5   8 -23    0.90    1.30
   5  -8  23   -1.10    1.30
  -6   8 -23    3.50    1.30
  -6   8 -23    0.40    1.50
   2   7 -23   -0.40    1.20
  -2  -7  23    0.50    1.20
   1   7 -23    1.90    1.10
  -1  -7  23    2.20    1.20
   0   7 -23    0.70    1.80
   0   7 -23   -1.00    1.00
   0  -7  23   -1.70    1.10
  -1   7 -23    1.20    1.60
  -1   7 -23    0.80    1.00
   1  -7  23    1.00    1.10
  -2   7 -23    0.80    1.00
  -2   7 -23   -0.30    1.50
   2  -7  23    1.20    1.20
  -3   7 -23   -0.60    1.00
  -3   7 -23   -0.80    1.40
   3  -7  23    0.50    1.20
  -4   7 -23    0.90    1.20
  -4   7 -23   -0.90    1.30
   4  -7  23   -0.10    1.20
  -5   7 -23    2.00    1.30
   5  -7  23    2.80    1.30
  -6   7 -23    0.00    1.10
  -6   7 -23   -1.40    1.30
   6  -7  23    0.90    1.30
  -7   7 -23    0.50    1.10
  -7   7 -23   -1.80    1.50
   7  -7  23   -1.00    1.40
   4   6 -23    1.80    1.30
   3   6 -23    2.70    1.20
   2   6 -23    0.50    1.00
  -2  -6  23    0.20    1.10
   1   6 -23    0.50    1.00
  -1  -6  23    0.30    1.00
   0   6 -23    2.00    1.60
   0   6 -23    1.40    0.90
   0  -6  23    0.80    1.00
  -1   6 -23    3.90    1.00
  -1   6 -23    2.80    1.90
   1  -6  23    4.60    1.20
  -2   6 -23    3.20    1.00
  -2   6 -23    1.80    1.60
   2  -6  23    0.30    1.10
  -3   6 -23    1.90    1.00
  -3   6 -23    1.90    1.30
   3  -6  23    1.00    1.10
  -4   6 -23    6.20    1.40
  -4   6 -23    3.90    1.20
   4  -6  23    1.20    1.20
  -5   6 -23    7.10    1.40
  -5   6 -23    9.80    1.80
   5  -6  23    8.30    1.40
  -6   6 -23    1.80    1.20
  -6   6 -23    3.80    1.20
   6  -6  23    4.40    1.30
  -7   6 -23   -0.70    1.40
  -7   6 -23    1.80    1.10
   7  -6  23    3.90    1.40
   5   5 -23    2.00    1.30
   4   5 -23    2.10    1.10
   3   5 -23   -0.20    0.90
   2   5 -23    1.70    0.90
  -2  -5  23    1.30    1.00
   1   5 -23    1.70    0.80
  -1  -5  23   -1.20    0.90
   0   5 -23    1.50    1.00
   0   5 -23    2.60    1.40
   0  -5  23    2.80    0.90
  -1   5 -23    1.50    1.30
  -1   5 -23   -0.20    1.20
   1  -5  23    0.60    0.90
  -2   5 -23    3.50    1.30
  -2   5 -23    1.10    1.20
   2  -5  23    3.00    1.00
  -3   5 -23    5.50    1.40
   3  -5  23    5.70    1.10
  -4   5 -23   21.50    2.40
  -4   5 -23   19.60    2.30
   4  -5  23   22.00    2.50
  -5   5 -23   11.50    1.80
  -5   5 -23    8.50    1.50
   5  -5  23   14.20    1.90
  -6   5 -23    1.40    1.20
  -6   5 -23    1.40    1.10
   6  -5  23    2.30    1.20
  -7   5 -23    1.10    1.10
  -7   5 -23    0.90    1.40
   7  -5  23    1.70    1.30
   8  -5  23    4.70    1.60
   6   4 -23   -0.70    1.50
  -6  -4  23    3.60    2.10
   5   4 -23   -0.50    1.10
  -5  -4  23    2.20    1.90
   4   4 -23   -1.10    0.90
  -4  -4  23   -0.70    2.00
   3   4 -23    4.80    1.00
   2   4 -23    3.50    1.20
  -2  -4  23    2.60    0.90
   1   4 -23    2.20    1.70
   1   4 -23    2.30    0.80
  -1  -4  23    2.20    0.90
   0   4 -23    2.30    0.90
   0   4 -23    1.90    1.30
   0  -4  23    3.20    0.90
  -1   4 -23    2.70    0.80
  -1   4 -23    3.80    1.20
   1  -4  23    3.60    0.90
  -2   4 -23    5.10    1.30
  -2   4 -23    6.70    1.00
   2  -4  23    7.20    1.10
  -3   4 -23    1.40    1.10
  -3   4 -23    1.70    1.00
   3  -4  23    1.90    1.00
  -4   4 -23    9.30    1.70
  -4   4 -23    9.60    1.50
   4  -4  23   10.10    1.70
  -5   4 -23   -1.00    1.10
  -5   4 -23   -0.40    1.00
   5  -4  23    1.30    1.10
  -6   4 -23   21.70    2.00
  -6   4 -23   15.70    2.40
   6  -4  23   22.70    2.50
  -7   4 -23    2.60    1.00
   7  -4  23    1.80    1.40
  -8   4 -23    0.40    1.00
   8  -4  23    2.80    1.60
   6   3 -23   -0.30    1.10
  -6  -3  23   -0.70    1.70
   5   3 -23    0.80    0.90
  -5  -3  23    2.60    1.60
   4   3 -23    1.30    0.80
  -4  -3  23    1.90    1.50
   3   3 -23    4.40    1.10
  -3  -3  23    4.20    1.50
   2   3 -23   55.89    4.00
   1   3 -23   12.40    2.30
   1   3 -23   15.80    1.60
  -1  -3  23   15.70    1.60
   0   3 -23    2.00    1.20
   0   3 -23    1.20    0.70
   0  -3  23    0.50    0.80
  -1   3 -23   13.40    2.00
  -1   3 -23   11.20    1.40
   1  -3  23   12.50    1.60
  -2   3 -23   10.00    1.50
  -2   3 -23   10.60    1.80
   2  -3  23   10.30    1.50
  -3   3 -23   10.10    1.60
  -3   3 -23    9.00    1.50
   3  -3  23    8.60    1.50
  -4   3 -23    9.60    1.60
  -4   3 -23   11.20    1.60
   4  -3  23   14.40    1.80
  -5   3 -23    1.70    1.10
  -5   3 -23    1.50    1.10
   5  -3  23    1.50    1.60
  -6   3 -23    2.20    1.00
  -6   3 -23   -0.10    1.30
   6  -3  23    1.30    1.30
  -7   3 -23    5.90    1.20
   7  -3  23    4.20    1.60
  -8   3 -23    3.10    1.10
   8  -3  23    1.40    1.60
  -7  -2  23   -4.10    2.40
  -7  -2  23    0.70    1.60
   6   2 -23   -0.40    1.00
  -6  -2  23    0.60    1.50
  -6  -2  23    2.00    1.60
   5   2 -23    6.60    1.10
  -5  -2  23    5.10    1.70
  -5  -2  23    5.00    1.40
  -4  -2  23    8.10    1.50
  -4  -2  23    8.60    1.40
   3   2 -23    3.80    0.90
  -3  -2  23    6.10    1.20
  -3  -2  23    5.00    1.40
   2   2 -23   24.50    2.00
  -2  -2  23   26.30    2.60
  -2  -2  23   23.70    2.20
   1   2 -23    0.50    0.70
   1   2 -23    2.60    1.30
  -1  -2  23    1.70    0.70
   0   2 -23   48.40    3.80
   0   2 -23   50.59    3.50
   0  -2  23   51.19    3.60
  -1   2 -23    8.80    1.20
  -1   2 -23    9.20    1.60
   1  -2  23    5.60    1.00
  -2   2 -23   33.10    2.80
  -2   2 -23   33.10    2.60
   2  -2  23   34.60    2.60
  -3   2 -23    4.40    0.90
  -3   2 -23    5.00    1.20
   3  -2  23    4.80    1.00
  -4   2 -23    2.00    1.00
  -4   2 -23    0.90    1.00
   4  -2  23    2.10    1.00
  -5   2 -23    2.70    1.40
  -5   2 -23    1.40    1.10
   5  -2  23    4.50    1.20
  -6   2 -23    0.00    1.00
   6  -2  23    0.10    1.30
  -7   2 -23   -0.90    1.00
   7  -2  23    0.00    1.50
  -8   2 -23    0.10    1.10
   8  -2  23    4.50    1.70
   7   1 -23    1.30    1.10
  -7  -1  23   -3.30    1.50
  -7  -1  23    0.90    1.50
   6   1 -23   19.70    2.20
  -6  -1  23   24.20    2.50
  -6  -1  23   23.40    2.60
   5   1 -23    4.50    1.00
  -5  -1  23    3.80    1.30
   4   1 -23    4.40    0.90
  -4  -1  23    4.70    1.30
  -4  -1  23    6.70    1.30
   3   1 -23    8.90    1.40
  -3  -1  23    7.30    1.40
  -3  -1  23    7.60    1.20
   2   1 -23    6.20    0.90
  -2  -1  23    5.50    1.00
  -2  -1  23    4.90    1.00
   1   1 -23    9.30    1.50
   1   1 -23    8.20    1.50
  -1  -1  23    7.30    1.30
  -1  -1  23    8.30    1.50
   0   1 -23    2.90    0.80
   0   1 -23    1.80    1.10
   0  -1  23    2.80    0.80
   0  -1  23    2.80    0.70
  -1   1 -23    2.10    0.70
  -1   1 -23    4.60    1.10
   1  -1  23    3.30    0.90
   1  -1  23    3.20    0.80
  -2   1 -23    3.00    0.90
  -2   1 -23    5.10    1.10
   2  -1  23    4.20    0.90
   2  -1  23    4.70    0.90
  -3   1 -23   23.30    2.10
  -3   1 -23   27.30    2.30
   3  -1  23   25.50    2.30
   3  -1  23   24.30    2.10
  -4   1 -23    0.90    1.00
  -4   1 -23   -1.00    0.90
   4  -1  23    0.40    1.00
  -5   1 -23    3.80    1.50
  -6   1 -23    1.90    1.40
  -6   1 -23    1.20    1.10
  -7   1 -23   -0.70    1.50
  -7   1 -23    0.20    1.00
  -8   1 -23   11.00    2.00
  -8   1 -23    9.00    1.40
   8   0 -23   -2.30    1.30
  -8   0  23   -0.60    1.40
   7   0 -23   -0.20    1.10
  -7   0  23   -0.50    1.40
  -7   0  23    1.50    1.30
   6   0 -23    0.30    1.00
  -6   0  23    1.20    1.30
  -6   0  23   -0.50    1.20
   5   0 -23    8.10    1.30
  -5   0  23    7.70    1.40
  -5   0  23    7.60    1.40
   4   0 -23   11.80    1.40
  -4   0  23   11.70    1.70
  -4   0  23   11.50    1.90
   3   0 -23   31.00    2.30
  -3   0  23   28.90    2.60
  -3   0  23   26.40    2.40
   2   0 -23   -0.30    0.70
  -2   0  23   -0.50    0.80
  -2   0  23    1.00    1.10
   1   0 -23   38.70    3.30
   1   0 -23   43.00    3.00
  -1   0  23   40.50    3.00
  -1   0  23   40.50    3.40
   0   0 -23    1.00    1.00
   0   0 -23   -1.00    0.60
   0   0  23   -0.60    0.80
  -1   0 -23    3.90    0.80
  -1   0 -23    3.90    1.10
   1   0  23    5.00    0.90
   1   0  23    3.40    0.80
  -2   0 -23   -0.30    1.00
  -2   0 -23   -0.50    0.70
   2   0  23   -0.90    0.70
   2   0  23    0.60    0.80
  -3   0 -23    1.90    1.10
  -3   0 -23    0.80    0.80
   3   0  23    0.50    0.80
   3   0  23    0.30    1.00
  -4   0 -23   26.70    2.20
  -4   0 -23   26.30    2.40
  -4   0 -23   30.00    2.40
   4   0  23   22.50    2.20
  -5   0 -23   15.90    2.00
  -5   0 -23   11.40    2.00
   5   0  23   10.70    1.70
  -6   0 -23   -0.60    1.40
  -6   0 -23    2.10    1.10
  -7   0 -23   32.70    2.90
  -7   0 -23   38.40    3.30
   8  -1 -23    1.30    1.40
  -8   1  23    0.90    1.20
  -8   1  23    0.00    1.40
   7  -1 -23    8.40    1.40
  -7   1  23   13.20    2.10
  -7   1  23    6.40    1.30
   6  -1 -23   -1.30    1.00
  -6   1  23   -1.60    1.10
  -6   1  23   -1.20    1.20
   5  -1 -23    1.30    1.30
  -5   1  23    2.20    1.10
  -5   1  23    1.20    1.10
   4  -1 -23    2.40    1.10
  -4   1  23    2.90    1.10
  -4   1  23    1.70    1.00
   3  -1 -23    3.50    1.10
  -3   1  23    2.70    1.00
  -3   1  23    2.30    1.20
   2  -1 -23    5.10    0.90
  -2   1  23    4.40    1.00
  -2   1  23    5.80    1.00
   1  -1 -23    9.70    1.30
  -1   1  23    7.30    1.40
  -1   1  23    9.00    1.30
   0  -1 -23   20.00    2.20
   0  -1 -23   21.60    1.80
   0   1  23   21.40    1.80
  -1  -1 -23   22.80    2.20
  -1  -1 -23   21.60    1.90
   1   1  23   19.80    1.90
   1   1  23   26.10    2.00
  -2  -1 -23   22.10    1.90
  -2  -1 -23   22.90    2.20
   2   1  23   22.30    1.90
   2   1  23   21.20    2.10
  -3  -1 -23    8.00    1.30
  -3  -1 -23    6.60    1.20
  -3  -1 -23    6.40    1.00
  -4  -1 -23   33.40    2.90
  -4  -1 -23   35.50    2.90
   4   1  23   33.10    2.70
  -5  -1 -23    2.00    2.00
  -5  -1 -23    3.50    1.20
   5   1  23    4.10    1.20
  -6  -1 -23    1.80    1.50
  -6  -1 -23    0.10    1.20
   6   1  23   -1.80    1.30
  -7  -1 -23   -1.40    1.70
  -7  -1 -23   -0.10    1.20
   7   1  23    0.00    1.60
   8  -2 -23    0.30    1.40
  -8   2  23    0.30    1.40
  -8   2  23   -1.10    1.10
   7  -2 -23    3.70    1.20
  -7   2  23    2.00    1.10
  -7   2  23   -0.50    1.20
   6  -2 -23    0.20    1.10
  -6   2  23    0.30    1.10
  -6   2  23    1.70    1.10
   5  -2 -23    2.30    1.60
  -5   2  23    3.00    1.10
  -5   2  23    4.20    1.10
   4  -2 -23   -0.10    0.90
  -4   2  23   -0.50    0.90
  -4   2  23   -0.90    1.00
   3  -2 -23    1.40    1.10
  -3   2  23    1.20    1.00
  -3   2  23    0.50    0.90
   2  -2 -23   27.90    2.40
  -2   2  23   28.60    2.30
  -2   2  23   27.00    2.50
   1  -2 -23   16.00    1.60
  -1   2  23   15.50    1.60
  -1   2  23   16.00    2.00
   0  -2 -23    1.00    0.80
   0  -2 -23   -0.30    1.00
   0   2  23    1.60    0.80
  -1  -2 -23   49.60    3.90
  -1  -2 -23   51.89    3.60
   1   2  23   53.09    3.70
  -2  -2 -23    5.50    1.20
  -2  -2 -23    6.10    1.30
  -2  -2 -23    5.50    0.90
   2   2  23    5.10    1.00
  -3  -2 -23    0.20    1.10
  -3  -2 -23    3.10    1.20
   3   2  23   -0.10    0.90
  -4  -2 -23    1.60    1.30
  -4  -2 -23    1.30    1.70
   4   2  23    0.20    1.00
  -5  -2 -23    8.10    1.50
  -5  -2 -23    6.10    1.70
   5   2  23   11.20    1.80
  -6  -2 -23    9.40    1.60
  -6  -2 -23   10.00    2.00
   6   2  23    8.60    1.60
  -7  -2 -23    1.90    1.40
  -7  -2 -23    1.80    2.00
   7   2  23    4.30    1.80
   8  -3 -23    1.40    1.40
  -8   3  23    3.50    1.50
  -8   3  23    0.00    1.10
   7  -3 -23    4.80    1.40
  -7   3  23    4.20    1.30
  -7   3  23    4.10    1.10
   6  -3 -23   14.80    2.20
  -6   3  23   20.10    2.10
  -6   3  23   15.20    2.00
   5  -3 -23   11.70    1.80
  -5   3  23   10.20    1.80
  -5   3  23    7.50    1.90
   4  -3 -23    2.90    1.20
  -4   3  23    1.80    1.00
  -4   3  23    2.80    0.90
   3  -3 -23    1.70    1.10
  -3   3  23    2.20    1.00
  -3   3  23    2.40    1.10
   2  -3 -23   20.30    2.00
  -2   3  23   21.50    2.20
  -2   3  23   18.20    1.90
   1  -3 -23    1.50    0.90
  -1   3  23    1.30    1.10
  -1   3  23    1.30    0.80
   0  -3 -23    0.70    0.90
   0   3  23    0.10    0.80
  -1  -3 -23    2.10    0.80
  -1  -3 -23    2.80    1.30
   1   3  23    1.90    0.90
  -2  -3 -23    0.10    1.40
  -2  -3 -23   -0.10    1.00
   2   3  23   -0.70    0.90
  -3  -3 -23    3.70    1.50
  -3  -3 -23    2.40    1.40
   3   3  23    3.00    1.40
  -4  -3 -23   25.10    2.70
  -4  -3 -23   16.10    2.90
   4   3  23   23.40    2.10
  -5  -3 -23    9.20    1.80
  -5  -3 -23   14.40    2.50
   5   3  23   13.90    1.90
  -6  -3 -23    3.80    2.00
  -6  -3 -23    4.00    1.60
   6   3  23    0.60    1.40
  -8   4  23    6.60    1.20
  -8   4  23    5.20    1.50
   7  -4 -23    3.80    1.40
  -7   4  23   -0.70    1.00
  -7   4  23    0.60    1.20
   6  -4 -23    0.40    1.20
  -6   4  23    1.70    1.10
  -6   4  23    1.80    1.10
   5  -4 -23    2.10    1.30
  -5   4  23    5.50    1.60
  -5   4  23    5.10    1.20
   4  -4 -23   -0.40    1.80
  -4   4  23    0.30    1.10
  -4   4  23    0.70    1.00
   3  -4 -23    1.90    1.20
  -3   4  23    3.60    1.10
  -3   4  23    2.50    1.10
   2  -4 -23    9.40    1.50
  -2   4  23   10.30    1.50
  -2   4  23   11.50    1.50
   1  -4 -23    9.50    1.60
  -1   4  23    9.50    1.40
  -1   4  23    8.50    1.40
   0  -4 -23   29.40    2.40
   0   4  23   26.90    2.30
  -1  -4 -23    0.50    1.00
   1   4  23    0.10    0.90
  -2  -4 -23   10.70    1.90
  -3  -4 -23    0.90    2.50
   3   4  23    2.50    1.00
  -4  -4 -23    2.40    1.70
   4   4  23    3.70    1.10
  -5  -4 -23    7.50    2.10
  -5  -4 -23    4.70    1.80
   5   4  23    0.60    1.30
   8  -5 -23    3.00    1.60
  -8   5  23    0.50    1.00
  -8   5  23   -2.10    1.40
   7  -5 -23    3.90    1.40
  -7   5  23    1.30    1.20
  -7   5  23    1.50    1.10
   6  -5 -23    0.80    1.30
  -6   5  23    0.20    1.10
  -6   5  23    1.40    1.10
   5  -5 -23   -0.10    1.20
  -5   5  23    0.10    1.00
  -5   5  23    1.40    1.10
   4  -5 -23    0.80    1.30
  -4   5  23    0.90    1.50
  -4   5  23    0.90    1.00
   3  -5 -23    3.20    1.70
  -3   5  23    2.00    1.10
  -3   5  23    1.90    1.00
   2  -5 -23   54.89    4.00
  -2   5  23   46.20    4.40
  -2   5  23   52.59    4.00
   1  -5 -23   18.80    2.30
  -1   5  23   20.40    2.40
  -1   5  23   21.30    2.40
   0  -5 -23   14.90    1.90
   0   5  23   12.60    1.70
   1   5  23   -0.10    0.90
   2   5  23   -0.20    1.00
  -3  -5 -23    7.00    2.00
   3   5  23    6.60    1.20
  -4  -5 -23    7.70    2.10
   4   5  23    5.10    1.30
   7  -6 -23    2.10    1.40
  -7   6  23   -1.00    1.30
   6  -6 -23   12.80    2.10
  -6   6  23    9.50    1.40
  -6   6  23    8.30    1.40
   5  -6 -23   -1.10    1.30
  -5   6  23    1.50    1.10
  -5   6  23    1.20    1.00
   4  -6 -23    2.00    1.30
  -4   6  23    1.10    1.10
  -4   6  23    2.60    1.10
   3  -6 -23    0.30    1.30
  -3   6  23    0.20    1.40
  -3   6  23   -1.00    1.00
   2  -6 -23    5.60    1.60
  -2   6  23    5.50    1.40
  -2   6  23    8.00    1.30
   1  -6 -23    2.60    1.60
  -1   6  23    0.50    0.90
   0   6  23    0.20    1.00
   1   6  23    0.20    1.00
   2   6  23   19.30    2.10
   3   6  23   -2.30    1.10
   7  -7 -23    7.30    1.90
  -7   7  23    5.60    1.30
  -7   7  23    2.80    1.50
   6  -7 -23    9.80    1.90
  -6   7  23    9.50    1.70
  -6   7  23   15.20    2.10
   5  -7 -23    5.00    1.60
  -5   7  23    4.80    1.40
  -5   7  23    4.30    1.30
   4  -7 -23    3.20    1.50
  -4   7  23    1.50    1.10
  -4   7  23   -0.50    1.30
   3  -7 -23    4.50    1.60
  -3   7  23    2.40    1.20
  -3   7  23   -0.10    1.30
   2  -7 -23   25.50    2.90
  -2   7  23   24.00    2.90
  -2   7  23   25.50    2.40
  -1   7  23   13.60    1.80
   0   7  23    7.90    1.40
   1   7  23   14.30    1.90
   2   7  23    5.30    1.30
   5  -8 -23   10.40    2.00
  -5   8  23    9.20    1.60
   4  -8 -23   37.70    3.40
  -4   8  23   27.70    3.20
  -4   8  23   32.90    2.90
   3  -8 -23    9.20    2.00
  -3   8  23    9.80    1.80
  -3   8  23   10.30    1.60
  -2   8  23   31.40    2.80
  -2   8  23   32.30    3.40
  -1   8  23    0.90    1.20
   0   8  23   -2.50    1.20
   0   8 -24   -2.30    1.30
   0  -8  24   -1.20    1.30
  -1   8 -24    1.50    1.80
  -1   8 -24   -2.30    1.20
   1  -8  24   -1.20    1.30
  -2   8 -24   -1.40    1.60
  -2   8 -24   -1.40    1.30
   2  -8  24    0.20    1.30
  -3   8 -24    2.30    1.20
  -3   8 -24   -0.50    1.50
   3  -8  24    1.00    1.40
  -4   8 -24    6.10    1.50
  -4   8 -24    3.70    1.30
   4  -8  24    7.30    1.60
  -5   8 -24    1.40    1.40
   2   7 -24    0.80    1.30
  -2  -7  24   -0.20    1.30
   1   7 -24    1.20    1.20
  -1  -7  24    1.50    1.20
   0   7 -24   11.40    1.90
   0  -7  24    7.80    1.40
  -1   7 -24    0.00    1.80
  -1   7 -24    2.20    1.10
   1  -7  24    2.20    1.20
  -2   7 -24    0.20    1.10
  -2   7 -24    0.40    1.60
   2  -7  24    2.60    1.20
  -3   7 -24    0.70    1.20
  -3   7 -24   -0.70    1.50
   3  -7  24    0.50    1.20
  -4   7 -24   -0.50    1.40
  -4   7 -24    2.00    1.30
   4  -7  24    1.20    1.30
  -5   7 -24    0.60    1.20
  -5   7 -24   -0.60    1.30
   5  -7  24    0.40    1.30
  -6   7 -24    0.80    1.20
  -6   7 -24   -0.80    1.40
   6  -7  24    0.90    1.40
   3   6 -24    0.70    1.20
   2   6 -24    3.00    1.10
  -2  -6  24    3.00    1.30
   1   6 -24    2.20    1.00
  -1  -6  24    0.80    1.10
   0   6 -24    1.70    1.80
   0   6 -24    2.80    1.00
   0  -6  24    1.80    1.10
  -1   6 -24   10.50    1.70
  -1   6 -24    5.80    1.80
   1  -6  24   10.70    1.80
  -2   6 -24    1.40    1.50
  -2   6 -24    1.00    1.00
   2  -6  24    0.50    1.20
  -3   6 -24    5.20    1.50
  -3   6 -24    4.50    1.20
   3  -6  24    3.90    1.30
  -4   6 -24    4.30    1.30
  -4   6 -24    6.30    1.40
   4  -6  24    5.70    1.30
  -5   6 -24    6.90    1.50
  -5   6 -24    5.90    1.40
   5  -6  24    7.10    1.40
  -6   6 -24    2.80    1.30
  -6   6 -24    2.30    1.30
   6  -6  24    3.80    1.50
  -7   6 -24   -0.70    1.20
  -7   6 -24   -1.20    1.50
   7  -6  24    0.90    1.40
   4   5 -24    1.70    1.20
   3   5 -24    1.70    1.00
   2   5 -24    0.40    0.90
   1   5 -24    0.60    0.90
  -1  -5  24   -0.20    1.10
   0   5 -24    1.50    1.50
   0   5 -24    1.10    0.90
   0  -5  24    1.60    0.90
  -1   5 -24   -0.60    1.30
  -1   5 -24   -1.30    0.80
   1  -5  24    1.50    1.00
  -2   5 -24    0.90    1.60
  -2   5 -24    1.70    1.00
   2  -5  24    1.50    1.20
  -3   5 -24   12.30    2.30
  -3   5 -24   13.90    1.80
   3  -5  24   11.70    2.20
  -4   5 -24   24.70    2.40
  -4   5 -24   22.70    2.40
   4  -5  24   22.00    2.40
  -5   5 -24    0.60    1.20
  -5   5 -24    0.10    1.20
   5  -5  24    0.40    1.10
  -6   5 -24   10.90    1.80
   6  -5  24    9.60    1.60
  -7   5 -24    1.60    1.20
   7  -5  24    0.90    1.40
   5   4 -24   -0.20    1.20
  -5  -4  24    2.40    2.20
   4   4 -24    0.50    1.00
   3   4 -24    5.10    1.10
   2   4 -24    2.70    0.90
   1   4 -24    0.20    0.90
  -1  -4  24    1.10    0.90
   0   4 -24   14.50    2.00
   0  -4  24   17.40    1.90
  -1   4 -24    2.60    1.30
  -1   4 -24    1.30    0.90
   1  -4  24    0.80    0.90
  -2   4 -24   11.30    2.00
  -2   4 -24   13.80    1.80
   2  -4  24   11.40    1.80
  -3   4 -24   19.60    2.40
  -3   4 -24   22.70    2.30
   3  -4  24   20.40    2.20
  -4   4 -24    0.30    1.40
  -4   4 -24   -1.50    1.10
   4  -4  24    0.90    1.50
  -5   4 -24   20.30    2.50
  -5   4 -24   24.40    2.40
   5  -4  24   26.70    2.60
  -6   4 -24   15.70    2.30
  -6   4 -24   19.80    2.10
   6  -4  24   25.20    2.60
  -7   4 -24    4.30    1.20
   7  -4  24    4.80    1.60
   6   3 -24    0.40    1.30
  -6  -3  24    1.40    1.90
   5   3 -24    1.80    1.00
  -5  -3  24    2.70    1.80
   4   3 -24    2.40    0.90
  -4  -3  24    3.30    2.60
   3   3 -24   28.20    2.40
   1   3 -24    8.60    1.40
  -1  -3  24    9.40    1.40
   0   3 -24   60.39    4.50
   0   3 -24   60.29    4.20
   0  -3  24   59.59    4.30
  -1   3 -24    0.90    1.00
  -1   3 -24    1.80    1.30
   1  -3  24   -0.40    0.80
  -2   3 -24   21.80    2.30
  -2   3 -24   22.10    2.00
   2  -3  24   18.90    2.10
  -3   3 -24    0.50    1.00
  -3   3 -24   -0.10    1.10
   3  -3  24    0.50    0.90
  -4   3 -24   14.20    1.90
  -4   3 -24   14.20    2.60
   4  -3  24   18.30    2.00
  -5   3 -24    1.90    1.10
  -5   3 -24    2.10    1.20
   5  -3  24    2.00    1.30
  -6   3 -24    8.70    1.60
   6  -3  24    8.20    1.60
  -7   3 -24    3.30    1.20
   7  -3  24    3.80    1.60
  -8   3 -24    2.60    1.10
   8  -3  24    2.30    1.80
   7   2 -24   -0.90    1.30
  -7  -2  24    3.50    1.70
   6   2 -24    7.40    1.30
   5   2 -24    1.30    1.00
  -5  -2  24    3.30    1.50
   4   2 -24   30.30    2.50
  -4  -2  24   30.20    3.10
   3   2 -24    3.20    1.40
  -3  -2  24    4.70    1.40
   2   2 -24   15.00    1.60
   1   2 -24   13.80    1.50
   0   2 -24    1.40    0.80
   0   2 -24    1.00    1.20
   0  -2  24    0.30    0.80
  -1   2 -24    6.20    1.30
  -1   2 -24    4.50    1.00
   1  -2  24    6.30    1.00
  -2   2 -24    3.70    0.90
  -2   2 -24    2.50    1.20
   2  -2  24    2.60    0.90
  -3   2 -24   -0.20    1.10
  -3   2 -24    0.60    0.90
   3  -2  24    1.40    1.00
  -4   2 -24   -0.10    1.10
  -4   2 -24    0.10    1.00
   4  -2  24    0.60    1.10
  -5   2 -24    0.50    1.10
  -5   2 -24    0.50    1.20
   5  -2  24    1.50    1.30
  -6   2 -24    0.80    1.10
   6  -2  24    1.50    1.40
   7  -2  24    0.30    1.60
  -8   2 -24    1.90    1.20
   7   1 -24    1.60    1.20
  -7  -1  24    2.60    1.60
  -7  -1  24    1.80    1.70
   6   1 -24    3.50    1.10
  -6  -1  24    4.90    1.60
  -6  -1  24    8.10    1.60
   5   1 -24   -1.30    0.90
  -5  -1  24    3.00    2.10
  -5  -1  24    0.30    1.40
   4   1 -24   -0.20    0.90
  -4  -1  24   -0.50    1.30
  -4  -1  24    2.60    1.20
  -3  -1  24   -1.90    1.30
  -3  -1  24   -0.40    1.10
   2   1 -24    5.30    1.10
  -2  -1  24    3.80    1.10
  -2  -1  24    7.50    1.50
   1   1 -24    3.30    1.00
  -1  -1  24    2.00    0.90
   0   1 -24    3.50    1.30
   0   1 -24    3.80    1.00
   0  -1  24    2.40    0.90
  -1   1 -24    5.20    0.90
  -1   1 -24    6.80    1.30
   1  -1  24    6.00    1.00
   1  -1  24    9.00    1.30
  -2   1 -24    0.80    0.80
  -2   1 -24   -0.50    1.10
   2  -1  24    1.80    0.80
  -3   1 -24    0.20    1.10
  -3   1 -24    1.00    0.90
   3  -1  24    1.70    1.00
  -4   1 -24   -1.00    1.00
  -4   1 -24   -1.60    1.00
   4  -1  24    1.50    1.20
  -5   1 -24    1.20    1.10
   5  -1  24   -0.10    1.40
  -6   1 -24   21.70    2.20
  -7   1 -24    2.60    1.20
  -7   1 -24    1.30    1.80
   7   0 -24   -1.60    1.10
  -7   0  24    1.20    1.40
  -7   0  24    0.60    1.50
   6   0 -24    0.10    1.00
  -6   0  24    3.10    1.50
  -6   0  24   -0.30    1.30
   5   0 -24    1.40    0.90
  -5   0  24    2.20    1.70
  -5   0  24   -0.10    2.10
  -4   0  24    1.60    1.30
  -4   0  24    1.70    1.10
   3   0 -24   10.00    1.40
  -3   0  24    8.60    1.30
  -3   0  24    7.90    1.30
   2   0 -24    0.00    0.70
  -2   0  24   -0.60    1.20
  -2   0  24   -0.70    0.90
   1   0 -24    1.00    1.00
  -1   0  24    1.20    0.90
   0   0 -24   -1.10    1.10
   0   0 -24    0.20    0.70
   0   0  24    1.30    0.90
  -1   0 -24   12.00    1.80
  -1   0 -24    9.90    1.30
   1   0  24    9.80    1.40
   1   0  24   10.50    1.40
  -2   0 -24   11.80    1.40
  -2   0 -24   11.10    1.60
   2   0  24   15.00    1.70
   2   0  24   11.30    1.50
  -3   0 -24   27.60    2.40
  -3   0 -24   30.20    2.70
   3   0  24   29.60    2.40
   3   0  24   32.90    2.70
  -4   0 -24   11.00    1.90
   4   0  24   10.40    1.60
  -5   0 -24   10.10    1.80
  -5   0 -24    9.10    1.60
   5   0  24    5.70    1.90
  -6   0 -24   22.50    2.30
  -6   0 -24   20.80    2.60
  -7   0 -24   20.70    2.20
  -7   0 -24   16.80    2.80
   8  -1 -24    0.30    1.40
  -8   1  24    1.30    1.60
  -8   1  24    0.20    1.30
   7  -1 -24   -0.70    1.10
  -7   1  24    1.80    1.50
  -7   1  24   -1.60    1.20
   6  -1 -24   -1.50    1.00
  -6   1  24   -0.40    1.30
  -6   1  24   -0.10    1.20
   5  -1 -24    0.00    0.90
  -5   1  24   -1.00    1.70
   4  -1 -24    2.40    1.10
  -4   1  24    0.50    1.10
  -4   1  24   -0.30    1.10
   3  -1 -24    7.30    1.20
  -3   1  24    7.70    1.40
  -3   1  24    9.00    1.30
   2  -1 -24    1.50    0.80
  -2   1  24    0.40    0.90
  -2   1  24    0.30    1.30
   1  -1 -24    3.00    0.80
  -1   1  24    2.90    0.90
  -1   1  24    3.20    1.30
   0  -1 -24   54.19    3.80
   0  -1 -24   51.89    4.10
   0   1  24   53.49    3.80
  -1  -1 -24    4.80    1.40
  -1  -1 -24    5.70    1.00
   1   1  24    5.70    1.00
  -2  -1 -24   15.10    1.90
  -2  -1 -24    9.40    1.40
   2   1  24   10.70    1.60
   2   1  24   15.10    1.80
  -3  -1 -24   48.10    3.50
  -3  -1 -24   41.30    3.30
   3   1  24   43.80    3.30
  -4  -1 -24   15.90    2.20
  -4  -1 -24   17.30    2.70
   4   1  24   11.10    1.80
  -5  -1 -24   16.10    2.10
  -5  -1 -24   12.30    2.30
   5   1  24   13.00    1.90
  -6  -1 -24    0.10    1.70
  -6  -1 -24    0.50    1.30
   6   1  24    1.80    1.50
  -7  -1 -24   -2.60    1.90
  -7  -1 -24    2.10    1.30
   8  -2 -24    1.90    1.40
  -8   2  24    2.00    1.20
  -8   2  24   -0.60    1.50
   7  -2 -24   -0.10    1.20
  -7   2  24   -0.20    1.20
  -7   2  24    2.50    1.40
   6  -2 -24   -0.60    1.10
  -6   2  24    1.00    1.30
  -6   2  24   -1.50    1.10
   5  -2 -24    4.40    1.10
  -5   2  24    3.80    1.40
  -5   2  24    4.20    2.10
   4  -2 -24    5.30    1.80
  -4   2  24    5.80    1.20
  -4   2  24    4.10    1.20
   3  -2 -24   50.69    3.60
  -3   2  24   47.80    3.80
  -3   2  24   46.10    3.50
   2  -2 -24    6.90    1.20
  -2   2  24    6.50    1.40
  -2   2  24   10.50    1.50
   1  -2 -24   44.40    3.30
  -1   2  24   46.00    3.60
  -1   2  24   44.20    3.30
   0  -2 -24   29.80    2.40
   0   2  24   29.90    2.40
  -1  -2 -24    6.00    1.50
  -1  -2 -24    6.50    1.00
   1   2  24    7.10    1.20
  -2  -2 -24    3.20    1.00
  -2  -2 -24    4.20    1.40
   2   2  24    6.40    1.10
  -3  -2 -24   16.40    2.10
  -3  -2 -24   14.90    2.20
   3   2  24   15.10    1.80
  -4  -2 -24    9.40    1.70
  -4  -2 -24    8.60    1.70
   4   2  24    9.50    1.60
  -5  -2 -24    2.40    1.40
  -5  -2 -24    3.10    1.70
   5   2  24    1.90    1.20
  -6  -2 -24    3.30    1.50
  -6  -2 -24    6.50    2.00
   6   2  24    5.60    1.60
   8  -3 -24    1.70    1.40
  -8   3  24   -0.80    1.10
  -8   3  24    1.60    1.60
   7  -3 -24    4.40    1.40
  -7   3  24    4.70    1.50
  -7   3  24    2.70    1.30
   6  -3 -24   27.80    2.80
  -6   3  24   33.90    2.80
  -6   3  24   31.30    2.80
   5  -3 -24    0.70    1.10
  -5   3  24    0.40    1.10
  -5   3  24    1.50    1.20
   4  -3 -24   49.40    3.70
  -4   3  24   49.40    3.80
  -4   3  24   45.10    3.70
   3  -3 -24    4.10    1.30
  -3   3  24    6.50    1.20
  -3   3  24    6.30    1.40
   2  -3 -24    1.10    1.00
  -2   3  24    0.80    1.20
  -2   3  24   -0.10    0.90
   1  -3 -24   11.60    1.70
  -1   3  24   15.10    2.10
  -1   3  24   13.70    1.60
   0  -3 -24    2.30    1.00
   0   3  24    2.90    1.00
  -1  -3 -24   -0.70    0.90
  -1  -3 -24   -0.10    1.40
   1   3  24   -0.60    0.90
  -2  -3 -24    2.00    1.40
   2   3  24    0.30    1.00
  -3  -3 -24    1.30    1.80
  -4  -3 -24    8.50    1.70
   4   3  24    8.50    1.40
  -5  -3 -24   12.10    2.00
  -5  -3 -24   11.10    2.20
   5   3  24   14.00    2.00
  -6  -3 -24   -1.70    2.20
  -6  -3 -24    3.30    1.70
   8  -4 -24    5.00    1.70
  -8   4  24    3.30    1.20
  -8   4  24    2.30    1.60
   7  -4 -24   15.50    2.30
  -7   4  24   16.40    2.20
  -7   4  24   13.40    2.10
   6  -4 -24    0.60    1.30
  -6   4  24    1.00    1.20
  -6   4  24    1.60    1.10
   5  -4 -24   -0.30    1.20
  -5   4  24   -0.10    1.20
  -5   4  24    0.80    1.10
   4  -4 -24   -0.10    1.10
  -4   4  24   -1.20    1.00
  -4   4  24    0.50    1.20
  -3   4  24   34.90    3.70
  -3   4  24   38.70    3.20
   2  -4 -24   19.40    2.10
  -2   4  24   16.30    2.30
  -2   4  24   17.30    2.00
   1  -4 -24    2.60    1.10
  -1   4  24    1.50    1.40
  -1   4  24    2.20    1.00
   0  -4 -24    1.70    1.10
   0   4  24    2.60    1.80
  -1  -4 -24   11.30    1.60
   1   4  24   12.70    1.60
  -2  -4 -24    1.10    1.70
   2   4  24    2.70    1.10
  -3  -4 -24    1.00    1.90
   3   4  24    0.50    1.10
  -4  -4 -24    8.00    2.00
   4   4  24   11.50    1.80
  -5  -4 -24   -0.80    1.90
   5   4  24   -0.90    1.30
   7  -5 -24    4.10    1.50
  -7   5  24    4.10    1.20
  -7   5  24    3.50    1.40
   6  -5 -24    0.40    1.40
  -6   5  24   -0.70    1.10
  -6   5  24    0.50    1.20
   5  -5 -24    1.80    1.40
  -5   5  24   -2.10    1.10
  -5   5  24    0.80    1.20
   4  -5 -24    3.10    1.30
  -4   5  24    0.40    1.10
  -4   5  24    2.60    1.20
   3  -5 -24    1.50    1.30
  -3   5  24    2.90    1.10
  -3   5  24    3.00    1.40
   2  -5 -24   13.30    2.20
  -2   5  24   13.00    1.80
  -2   5  24   14.80    1.80
   1  -5 -24   15.90    2.10
  -1   5  24   16.00    1.80
   0  -5 -24   13.30    1.90
   0   5  24   10.70    1.60
   1   5  24    9.20    1.60
   2   5  24   11.00    1.70
  -4  -5 -24   -1.30    2.20
   4   5  24    0.10    1.20
   7  -6 -24    3.00    1.60
  -7   6  24   -0.10    1.40
  -7   6  24   -1.00    1.10
   6  -6 -24   -0.90    1.50
  -6   6  24   -2.20    1.20
  -6   6  24    0.10    1.20
   5  -6 -24    2.10    1.50
  -5   6  24    2.90    1.20
  -5   6  24    2.30    1.30
   4  -6 -24    3.20    1.50
  -4   6  24    2.60    1.10
  -4   6  24    0.10    1.20
   3  -6 -24    3.00    1.50
  -3   6  24    2.60    1.40
  -3   6  24    2.60    1.20
   2  -6 -24   13.90    2.20
  -2   6  24   14.60    1.90
  -2   6  24   15.50    2.30
   1  -6 -24    0.40    1.40
  -1   6  24   -0.20    1.00
   0   6  24   -2.20    1.00
   1   6  24    0.30    1.10
   2   6  24    0.20    1.10
   3   6  24   14.10    1.80
   6  -7 -24   11.40    1.90
  -6   7  24   12.20    2.20
  -6   7  24   15.00    2.20
   5  -7 -24   25.50    2.90
  -5   7  24   23.60    2.50
  -5   7  24   24.20    2.60
   4  -7 -24    3.70    1.60
  -4   7  24    2.40    1.50
  -4   7  24    5.30    1.30
   3  -7 -24   15.70    2.50
  -3   7  24   10.10    1.80
  -3   7  24   12.20    2.00
   2  -7 -24    4.20    1.80
  -2   7  24    0.20    1.60
  -2   7  24    2.00    1.10
  -1   7  24   13.90    1.90
   0   7  24   12.00    1.60
   1   7  24   -1.20    1.20
   4  -8 -24    2.30    1.90
  -4   8  24    4.70    1.60
  -4   8  24    1.40    1.60
   3  -8 -24    9.10    2.10
  -3   8  24    6.30    1.70
  -3   8  24    5.60    1.60
  -2   8  24   -2.10    1.30
   1   7 -25    0.00    1.20
  -1  -7  25   -0.60    1.30
   0   7 -25    4.60    1.30
   0  -7  25    6.50    1.40
  -1   7 -25    1.70    1.10
  -1   7 -25    2.30    2.00
   1  -7  25    0.40    1.30
  -2   7 -25   -0.20    1.80
  -2   7 -25    1.00    1.20
   2  -7  25    3.60    1.30
  -3   7 -25    2.00    1.20
  -3   7 -25    2.20    1.70
   3  -7  25    5.70    1.40
  -4   7 -25    0.70    1.50
  -4   7 -25    2.20    1.40
   4  -7  25    1.90    1.40
  -5   7 -25    6.10    1.50
   5  -7  25    6.80    1.50
   3   6 -25    3.30    1.30
   2   6 -25    2.30    1.20
   1   6 -25    4.00    1.20
  -1  -6  25    3.90    1.30
   0   6 -25    1.60    1.10
   0   6 -25   -1.20    2.20
   0  -6  25   -1.60    1.20
  -1   6 -25   -0.50    1.80
  -1   6 -25    4.20    1.10
   1  -6  25    4.60    1.20
  -2   6 -25    4.10    1.20
  -2   6 -25    3.90    1.70
   2  -6  25    4.40    1.30
  -3   6 -25   19.80    2.70
  -3   6 -25   23.70    2.40
   3  -6  25   19.90    2.60
  -4   6 -25    2.30    1.30
  -4   6 -25    2.10    1.50
   4  -6  25    2.90    1.30
  -5   6 -25   -2.00    1.40
  -5   6 -25    1.60    1.30
   5  -6  25    2.80    1.40
  -6   6 -25    1.40    1.50
  -6   6 -25    3.20    1.40
   6  -6  25   -0.50    1.40
   4   5 -25    2.40    1.20
   3   5 -25    1.00    1.10
   2   5 -25    2.50    1.10
   1   5 -25    5.40    1.10
  -1  -5  25    3.70    1.20
   0   5 -25   -0.10    0.90
   0   5 -25    1.40    2.20
   0  -5  25    1.10    1.50
  -1   5 -25   -1.30    0.90
  -1   5 -25    0.40    1.70
   1  -5  25    1.60    1.30
  -2   5 -25    0.90    1.00
  -2   5 -25    0.60    1.40
   2  -5  25   -1.00    1.10
  -3   5 -25    2.10    1.40
  -3   5 -25    1.30    1.10
   3  -5  25    2.20    1.20
  -4   5 -25   13.50    2.00
  -4   5 -25   14.20    2.00
   4  -5  25    8.50    1.60
  -5   5 -25   -1.00    1.30
  -5   5 -25    2.30    1.30
   5  -5  25    3.40    1.30
  -6   5 -25    3.30    1.40
   6  -5  25    4.80    1.40
  -7   5 -25    4.50    1.40
   7  -5  25    7.20    1.60
   5   4 -25   -0.40    1.20
   4   4 -25    2.30    1.10
   3   4 -25    7.60    1.20
   2   4 -25    1.80    1.00
   1   4 -25    6.50    1.10
   0   4 -25    2.90    1.70
   0   4 -25    1.40    0.90
   0  -4  25    4.60    1.00
  -1   4 -25   29.80    2.90
  -1   4 -25   32.40    2.50
   1  -4  25   28.90    2.70
  -2   4 -25   17.60    2.40
  -2   4 -25   15.30    1.90
   2  -4  25   16.00    2.00
  -3   4 -25    1.50    1.40
  -3   4 -25    3.40    1.10
  -4   4 -25    4.20    1.30
  -4   4 -25    3.70    1.30
   4  -4  25    4.40    1.20
  -5   4 -25    5.90    1.30
  -5   4 -25    5.30    1.40
   5  -4  25    5.10    1.40
  -6   4 -25    0.90    1.40
  -6   4 -25    1.90    1.20
   6  -4  25    2.20    1.40
  -7   4 -25    7.70    1.40
   7  -4  25    9.50    1.80
   5   3 -25    3.40    1.20
  -5  -3  25    7.00    2.10
   4   3 -25    2.20    1.00
  -4  -3  25    5.50    2.10
   3   3 -25    3.10    1.00
   2   3 -25    0.80    0.80
   1   3 -25    0.30    0.80
   0   3 -25    1.10    1.00
   0   3 -25    0.70    1.50
   0  -3  25    1.60    0.90
  -1   3 -25    2.50    1.40
  -1   3 -25    0.30    1.00
   1  -3  25   -0.60    0.90
  -2   3 -25    3.30    1.10
  -2   3 -25    3.90    1.40
   2  -3  25    3.80    1.00
  -3   3 -25    5.70    1.30
  -3   3 -25    6.10    1.50
   3  -3  25    6.70    1.20
  -4   3 -25    1.00    1.20
  -4   3 -25    2.10    1.40
   4  -3  25   -0.60    1.30
  -5   3 -25    1.00    1.20
  -5   3 -25    0.30    1.20
   5  -3  25    2.50    1.30
  -6   3 -25    1.70    1.20
   6  -3  25    3.10    1.50
  -7   3 -25    1.40    1.20
   7  -3  25    2.40    1.70
   6   2 -25   -1.10    1.10
  -6  -2  25    3.60    1.90
   5   2 -25    9.30    1.40
   4   2 -25    0.10    0.90
  -4  -2  25    0.90    2.40
   3   2 -25    3.90    1.00
  -3  -2  25    5.00    1.60
   2   2 -25   -0.50    1.00
   1   2 -25   -1.00    0.70
   0   2 -25    1.20    1.50
   0   2 -25   -0.10    0.80
  -1   2 -25    1.10    1.30
  -1   2 -25    1.30    0.90
   1  -2  25    0.60    0.90
  -2   2 -25    0.30    0.90
  -2   2 -25   -0.70    1.20
   2  -2  25    3.00    1.00
  -3   2 -25    0.00    1.20
  -3   2 -25    0.60    1.00
   3  -2  25    0.30    1.00
  -4   2 -25   -0.20    1.20
  -4   2 -25    0.90    1.10
   4  -2  25    1.10    1.30
  -5   2 -25    0.20    1.20
  -5   2 -25    0.20    1.50
   5  -2  25    3.10    1.30
  -6   2 -25   -1.40    1.20
   6  -2  25   -0.40    1.50
  -7   2 -25   -2.00    1.10
   7  -2  25    1.40    1.80
   7   1 -25   -0.20    1.30
  -7  -1  25   -0.80    1.70
  -7  -1  25    0.60    2.00
   6   1 -25   -0.20    1.10
  -6  -1  25    2.70    1.60
  -6  -1  25    2.50    1.70
   5   1 -25    3.20    1.10
  -5  -1  25    2.20    1.50
  -5  -1  25    4.90    1.50
   4   1 -25    0.00    0.90
  -4  -1  25   -0.90    1.50
  -4  -1  25    1.90    1.30
   3   1 -25    2.00    0.90
  -3  -1  25    1.40    1.40
  -3  -1  25    0.70    1.20
   2   1 -25    0.10    0.80
  -2  -1  25   -1.60    1.10
   1   1 -25    2.60    0.80
  -1  -1  25    3.50    1.10
   0   1 -25    0.20    1.40
   0   1 -25    0.10    0.80
  -1   1 -25    5.00    1.00
  -1   1 -25    5.90    1.40
   1  -1  25    3.40    1.00
  -2   1 -25   -0.50    0.90
  -2   1 -25   -0.10    1.10
   2  -1  25    1.20    0.90
  -3   1 -25   11.50    1.50
  -3   1 -25    9.60    1.50
   3  -1  25   12.50    1.90
  -4   1 -25    2.60    1.30
  -4   1 -25    1.20    1.20
   4  -1  25    5.00    1.30
  -5   1 -25   -0.20    1.20
   5  -1  25    5.50    1.50
  -6   1 -25    6.30    1.30
   6  -1  25    6.10    1.80
  -7   1 -25    4.80    1.30
   7  -1  25    6.70    2.00
   7   0 -25   -1.50    1.30
  -7   0  25    1.30    1.70
  -7   0  25    2.90    1.60
   6   0 -25   -2.10    1.00
  -6   0  25    0.20    1.40
  -6   0  25   -0.10    1.50
   5   0 -25    5.20    1.10
  -5   0  25    4.50    1.50
  -5   0  25    6.20    1.50
   4   0 -25    4.60    1.00
  -4   0  25    4.30    1.40
  -4   0  25    4.00    1.40
   3   0 -25    5.60    1.30
  -3   0  25    4.00    1.20
  -3   0  25    7.00    1.40
   2   0 -25   -1.60    0.70
  -2   0  25    0.20    1.30
  -2   0  25    1.30    1.10
   1   0 -25   10.60    1.40
  -1   0  25   10.90    1.60
   0   0 -25   -0.50    1.30
   0   0 -25    1.80    0.80
   0   0  25    4.10    1.00
  -1   0 -25    1.10    1.20
  -1   0 -25   -1.10    0.80
   1   0  25    0.00    0.90
  -2   0 -25   14.00    1.50
  -2   0 -25   11.20    2.10
   2   0  25   11.70    1.60
   2   0  25   13.20    1.80
  -3   0 -25    0.70    1.30
  -3   0 -25    0.20    1.00
   3   0  25    0.20    1.00
   3   0  25    3.20    1.20
  -4   0 -25   21.80    2.40
   4   0  25   26.40    2.70
  -5   0 -25   11.20    2.00
  -6   0 -25    3.00    1.30
  -6   0 -25    0.30    1.70
  -7   0 -25   -2.10    1.90
  -7   0 -25    0.40    1.30
   7  -1 -25    1.20    1.20
  -7   1  25    0.60    1.40
  -7   1  25    1.40    1.60
  -6   1  25    0.10    1.30
  -6   1  25    1.10    1.50
   5  -1 -25   -0.90    1.00
  -5   1  25   -2.20    1.30
  -5   1  25    1.00    1.30
   4  -1 -25   -1.00    0.90
  -4   1  25    0.20    1.30
  -4   1  25   -0.80    1.10
   3  -1 -25    3.00    1.30
  -3   1  25    3.50    1.40
  -3   1  25    5.80    1.20
   2  -1 -25    4.90    0.90
  -2   1  25    3.50    1.10
  -2   1  25    1.50    1.30
   1  -1 -25    4.10    1.00
  -1   1  25    7.00    1.10
   0  -1 -25    8.30    2.00
   0  -1 -25    8.80    1.40
   0   1  25    9.10    1.50
  -1  -1 -25   40.70    3.00
  -1  -1 -25   43.80    3.50
   1   1  25   39.20    3.10
  -2  -1 -25   49.00    3.60
  -2  -1 -25   52.89    3.90
   2   1  25   49.80    3.70
  -3  -1 -25    8.90    1.60
   3   1  25   10.90    1.70
   3   1  25   13.70    2.20
  -4  -1 -25   15.90    2.20
  -4  -1 -25   10.80    2.00
  -5  -1 -25    7.90    1.50
  -5  -1 -25    9.50    1.80
   5   1  25    5.50    1.50
  -6  -1 -25    8.20    2.10
  -6  -1 -25   13.80    2.20
   7  -2 -25    5.60    1.40
  -7   2  25    6.30    1.40
  -7   2  25    7.80    1.70
   6  -2 -25   -0.50    1.10
  -6   2  25    0.10    1.40
  -6   2  25    1.30    1.30
   5  -2 -25    4.90    1.20
  -5   2  25    4.50    1.40
  -5   2  25    6.90    1.40
   4  -2 -25   17.10    1.90
  -4   2  25   16.30    2.20
  -4   2  25   12.90    2.50
   3  -2 -25    4.00    1.70
  -3   2  25    2.10    1.30
  -3   2  25    4.10    1.10
   2  -2 -25   94.39    6.50
  -2   2  25   97.99    6.50
  -2   2  25   95.19    6.70
   1  -2 -25    8.40    1.40
  -1   2  25    2.10    1.10
   0  -2 -25   31.30    2.50
   0   2  25   31.50    2.60
  -1  -2 -25    2.00    0.90
  -1  -2 -25    2.60    1.40
   1   2  25    3.10    1.10
  -2  -2 -25   -0.40    1.30
   2   2  25   -0.60    1.00
  -3  -2 -25    9.40    2.10
   3   2  25   10.70    1.70
  -4  -2 -25   15.90    2.30
   4   2  25   18.10    2.10
  -5  -2 -25    4.20    1.90
  -5  -2 -25    1.70    1.50
   5   2  25    5.50    1.40
  -6  -2 -25   -2.70    1.40
  -6  -2 -25   -1.20    2.00
   6   2  25   -1.40    1.50
   7  -3 -25    1.30    1.30
  -7   3  25    3.70    1.50
  -7   3  25   -0.70    1.30
   6  -3 -25    2.70    1.20
  -6   3  25    5.70    1.40
  -6   3  25    2.80    1.40
   5  -3 -25   25.30    2.40
  -5   3  25   21.30    2.40
  -5   3  25   25.30    2.60
   4  -3 -25   19.10    2.10
  -4   3  25   17.40    2.10
  -4   3  25   14.40    2.60
   3  -3 -25   29.30    2.60
  -3   3  25   30.50    2.90
   2  -3 -25    6.30    1.20
  -2   3  25    6.70    1.40
  -2   3  25    7.70    1.30
   1  -3 -25    7.20    1.20
  -1   3  25    7.60    1.30
   0  -3 -25    4.80    1.10
   0   3  25    4.80    1.10
  -1  -3 -25   -1.10    1.00
   1   3  25   -1.90    1.70
  -2  -3 -25    0.00    1.60
   2   3  25   -0.80    1.00
  -3  -3 -25    0.60    1.70
   3   3  25   -1.60    1.20
  -4  -3 -25    6.90    1.80
   4   3  25    1.70    1.30
  -5  -3 -25   -0.70    1.60
   5   3  25    0.00    1.40
   7  -4 -25    1.60    1.50
  -7   4  25    3.60    1.40
  -7   4  25    1.10    1.30
   6  -4 -25   13.00    2.20
  -6   4  25   15.60    2.20
  -6   4  25   13.90    2.20
   5  -4 -25    1.20    1.30
  -5   4  25    1.60    1.40
  -5   4  25    3.50    1.30
   4  -4 -25    1.00    1.30
  -4   4  25    0.30    1.30
  -4   4  25   -0.10    1.10
   3  -4 -25   21.10    2.30
  -3   4  25   24.40    2.60
  -3   4  25   23.30    2.30
   2  -4 -25   18.70    2.10
  -2   4  25   19.90    2.50
  -2   4  25   16.10    2.00
   1  -4 -25    1.20    1.20
  -1   4  25    1.00    1.00
   0  -4 -25   -0.10    1.10
   0   4  25   -0.40    1.00
   1   4  25    3.30    1.10
   2   4  25    5.30    1.30
  -3  -4 -25    0.60    1.90
   3   4  25    1.80    1.30
  -4  -4 -25    8.00    2.10
   4   4  25    6.00    1.50
   7  -5 -25    2.60    1.60
  -7   5  25    3.40    1.30
  -7   5  25    0.80    1.50
   6  -5 -25    1.10    1.40
  -6   5  25   -0.70    1.30
  -6   5  25    0.80    1.30
   5  -5 -25    0.90    1.40
  -5   5  25    0.40    1.30
  -5   5  25   -0.20    1.30
   4  -5 -25   -0.60    1.30
  -4   5  25    2.70    1.40
  -4   5  25   -0.80    1.20
   3  -5 -25    0.90    1.40
  -3   5  25    0.40    1.30
  -3   5  25   -0.40    1.10
   2  -5 -25   14.90    2.10
  -2   5  25   15.50    1.90
  -2   5  25   11.80    2.60
   1  -5 -25    1.20    1.30
  -1   5  25    1.30    1.00
   0  -5 -25   41.00    3.80
   0   5  25   39.00    3.20
   1   5  25    5.30    1.30
   2   5  25    2.20    1.20
   3   5  25    0.20    1.30
   6  -6 -25    1.90    1.50
  -6   6  25    0.30    1.40
  -6   6  25    0.50    1.40
   5  -6 -25    4.10    1.60
  -5   6  25    0.10    1.30
  -5   6  25   -0.10    1.40
   4  -6 -25    8.90    1.70
  -4   6  25   11.10    1.60
  -4   6  25    9.50    1.70
   3  -6 -25    6.20    1.70
  -3   6  25   11.70    1.90
  -3   6  25    7.60    1.70
   2  -6 -25   -0.70    1.60
  -2   6  25    2.20    1.20
  -2   6  25    0.30    1.60
   1  -6 -25    4.80    1.60
  -1   6  25    5.20    1.40
   0   6  25    6.90    1.50
   1   6  25    1.60    1.30
   2   6  25   -1.00    1.20
  -5   7  25    6.40    1.60
  -5   7  25    6.20    1.50
   4  -7 -25    1.90    1.70
  -4   7  25    1.70    1.30
  -4   7  25    0.40    1.50
   3  -7 -25    2.10    1.80
  -3   7  25   -1.30    1.60
  -3   7  25    3.80    1.40
   2  -7 -25   -0.60    1.80
  -2   7  25    0.70    1.30
  -1   7  25    0.30    1.30
   0   7  25    0.40    1.30
   0   7 -26    1.60    1.30
   0  -7  26    0.60    1.40
  -1   7 -26    2.40    2.10
   1  -7  26    2.90    1.50
  -2   7 -26    0.50    1.90
  -2   7 -26    0.10    1.30
   2  -7  26    2.80    1.30
  -3   7 -26    3.00    1.80
  -3   7 -26    2.10    1.40
   3  -7  26    5.20    1.60
  -4   7 -26    5.20    1.50
  -4   7 -26    4.50    1.70
   4  -7  26    2.40    1.60
   2   6 -26    0.60    1.20
   1   6 -26    2.80    1.20
   0   6 -26    1.40    1.20
   0  -6  26   -1.80    1.30
  -1   6 -26    5.60    1.30
  -1   6 -26    4.60    2.00
   1  -6  26    5.70    1.30
  -2   6 -26    1.60    1.80
  -2   6 -26    2.30    1.30
   2  -6  26    3.60    1.30
  -3   6 -26    6.30    1.40
  -3   6 -26    5.60    1.80
   3  -6  26    7.10    1.50
  -4   6 -26    2.70    1.30
  -4   6 -26    2.20    1.60
   4  -6  26    1.70    1.40
  -5   6 -26    5.10    1.50
  -5   6 -26    3.30    1.60
   5  -6  26    4.20    1.50
   3   5 -26   11.60    1.90
   2   5 -26    4.20    1.20
   1   5 -26    4.70    1.20
   0   5 -26    2.10    2.90
   0   5 -26   -0.30    1.00
   0  -5  26    0.70    1.20
  -1   5 -26    4.70    1.70
  -1   5 -26   -0.50    1.10
   1  -5  26    2.40    1.30
  -2   5 -26    2.10    1.20
  -2   5 -26    2.40    1.60
   2  -5  26   -0.20    1.20
  -3   5 -26   13.20    2.40
  -3   5 -26   12.60    1.90
   3  -5  26   13.10    2.20
  -4   5 -26    4.90    1.50
  -4   5 -26    5.60    1.40
   4  -5  26    2.20    1.40
  -5   5 -26   19.30    2.60
  -5   5 -26   27.90    2.60
   5  -5  26   20.90    2.70
  -6   5 -26   11.90    2.10
   6  -5  26   14.20    2.50
   4   4 -26   -1.60    1.10
   3   4 -26   19.80    2.10
   2   4 -26    2.70    1.00
   1   4 -26   23.70    2.20
   0   4 -26    1.00    1.80
   0   4 -26   -0.10    1.00
   0  -4  26    2.50    1.10
  -1   4 -26    1.10    1.00
  -1   4 -26    1.40    2.00
   1  -4  26   -1.20    1.20
  -2   4 -26    3.60    1.20
  -2   4 -26    7.60    1.50
   2  -4  26    6.20    1.90
  -3   4 -26    5.70    1.50
  -3   4 -26    6.10    1.30
   3  -4  26    6.50    1.30
  -4   4 -26    2.00    1.30
  -4   4 -26    0.70    1.30
   4  -4  26    0.00    1.20
  -5   4 -26    0.70    1.40
  -5   4 -26    1.80    1.30
   5  -4  26   -0.70    1.30
  -6   4 -26    4.60    1.30
   6  -4  26    1.10    1.60
   5   3 -26   -1.00    1.20
  -5  -3  26    3.50    2.20
   4   3 -26    0.10    1.10
   3   3 -26   11.50    1.60
   2   3 -26    9.50    1.60
   1   3 -26   29.90    2.50
   0   3 -26   16.80    1.80
   0   3 -26   16.90    2.80
  -1   3 -26   11.40    1.60
  -1   3 -26   13.60    2.30
   1  -3  26   10.90    1.90
  -2   3 -26    0.10    1.80
  -2   3 -26    0.60    1.00
   2  -3  26    0.30    1.10
  -3   3 -26    0.90    1.10
  -3   3 -26    0.80    1.40
  -4   3 -26    1.40    1.30
  -4   3 -26    1.20    1.30
   4  -3  26   -0.30    1.20
  -5   3 -26    1.30    1.40
  -5   3 -26    1.30    1.30
   5  -3  26    2.00    1.40
  -6   3 -26   -0.30    1.30
   6  -3  26   -0.10    1.60
   6   2 -26   -2.50    1.20
  -6  -2  26    3.30    2.10
   5   2 -26    0.70    1.10
  -5  -2  26    5.50    1.90
   4   2 -26   -1.10    0.90
  -4  -2  26    1.40    1.70
   3   2 -26   -0.70    0.90
   1   2 -26    0.70    0.80
   0   2 -26    2.60    1.60
   0   2 -26    0.60    1.10
  -1   2 -26   -1.00    1.20
   1  -2  26    0.20    1.10
  -2   2 -26    8.00    1.50
  -2   2 -26    8.10    1.60
   2  -2  26    6.20    1.20
  -3   2 -26    1.10    1.80
  -3   2 -26    2.40    1.30
   3  -2  26    0.90    1.10
  -4   2 -26    1.30    1.30
  -4   2 -26    1.60    1.40
   4  -2  26    3.50    1.30
  -5   2 -26    8.40    1.50
   5  -2  26    9.40    1.70
  -6   2 -26   -2.40    1.20
   6  -2  26    2.10    1.70
  -7   2 -26   -1.60    1.20
   6   1 -26    2.80    1.30
  -6  -1  26    5.30    1.80
   5   1 -26    1.00    1.10
  -5  -1  26    1.30    1.60
  -5  -1  26    2.50    2.60
   4   1 -26    0.50    0.90
  -4  -1  26   -0.70    1.60
   3   1 -26   -0.80    0.80
  -3  -1  26    0.80    1.60
  -3  -1  26   -2.80    2.00
   2   1 -26    4.20    1.00
   1   1 -26    1.70    1.30
   0   1 -26    0.50    1.50
  -1   1 -26    8.60    1.40
  -1   1 -26    7.00    1.60
  -2   1 -26   -1.30    0.90
  -2   1 -26   -0.40    1.30
   2  -1  26    0.00    1.00
  -3   1 -26    0.50    1.10
  -3   1 -26    2.10    1.80
   3  -1  26    3.00    1.20
  -4   1 -26   -0.20    1.50
  -4   1 -26   -0.10    1.30
   4  -1  26    2.40    1.40
  -5   1 -26   -1.40    1.30
   5  -1  26    0.90    1.50
  -6   1 -26    2.20    1.30
   6  -1  26    2.20    1.80
  -6   0  26    1.20    1.70
  -6   0  26   -0.80    1.50
   5   0 -26   -2.10    1.00
  -5   0  26    1.90    1.60
  -5   0  26    0.30    1.50
   4   0 -26    0.80    1.00
  -4   0  26    2.90    2.30
  -4   0  26    3.10    2.00
   3   0 -26   -1.30    0.80
  -3   0  26    1.80    1.40
  -3   0  26   -0.60    1.30
  -2   0  26   -0.70    1.10
   1   0 -26   12.10    1.70
  -1   0  26   16.00    1.80
   0   0 -26    1.20    0.90
   0   0  26    2.40    1.10
  -1   0 -26   -1.10    0.80
  -1   0 -26   -0.20    1.30
   1   0  26   -1.90    1.10
  -2   0 -26    0.90    1.00
  -2   0 -26    3.10    1.40
   2   0  26    0.20    1.10
  -3   0 -26    4.30    2.10
  -3   0 -26   -0.40    1.10
   3   0  26    1.00    1.20
  -4   0 -26    9.90    1.60
   4   0  26    7.60    1.70
  -5   0 -26   18.50    2.20
   5   0  26   12.20    2.10
  -6   0 -26   20.10    2.40
   6   0  26   22.20    3.40
   7  -1 -26   -1.60    1.20
  -7   1  26   -0.30    1.40
  -7   1  26    1.20    1.80
   6  -1 -26    0.40    1.10
  -6   1  26    0.10    1.50
  -6   1  26    2.00    1.70
   5  -1 -26    1.20    1.00
  -5   1  26    1.60    1.50
  -5   1  26    0.70    1.50
   4  -1 -26    1.50    1.00
  -4   1  26    2.30    1.40
  -4   1  26    3.50    2.10
   3  -1 -26    0.80    0.80
  -3   1  26    1.00    1.20
  -3   1  26   -0.20    1.30
   2  -1 -26    3.60    1.10
  -2   1  26    5.50    1.70
  -2   1  26    6.30    1.20
   1  -1 -26    8.10    1.40
  -1   1  26   12.70    1.70
   0  -1 -26   14.90    1.70
   0   1  26   15.10    1.90
  -1  -1 -26   -1.40    1.50
  -1  -1 -26    0.20    0.90
   1   1  26    3.30    1.10
  -2  -1 -26   18.70    2.40
  -2  -1 -26   14.30    1.80
   2   1  26   15.80    1.90
  -3  -1 -26   20.10    2.70
   3   1  26   16.20    2.30
  -4  -1 -26    1.20    1.50
   4   1  26    0.90    1.30
   4   1  26    2.00    1.60
  -5  -1 -26    5.50    1.60
  -5  -1 -26    0.40    1.90
  -6  -1 -26   19.70    2.60
  -6  -1 -26   17.30    3.10
   7  -2 -26   -0.50    1.30
  -7   2  26    1.30    1.40
  -7   2  26    5.90    1.80
  -6   2  26    7.40    1.70
  -6   2  26    8.80    1.60
   5  -2 -26    0.70    1.10
  -5   2  26    1.90    1.40
  -5   2  26    0.20    1.40
   4  -2 -26   25.80    2.30
  -4   2  26   22.40    2.50
  -4   2  26   27.00    2.80
   3  -2 -26    3.30    1.10
  -3   2  26    4.10    2.10
  -3   2  26    3.60    1.50
   2  -2 -26    2.20    1.00
  -2   2  26    1.10    1.20
  -2   2  26    2.90    1.50
   1  -2 -26   32.90    2.90
  -1   2  26   36.40    2.90
   0  -2 -26   37.40    2.80
   0   2  26   33.60    2.90
  -1  -2 -26    6.90    1.90
  -1  -2 -26    6.10    1.20
   1   2  26    7.80    1.30
  -2  -2 -26    8.30    1.30
  -2  -2 -26   12.60    2.30
   2   2  26   10.90    1.90
  -3  -2 -26   42.80    3.60
   3   2  26   40.80    3.30
  -4  -2 -26   17.30    2.50
   4   2  26   19.10    2.30
   5   2  26    2.50    1.60
   7  -3 -26   12.20    1.90
  -7   3  26    7.10    1.60
  -7   3  26   11.50    1.80
   6  -3 -26   12.30    1.80
  -6   3  26    9.30    1.80
  -6   3  26   13.90    2.30
   5  -3 -26    8.00    1.40
  -5   3  26    7.60    1.60
  -5   3  26    9.60    1.60
   4  -3 -26    3.50    1.20
  -4   3  26    3.50    1.50
  -4   3  26    3.50    1.40
   3  -3 -26   11.00    1.70
  -3   3  26    9.70    1.50
  -3   3  26   11.30    1.90
   2  -3 -26    0.90    1.00
  -2   3  26    0.50    1.10
  -2   3  26    1.70    1.40
   1  -3 -26    9.30    1.70
  -1   3  26    9.20    1.50
   0  -3 -26   19.00    2.20
   0   3  26   17.60    2.00
  -1  -3 -26   -1.30    1.00
   1   3  26    0.90    1.10
  -2  -3 -26    1.30    2.10
   2   3  26    2.00    1.20
  -3  -3 -26   20.40    2.80
   3   3  26   20.30    2.30
  -4  -3 -26   -0.60    1.80
   7  -4 -26    3.00    1.40
  -7   4  26    1.40    1.30
  -7   4  26    3.40    1.50
   6  -4 -26    8.60    1.70
  -6   4  26   10.20    1.70
  -6   4  26   11.50    1.70
   5  -4 -26   -0.90    1.20
  -5   4  26    2.00    1.30
  -5   4  26    1.30    1.40
   4  -4 -26    9.30    1.60
  -4   4  26   10.30    1.50
  -4   4  26   10.10    1.70
   3  -4 -26   51.19    3.80
  -3   4  26   48.70    3.80
  -3   4  26   50.79    4.20
   2  -4 -26   13.80    1.80
  -2   4  26    9.80    1.80
  -2   4  26   12.50    1.90
   1  -4 -26   28.00    2.50
  -1   4  26   28.70    2.60
   0  -4 -26    2.00    1.20
   0   4  26    2.10    1.10
   1   4  26   -0.10    1.20
   2   4  26   15.60    2.00
  -3  -4 -26   -0.20    2.00
   3   4  26   -0.40    1.30
  -4  -4 -26    8.30    2.10
   4   4  26    3.20    1.60
   6  -5 -26    1.60    1.60
  -6   5  26   -2.30    1.40
  -6   5  26   -1.00    1.40
   5  -5 -26    2.50    1.50
  -5   5  26   -0.20    1.50
  -5   5  26    0.00    1.50
   4  -5 -26    0.20    1.40
  -4   5  26    1.30    1.50
  -4   5  26   -0.50    1.20
   3  -5 -26    8.00    1.60
  -3   5  26    8.30    1.50
  -3   5  26    6.40    1.60
   2  -5 -26    2.90    1.40
  -2   5  26    3.50    1.40
  -2   5  26    3.90    1.80
   1  -5 -26    2.80    1.40
  -1   5  26    2.10    1.20
   0   5  26    3.00    1.20
   1   5  26    0.00    1.30
   2   5  26   -0.30    1.30
   5  -6 -26    6.00    1.60
  -5   6  26    3.60    1.60
  -5   6  26    0.90    1.40
   4  -6 -26    6.50    1.70
  -4   6  26    1.70    1.50
  -4   6  26    3.80    1.60
   3  -6 -26    0.50    1.60
  -3   6  26    1.30    1.70
  -3   6  26    2.10    1.40
   2  -6 -26   10.70    1.90
  -2   6  26   11.40    1.70
  -1   6  26    2.00    1.30
   0   6  26    3.00    1.30
   1   6  26   -2.20    1.30
   3  -7 -26    1.40    1.90
  -3   7  26    3.80    1.50
  -3   7  26   -0.10    1.80
  -2   7  26   -1.10    1.40
   1   6 -27    5.20    1.40
   0   6 -27    1.50    1.20
  -1   6 -27    0.00    2.10
  -1   6 -27   -1.10    1.20
   1  -6  27   -0.40    1.30
  -2   6 -27   -1.80    1.90
  -2   6 -27    0.50    1.20
   2  -6  27   -1.60    1.40
  -3   6 -27    0.70    1.80
  -3   6 -27   -1.60    1.30
   3  -6  27    0.50    1.50
  -4   6 -27   16.00    2.70
  -4   6 -27    9.80    1.80
   4  -6  27   12.00    1.90
   2   5 -27    1.20    1.20
   1   5 -27    0.70    1.10
   0   5 -27   -1.20    1.10
  -1   5 -27   22.00    3.10
  -1   5 -27   16.00    2.10
   1  -5  27   22.20    2.50
  -2   5 -27    3.70    1.70
  -2   5 -27    1.50    1.20
   2  -5  27   -0.30    1.40
  -3   5 -27    2.00    1.30
  -3   5 -27    5.40    1.70
   3  -5  27    3.10    1.40
  -4   5 -27    2.00    1.40
  -4   5 -27    0.40    1.50
   4  -5  27    0.50    1.50
  -5   5 -27   18.00    2.50
   5  -5  27   23.50    2.80
   3   4 -27   -0.30    1.10
   2   4 -27    7.30    1.30
   1   4 -27   14.90    1.80
   0   4 -27    6.10    1.20
  -1   4 -27   24.50    3.20
  -1   4 -27   27.00    2.40
   1  -4  27   26.60    2.80
  -2   4 -27    8.50    1.50
   2  -4  27   10.30    1.60
  -3   4 -27    6.10    1.40
  -3   4 -27    8.40    1.60
   3  -4  27    5.80    1.50
  -4   4 -27    3.20    1.40
  -4   4 -27    1.00    1.40
  -5   4 -27    1.60    1.50
  -5   4 -27    3.50    1.40
   5  -4  27    2.30    1.40
  -6   4 -27    1.70    1.40
   6  -4  27    1.80    1.60
   4   3 -27   -0.30    1.20
   3   3 -27   15.00    1.90
   2   3 -27    3.10    1.10
   1   3 -27    1.30    1.00
   0   3 -27    0.80    1.00
  -1   3 -27    1.40    2.10
  -2   3 -27    0.20    1.60
  -2   3 -27    1.70    1.10
   2  -3  27    0.30    2.20
  -3   3 -27    0.40    1.60
   3  -3  27   -1.80    1.20
  -4   3 -27    0.80    1.50
  -4   3 -27    2.00    1.40
   4  -3  27    0.00    1.30
  -5   3 -27    3.50    1.50
  -5   3 -27    3.10    1.60
   5  -3  27    5.20    1.60
  -6   3 -27   -1.70    1.30
   6  -3  27    5.20    1.70
   5   2 -27    0.50    1.20
  -5  -2  27    5.20    2.10
   4   2 -27   -1.60    1.00
   3   2 -27   -0.30    1.00
   1   2 -27    1.10    0.90
   0   2 -27   -0.90    1.00
  -1   2 -27    0.30    1.00
  -1   2 -27    1.90    1.60
  -2   2 -27    0.00    1.00
  -2   2 -27    0.50    1.90
   2  -2  27   -0.70    1.20
  -3   2 -27    4.00    1.20
  -3   2 -27    4.00    1.50
   3  -2  27    1.90    1.60
  -4   2 -27    1.40    1.40
  -4   2 -27    0.40    1.40
   4  -2  27    2.10    1.40
  -5   2 -27    3.10    1.50
   5  -2  27    6.30    1.70
  -6   2 -27   -0.50    1.40
   6  -2  27    5.40    1.90
  -6  -1  27    0.50    2.00
   5   1 -27    0.10    1.10
  -5  -1  27   -0.30    1.80
   4   1 -27   -1.70    1.00
  -4  -1  27   -0.40    1.70
   3   1 -27    0.40    1.00
   2   1 -27   -0.60    0.90
   1   1 -27    6.90    1.20
   0   1 -27    0.30    0.90
  -1   1 -27    1.80    1.00
  -1   1 -27    2.10    1.60
  -2   1 -27    2.70    1.10
  -2   1 -27    1.30    1.80
  -3   1 -27    0.80    1.20
  -3   1 -27    0.60    1.40
   3  -1  27    1.20    1.70
  -4   1 -27   -1.20    1.90
  -4   1 -27    1.50    1.40
   4  -1  27    1.10    1.40
  -5   1 -27   -0.50    1.40
   5  -1  27    2.60    1.70
  -6   1 -27   10.30    1.80
   6  -1  27   17.80    3.10
  -6   0  27    1.60    1.70
  -6   0  27   -2.10    1.90
  -5   0  27   -1.00    1.70
  -5   0  27    1.50    1.70
   4   0 -27   -1.10    1.00
  -4   0  27    1.00    1.60
  -4   0  27    0.80    1.60
   3   0 -27    1.40    1.00
  -3   0  27    3.00    1.70
  -3   0  27   -2.10    2.40
   2   0 -27   -1.50    0.90
  -2   0  27   -0.30    1.30
   1   0 -27    9.20    1.50
  -1   0  27    7.30    1.40
   0   0 -27    1.90    1.00
   0   0  27    1.00    1.30
  -1   0 -27    0.80    1.30
  -1   0 -27   -1.00    1.50
  -2   0 -27    0.90    1.40
  -2   0 -27    2.30    1.80
  -3   0 -27    3.10    1.50
  -4   0 -27    5.50    1.60
   4   0  27    4.20    1.70
  -5   0 -27    8.00    1.70
   5   0  27    7.20    2.00
  -6   0 -27   -1.60    1.50
  -6   1  27    1.10    1.60
  -6   1  27    0.50    1.80
   5  -1 -27   -0.30    1.10
  -5   1  27   -0.50    1.60
  -5   1  27    3.30    1.70
   4  -1 -27    0.60    1.00
  -4   1  27   -0.30    1.40
  -4   1  27    2.40    1.70
   3  -1 -27    0.90    1.00
  -3   1  27    1.60    1.70
  -3   1  27    1.70    1.30
   2  -1 -27    3.10    1.00
  -2   1  27    3.70    1.40
   1  -1 -27    1.80    1.00
  -1   1  27    3.00    1.30
   0  -1 -27   24.90    2.30
   0   1  27   26.40    2.50
  -1  -1 -27   14.20    2.50
  -1  -1 -27    7.10    1.80
   1   1  27    9.10    1.50
  -2  -1 -27    1.80    2.10
   2   1  27    0.30    1.70
  -3  -1 -27    0.90    1.60
   3   1  27   -0.90    1.40
  -4  -1 -27   21.60    2.80
  -5  -1 -27    9.20    1.80
   6  -2 -27   -2.40    1.20
  -6   2  27   -0.10    1.60
  -6   2  27    1.90    1.70
   5  -2 -27   -1.70    1.10
  -5   2  27   -0.90    1.50
  -5   2  27    2.80    1.60
   4  -2 -27    4.40    1.20
  -4   2  27    5.90    1.50
  -4   2  27    6.40    1.60
   3  -2 -27   12.20    1.70
  -3   2  27   12.70    2.10
  -3   2  27   15.90    3.10
   2  -2 -27    9.30    1.50
  -2   2  27    6.60    1.50
   1  -2 -27   -0.90    0.90
  -1   2  27    1.80    1.40
   0  -2 -27   -0.30    1.00
   0   2  27    0.50    1.40
  -1  -2 -27    4.70    1.50
   1   2  27    3.70    1.30
  -2  -2 -27   11.90    2.00
   2   2  27   11.20    1.90
  -3  -2 -27   -0.20    1.70
   3   2  27   -1.80    1.40
  -4  -2 -27   -1.30    1.70
   4   2  27   -0.70    1.50
  -5  -2 -27    6.20    1.80
   5   2  27    8.30    2.30
   6  -3 -27    3.40    1.30
  -6   3  27    4.70    1.60
  -6   3  27    8.00    1.80
   5  -3 -27    2.00    1.20
  -5   3  27    2.10    1.60
  -5   3  27    2.40    1.60
   4  -3 -27    2.40    1.20
  -4   3  27    2.80    1.60
  -4   3  27    1.80    1.40
   3  -3 -27    5.30    1.30
  -3   3  27    7.30    1.90
  -3   3  27    8.50    1.50
   2  -3 -27   19.10    2.00
  -2   3  27   21.70    2.30
   1  -3 -27   16.40    1.80
  -1   3  27   13.20    1.80
   0  -3 -27    0.70    1.10
   0   3  27    1.50    1.20
  -1  -3 -27   50.59    3.80
   1   3  27   50.79    3.80
   2   3  27    1.50    1.40
  -3  -3 -27   -2.50    1.80
   3   3  27   -1.20    1.30
  -4  -3 -27   -2.00    1.80
   4   3  27   -1.20    1.50
   6  -4 -27    4.50    1.40
  -6   4  27    6.10    1.60
  -6   4  27    2.80    1.70
   5  -4 -27   11.80    2.00
  -5   4  27   10.20    1.80
  -5   4  27    8.70    1.70
   4  -4 -27    0.40    1.20
  -4   4  27    0.20    1.60
  -4   4  27    0.60    1.30
   3  -4 -27    1.20    1.20
  -3   4  27   -1.70    1.30
  -3   4  27    0.90    1.70
   2  -4 -27    5.80    1.40
  -2   4  27    6.30    1.60
   1  -4 -27    4.90    1.30
  -1   4  27    5.70    1.40
   0  -4 -27   17.10    2.20
   0   4  27   22.50    2.20
   1   4  27    0.60    1.30
   2   4  27    5.20    1.50
   3   4  27   -2.30    1.40
   5  -5 -27    6.30    1.60
  -5   5  27    4.20    1.80
  -5   5  27    5.30    1.60
   4  -5 -27    7.00    1.60
  -4   5  27    5.40    1.50
  -4   5  27    8.30    1.80
   3  -5 -27    2.60    1.40
  -3   5  27    3.60    1.70
  -3   5  27    3.80    1.40
   2  -5 -27    0.70    1.30
  -2   5  27    0.60    1.40
   1  -5 -27    1.80    1.40
  -1   5  27    3.90    1.40
   0   5  27   12.90    1.80
   1   5  27    0.70    1.50
   2   5  27   15.80    2.30
   4  -6 -27   30.10    3.10
  -4   6  27   27.00    2.90
  -4   6  27   30.20    3.40
   3  -6 -27    1.70    1.60
  -3   6  27    3.30    1.50
  -3   6  27    1.60    1.80
   2  -6 -27   15.50    2.50
  -2   6  27   13.30    2.30
  -1   6  27    0.00    1.40
   0   6  27    1.00    1.40
  -1   6 -28   -0.20    1.30
  -1   6 -28    1.80    2.40
  -2   6 -28   -0.40    2.10
  -2   6 -28    0.80    1.40
   2  -6  28    4.10    1.60
   1   5 -28   -0.70    1.20
   0   5 -28   -1.20    1.20
  -1   5 -28    4.50    2.10
  -1   5 -28    2.20    1.30
  -2   5 -28   15.90    2.30
  -2   5 -28   17.80    2.90
   2  -5  28   15.80    2.80
  -3   5 -28    9.30    1.90
  -3   5 -28    6.30    1.50
   3  -5  28   10.30    1.80
  -4   5 -28    6.00    1.70
   4  -5  28    5.00    1.70
   3   4 -28   -0.40    1.20
   2   4 -28    0.00    1.10
   1   4 -28    1.30    1.10
   0   4 -28   20.60    2.20
  -1   4 -28    1.00    2.00
  -1   4 -28    1.40    1.20
  -2   4 -28    7.50    1.90
  -2   4 -28    6.60    1.50
   2  -4  28    4.20    1.50
  -3   4 -28    6.60    1.80
  -3   4 -28    4.40    1.40
   3  -4  28    8.20    1.60
  -4   4 -28    1.10    1.50
  -4   4 -28    0.60    1.60
   4  -4  28   -1.70    1.50
  -5   4 -28   -0.20    1.60
  -5   4 -28    1.40    1.50
   5  -4  28    1.90    1.60
   4   3 -28    7.20    1.40
   3   3 -28    5.80    1.30
   2   3 -28    1.50    1.10
   1   3 -28    1.00    1.10
   0   3 -28   -0.80    1.10
  -1   3 -28   -0.70    1.90
  -1   3 -28    2.80    1.10
  -2   3 -28    1.40    1.20
  -2   3 -28    0.60    1.70
  -3   3 -28    2.50    1.70
  -3   3 -28   -1.90    1.30
   3  -3  28    0.20    1.40
  -4   3 -28    1.80    1.60
  -4   3 -28    0.90    1.40
   4  -3  28    2.90    1.50
  -5   3 -28    0.70    1.50
   5  -3  28    0.50    1.60
   4   2 -28    1.50    1.20
   3   2 -28   -0.70    1.00
   1   2 -28   -0.30    1.00
   0   2 -28   -1.40    1.00
  -1   2 -28   -0.20    1.10
  -1   2 -28    1.90    1.90
  -2   2 -28    4.30    1.30
  -2   2 -28    4.80    1.70
  -3   2 -28   -1.20    1.60
  -3   2 -28   -0.90    1.30
   3  -2  28    1.20    1.50
  -4   2 -28    2.70    1.60
  -4   2 -28    5.50    1.60
   4  -2  28    3.30    1.50
  -5   2 -28    2.60    1.60
   5  -2  28    7.20    1.80
   5   1 -28   -1.80    1.20
  -5  -1  28    0.80    2.10
  -4  -1  28   -0.10    3.20
   3   1 -28   -1.40    1.00
   2   1 -28    2.00    1.00
   1   1 -28   -1.80    0.90
   0   1 -28    0.30    1.00
  -1   1 -28    3.20    2.40
  -1   1 -28    1.50    1.10
  -2   1 -28    4.50    1.30
  -2   1 -28    8.20    1.80
  -3   1 -28    4.00    1.80
  -3   1 -28    4.50    1.40
  -4   1 -28    4.40    1.70
   4  -1  28    5.80    1.90
  -5   1 -28   -2.10    1.60
   5  -1  28    0.40    1.90
  -5   0  28    2.20    3.00
  -5   0  28    0.90    1.80
  -4   0  28    5.90    2.10
  -4   0  28    5.10    2.40
   3   0 -28    0.20    1.00
  -3   0  28    1.20    2.10
   2   0 -28    1.70    1.00
   1   0 -28    0.60    1.00
   0   0 -28    2.60    1.10
  -1   0 -28    5.70    1.90
  -1   0 -28    3.30    1.10
  -2   0 -28   -0.70    1.10
  -2   0 -28   -1.60    1.70
  -3   0 -28    4.50    1.70
  -3   0 -28    3.60    1.40
  -4   0 -28    6.20    1.70
  -5   0 -28    4.60    1.70
  -6   1  28   -0.40    1.70
  -5   1  28    1.90    1.80
  -5   1  28    2.90    1.80
   4  -1 -28    1.90    1.10
  -4   1  28    3.70    1.80
  -4   1  28    3.40    1.70
   3  -1 -28    1.00    1.00
  -3   1  28    4.90    2.40
  -3   1  28    2.30    1.60
   2  -1 -28    2.80    1.00
  -2   1  28    0.50    1.50
   1  -1 -28   -0.80    1.00
  -1   1  28   -1.30    1.50
   0  -1 -28    3.40    1.10
   0   1  28    6.40    2.00
   1   1  28   -0.10    1.40
  -2  -1 -28   25.50    2.70
  -2  -1 -28   34.80    3.40
   2   1  28   35.80    3.20
  -3  -1 -28   35.40    3.40
  -4  -1 -28   -1.00    1.70
   6  -2 -28    0.60    1.20
  -6   2  28   -0.60    1.80
  -6   2  28    1.60    1.80
   5  -2 -28    5.20    1.30
  -5   2  28    7.50    1.90
  -5   2  28    7.90    2.00
   4  -2 -28    1.80    1.10
  -4   2  28    1.60    1.80
  -4   2  28   -1.20    1.60
   3  -2 -28   -0.40    1.00
  -3   2  28    1.60    1.80
  -3   2  28    0.60    1.50
   2  -2 -28    0.90    1.00
  -2   2  28    3.10    1.40
   1  -2 -28    7.50    1.30
  -1   2  28   13.40    2.00
   0  -2 -28    9.50    1.70
   0   2  28   11.00    1.70
  -1  -2 -28   -1.50    1.20
   1   2  28    0.30    1.30
  -2  -2 -28   18.30    3.00
   2   2  28   17.00    2.30
  -3  -2 -28    4.60    1.90
   3   2  28    1.80    1.60
  -4  -2 -28    7.50    2.00
   4   2  28    7.90    2.30
   5  -3 -28   -0.10    1.20
  -5   3  28    0.90    1.70
  -5   3  28    0.50    1.60
   4  -3 -28   62.19    4.60
  -4   3  28   62.29    4.80
  -4   3  28   64.39    5.10
   3  -3 -28   49.90    3.90
  -3   3  28   57.09    4.10
  -3   3  28   53.79    4.80
   2  -3 -28   10.10    1.70
  -2   3  28    9.30    1.70
   1  -3 -28   46.10    3.60
  -1   3  28   50.99    3.90
   0  -3 -28    2.60    1.30
   0   3  28    0.30    1.40
   1   3  28    1.90    1.40
   2   3  28   -0.10    1.40
  -3  -3 -28    2.70    2.10
   3   3  28    3.60    1.60
   5  -4 -28    7.70    1.50
  -5   4  28    8.70    1.90
  -5   4  28    7.50    1.80
   4  -4 -28    0.20    1.20
  -4   4  28    3.60    1.80
  -4   4  28    3.30    1.60
   3  -4 -28    3.90    1.30
  -3   4  28    6.20    1.90
  -3   4  28    1.70    1.50
   2  -4 -28    0.70    1.30
  -2   4  28    3.20    1.50
   1  -4 -28    2.90    1.30
  -1   4  28    0.40    1.50
   0  -4 -28    0.80    1.40
   0   4  28    2.10    1.30
   1   4  28    3.10    1.40
   2   4  28    4.40    1.70
   4  -5 -28    8.30    1.60
  -4   5  28    8.80    2.00
  -4   5  28    8.60    1.70
   3  -5 -28    2.00    1.50
  -3   5  28   -0.70    1.50
  -3   5  28    2.90    1.90
   2  -5 -28   29.10    3.00
  -2   5  28   34.30    3.10
   1  -5 -28    1.20    1.50
  -1   5  28    0.80    1.50
   0   5  28   16.00    2.30
   0   5 -29    0.30    1.30
  -1   5 -29    1.30    1.40
  -1   5 -29    1.40    2.30
  -2   5 -29    2.40    2.00
  -2   5 -29    2.40    1.40
  -3   5 -29   -0.10    2.30
  -3   5 -29    0.30    1.50
   2   4 -29    1.20    1.20
   1   4 -29   -0.20    1.20
   0   4 -29    2.80    1.30
  -1   4 -29    2.30    1.30
  -1   4 -29    3.20    2.30
  -2   4 -29   -1.00    1.40
  -2   4 -29   -1.30    2.00
  -3   4 -29    4.40    1.60
  -3   4 -29   -0.60    1.80
   3  -4  29    1.20    1.70
  -4   4 -29    2.70    1.70
  -4   4 -29    1.00    1.70
   4  -4  29    1.80    1.70
   2   3 -29    6.00    1.30
   1   3 -29   -0.10    1.20
   0   3 -29    1.00    1.20
  -1   3 -29   -1.40    1.20
  -1   3 -29   -1.50    2.10
  -2   3 -29    1.00    1.30
  -2   3 -29   -2.40    1.90
  -3   3 -29    2.50    1.50
  -3   3 -29    1.40    1.80
  -4   3 -29    4.30    1.70
  -4   3 -29    5.20    1.80
   4  -3  29    2.00    1.70
   4   2 -29   -2.50    1.20
   3   2 -29   -1.80    1.10
   2   2 -29   -0.70    1.10
   1   2 -29   -0.70    1.10
   0   2 -29    1.00    1.10
  -1   2 -29    3.00    2.20
  -1   2 -29    0.10    1.20
  -2   2 -29   -0.30    1.20
  -2   2 -29    0.20    1.80
  -3   2 -29   -0.90    1.50
  -3   2 -29    1.80    1.80
  -4   2 -29    0.30    1.70
  -4   2 -29    3.70    1.80
   4   1 -29   -0.70    1.10
   3   1 -29   -0.90    1.10
   2   1 -29    6.80    1.30
   1   1 -29   -0.10    1.00
   0   1 -29   10.70    1.70
  -1   1 -29   -2.00    1.10
  -1   1 -29    0.70    2.70
  -2   1 -29    6.20    1.90
  -2   1 -29    3.50    1.30
  -3   1 -29    1.80    1.80
  -3   1 -29    3.10    1.50
  -4   1 -29    4.80    1.90
   5   0 -29   -2.30    1.10
  -5   0  29    1.50    1.90
   4   0 -29   -0.80    1.10
  -4   0  29   -1.50    2.90
   3   0 -29    0.00    1.00
   2   0 -29    0.00    1.10
   1   0 -29    1.40    1.10
   0   0 -29    2.60    1.10
  -1   0 -29    2.80    1.20
  -2   0 -29   14.60    2.00
  -3   0 -29    6.30    1.80
  -4   0 -29    7.10    1.90
  -5   1  29    0.30    2.00
  -5   1  29    3.10    2.00
   4  -1 -29    1.20    1.20
  -4   1  29    7.90    1.90
  -4   1  29    2.90    2.00
  -3   1  29    1.50    1.80
   2  -1 -29    4.60    1.20
  -2   1  29    8.40    1.80
   1  -1 -29    2.70    1.20
  -1   1  29    4.70    1.60
   0  -1 -29   -1.40    1.10
   0   1  29    2.30    1.70
  -1  -1 -29    5.80    1.40
  -2  -1 -29   12.50    2.10
  -3  -1 -29    6.50    2.10
  -4  -1 -29   18.70    3.00
   5  -2 -29   -0.10    1.10
  -5   2  29   -0.10    1.90
  -5   2  29    1.70    1.90
   4  -2 -29    1.20    1.10
  -4   2  29    1.70    1.80
  -4   2  29    2.50    1.90
   3  -2 -29   -1.40    1.10
  -3   2  29    4.20    1.70
   2  -2 -29   21.60    2.30
  -2   2  29   27.80    2.70
   1  -2 -29    9.70    1.80
  -1   2  29   11.70    1.80
   0  -2 -29   19.50    2.30
   0   2  29   23.50    2.70
  -1  -2 -29   34.10    3.20
   1   2  29   46.30    3.50
   2   2  29   -1.60    1.50
  -3  -2 -29   19.00    2.60
  -5   3  29   25.40    3.40
   4  -3 -29    5.10    1.40
  -4   3  29    4.50    2.00
  -4   3  29    7.20    1.80
   3  -3 -29    7.50    1.40
  -3   3  29    4.40    1.70
   2  -3 -29   13.50    1.90
  -2   3  29   13.30    2.00
   1  -3 -29   -1.10    1.20
  -1   3  29    2.90    1.60
   0  -3 -29   -1.40    1.30
   0   3  29   -0.60    1.50
   1   3  29    5.90    1.60
   2   3  29    1.00    1.50
   4  -4 -29    0.00    1.30
  -4   4  29   -2.10    1.70
  -4   4  29    0.00    1.90
   3  -4 -29    0.40    1.30
  -3   4  29    2.90    1.60
   2  -4 -29    1.80    1.30
  -2   4  29   -1.20    1.50
   1  -4 -29    1.00    1.40
  -1   4  29    1.80    1.60
   0   4  29    0.50    1.60
   1   4  29    0.70    1.60
   2  -5 -29    1.30    1.60
  -2   5  29    5.20    1.60
   0   4 -30    1.50    1.30
  -1   4 -30   -2.00    1.40
  -2   4 -30    2.40    1.50
  -2   4 -30   -0.30    2.30
   1   3 -30   -0.20    1.20
   0   3 -30   -1.80    1.20
  -1   3 -30    0.60    1.30
  -2   3 -30    1.40    1.50
  -2   3 -30   -1.70    2.20
  -3   3 -30    1.80    1.60
  -3   3 -30    0.40    2.00
   2   2 -30    0.30    1.20
   1   2 -30   -1.70    1.10
   0   2 -30    0.90    1.20
  -1   2 -30   -1.60    1.30
  -2   2 -30    7.00    1.50
  -2   2 -30    2.80    2.10
  -3   2 -30    1.90    1.90
   2   1 -30   -1.90    1.10
   1   1 -30   -1.40    1.10
   0   1 -30    2.70    1.30
  -2   1 -30    0.10    1.40
  -2   1 -30    3.90    2.00
  -3   1 -30    6.80    2.10
  -3   1 -30    3.10    1.70
   4   0 -30    0.30    1.20
   3   0 -30   -2.20    1.10
   2   0 -30   17.00    1.90
   1   0 -30   -2.00    1.10
   0   0 -30   11.40    1.80
  -1   0 -30    5.10    1.40
  -2   0 -30    4.70    2.10
  -2   0 -30    2.50    1.50
  -3   0 -30    6.80    2.10
   4  -1 -30   -0.20    1.10
   2  -1 -30    0.30    1.10
   1  -1 -30   -1.00    1.20
   0  -1 -30   -2.10    1.20
  -1  -1 -30   -0.80    1.30
  -3  -1 -30    3.50    2.20
   4  -2 -30   12.90    1.90
  -4   2  30   11.70    2.30
   3  -2 -30    2.50    1.30
  -3   2  30    6.60    2.00
   2  -2 -30   -1.30    1.20
  -2   2  30    0.00    1.80
   1  -2 -30   15.80    2.10
  -1   2  30   15.90    2.60
   0   2  30    7.70    1.90
  -1  -2 -30   -2.00    1.50
   1   2  30    0.70    2.00
   3  -3 -30    1.40    1.30
  -3   3  30    0.40    1.90
   2  -3 -30   -0.60    1.30
  -2   3  30   -0.60    1.70
   1  -3 -30   -1.20    1.30
  -1   3  30    1.60    1.70
   0  -3 -30    1.00    1.40
   0   3  30   -2.20    1.80
   1   3  30   -1.20    1.80
   0   2 -31    2.00    1.30
  -1   2 -31   -2.60    1.30
  -2   2 -31    0.20    2.50
  -2   2 -31    1.20    1.50
   2   1 -31   -2.40    1.20
   1   1 -31   -0.30    1.30
   0   1 -31    1.60    1.30
  -1   1 -31    1.40    1.40
  -2   1 -31   18.60    3.30
  -2   1 -31   16.70    2.40
   2   0 -31    0.20    1.20
   0   0 -31    0.70    1.30
  -1   0 -31    0.20    1.50
  -2   0 -31    4.20    1.60
   2  -1 -31    0.80    1.30
   1  -1 -31   -2.30    1.30
   0  -1 -31   -0.90    1.30
  -1  -1 -31    4.70    1.60
   2  -2 -31   -1.10    1.30
  -2   2  31   -0.10    2.10
   1  -2 -31   -1.80    1.30
  -1   2  31   -0.80    2.50
   0  -2 -31   -2.50    1.40

_computing_structure_solution     'SHELXT 2014/4 (Sheldrick, 2014)'
;
_shelx_hkl_checksum              82244
loop_
_space_group_symop_operation_xyz
'x, y, z'
'-x, -y, -z'
loop_
_atom_site_label
_atom_site_type_symbol
_atom_site_fract_x
_atom_site_fract_y
_atom_site_fract_z
_atom_site_U_iso_or_equiv
_atom_site_adp_type
_atom_site_occupancy
_atom_site_site_symmetry_order
_atom_site_calc_flag
_atom_site_refinement_flags_posn
_atom_site_refinement_flags_adp
_atom_site_refinement_flags_occupancy
_atom_site_disorder_assembly
_atom_site_disorder_group
F001 F 0.0685(3) 0.6963(2) 0.69386(10) 0.0271(3) Uani 1 1 d . . . . .
F002 F 0.2102(3) 1.1555(3) 0.90238(10) 0.0344(4) Uani 1 1 d . . . . .
F003 F 0.2867(3) 1.4675(3) 0.80466(12) 0.0351(4) Uani 1 1 d . . . . .
F004 F 0.1008(4) 0.7717(3) 0.84655(11) 0.0358(4) Uani 1 1 d . . . . .
O005 O 0.2990(3) 0.8962(3) 0.56792(10) 0.0196(3) Uani 1 1 d . . . . .
O006 O 0.1071(3) 0.7366(4) 0.46658(12) 0.0296(5) Uani 1 1 d . . . . .
C007 C 0.4644(3) 0.3669(3) 0.43497(11) 0.0126(3) Uani 1 1 d . . . . .
C008 C 0.1684(3) 1.0456(3) 0.66907(12) 0.0153(3) Uani 1 1 d . . . . .
C009 C 0.2491(3) 0.7594(3) 0.51122(12) 0.0146(3) Uani 1 1 d . . . . .
C00A C 0.3863(3) 0.6326(3) 0.50829(11) 0.0124(3) Uani 1 1 d . . . . .
C00B C 0.3538(3) 0.5009(3) 0.44559(11) 0.0129(3) Uani 1 1 d . . . . .
H00B H 0.2523 0.5014 0.4083 0.016 Uiso 1 1 calc R U . . .
C00C C 0.3761(3) 0.1421(3) 0.30892(12) 0.0169(3) Uani 1 1 d . . . . .
C00D C 0.4187(3) 0.2418(3) 0.36758(12) 0.0149(3) Uani 1 1 d . . . . .
C00E C 0.1272(3) 0.8883(3) 0.71995(13) 0.0180(3) Uani 1 1 d . . . . .
C00F C 0.3366(3) 0.0057(4) 0.24490(13) 0.0195(4) Uani 1 1 d . . . . .
O00G O 0.2531(5) -0.4280(4) 0.07120(15) 0.0467(7) Uani 1 1 d . . . . .
C00H C 0.1962(4) 1.1207(4) 0.82658(14) 0.0225(4) Uani 1 1 d . . . . .
C00I C 0.2209(3) 1.2428(3) 0.69774(13) 0.0188(3) Uani 1 1 d . . . . .
H00I H 0.2476 1.3527 0.6637 0.023 Uiso 1 1 calc R U . . .
C00J C 0.1420(4) 0.9241(4) 0.79825(14) 0.0214(4) Uani 1 1 d . . . . .
C00K C 0.1531(3) 1.0000(4) 0.58438(12) 0.0178(3) Uani 1 1 d . . . . .
H00A H 0.0115 0.9131 0.5698 0.021 Uiso 1 1 calc R U . . .
H00C H 0.1873 1.1267 0.5553 0.021 Uiso 1 1 calc R U . . .
C00L C 0.2338(4) 1.2777(4) 0.77634(15) 0.0223(4) Uani 1 1 d . . . . .
C00M C 0.3449(4) 0.0678(5) 0.17011(15) 0.0294(5) Uani 1 1 d . . . . .
H00M H 0.3710 0.2061 0.1590 0.035 Uiso 1 1 calc R U . . .
C00N C 0.2935(4) -0.2034(4) 0.25946(17) 0.0268(5) Uani 1 1 d . . . . .
H00N H 0.2840 -0.2470 0.3110 0.032 Uiso 1 1 calc R U . . .
C00O C 0.2770(5) -0.2797(5) 0.12577(17) 0.0302(5) Uani 1 1 d . . . . .
C00P C 0.3143(5) -0.0767(5) 0.11010(16) 0.0317(6) Uani 1 1 d . . . . .
H00P H 0.3192 -0.0349 0.0584 0.038 Uiso 1 1 calc R U . . .
C00Q C 0.2653(5) -0.3441(5) 0.20098(17) 0.0296(5) Uani 1 1 d . . . . .
H00Q H 0.2384 -0.4827 0.2119 0.036 Uiso 1 1 calc R U . . .
C00R C 0.2655(12) -0.3704(9) -0.0060(2) 0.078(2) Uani 1 1 d . . . . .
H00D H 0.1591 -0.3103 -0.0174 0.116 Uiso 1 1 calc R U . . .
H00E H 0.2445 -0.4896 -0.0391 0.116 Uiso 1 1 calc R U . . .
H00F H 0.4017 -0.2713 -0.0151 0.116 Uiso 1 1 calc R U . . .
loop_
_atom_site_aniso_label
_atom_site_aniso_U_11
_atom_site_aniso_U_22
_atom_site_aniso_U_33
_atom_site_aniso_U_23
_atom_site_aniso_U_13
_atom_site_aniso_U_12
F001 0.0347(8) 0.0165(6) 0.0291(8) -0.0040(5) -0.0046(6) 0.0075(6)
F002 0.0365(9) 0.0464(11) 0.0183(7) -0.0113(7) -0.0030(6) 0.0118(8)
F003 0.0418(10) 0.0235(8) 0.0378(10) -0.0159(7) -0.0010(8) 0.0085(7)
F004 0.0460(11) 0.0332(9) 0.0251(8) 0.0069(7) 0.0011(7) 0.0089(8)
O005 0.0178(6) 0.0257(7) 0.0217(7) -0.0088(6) -0.0050(5) 0.0163(6)
O006 0.0336(10) 0.0390(11) 0.0281(9) -0.0145(8) -0.0164(7) 0.0293(9)
C007 0.0121(6) 0.0132(6) 0.0140(7) -0.0019(5) -0.0010(5) 0.0065(5)
C008 0.0139(7) 0.0173(7) 0.0172(7) -0.0036(6) -0.0012(5) 0.0088(6)
C009 0.0149(7) 0.0162(7) 0.0164(7) -0.0013(5) -0.0017(5) 0.0101(6)
C00A 0.0119(6) 0.0134(6) 0.0141(7) -0.0011(5) -0.0013(5) 0.0073(5)
C00B 0.0122(6) 0.0148(7) 0.0141(7) -0.0017(5) -0.0020(5) 0.0078(5)
C00C 0.0153(7) 0.0208(8) 0.0167(7) -0.0055(6) -0.0028(6) 0.0090(6)
C00D 0.0140(7) 0.0167(7) 0.0160(7) -0.0043(6) -0.0022(5) 0.0079(6)
C00E 0.0168(8) 0.0164(8) 0.0208(8) -0.0029(6) -0.0018(6) 0.0058(6)
C00F 0.0140(7) 0.0247(9) 0.0192(8) -0.0095(7) -0.0024(6) 0.0060(7)
O00G 0.0674(19) 0.0350(12) 0.0264(10) -0.0160(9) 0.0051(11) 0.0026(12)
C00H 0.0187(9) 0.0303(11) 0.0175(8) -0.0081(7) -0.0016(7) 0.0074(8)
C00I 0.0193(8) 0.0169(8) 0.0220(9) -0.0038(6) 0.0011(7) 0.0084(7)
C00J 0.0205(9) 0.0225(9) 0.0197(9) 0.0000(7) -0.0003(7) 0.0052(7)
C00K 0.0181(8) 0.0244(9) 0.0174(8) -0.0039(6) -0.0027(6) 0.0159(7)
C00L 0.0196(9) 0.0221(9) 0.0239(10) -0.0092(7) -0.0008(7) 0.0058(7)
C00M 0.0271(11) 0.0406(15) 0.0177(9) -0.0084(9) -0.0044(8) 0.0080(10)
C00N 0.0248(10) 0.0248(10) 0.0301(12) -0.0093(9) -0.0005(9) 0.0081(8)
C00O 0.0319(12) 0.0294(12) 0.0234(11) -0.0095(9) -0.0002(9) 0.0029(10)
C00P 0.0366(14) 0.0339(13) 0.0189(10) -0.0060(9) -0.0011(9) 0.0045(11)
C00Q 0.0339(13) 0.0258(11) 0.0258(11) -0.0061(9) 0.0006(9) 0.0058(10)
C00R 0.115(5) 0.061(3) 0.0245(16) -0.0193(17) 0.014(2) -0.013(3)
loop_
_atom_type_symbol
_atom_type_description
_atom_type_scat_dispersion_real
_atom_type_scat_dispersion_imag
_atom_type_scat_source
C C 0.0033 0.0016 'International Tables Vol C Tables 4.2.6.8 and 6.1.1.4'
H H 0.0000 0.0000 'International Tables Vol C Tables 4.2.6.8 and 6.1.1.4'
O O 0.0106 0.0060 'International Tables Vol C Tables 4.2.6.8 and 6.1.1.4'
F F 0.0171 0.0103 'International Tables Vol C Tables 4.2.6.8 and 6.1.1.4'
loop_
_geom_angle_atom_site_label_1
_geom_angle_atom_site_label_2
_geom_angle_atom_site_label_3
_geom_angle
_geom_angle_site_symmetry_1
_geom_angle_site_symmetry_3
_geom_angle_publ_flag
C009 O005 C00K 116.95(16) . . ?
C00B C007 C00A 117.56(16) . 2_666 ?
C00B C007 C00D 117.43(16) . . ?
C00A C007 C00D 125.01(16) 2_666 . ?
C00E C008 C00I 119.0(2) . . ?
C00E C008 C00K 119.41(19) . . ?
C00I C008 C00K 121.6(2) . . ?
O006 C009 O005 124.15(18) . . ?
O006 C009 C00A 122.77(19) . . ?
O005 C009 C00A 113.07(16) . . ?
C00B C00A C007 119.52(16) . 2_666 ?
C00B C00A C009 115.35(16) . . ?
C007 C00A C009 125.07(16) 2_666 . ?
C00A C00B C007 122.91(17) . . ?
C00A C00B H00B 118.5 . . ?
C007 C00B H00B 118.5 . . ?
C00D C00C C00F 172.2(2) . . ?
C00C C00D C007 177.0(2) . . ?
F001 C00E C00J 118.6(2) . . ?
F001 C00E C008 120.2(2) . . ?
C00J C00E C008 121.2(2) . . ?
C00M C00F C00N 118.9(2) . . ?
C00M C00F C00C 123.1(2) . . ?
C00N C00F C00C 118.0(2) . . ?
C00O O00G C00R 117.4(4) . . ?
F002 C00H C00L 120.8(2) . . ?
F002 C00H C00J 119.7(3) . . ?
C00L C00H C00J 119.5(2) . . ?
C00L C00I C008 119.5(2) . . ?
C00L C00I H00I 120.2 . . ?
C008 C00I H00I 120.2 . . ?
F004 C00J C00E 120.6(2) . . ?
F004 C00J C00H 119.7(2) . . ?
C00E C00J C00H 119.7(2) . . ?
O005 C00K C008 106.98(16) . . ?
O005 C00K H00A 110.3 . . ?
C008 C00K H00A 110.3 . . ?
O005 C00K H00C 110.3 . . ?
C008 C00K H00C 110.3 . . ?
H00A C00K H00C 108.6 . . ?
F003 C00L C00H 118.8(2) . . ?
F003 C00L C00I 120.1(2) . . ?
C00H C00L C00I 121.1(2) . . ?
C00F C00M C00P 119.2(3) . . ?
C00F C00M H00M 120.4 . . ?
C00P C00M H00M 120.4 . . ?
C00Q C00N C00F 121.9(3) . . ?
C00Q C00N H00N 119.1 . . ?
C00F C00N H00N 119.1 . . ?
O00G C00O C00Q 115.1(3) . . ?
O00G C00O C00P 124.5(3) . . ?
C00Q C00O C00P 120.4(3) . . ?
C00O C00P C00M 120.8(3) . . ?
C00O C00P H00P 119.6 . . ?
C00M C00P H00P 119.6 . . ?
C00N C00Q C00O 118.8(3) . . ?
C00N C00Q H00Q 120.6 . . ?
C00O C00Q H00Q 120.6 . . ?
O00G C00R H00D 109.5 . . ?
O00G C00R H00E 109.5 . . ?
H00D C00R H00E 109.5 . . ?
O00G C00R H00F 109.5 . . ?
H00D C00R H00F 109.5 . . ?
H00E C00R H00F 109.5 . . ?
loop_
_geom_bond_atom_site_label_1
_geom_bond_atom_site_label_2
_geom_bond_distance
_geom_bond_site_symmetry_2
_geom_bond_publ_flag
F001 C00E 1.343(3) . ?
F002 C00H 1.339(3) . ?
F003 C00L 1.345(3) . ?
F004 C00J 1.329(3) . ?
O005 C009 1.329(3) . ?
O005 C00K 1.453(2) . ?
O006 C009 1.209(3) . ?
C007 C00B 1.405(2) . ?
C007 C00A 1.417(3) 2_666 ?
C007 C00D 1.426(3) . ?
C008 C00E 1.384(3) . ?
C008 C00I 1.393(3) . ?
C008 C00K 1.504(3) . ?
C009 C00A 1.500(2) . ?
C00A C00B 1.390(3) . ?
C00A C007 1.417(3) 2_666 ?
C00B H00B 0.9500 . ?
C00C C00D 1.209(3) . ?
C00C C00F 1.425(3) . ?
C00E C00J 1.383(3) . ?
C00F C00M 1.378(4) . ?
C00F C00N 1.424(4) . ?
O00G C00O 1.369(3) . ?
O00G C00R 1.407(6) . ?
C00H C00L 1.376(4) . ?
C00H C00J 1.387(4) . ?
C00I C00L 1.387(3) . ?
C00I H00I 0.9500 . ?
C00K H00A 0.9900 . ?
C00K H00C 0.9900 . ?
C00M C00P 1.412(4) . ?
C00M H00M 0.9500 . ?
C00N C00Q 1.377(4) . ?
C00N H00N 0.9500 . ?
C00O C00Q 1.390(4) . ?
C00O C00P 1.393(5) . ?
C00P H00P 0.9500 . ?
C00Q H00Q 0.9500 . ?
C00R H00D 0.9800 . ?
C00R H00E 0.9800 . ?
C00R H00F 0.9800 . ?
