#------------------------------------------------------------------------------
#$Date: 2020-07-04 04:45:48 +0300 (Sat, 04 Jul 2020) $
#$Revision: 253723 $
#$URL: file:///home/coder/svn-repositories/cod/cif/4/00/35/4003575.cif $
#------------------------------------------------------------------------------
#
# This file is available in the Crystallography Open Database (COD),
# http://www.crystallography.net/
#
# All data on this site have been placed in the public domain by the
# contributors.
#
data_4003575
loop_
_publ_author_name
'Noculak, Agnieszka'
'Morad, Viktoriia'
'McCall, Kyle M.'
'Yakunin, Sergii'
'Shynkarenko, Yevhen'
'W\"orle, Michael'
'Kovalenko, Maksym V.'
_publ_section_title
;
 Bright Blue and Green Luminescence of Sb(III) in Double Perovskite
 Cs<sub>2</sub>MInCl<sub>6</sub> (M = Na, K) Matrices.
;
_journal_issue                   12
_journal_name_full
'Chemistry of materials : a publication of the American Chemical Society'
_journal_page_first              5118
_journal_page_last               5124
_journal_paper_doi               10.1021/acs.chemmater.0c01004
_journal_volume                  32
_journal_year                    2020
_chemical_formula_moiety         '0.5(Cl12 Cs4 In2 Na2)'
_chemical_formula_sum            'Cl6 Cs2 In Na'
_chemical_formula_weight         616.33
_space_group_crystal_system      cubic
_space_group_IT_number           225
_space_group_name_Hall           '-F 4 2 3'
_space_group_name_H-M_alt        'F m -3 m'
_atom_sites_solution_primary     dual
_audit_creation_date             2019-07-04
_audit_creation_method
;
Olex2 1.2
(compiled 2018.05.29 svn.r3508 for OlexSys, GUI svn.r5506)
;
_cell_angle_alpha                90
_cell_angle_beta                 90
_cell_angle_gamma                90
_cell_formula_units_Z            4
_cell_length_a                   10.51410(10)
_cell_length_b                   10.51410(10)
_cell_length_c                   10.51410(10)
_cell_measurement_reflns_used    5082
_cell_measurement_temperature    200.00(10)
_cell_measurement_theta_max      32.3160
_cell_measurement_theta_min      2.7400
_cell_volume                     1162.295(19)
_computing_cell_refinement       'CrysAlisPro 1.171.40.16b (Rigaku OD, 2018)'
_computing_data_collection       'CrysAlisPro 1.171.40.16b (Rigaku OD, 2018)'
_computing_data_reduction        'CrysAlisPro 1.171.40.16b (Rigaku OD, 2018)'
_computing_molecular_graphics    'Olex2 (Dolomanov et al., 2009)'
_computing_publication_material  'Olex2 (Dolomanov et al., 2009)'
_computing_structure_refinement  'XL (Sheldrick, 2008)'
_computing_structure_solution    'XS (Sheldrick, 2008)'
_diffrn_ambient_environment      N~2~
_diffrn_ambient_temperature      200.00(10)
_diffrn_detector                 'CCD plate'
_diffrn_detector_area_resol_mean 16.0839
_diffrn_detector_type            Sapphire3
_diffrn_measured_fraction_theta_full 1.000
_diffrn_measured_fraction_theta_max 1.000
_diffrn_measurement_details
;
List of Runs (angles in degrees, time in seconds):

  # Type    Start    End  Width  t~exp~   \w     \q     \k     \f   Frames
--------------------------------------------------------------------------
  1  \w    -88.00 -22.00   1.00   12.50    --  -25.15 -19.00  90.00   66
  2  \w      7.00  82.00   1.00   12.50    --   25.62  38.00 -60.00   75
  3  \w    -25.00  65.00   1.00   12.50    --   25.62 -99.00 -60.00   90
  4  \w     -3.00  95.00   1.00   12.50    --   25.62  77.00  60.00   98
  5  \w    -25.00  66.00   1.00   12.50    --   25.62 -99.00 150.00   91
  6  \w     -3.00  93.00   1.00   12.50    --   25.62  77.00-180.00   96
  7  \w     37.00  83.00   1.00   12.50    --   25.62 179.00 150.00   46
  8  \w     -3.00  88.00   1.00   12.50    --   25.62  77.00 -60.00   91
  9  \w    -12.00  65.00   1.00   12.50    --   25.62 -99.00  30.00   77
 10  \w    -25.00  64.00   1.00   12.50    --   25.62 -19.00 120.00   89
;
_diffrn_measurement_device       'four-circle diffractometer'
_diffrn_measurement_device_type  'Xcalibur, Sapphire3'
_diffrn_measurement_method       '\w scans'
_diffrn_orient_matrix_type
'CrysAlisPro convention (1999,Acta A55,543-557)'
_diffrn_orient_matrix_UB_11      -0.0015701000
_diffrn_orient_matrix_UB_12      -0.0454534000
_diffrn_orient_matrix_UB_13      -0.0498442000
_diffrn_orient_matrix_UB_21      0.0298035000
_diffrn_orient_matrix_UB_22      0.0442884000
_diffrn_orient_matrix_UB_23      -0.0412665000
_diffrn_orient_matrix_UB_31      0.0605009000
_diffrn_orient_matrix_UB_32      -0.0229234000
_diffrn_orient_matrix_UB_33      0.0190406000
_diffrn_radiation_monochromator  graphite
_diffrn_radiation_probe          x-ray
_diffrn_radiation_type           MoK\a
_diffrn_radiation_wavelength     0.71073
_diffrn_reflns_av_R_equivalents  0.0506
_diffrn_reflns_av_unetI/netI     0.0102
_diffrn_reflns_Laue_measured_fraction_full 1.000
_diffrn_reflns_Laue_measured_fraction_max 1.000
_diffrn_reflns_limit_h_max       15
_diffrn_reflns_limit_h_min       -15
_diffrn_reflns_limit_k_max       15
_diffrn_reflns_limit_k_min       -15
_diffrn_reflns_limit_l_max       15
_diffrn_reflns_limit_l_min       -15
_diffrn_reflns_number            6351
_diffrn_reflns_point_group_measured_fraction_full 1.000
_diffrn_reflns_point_group_measured_fraction_max 1.000
_diffrn_reflns_theta_full        25.242
_diffrn_reflns_theta_max         32.376
_diffrn_reflns_theta_min         3.356
_diffrn_source                   'fine-focus sealed X-ray tube'
_diffrn_source_type              'Enhance (Mo) X-ray Source'
_exptl_absorpt_coefficient_mu    9.558
_exptl_absorpt_correction_T_max  0.12843
_exptl_absorpt_correction_T_min  0.09668
_exptl_absorpt_correction_type   multi-scan
_exptl_absorpt_process_details
;
CrysAlisPro 1.171.40.16b (Rigaku Oxford Diffraction, 2018)
Spherical absorption correction
 using equivalent radius and absorption coefficient.
Empirical absorption correction using spherical harmonics,
 implemented in SCALE3 ABSPACK scaling algorithm.
;
_exptl_crystal_colour            colourless
_exptl_crystal_colour_primary    colourless
_exptl_crystal_density_diffrn    3.522
_exptl_crystal_description       prism
_exptl_crystal_F_000             1088
_exptl_crystal_size_max          0.32
_exptl_crystal_size_mid          0.218
_exptl_crystal_size_min          0.2
_refine_diff_density_max         0.401
_refine_diff_density_min         -1.843
_refine_diff_density_rms         0.240
_refine_ls_extinction_coef       0.135(6)
_refine_ls_extinction_expression Fc^*^=kFc[1+0.001xFc^2^\l^3^/sin(2\q)]^-1/4^
_refine_ls_extinction_method     'SHELXL-2018/3 (Sheldrick 2018)'
_refine_ls_goodness_of_fit_ref   1.285
_refine_ls_hydrogen_treatment    undef
_refine_ls_matrix_type           full
_refine_ls_number_parameters     8
_refine_ls_number_reflns         143
_refine_ls_number_restraints     0
_refine_ls_restrained_S_all      1.285
_refine_ls_R_factor_all          0.0224
_refine_ls_R_factor_gt           0.0224
_refine_ls_shift/su_max          0.000
_refine_ls_shift/su_mean         0.000
_refine_ls_structure_factor_coef Fsqd
_refine_ls_weighting_details
'w=1/[\s^2^(Fo^2^)+(0.0310P)^2^] where P=(Fo^2^+2Fc^2^)/3'
_refine_ls_weighting_scheme      calc
_refine_ls_wR_factor_gt          0.0442
_refine_ls_wR_factor_ref         0.0442
_reflns_Friedel_coverage         0.000
_reflns_number_gt                143
_reflns_number_total             143
_reflns_threshold_expression     'I > 2\s(I)'
_cod_data_source_file            cm0c01004_si_001.cif
_cod_data_source_block           1
_cod_depositor_comments          'Adding full bibliography for 4003575.cif.'
_cod_original_cell_volume        1162.29(3)
_cod_database_code               4003575
_shelx_shelxl_version_number     2018/3
_chemical_oxdiff_formula         Cs2Na1In1Cl6
_shelx_space_group_comment
;
The symmetry employed for this shelxl refinement is uniquely defined
by the following loop, which should always be used as a source of
symmetry information in preference to the above space-group names.
They are only intended as comments.
;
_shelx_estimated_absorpt_t_max   0.251
_shelx_estimated_absorpt_t_min   0.150
_reflns_odcompleteness_completeness 100.00
_reflns_odcompleteness_iscentric 1
_reflns_odcompleteness_theta     30.44
_olex2_refinement_description
;
;
_shelx_res_file
;
TITL 1_a.res in Fm-3m
    1.res
    created by SHELXL-2018/3 at 18:27:04 on 04-Jul-2019
REM Old TITL 1 in Fm-3m
REM SHELXT solution in Fm-3m: R1 0.154, Rweak 0.040, Alpha 0.100
REM <I/s> 0.000 for 0 systematic absences, Orientation as input
REM Formula found by SHELXT: Cl2 Cs
CELL 0.71073 10.5141 10.5141 10.5141 90 90 90
ZERR 4 0.0001 0.0001 0.0001 0 0 0
LATT 4
SYMM -X,-Y,+Z
SYMM -X,+Y,-Z
SYMM +X,-Y,-Z
SYMM +Z,+X,+Y
SYMM +Z,-X,-Y
SYMM -Z,-X,+Y
SYMM -Z,+X,-Y
SYMM +Y,+Z,+X
SYMM -Y,+Z,-X
SYMM +Y,-Z,-X
SYMM -Y,-Z,+X
SYMM +Y,+X,-Z
SYMM -Y,-X,-Z
SYMM +Y,-X,+Z
SYMM -Y,+X,+Z
SYMM +X,+Z,-Y
SYMM -X,+Z,+Y
SYMM -X,-Z,-Y
SYMM +X,-Z,+Y
SYMM +Z,+Y,-X
SYMM +Z,-Y,+X
SYMM -Z,+Y,+X
SYMM -Z,-Y,-X
SFAC Cl Cs In Na
UNIT 24 8 4 4

L.S. 4
PLAN  20
SIZE 0.2 0.218 0.32
list 4
fmap 2
acta
REM <olex2.extras>
REM <HklSrc "%.\\1.hkl">
REM </olex2.extras>

WGHT    0.031000
EXTI    0.134725
FVAR       3.97323
IN01  3    0.500000    0.500000    0.500000    10.02083    0.01148    0.01148 =
         0.01148    0.00000    0.00000    0.00000
CS02  2    0.250000    0.250000    0.250000    10.04167    0.02109    0.02109 =
         0.02109    0.00000    0.00000    0.00000
CL03  1    0.261411    0.500000    0.500000    10.12500    0.01225    0.02773 =
         0.02773    0.00000    0.00000    0.00000
NA1   4    0.000000    0.500000    0.500000    10.02083    0.01343    0.01343 =
         0.01343    0.00000    0.00000    0.00000
HKLF 4




REM  1_a.res in Fm-3m
REM wR2 = 0.0442, GooF = S = 1.285, Restrained GooF = 1.285 for all data
REM R1 = 0.0224 for 143 Fo > 4sig(Fo) and 0.0224 for all 143 data
REM 8 parameters refined using 0 restraints

END

WGHT      0.0310      0.0000

REM Highest difference peak  0.401,  deepest hole -1.843,  1-sigma level  0.240
Q1    1   0.2482  0.1719  0.1719  10.50000  0.05    0.40
Q2    1   0.2466  0.3018  0.1527  11.00000  0.05    0.38
Q3    1   0.4401  0.5599  0.5599  10.16667  0.05    0.37
Q4    1   0.0000  0.3801  0.5000  10.12500  0.05    0.37
Q5    1   0.2500  0.1331  0.2500  10.25000  0.05    0.36
Q6    1   0.2005  0.5000  0.3264  10.50000  0.05    0.34
Q7    1   0.5000  0.5495  0.5979  10.50000  0.05    0.33
Q8    1   0.3797  0.5000  0.5000  10.12500  0.05    0.33
Q9    1   0.2879  0.5000  0.6737  10.50000  0.05    0.33
Q10   1   0.5000  0.4194  0.5806  10.25000  0.05    0.29
Q11   1   0.2439  0.4278  0.5722  10.50000  0.05    0.29
Q12   1   0.2423  0.2797  0.0785  11.00000  0.05    0.27
Q13   1   0.3126  0.1874  0.1874  10.16667  0.05    0.26
Q14   1   0.0000  0.4226  0.5774  10.25000  0.05    0.25
Q15   1   0.1671  0.5000  0.4387  10.50000  0.05    0.25
Q16   1   0.1765  0.1765  0.2148  10.50000  0.05    0.24
Q17   1   0.2556  0.5912  0.5409  11.00000  0.05    0.21
Q18   1   0.2130  0.4050  0.5000  10.50000  0.05    0.21
Q19   1   0.1959  0.6959  0.4643  10.50000  0.05    0.19
Q20   1   0.3510  0.5580  0.5000  10.50000  0.05    0.18
;
_shelx_res_checksum              72906
_shelx_hkl_file
;
  -1  -1   1 98977.4 3071.35   9
   1   1   1 125432. 3391.15   6
  -1   1  -1 125333. 3377.88   3
  -1   1   1 129213. 3228.68   3
  -1  -1   1 118726. 3411.40   1
  -1   1   1 132348. 3077.82   8
  -1   1   1 131460. 3259.32   6
  -1  -1   1 122197. 3371.36   4
  -1  -1   1 127880. 3365.70   2
   1  -1  -1 141372. 3281.57   6
  -1  -1  -1 124044. 3191.15   5
  -1   1  -1 121019. 3456.22   5
   1  -1  -1 135956. 3102.46   8
  -1   1  -1 138403. 3416.92   2
   1   1  -1 133647. 3416.35   4
   1  -1   1 124551. 3312.52   9
  -1   1  -1 135082. 3184.60   6
  -1   1  -1 140239. 3257.96  10
  -1  -1  -1 121963. 3353.20   6
   1   1  -1 116771. 3414.09   1
   1   1  -1 121627. 3294.74   2
   1   1  -1 108584. 3034.28   9
   1   1   1 134836. 3222.01   5
   1  -1   1 131841. 3368.56   3
   1  -1   1 137317. 3276.37  10
  -1   1  -1 131604. 3357.17   9
   1   1  -1 143953. 3154.85   8
   1  -1  -1 128253. 3309.19   9
  -1   1   1 124402. 3125.19  10
   1  -1  -1 126251. 3215.21   3
  -1  -1   1 131353. 3136.34   8
   1  -1  -1 152210. 3303.08   7
   1  -1   1 136061. 3512.13   5
   1  -1  -1 128789. 3118.94  10
  -1   1   1 139549. 3257.37   7
   0  -2   0 44553.7 1409.06   2
   0   2   0 44140.0 1359.25   1
  -2   0   0 45228.5 1235.93   1
   0   2   0 45651.3 1394.82   3
   0   2   0 44238.7 1382.49   2
   0   0   2 45378.6 1481.35  10
   0   0  -2 42332.7 1466.25  10
   0   0  -2 38790.2 1307.19   6
   0  -2   0 42745.1 1375.78   3
   0   0   2 43273.8 1343.46   4
   0  -2   0 44758.7 1501.18   8
   0   0  -2 44067.8 1387.44   5
   0   0   2 40917.1 1312.74   6
   2   0   0 48386.8 1393.48   4
   0   2   0 42591.3 1467.22   8
  -2   0   0 46358.9 1352.71   4
   2   0   0 46890.5 1382.47   5
   2   0   0 44944.6 1196.33   1
   2   0   0 45947.2 1700.12   9
  -2   0   0 47700.9 1416.43   7
  -2   0   0 38419.0 1611.81   9
  -2   0   0 45578.6 1396.04   5
   0  -2   0 42932.6 1330.56   1
   0   0  -2 45123.5 1345.22   4
  -2   0   0 45593.5 1451.13   3
  -2   0  -2 367400. 9599.05   6
   2  -2   0 475991. 9740.00   9
   0   2   2 454449. 8969.32   3
  -2  -2   0 394739. 9428.11   4
   2   0  -2 385693. 9457.43   9
   0  -2   2 485218. 9006.06   6
  -2   2   0 437444. 9085.77   2
   0   2  -2 392662. 9874.45   2
   2   0   2 459006. 9545.35   5
  -2   0  -2 403298. 9305.50  10
   2   0  -2 433612. 9598.86  10
   0   2  -2 370260. 9739.77   1
  -2   2   0 408447. 9456.80   7
   0  -2   2 413029. 9587.07   4
   0  -2  -2 410286. 9338.40   8
   0   2   2 401609. 9332.69   6
   0   2  -2 391591. 9844.53  10
  -2   2   0 347355. 9434.58   5
   2   2   0 491261. 9591.85   4
   0   2  -2 330743. 8965.46   6
   0  -2   2 425494. 9541.17   3
   0  -2  -2 463739. 9373.83   6
   2  -2   0 433898. 9568.65   8
   0   2   2 378632. 9322.96   8
  -2   0   2 357899. 9560.69  10
  -2   0  -2 388014. 9311.94   3
  -2  -2   0 443067. 9422.70   2
   2  -2   0 411360. 9145.01   2
  -2  -2   0 368268. 9283.69   8
   2   2   0 470204. 9408.41   8
  -2   2   0 345755. 9530.06   9
   0   2   2 359544. 8970.97   5
   2   0   2 462630. 9376.71  10
   0   2  -2 388685. 9645.33   8
   2   2   0 418131. 9424.97   5
   2   0  -2 431678. 9452.47   2
  -2   0   2 385074. 9402.37   9
   0   2   2 429072. 9552.21  10
   2   0   2 481951. 9871.78   6
   2   2   0 429238. 9047.35   7
  -2   2   0 369848. 9463.92   8
  -2  -2   0 454152. 9531.08   1
  -2   0   2 398553. 9451.82   4
   2  -2   0 448889. 9598.00   3
  -2  -2  -2 427824. 10714.0   6
  -2   2  -2 433917. 10624.5   9
   2  -2  -2 441193. 10671.4   9
   2  -2   2 509802. 10887.6   3
   2   2  -2 401250. 10062.2   9
  -2  -2  -2 465773. 9793.04   3
  -2  -2   2 444024. 10849.8   4
  -2  -2   2 452884. 10372.8   9
  -2  -2   2 445289. 10288.8   8
  -2   2   2 412801. 10255.1  10
   2   2   2 424526. 10402.9   5
  -2   2  -2 456761. 10481.6  10
   2   2  -2 432051. 10223.4   8
   2  -2   2 487470. 10600.4  10
   2   2  -2 433112. 10649.1   2
  -2   2   2 396655. 9768.71   5
  -2  -2   2 456738. 11034.7   1
  -2   2   2 410310. 10105.9   8
   2  -2  -2 443739. 10171.5   8
   2  -2  -2 443228. 10243.5  10
   2  -2   2 492385. 10785.5   9
   2  -2  -2 498782. 10558.4   7
  -2   2  -2 456184. 10825.1   2
  -2   2  -2 419190. 10296.5   6
  -3   1   1 120572. 3027.98  10
  -1  -1   3 110402. 3768.45  10
   1   1  -3 114334. 2977.35   9
  -1  -1  -3 116542. 2757.96   4
  -1   1  -3 116104. 3207.75   6
  -3   1   1 126352. 3170.35   5
  -1   3  -1 118584. 3236.91   1
   1   3  -1 115601. 3465.91   2
   1  -1  -3 103707. 3101.29   4
   3   1  -1 126027. 3122.47   2
  -1   3   1 109921. 3073.11   7
  -1   1   3 105947. 3355.03  10
   3  -1  -1 119456. 3096.57   5
   1  -1   3 119023. 3476.41  10
   1   1   3 111182. 3410.47  10
  -1  -3   1 119841. 3473.18   1
  -3  -1  -1 126413. 3205.79   7
  -1  -3  -1 125512. 3462.06   1
   3  -1   1 114232. 3363.87   3
  -1  -3  -1 108343. 3179.72   6
  -1   3   1 112664. 3319.90   3
   3  -1  -1 119882. 2862.02  10
   1  -3  -1 109009. 3231.43   3
   1   1   3 127519. 2871.42   3
  -1   3   1 108794. 3356.73   8
  -1  -3  -1 121461. 3059.83   3
  -3  -1   1 137848. 3013.63   8
   1   1   3 106950. 3117.78   5
   1   1  -3 106975. 3643.40   2
   3   1   1 128200. 3071.38   4
  -1  -1  -3 110841. 3357.68   6
   3  -1  -1 113545. 3662.02   9
  -3  -1   1 117611. 3374.95   4
   1  -1  -3 115874. 3350.82   6
   1  -3   1 130770. 3255.33   9
  -3  -1  -1 125345. 3254.07   3
   1   3   1 102944. 3300.39   6
  -1   3  -1 113489. 3454.04   2
   3  -1  -1 121343. 3440.73   7
   1  -3  -1 111847. 3184.71   2
   1  -3   1 105336. 3481.60   3
  -1   1   3 104588. 3151.57   4
   1  -3   1 117133. 3228.37   1
  -1   1  -3 113629. 3299.98   4
  -3  -1   1 116763. 3151.46   2
   3   1  -1 112227. 3341.37   1
   3   1  -1 131014. 3313.07   5
  -1   3   1 132708. 3148.72   6
   3  -1   1 121104. 2773.96  10
   1  -1   3 117598. 3268.89   3
   1   1   3 116424. 2847.78   4
  -3   1   1 119352. 3060.42   8
   3  -1   1 118246. 3382.73   5
  -3  -1  -1 129473. 3307.57   1
  -3  -1  -1 123748. 3047.10   4
   1   3  -1 115005. 3431.37   8
  -3  -1   1 108516. 3447.92   1
   3  -1   1 112939. 3795.83   9
   1   3   1 113516. 3389.86   8
   3   1  -1 124495. 3360.73   7
  -1  -1   3 107819. 3470.80   4
   1  -1   3 124234. 3206.18   6
  -1   3  -1 104936. 3501.52   8
   1   1  -3 97194.4 3241.40   6
  -1  -1  -3 106438. 3063.65   5
   3   1   1 123245. 3422.79   5
   1  -3  -1 125292. 3084.88   6
  -1  -3   1 109810. 3461.50   4
   3   1  -1 99126.5 3476.45   9
  -3   1   1 110910. 3379.52   4
   3   1  -3 71879.0 2694.23   9
  -1   3   3 80149.1 2042.18   5
  -3   3  -1 80557.3 3045.88   8
  -3   3  -1 77268.2 1989.83   1
   3   1  -3 80082.5 2754.03   2
  -1   3  -3 91364.0 2331.34   9
  -1   3  -3 79835.6 3139.98   8
   3  -3   1 77663.9 2850.15   3
  -3  -1  -3 91760.4 2455.95   3
   3  -1  -3 79542.3 2694.85   7
   1   3   3 76899.4 2425.33   5
  -3  -3   1 77306.7 2805.88   1
  -3  -3  -1 84525.3 2536.38   4
  -3  -3  -1 69802.8 2796.43   6
   3   3   1 70523.6 2587.61   5
  -1  -3   3 76748.0 2917.06   4
   3   3   1 89150.3 2529.11   4
  -3  -3  -1 81709.0 2757.16   1
  -1   3   3 78437.1 2365.33   3
   3   3  -1 78730.0 2654.13   2
   3  -1   3 76405.1 2425.18  10
  -3  -1  -3 82687.4 3039.18   6
  -3   1   3 85021.6 2868.24  10
   1   3  -3 79776.4 3148.32   2
  -3  -3   1 82654.9 2895.24   4
  -3  -1  -3 77890.1 1910.27   4
   1   3  -3 78322.5 2754.15   8
  -3   3  -1 81546.5 2659.11   2
  -3  -1   3 77897.9 2820.75   4
   3  -3   1 78030.7 2872.80   9
   3   1   3 77320.2 2700.99   5
  -3   3  -1 81096.8 2315.90  10
   3   1  -3 81060.2 2035.97   8
   3  -1  -3 80582.0 2060.19   5
   1  -3   3 75705.6 2177.92   6
   3  -3   1 82369.3 2625.64   2
   3  -3  -1 77678.5 2751.25   3
   3  -3  -1 77980.7 2218.20   2
  -1   3   3 72670.8 2505.47   8
   3  -3  -1 74662.4 2830.41   9
   3  -1  -3 75565.8 2806.73   9
   1  -3   3 75262.4 2742.07   3
   3  -3  -1 75849.7 2665.54   7
  -3   1  -3 90430.1 2978.25   6
  -1   3  -3 82119.2 3221.44   2
   3   1   3 77528.5 2646.77  10
   1  -3  -3 81716.2 2462.16   7
   3  -1   3 77501.7 2642.94   3
   3   1   3 79585.6 2273.12   3
   3  -1  -3 77622.1 1946.21   8
   1  -3  -3 69982.2 2451.54   6
  -1   3   3 77751.0 2699.81  10
  -3   3   1 83348.5 2258.09  10
  -1   3  -3 80052.8 2184.87   6
   1  -3   3 71719.5 2213.36   9
  -3   1   3 75572.7 2714.93   4
   3  -1   3 74344.7 2802.10   5
   3   3  -1 76929.9 2478.81   8
  -1  -3  -3 72645.2 2585.12   6
   1   3   3 79737.4 2819.52  10
  -3   3   1 72874.0 2532.29   8
   3   3   1 80112.2 2077.10   7
  -1  -3   3 77878.2 2307.90   6
  -3  -3   3 46522.9 2260.10   4
   3  -3  -3 44629.4 1912.31   7
   3  -3   3 43547.0 2075.63   3
   3   3  -3 42969.7 1686.20   8
   3   3   3 43772.0 1189.01   4
   3   3   3 45628.2 2035.87  10
  -3   3  -3 46911.9 2217.76   2
  -3   3  -3 50155.8 1878.49   6
   3   3  -3 42780.7 2027.65   2
   3  -3  -3 39582.7 1998.38   9
  -3  -3  -3 44899.6 1221.65   3
  -3  -3   3 46623.1 1784.58   9
  -3   3   3 45769.9 2033.37   4
  -3   3   3 44221.1 1269.60   5
  -3   3   3 44878.4 1805.87  10
  -3  -3  -3 41563.9 2096.59   6
  -3   3   3 47263.0 1659.36   8
   3  -3   3 42591.6 1992.25   9
  -3  -3   3 45194.3 2357.98   1
   3   3   3 42703.7 1892.68   5
   0   4   0 760754. 18865.7   6
   0   0   4 910134. 19421.2   4
   4   0   0 965290. 19587.3   7
   0   0   4 851035. 19734.3  10
   0   0  -4 840765. 19268.6   4
   0  -4   0 765659. 19427.4   3
  -4   0   0 843660. 19147.9   1
   4   0   0 867523. 20315.5   9
   0   0  -4 762965. 19289.1   6
  -4   0   0 779992. 19267.8   4
   0  -4   0 896520. 19399.5   1
   0   0  -4 812115. 19341.4   5
   0   4   0 846246. 19465.0   2
   0  -4   0 999840. 18743.5   6
   4   0   0 999999. 19591.5   5
   0   4   0 745572. 19550.4   8
   4   0   0 921777. 19010.8   1
   0  -4  -2 34946.6 1431.16   6
  -4   2   0 43474.2 1184.32   2
   0   2  -4 43656.2 2191.88   2
   0   2   4 40239.5 1343.74   5
   2   4   0 40557.9 1792.77   8
   0   4  -2 41076.3 1927.77   8
   0  -4  -2 40972.7 1458.61   3
  -2   0  -4 43091.6 1469.35   4
   2  -4   0 38081.2 1391.78   1
   0   4  -2 41282.1 2002.74   2
  -2  -4   0 41243.7 1796.80   1
   4  -2   0 40282.8 1841.56   3
  -2   4   0 42147.5 1401.74   6
   0   2  -4 38225.9 1552.27   6
   4   0  -2 37611.9 1299.94   2
  -2   0  -4 36894.6 1746.32   6
   0   4   2 39560.9 1779.32   8
   0  -2   4 43472.8 2138.37  10
   4   0   2 42109.4 1512.75  10
   0  -4   2 40438.3 1850.05   1
   0   2   4 40318.6 1847.96  10
   4   0  -2 39601.3 1761.25   7
   2   0  -4 36458.1 1759.11   6
  -4  -2   0 40129.7 1729.71   1
  -4   0   2 45675.8 1559.59   2
  -2   0   4 41929.8 1798.83   4
   4  -2   0 41593.6 1718.01   5
   4   0   2 40493.0 1789.88   5
   0  -4   2 37853.5 1785.87   3
   2   0   4 40278.1 1553.80   3
  -2   0   4 42462.6 2042.83  10
   2  -4   0 40081.3 1871.89   3
  -4   0   2 39596.5 1780.49   4
  -4  -2   0 46533.6 1761.22   4
  -2   4   0 37767.2 1815.77   8
   0  -2  -4 36132.5 1631.86   6
   0  -4   2 39253.8 1327.25   9
   4  -2   0 40373.1 2087.86   9
   0   4   2 41051.2 1506.02   3
  -2  -4   0 39449.2 1669.22   6
   0  -2   4 40114.0 1816.58   4
   2   0   4 38012.1 1705.26  10
   0   2   4 39626.7 1411.36   4
  -2   4   0 38554.9 1551.91   2
   4   0  -2 43793.2 2146.09   9
   4   2   0 42597.3 1579.28   7
   4   2   0 39348.6 1724.53   5
   2   0   4 39177.2 1775.13   5
  -2  -4   0 40551.1 1787.42   4
   0  -2  -4 39874.2 1302.13   5
  -4   2   0 42356.7 1883.20   8
   2  -4   0 39279.9 1760.07   9
   4   0   2 41121.9 1664.43   3
   4   0  -2 40927.8 1527.29   5
   2   0  -4 38794.4 1643.87   9
   4   0  -2 46820.5 1830.74  10
   2   4   2 460269. 10300.1   4
  -2   4   2 404174. 10641.5   8
  -2  -4  -2 453916. 11014.8   1
   2   2  -4 452966. 10606.1   8
  -2   2  -4 392168. 11050.4   2
   2   4   2 397799. 10540.3   5
   2   2   4 461762. 11089.5  10
   4   2  -2 449668. 10573.0   2
   4  -2  -2 460176. 11323.2   9
  -2   4  -2 409806. 11138.4   2
  -4   2   2 412258. 10186.6   5
  -2   4   2 403709. 10536.3  10
   4  -2   2 517160. 11755.2   9
  -2   2   4 422496. 10648.7   4
   4   2  -2 538236. 10840.3   5
  -2  -4  -2 460428. 10074.1   3
   2   2  -4 412982. 11335.4   2
   2  -4   2 496605. 10746.8   9
  -4   2   2 429597. 10919.4   4
   4   2  -2 468321. 10713.0   7
  -2  -4   2 430524. 11141.0   1
   2  -2   4 459426. 10995.6  10
  -4   2  -2 424203. 10582.0   2
   4  -2  -2 404432. 10049.9  10
   4  -2   2 483731. 11215.0   5
   2  -4  -2 409828. 10577.6   3
  -4  -2  -2 464447. 10883.4   1
   2  -4   2 460972. 11236.6   3
  -2  -4   2 409190. 11089.2   4
   2  -2  -4 474358. 10962.9   6
  -2   2   4 422863. 10805.5  10
   4  -2   2 499844. 10236.4  10
   4   2   2 521771. 10150.6   4
   2  -4  -2 545714. 10743.3   6
   2  -2  -4 475457. 10260.8   8
   4  -2  -2 511455. 11091.4   7
  -4   2  -2 423295. 10038.6  10
   4   2  -2 514990. 10188.7   8
  -4  -2   2 424975. 10190.2   8
   2  -2   4 484457. 10939.9   3
  -4  -2   2 470694. 11436.1   1
  -2   4  -2 434561. 9891.50   6
  -2  -2   4 452902. 11263.4   4
  -4  -2   2 392132. 10873.6   4
   4  -2   2 494213. 11089.1   3
  -4   2   2 404984. 10076.0   8
  -4   2   2 433166. 10392.6  10
   2   4  -2 486552. 10923.3   8
   2   2  -4 404293. 10175.0   9
  -2   4  -2 391079. 11296.2   8
   2   4   2 449502. 10936.2   8
   4   2  -2 435516. 10864.3   9
  -2   2  -4 403506. 10455.8   6
   2   2   4 429398. 10605.0   5
  -4  -2  -2 434922. 10148.7   4
   2  -4  -2 450095. 10591.1   7
  -2  -4  -2 469669. 10874.1   6
   4  -2  -2 456800. 10238.8   5
   4   2   2 496392. 11021.4   5
  -4  -2  -2 430672. 11313.4   6
   2   4  -2 423753. 11018.4   2
  -2  -2  -4 428848. 10934.1   6
  -4  -4   0 700745. 17949.9   4
   4   0  -4 763941. 17949.6   2
  -4   4   0 762101. 17251.9   2
   4   0   4 828572. 18393.3   5
   4   0   4 834951. 17888.9  10
   4   0  -4 734325. 18283.3   9
  -4   4   0 630036. 18042.0   8
  -4   0   4 738299. 18554.0  10
   4   4   0 842357. 17980.6   8
   4   4   0 839766. 17387.7   7
   0   4   4 738054. 18251.5  10
  -4   0   4 736609. 18213.2   4
   0   4   4 838265. 17186.7   3
   4   4   0 771910. 18053.3   5
   0  -4  -4 802528. 17373.1   7
   0  -4   4 869130. 17171.9   6
   0   4   4 732923. 17293.0   5
   0   4  -4 678634. 18820.4   2
   4  -4   0 842121. 18576.1   9
   4  -4   0 791087. 18419.1   3
   4  -4   0 759048. 17466.2   2
   0   4  -4 736137. 18593.4   8
   4   0  -4 939738. 17459.4   5
   4  -4   0 849413. 16870.1   1
  -4  -4   0 806882. 18309.8   1
  -4   0  -4 849010. 18705.5   6
   0  -4  -4 855066. 17958.8   6
   4   0   4 889783. 17835.3   3
   0  -4   4 799374. 18298.9   3
   4  -4  -2 33997.4 1807.50   3
   4  -4  -2 29269.6 1828.50   9
   4  -2  -4 35314.6 1804.45   7
   4  -4  -2 32746.6 1276.08   2
  -4   2  -4 37206.1 1861.35   6
   4   2  -4 33054.6 1772.62   2
  -4  -2   4 33200.9 1946.01   4
   2   4   4 34042.5 1880.25  10
  -4  -4  -2 32048.3 1801.34   1
   4  -2   4 32361.7 1736.51   3
  -4  -4  -2 32058.1 1922.51   6
  -2   4  -4 38136.4 1539.07   9
  -2   4  -4 37291.4 2229.79   2
  -2   4  -4 35766.1 2197.53   8
   4  -2  -4 31723.4 1874.88   9
   2  -4   4 30897.1 1786.93   3
  -4   4   2 33730.9 1591.79   8
  -4   4   2 36218.0 1442.44  10
   4   2  -4 31365.9 1647.68   9
   2   4  -4 32127.5 1703.36   8
   4  -2   4 33592.6 1989.39   5
  -2   4   4 36106.6 1739.92   4
   2  -4  -4 30451.1 1605.67   6
   4  -4   2 33053.2 1903.74   3
   4  -2   4 33285.3 1538.14  10
  -2   4  -4 31006.8 1267.61   6
   4   2   4 34486.9 1790.95  10
   2  -4   4 31380.5 1410.50   9
  -2  -4   4 33119.9 2015.46   4
  -4  -2  -4 36168.0 1383.31   3
  -4   4  -2 35025.3 1877.89   2
   4   4  -2 31379.2 1504.24   8
   2   4   4 33824.1 1602.60   5
  -4   4  -2 33516.2 1186.08   1
  -2   4   4 36954.3 1008.32   5
   4  -4   2 31850.7 1886.77   9
  -4   2   4 34754.0 1834.87   4
   4  -2  -4 31845.0 1125.23   8
  -4  -4   2 34289.8 1980.76   1
   4  -4  -2 33499.3 1756.69   7
  -2   4   4 35537.6 1631.41   8
   2  -4   4 32243.3 1364.23   6
   4   4  -2 33157.8 1738.54   2
  -4  -2  -4 32425.6 1964.81   6
  -4  -4  -2 34249.3 1454.25   4
  -2   4   4 35840.1 1811.48  10
  -4   4  -2 35245.6 1455.57  10
  -4   2   4 36017.5 1854.57  10
   4   2  -4 31351.5 1178.65   8
   2  -4  -4 34022.2 1603.28   7
  -4   4  -2 36380.4 2180.63   8
   4   2   4 32840.5 1768.99   5
   4  -2  -4 31042.7 1031.37   5
  -2  -4  -4 31166.6 1739.56   6
   2   4  -4 33118.4 2069.35   2
  -4  -4   2 35464.5 1976.75   4
   4   4   2 30644.6 1688.44   5
  -4  -4   4 788824. 19272.6   4
  -4   4   4 715737. 18185.3  10
  -4   4  -4 717454. 17989.5   6
  -4   4   4 678069. 16984.0   5
   4  -4   4 886955. 19139.0   3
   4   4  -4 774432. 18799.7   2
  -4   4   4 755140. 18668.6   4
   4   4  -4 822361. 18011.8   8
   4  -4   4 906459. 18890.0   9
   4  -4  -4 821130. 18590.0   7
  -4  -4  -4 739271. 17328.2   7
   4   4   4 725835. 18402.0   5
   4   4   4 805004. 18860.3  10
  -4   4  -4 776825. 19473.9   8
  -4  -4  -4 784388. 19058.0   6
  -4   4  -4 795638. 19078.6   2
   4  -4  -4 794885. 18996.8   9
  -4   4   4 691339. 17710.9   8
  -1  -1  -5 166908. 4965.23   6
  -5   1   1 167225. 4974.82   4
   1  -5   1 177143. 4821.97   1
   1   5   1 175324. 5183.15   8
   1   1   5 173238. 4352.62   3
   1   1   5 160071. 5051.86  10
   1   5  -1 168855. 5110.57   2
   5  -1   1 179834. 5001.76   5
  -1  -5   1 162451. 4248.92   6
  -5   1  -1 173046. 4870.38   4
   5  -1  -1 167993. 5693.96   9
   5   1  -1 157935. 5405.17   9
  -1  -5  -1 168079. 4484.56   6
   5   1   1 178413. 5033.44   5
   1   1   5 164340. 4763.88   5
   5   1  -1 185774. 5010.43   7
  -1  -5  -1 172157. 4765.38   3
   5  -1  -1 177786. 5109.11   7
   1  -5  -1 170846. 4746.72   1
   5  -1   1 169553. 5722.93   9
  -1  -1  -5 156483. 4228.85   4
   1   1   5 169007. 4388.32   4
   5  -1  -1 178573. 4186.12  10
  -1   5   1 182037. 4453.58   6
   1  -1  -5 172932. 4991.46   6
  -5  -1   1 172670. 4948.89   4
  -1  -1   5 166867. 5475.83  10
  -1   1   5 161590. 5128.79  10
   1  -1   5 168125. 5156.34  10
  -5  -1   1 200169. 4519.94   8
  -5  -1  -1 184975. 4796.85   1
   5  -1  -1 162434. 4332.73   1
   5  -1   1 171031. 5066.60   3
  -1  -5  -1 177091. 5022.96   1
  -1  -5   1 170390. 4994.96   3
   1   1  -5 171768. 5495.02   2
   1  -5   1 160105. 5133.84   3
  -5  -1   1 159101. 5007.26   1
  -5  -1  -1 183300. 4656.87   4
  -5  -1   1 170543. 4465.86   2
  -1  -5   1 176871. 5060.56   1
   1  -1   5 173277. 4730.91   4
  -5   1  -1 172953. 4223.13   1
  -1  -1   5 165931. 5069.77   4
  -1   5  -1 173100. 5088.48   2
   1  -1   5 163947. 4686.85   3
   1  -5   1 200066. 4871.46   9
   1  -1  -5 161540. 4211.30   5
   5   1  -1 188108. 4931.02   5
   1   5   1 170624. 4024.79   7
   1  -5  -1 186813. 4376.64   6
  -1   1   5 152969. 4665.91   4
   5  -1   1 171044. 4010.17  10
  -1   1  -5 169777. 4829.65   6
   1   1  -5 166549. 4969.24   6
   1   5  -1 171563. 5169.89   8
  -1   5  -1 157861. 5199.91   8
   5  -1  -1 173449. 4711.90   5
   1  -5  -1 162119. 4913.76   3
  -1   5   1 157715. 5043.64   8
   3  -5  -1 129281. 4315.43   3
  -5   1   3 139675. 4215.44  10
   1   5   3 122970. 3869.93   5
   5  -3   1 136186. 4498.14   3
   5   1   3 134763. 4411.21   5
   3   1   5 137840. 3691.36   3
   1   3   5 133394. 3425.84   4
  -3  -1   5 130067. 4898.28  10
  -5  -3  -1 140952. 4358.81   1
   3   5  -1 133473. 4250.81   8
   5  -1  -3 137147. 4368.19   7
  -3  -5   1 134566. 4431.26   1
  -3  -1  -5 128406. 4461.58   6
   1  -5  -3 128934. 3745.26   7
   3   1  -5 135243. 3705.35   8
  -3  -5   1 137722. 4510.06   4
  -3  -1   5 126458. 4415.68   4
   5   1   3 136797. 4067.50  10
   5  -1  -3 132628. 4736.51   9
  -1   3   5 128803. 3903.90   4
   1  -3   5 128133. 4222.02   3
   3   1  -5 137762. 4723.47   2
  -5   3   1 141566. 3220.90  10
  -1  -5   3 131015. 3401.82   6
   3   1   5 137019. 4361.87  10
   3  -5   1 137298. 4316.92   9
  -1  -5   3 140994. 4671.38   1
   3   5  -1 137378. 4405.68   2
  -1  -3   5 132029. 4548.89   4
   3  -1   5 145687. 4204.55   3
  -1  -5   3 125260. 4385.95   3
  -3   1   5 127876. 4553.19  10
  -1   5   3 126512. 4202.08   8
  -3  -5  -1 125961. 4232.36   6
  -1   3  -5 129586. 3494.19   9
   3   1   5 125525. 4190.92   5
   3  -5  -1 139721. 4461.51   9
   3   1  -5 133339. 4138.43   9
   3  -1  -5 130602. 4295.12   9
   1   3   5 133084. 3798.10   5
   5  -3  -1 122703. 3244.32   1
   3  -1   5 129569. 4139.50  10
   5  -3   1 137792. 4438.49   5
   3  -5   1 122676. 4450.46   3
   5   3  -1 133779. 4197.35   5
  -3  -1  -5 138851. 3205.27   4
   5  -3  -1 128685. 4342.88   7
  -1   5   3 135201. 4331.60  10
  -1   3   5 131438. 4386.01  10
   1   3  -5 132673. 4486.06   8
  -3   1  -5 134876. 4330.61   6
  -5  -3   1 140906. 4426.67   4
   1  -5  -3 130435. 3808.60   3
  -1  -3  -5 130753. 4256.01   6
   5  -3  -1 139165. 4137.32   5
  -5  -1  -3 142037. 4802.59   6
  -5  -1   3 134453. 4425.06   4
  -1  -5  -3 133986. 4022.70   6
  -3  -5  -1 137246. 4417.16   1
  -1  -5  -3 141530. 3443.06   3
   3  -5  -1 126085. 3640.27   1
  -1   5  -3 135348. 4784.74   8
  -5   3  -1 136383. 4691.13   8
   1   5   3 127012. 4320.11   8
   1  -3  -5 129673. 4136.95   6
   5   1  -3 141137. 3980.05   5
  -1   3  -5 144693. 4981.03   2
  -3   5  -1 130751. 4673.06   8
  -5   3  -1 132286. 3864.12   2
  -5  -1  -3 139569. 3539.81   4
   5  -1   3 130690. 3624.60  10
   5  -3   1 130594. 4788.39   9
   3  -1  -5 150452. 3276.83   5
   3   5   1 125504. 4190.01   5
   5   1  -3 118624. 4500.85   9
  -3   5   1 122936. 4243.09   8
  -3   1   5 129360. 4277.69   4
  -5  -3   1 135807. 4463.57   1
   5   1  -3 133091. 4268.38   7
   5   3  -1 140809. 4077.28   7
   1   5  -3 136219. 4766.67   2
  -5   1   3 135498. 4436.98   4
   5  -3  -1 129837. 4674.73   9
   1   5  -3 133740. 4453.84   8
   3  -5   1 127836. 3705.77   1
   1  -5  -3 131799. 3870.39   6
   1  -5   3 130052. 3657.65   9
   1  -5   3 123309. 4352.24   3
   3  -1  -5 136255. 3442.52   8
  -5   3   1 135183. 4134.28   8
   5  -1  -3 119370. 3376.12   2
   5  -1   3 142482. 4277.62   3
   5  -3  -1 131203. 4442.70   3
   3  -1   5 127850. 4489.61   5
  -3   5  -1 133366. 3710.53   1
   1   3   5 137103. 4552.28  10
   5   3   1 132080. 4292.62   5
   1  -3   5 145484. 4795.45  10
  -1   3   5 134957. 3286.15   5
  -1   5  -3 138592. 4918.11   2
  -3   5  -1 138850. 4192.02   2
   5   1  -3 129490. 3778.43   2
  -5  -3  -1 146777. 4122.06   4
  -1   3  -5 134498. 3881.87   6
   5  -1  -3 138094. 3685.88   5
   3   5   1 135062. 4331.37   8
   1   3   5 132268. 3150.89   3
   5  -1   3 134529. 4426.88   5
   1   3  -5 131556. 4977.46   2
  -5   1  -3 142917. 4579.26   6
  -3   5  -3 105266. 2717.45   6
   5   3  -3 89119.1 2768.07   8
   3   3  -5 91717.7 3107.23   8
  -5  -3  -3 104638. 3670.87   1
  -5   3   3 107335. 2862.20   8
   3  -3  -5 87813.0 3471.24   9
  -3  -5  -3 91413.8 3471.31   6
  -3  -5   3 93065.5 3839.39   1
  -3  -5   3 91807.2 3819.51   4
  -3  -3  -5 87637.0 3595.33   6
   5   3  -3 93320.8 3278.85   5
  -3  -5   3 81564.9 2896.03   9
   3   3  -5 97025.2 3971.49   2
  -3  -5  -3 99304.5 3709.64   1
  -5   3  -3 104562. 3569.40   2
   5  -3  -3 96152.4 3542.03   7
   5   3   3 94710.8 3518.29   5
  -3   5   3 100395. 3356.86  10
   5  -3   3 93012.7 3570.83   3
   3  -5  -3 91338.5 3572.97   9
  -5   3   3 100727. 3693.02   4
  -3   3   5 95768.2 3509.92  10
  -5   3   3 108175. 3308.57  10
  -3  -3   5 100628. 3925.60   4
  -3  -5  -3 108718. 2651.08   3
   3  -3   5 99114.4 3556.26  10
   5  -3   3 94159.3 3839.18   9
   3   5   3 95460.4 2832.56   4
   5   3  -3 91245.6 3275.69   2
   3   5   3 92424.9 3373.40   5
  -3   5  -3 97344.0 3948.10   2
   3   3   5 98280.6 3686.09  10
   3  -5   3 97854.5 3787.80   3
   3  -3   5 94533.8 3528.01   3
  -5  -3   3 100586. 4078.28   1
   3   5  -3 89526.4 3608.40   2
   5  -3  -3 100227. 3001.92   5
  -3   3  -5 100216. 3849.88   2
   3  -5  -3 91279.5 3320.80   3
   5  -3   3 90630.6 3752.10   5
  -5  -3   3 100289. 3821.11   4
   3  -3  -5 97687.5 3418.36   7
   5   3   3 103179. 3541.59  10
  -3   5   3 99129.9 3346.31   8
   3  -5  -3 91755.8 3296.22   7
  -3   3   5 90562.8 3401.31   4
   3  -3  -5 84987.7 3404.24   6
   3  -5   3 92319.4 3384.84   9
   3   3  -5 84461.1 2646.95   9
  -5   3  -3 98729.4 3447.53   6
  -3   3  -5 100678. 3251.94   6
  -3   5  -3 101457. 4228.50   8
   3   3   5 89116.4 3304.36   5
  -5   3  -3 99620.1 2921.67  10
  -5  -3  -3 104973. 2799.23   4
   5  -3  -3 89547.7 3745.92   9
  -5  -3  -3 97235.0 3965.36   6
   3   5  -3 95206.5 3371.20   8
   1   5   5 178563. 5767.88  10
   5   5  -1 165344. 5387.54   5
  -5   5  -1 160824. 4457.16  10
   5  -1  -5 182263. 5306.36   2
  -1   5   5 182108. 5125.49   4
   1   5   5 180337. 4915.33   5
  -1   5  -5 177700. 6219.75   8
  -1   5   5 171958. 5663.15  10
   5  -1  -5 177971. 4424.67   5
  -5  -5  -1 161512. 5751.69   6
  -5   1   5 177782. 5912.53  10
  -5   5  -1 177337. 6082.27   8
   1   5  -5 171156. 6233.89   2
   5  -5  -1 171394. 4243.01   1
  -1  -5  -5 171548. 4509.08   7
   1  -5   5 172052. 4537.65   6
  -1   5   5 183916. 4432.49   5
   5   1  -5 167951. 5319.99   2
   5   5   1 168190. 5441.95   5
   1   5  -5 178229. 5830.65   8
  -1   5  -5 175196. 6340.45   2
  -5  -1  -5 182699. 4183.84   4
   5  -1   5 174688. 5799.98   5
   1  -5   5 167015. 5597.13   3
   5   1   5 167496. 5548.24   5
  -1  -5   5 165721. 5836.15   4
   5   1   5 174759. 5369.85  10
  -5  -5   1 190788. 5751.54   4
  -5  -1  -5 189278. 6001.28   6
  -5  -1  -5 179276. 4343.43   4
   5   1   5 173017. 4837.55   3
   5  -5  -1 169791. 5651.26   3
   1  -5  -5 173412. 5199.93   6
  -1  -5   5 163915. 5602.98   3
   5  -1   5 170396. 5027.42  10
  -5  -1   5 170094. 5723.21   4
   5  -1  -5 178938. 5547.44   7
   1   5   5 189165. 4710.70   4
  -1  -5  -5 177029. 5347.87   6
   5   5  -1 173723. 4902.59   7
  -5   1  -5 196431. 5877.87   6
  -5  -5   1 173253. 5721.69   1
   5   5  -1 176260. 5172.15   8
  -5  -5  -1 180977. 5284.57   4
   1  -5  -5 171686. 4890.67   7
  -5   5   1 181048. 4532.31  10
   5   1  -5 186774. 4899.18   5
   5  -5   1 168211. 5736.55   9
  -5   5   1 167631. 5423.54   8
  -1   5  -5 186527. 4758.63   6
   5  -5   1 168728. 5717.18   3
  -5   5  -1 173624. 4944.96   2
   5  -1  -5 163172. 5674.75   9
   5  -1   5 165084. 5168.57   3
   5  -5  -1 167859. 5731.82   9
   5  -5  -1 151569. 4560.48   2
  -5   1   5 173524. 5658.42   4
   5   1  -5 161389. 5623.65   9
  -5  -5  -1 179740. 5669.52   1
  -5   5   3 144390. 4301.57   8
   5   3   5 144680. 4867.67  10
  -5   3   5 135910. 4821.76   4
   5  -5   3 137610. 4971.34   3
  -5   3   5 146563. 4851.29  10
   5   3  -5 131827. 4667.64   2
   5   3  -5 140864. 3744.99   8
  -3  -5   5 139741. 5241.25   4
  -5   5  -3 144449. 5483.37   8
  -3  -5  -5 133641. 4802.88   6
   5  -3  -5 125408. 3619.89   8
  -5  -3  -5 133852. 5087.00   6
   3   5  -5 145399. 5295.89   2
   3   5   5 138932. 4474.91   5
   5   5  -3 129810. 4610.31   2
  -5   5  -3 158198. 4380.52   6
   5   5  -3 140974. 4246.35   8
   5  -5  -3 142397. 5080.52   9
   5  -3   5 141850. 4781.14   3
   3  -5  -5 129010. 4700.52   9
   3  -5  -5 131119. 4367.19   7
  -5  -5  -3 142448. 4943.94   1
  -3   5   5 142087. 4687.35   4
   5   5   3 138423. 4737.06   5
  -5   5  -3 122414. 3651.19   1
  -5   5   3 146708. 4193.49  10
  -3   5   5 140889. 4699.69  10
  -5  -5   3 134572. 5172.00   1
   3  -5   5 128724. 4756.11   3
   3   5   5 142773. 4961.79  10
  -3   5  -5 148243. 5528.82   8
   5  -3  -5 139823. 5072.70   9
   5   3  -5 120485. 4110.29   9
   5  -3   5 133617. 4323.84  10
  -5  -5   3 145295. 5163.92   4
   3  -5  -5 129861. 4517.44   6
   5  -5   3 133357. 4856.50   9
  -5  -5  -3 130868. 5000.73   6
  -3   5  -5 152005. 5468.31   2
  -3   5   5 140936. 4373.36   8
   3   5   5 146979. 3328.21   4
   5   3   5 135924. 4756.66   5
   3   5   5 135266. 3329.22   4
  -5   3  -5 155040. 4760.83   6
  -5  -3  -5 152735. 3784.12   3
  -5   3  -5 135959. 4780.90   2
  -5  -3   5 141576. 5174.78   4
   5  -5  -3 130151. 4630.38   7
  -5   5  -3 143638. 4971.91   2
   3   5  -5 141197. 4579.23   8
   5  -3  -5 140249. 4712.01   7
  -3   5  -5 145709. 3918.35   6
  -5   5   5 172480. 5836.16   4
  -5   5   5 180735. 5016.16   8
   5   5  -5 174885. 5919.71   2
  -5   5  -5 192696. 5227.53   6
  -5  -5  -5 162442. 5945.05   6
   5   5   5 178306. 5924.97  10
  -5   5   5 174371. 5505.39  10
  -5  -5  -5 182690. 6091.29   1
   5   5   5 165962. 5583.24   5
  -5   5  -5 184624. 6198.96   2
   5  -5   5 166522. 5500.94   9
   5  -5  -5 164953. 5555.17   7
  -5   5  -5 173834. 6402.13   8
   5  -5  -5 164124. 5900.68   9
   5  -5   5 174663. 5908.14   3
   5   5  -5 176395. 5057.82   8
  -5  -5   5 177831. 6272.46   4
  -6   0   0 33672.4 1644.57   4
   0  -6   0 28628.5 1032.81   6
   0   6   0 30727.7 1826.38   8
   0   0  -6 29587.9 1625.97   6
   0  -6   0 32366.5 1773.11   3
   6   0   0 33539.1 1735.04   7
  -6   0   0 34207.4 1586.84   1
   0   0   6 33150.6 1915.26  10
   6   0   0 37413.1 2301.52   9
   0   0   6 36640.5 1669.82   4
   6   0   0 33939.1 1696.68   5
   0  -6   0 31626.5 1624.56   1
  -6   0   0 33152.0 1176.43   2
   2   0   6 487491. 10838.1   3
   0   2  -6 413355. 11037.9   6
   6   0   2 505652. 11621.1   5
   6  -2   0 482125. 12421.9   9
  -6   0   2 415062. 11285.0   4
  -6  -2   0 447813. 11268.0   1
   6   0  -2 516456. 11096.8   5
   0  -2   6 453939. 11351.0   4
  -2  -6   0 486161. 10807.6   6
  -2   6   0 425642. 11029.4   2
  -2   0  -6 421122. 11274.8   6
   2  -6   0 451355. 10812.6   1
   2   0   6 441320. 11434.1   5
   6  -2   0 474936. 11184.5   5
  -2   6   0 432962. 10196.2   6
   2   6   0 471172. 11640.6   8
   0   6   2 401593. 10266.0   7
   0  -6   2 392745. 11357.0   3
   6   0  -2 449944. 12227.6   9
   0   2   6 440969. 11567.2  10
   0   6  -2 436440. 11652.4   2
  -6  -2   0 415657. 10960.0   4
  -6   0  -2 416272. 10712.5   4
  -6   0   2 436602. 10112.1   8
   2   0   6 457659. 11486.0  10
  -2   0   6 418109. 11835.0  10
   0   2  -6 443529. 12042.0   2
   6   0  -2 494360. 11531.1   7
  -2   6   0 384935. 11409.7   8
  -2  -6   0 429984. 11073.8   3
  -6   0   2 424868. 10415.2   2
   0  -2  -6 459460. 11316.1   6
   0   6   2 449251. 11551.7   8
  -6   2   0 422026. 11274.0   4
  -2  -6   0 441777. 11386.0   1
   6  -2   0 475467. 11666.5   3
   0  -2   6 474179. 11254.1   3
   6   0   2 473404. 10587.1  10
   2  -6   0 411635. 11448.7   3
   0  -2   6 439666. 11938.9  10
   2   0  -6 399672. 11308.8   6
   0   2   6 440705. 10644.4   4
   6   2   0 518033. 11494.5   5
   0  -6  -2 445051. 11259.6   1
  -2   0   6 400494. 11174.3   4
   0   2   6 441435. 10673.9   5
   6   2   0 527908. 11247.3   7
   2   0  -6 419339. 10925.4   9
  -6   0  -2 442896. 10714.7   1
   0  -6  -2 528089. 10738.2   6
   0   6  -2 471353. 11833.9   8
   0  -6   2 441728. 11398.4   1
   0  -6  -2 450010. 10941.1   3
   2   2  -6 335216. 9081.83   9
   2   6   2 343834. 9701.91   5
  -2  -6  -2 385848. 10105.6   1
   2   2   6 380941. 10217.0  10
   2   2   6 424247. 8969.99   3
  -2   2  -6 356216. 9613.42   6
   6  -2  -2 354620. 8731.30  10
  -6   2   2 350619. 9967.11   4
  -2  -6  -2 385004. 9577.10   6
   6  -2  -2 387435. 9356.53   5
   2  -2  -6 390996. 10090.9   6
   2  -6  -2 343591. 9648.41   3
   2   2   6 399076. 8633.52   4
   6   2  -2 375606. 10284.5   9
   2  -2   6 369580. 10074.2  10
   6  -2   2 412263. 10244.9   3
  -2   2  -6 359050. 10332.6   2
  -6  -2  -2 401157. 9921.26   1
   2  -6  -2 365556. 9573.46   1
  -2  -6   2 362387. 10163.3   1
   6   2  -2 422411. 10037.0   7
   2   6  -2 365822. 10196.5   2
  -6   2   2 394558. 9137.10   8
   6   2   2 401500. 10096.7   5
  -2  -2  -6 378842. 10150.8   6
   2  -6   2 390423. 9769.16   1
   2  -6  -2 443011. 9514.90   6
  -2  -6   2 351055. 9979.92   3
  -2  -2   6 386267. 10970.8  10
   6  -2   2 402833. 10194.5   5
  -6  -2  -2 369101. 10525.7   6
  -2   2   6 357310. 10119.2  10
   2  -6   2 384049. 10350.1   3
   2   2   6 376014. 9640.24   5
   2  -2   6 408578. 9824.50   3
   2   6   2 398250. 10259.7   8
   2   2  -6 350489. 9790.86   8
  -2   6  -2 340965. 10381.8   8
  -2  -6  -2 404892. 9449.21   3
  -2   6   2 354170. 9938.68   8
   2   6  -2 408042. 10219.7   8
  -6  -2   2 390009. 10482.3   1
  -6   2  -2 382512. 9363.77   2
   6   2  -2 447204. 9980.29   5
  -2  -2   6 375093. 10268.8   4
   2   2  -6 368531. 10752.9   2
   6  -2   2 400063. 8685.91  10
  -6   2  -2 376096. 8657.69   1
  -2   6  -2 376187. 10293.1   2
   6  -2  -2 411158. 10201.5   7
  -6  -2  -2 388243. 9279.42   4
   6  -2  -2 385967. 10797.0   9
  -2   2   6 362381. 9696.46   4
   6  -2   2 416191. 11047.9   9
  -6  -2   2 356003. 9943.18   4
   2  -6   2 416706. 9734.59   9
   0   4  -6 26784.2 1523.66   6
  -4   0   6 27873.8 1800.11   4
   4   0  -6 28606.0 1098.43   8
  -6   0  -4 25968.2 1850.49   6
   0   4   6 27769.4 1308.33   4
   0   6   4 28736.4 1778.37   8
   4   6   0 26442.2 1653.01   8
  -6  -4   0 27081.9 1763.62   1
   6   0  -4 26093.0 1245.88   2
  -4   0  -6 26990.3 1804.99   6
   0  -6   4 24004.8 837.439   6
   4   6   0 28722.9 1154.95   7
   0   6  -4 30689.2 2151.77   2
   0   4  -6 29079.4 2004.20   8
   6  -4   0 27756.8 1861.79   3
  -6   0  -4 27349.9 1294.94   4
  -4  -6   0 26899.6 1704.93   6
   6   0   4 26472.0 1413.70  10
   0   6   4 27730.6 1783.74  10
   0  -6  -4 24050.7 1399.99   6
   6   0   4 28222.2 1818.05   5
   4  -6   0 26227.0 1729.24   9
  -4   6   0 26449.7 1832.57   8
   4   0   6 26781.1 1791.91   5
   0   4  -6 29982.9 2200.67   2
   0  -6   4 26381.5 1781.25   3
   0   4   6 23227.0 1015.76   3
   6   0   4 27809.9 1555.19   3
   4  -6   0 25735.3 1767.64   3
   4   0   6 26020.9 1427.07   3
   6   4   0 25346.5 1634.04   5
   4  -6   0 28148.0 1216.59   1
   4   0   6 27780.5 1663.68  10
  -4   0   6 30798.9 2167.12  10
   0  -6   4 27897.3 988.048   9
   0   6   4 27969.2 1366.19   5
   6   0  -4 25003.1 1662.04   7
  -4  -6   0 26088.1 1759.53   1
   0   4   6 27848.8 1838.43  10
   0  -4  -6 22297.9 1517.74   6
   6  -4   0 26332.3 1946.19   9
   6   4   0 27738.1 1408.69   7
   0  -6  -4 27333.4 1164.61   7
   6   0  -4 29038.2 2064.76   9
  -6   4   0 30877.5 1937.44   8
   4   0  -6 27391.0 1718.22   9
   0  -4   6 26145.5 1691.15   3
   0   4   6 26565.5 1171.49   5
  -4   0  -6 28703.9 1281.25   4
   0  -4   6 27578.5 1813.11   4
   0   6  -4 27649.2 1933.71   8
   6   0  -4 27040.9 1357.14   5
  -6  -4   0 28452.0 1674.93   4
  -4  -6   0 27008.6 1699.93   4
   4   0  -6 31759.9 1976.10   2
   4   6   0 24902.3 1642.93   5
   0  -6  -4 28317.3 1200.04   3
   6  -4   0 26648.7 1686.19   5
  -6   0   4 29708.6 1886.94   4
  -2   4   6 426644. 10852.7   4
  -6   4  -2 444445. 11968.5   8
  -4  -2   6 382843. 11443.8   4
   2  -6  -4 496553. 10999.9   6
  -6   2  -4 434394. 11389.4   6
   4   2  -6 383391. 10726.5   9
  -6   4  -2 386805. 10744.8   2
   4  -6  -2 403320. 11171.8   3
   6  -4  -2 436425. 11865.8   9
   2  -4   6 436097. 11259.9   3
   4  -6  -2 507793. 11826.0   9
   2  -6  -4 422601. 10623.1   7
  -2  -6  -4 441442. 9513.53   3
  -4  -6  -2 433569. 11289.4   6
  -2   6   4 409338. 11178.5  10
  -6  -4  -2 439817. 10635.2   4
   6  -4   2 467697. 12035.8   9
   6  -2   4 476319. 11404.8   3
   2   4  -6 431937. 11276.2   8
  -2   6  -4 401305. 11952.4   2
  -6  -2  -4 438919. 11961.5   6
   6  -2  -4 469745. 11412.0   7
  -4   6  -2 385383. 10005.3   6
  -6   2   4 394429. 10939.8  10
   2   6   4 396132. 10729.3   5
   6  -2  -4 421000. 11825.8   9
   6  -2  -4 434757. 10072.2   5
  -6  -4   2 393653. 11538.5   1
   2   4  -6 387958. 12030.5   2
  -2  -4   6 402971. 11627.0   4
  -2  -6   4 435678. 9711.93   9
   4  -2   6 422704. 10963.9  10
   6   4  -2 458544. 10991.9   7
   6   2   4 436281. 11045.1  10
  -4   6   2 367195. 10860.6   8
  -4  -2  -6 420963. 11594.9   6
   2   6   4 443880. 11499.3  10
   6   2  -4 392451. 11199.7   9
  -6   2   4 397527. 11346.9   4
  -2   4   6 421864. 11299.4  10
   2  -4  -6 467799. 10972.7   7
   4  -2  -6 481036. 11425.7   7
   4  -2  -6 418712. 9870.25   8
   4  -2  -6 438060. 11453.7   9
   2   6  -4 464010. 11475.8   8
   6  -2  -4 404429. 9865.98   2
   6   2  -4 419817. 10672.1   2
  -6  -4  -2 428080. 11359.6   1
   6  -2   4 434083. 10311.2  10
   4   2   6 443468. 11435.2  10
   6   2  -4 523690. 11028.2   5
  -4   2   6 399729. 11188.8   4
   4  -6   2 460774. 11407.5   9
  -4   2  -6 441208. 11175.9   6
  -4  -6   2 412717. 11559.6   1
   6   2  -4 434867. 11174.9   7
   2   6  -4 459435. 12027.3   2
  -4   6  -2 366129. 11720.6   8
  -4  -6  -2 456039. 10442.9   3
   2   4   6 442182. 9608.05   4
   6  -4  -2 433330. 11366.6   7
  -2   6  -4 396337. 11971.0   8
   4   2  -6 444521. 10163.1   8
   6   4  -2 483497. 11253.8   5
  -4  -6   2 397639. 11458.3   4
   2  -6  -4 408145. 10583.9   3
  -2  -6   4 417683. 11772.8   4
   6  -4   2 462908. 11706.1   3
   4   2   6 415649. 11143.0   5
  -4   6  -2 403505. 11199.1   2
  -2   4  -6 427981. 12011.5   8
   6   2   4 449178. 11481.1   5
   4   6  -2 492043. 11267.6   8
  -4  -6  -2 432281. 11472.4   1
   2   4   6 437997. 11638.8  10
   6   4   2 453109. 11329.0   5
   4   2   6 450952. 9972.22   3
  -6   4   2 436766. 10029.8  10
  -6  -2  -4 441384. 9901.31   4
  -4   6   2 411972. 10577.0  10
  -2  -4  -6 448187. 11419.1   6
  -2  -6   4 398559. 11409.9   3
   2  -6   4 404882. 11424.9   3
  -2   6   4 392083. 10912.7   8
  -6  -4   2 431362. 11455.1   4
   4   6  -2 441841. 11419.4   2
  -6  -4  -2 421443. 11892.0   6
  -2   4  -6 431174. 11988.9   2
   4   2  -6 412437. 11649.7   2
   2  -6   4 494698. 10604.5   9
  -6   4   2 414231. 11424.2   4
  -2   4  -6 398071. 10432.2   6
   4  -6   2 459560. 11772.4   3
   6  -2   4 450217. 11719.7   5
   4  -2   6 506446. 11324.7   3
  -4   2   6 388957. 11432.0  10
  -6   4   2 412242. 10601.4   8
   2   4   6 408297. 10627.1   5
   4  -6  -2 407520. 10310.5   1
   2  -4  -6 477550. 11330.2   6
  -2  -6   4 455940. 11930.7   1
  -2  -6  -4 453864. 11117.9   6
   4   6   2 418103. 11152.4   5
  -6  -2   4 381997. 11364.9   4
  -6   4   4 21449.7 1655.78   4
   4  -6  -4 26518.0 1625.60   7
   6   4  -4 19263.6 1389.81   5
   6  -4   4 19992.2 1579.61   3
  -6  -4  -4 24295.5 1731.40   1
  -4   4  -6 21095.2 1338.16   6
   4   4  -6 25556.1 1932.64   2
  -4   6   4 20988.3 1370.94   8
   4  -4  -6 21969.5 1519.57   7
  -4  -6   4 22517.8 1849.18   4
  -4  -6  -4 21417.6 1685.09   1
  -4   6  -4 23308.6 1872.68   2
  -6   4   4 22540.5 1094.53   8
   4   6   4 22209.3 1657.27  10
  -4   6  -4 21687.9 1023.16   6
  -4   6   4 24060.0 1522.24  10
   4   4   6 21419.5 1508.84   5
  -6   4  -4 22736.5 1511.85   6
   6   4   4 20707.0 1558.10   5
   4   6  -4 22329.9 1703.64   2
   6  -4   4 22911.3 1749.49   9
   4  -6   4 20537.5 1458.43   9
  -4  -6   4 23594.3 1900.22   1
  -4  -4   6 23203.1 1854.45   4
   4   4  -6 21844.6 1293.27   8
  -6   4  -4 24315.1 1671.56   2
   6   4   4 22061.1 1575.58  10
   4   6   4 20900.9 1523.19   5
   4  -6  -4 19442.5 1574.10   9
  -4  -4  -6 21770.9 1736.50   6
  -4   6  -4 23390.2 2028.43   8
   4   4   6 23174.4 1736.72  10
  -6  -4   4 23599.5 1824.22   4
  -6   4   4 24885.2 1491.63  10
   6  -4  -4 20192.2 1530.41   7
  -4  -6  -4 19746.9 1535.93   6
   4  -4  -6 18704.4 1536.90   9
   4   6  -4 21517.6 1446.03   8
  -6  -4  -4 22724.4 1868.75   6
  -4   4   6 23501.5 1654.06  10
   4  -4   6 21190.0 1536.95  10
  -4   4   6 22795.2 1632.55   4
  -4   4  -6 21978.2 1752.41   2
   4  -6   4 21347.6 1668.72   3
   4  -4   6 20663.6 1556.91   3
   6   4  -4 20205.7 1446.97   2
   6  -4  -4 21625.1 1764.45   9
   6   4  -4 19234.5 1073.67   8
  -6   6   0 377684. 9518.66  10
   6   0   6 450017. 10799.1   3
   6  -6   0 405599. 11590.8   3
   6   6   0 456157. 10142.6   7
   0  -6   6 404803. 11435.1   3
  -6   0  -6 449866. 11733.1   6
   0  -6  -6 474273. 11161.1   6
  -6  -6   0 426716. 11575.9   1
   6   0   6 420432. 10830.0  10
   0   6  -6 396376. 12185.9   2
   6   0   6 416842. 11610.4   5
   6   6   0 420196. 11272.8   5
   6   0  -6 423370. 11284.0   7
   0   6   6 397125. 9986.00   5
   6   0  -6 382110. 11603.5   9
   0   6   6 455045. 10445.0   4
   0  -6  -6 436250. 10188.8   7
  -6   0   6 382296. 11433.4   4
   6   0  -6 386562. 10716.4   2
  -6  -6   0 398365. 11048.8   4
   6  -6   0 441519. 11808.6   9
   0   6   6 388407. 11412.4  10
  -6  -6   0 378717. 11549.1   6
   0   6  -6 400306. 11860.9   8
  -6   6   0 353347. 11276.1   8
  -2   6   6 311495. 7333.45   5
  -6  -6  -2 346361. 8781.76   4
  -2  -6   6 302303. 9432.33   3
   6   6   2 324041. 9269.13   5
   6  -2  -6 326636. 7510.27   5
   2   6   6 351350. 7834.66   4
  -6  -2  -6 342354. 9867.58   6
  -6  -6  -2 293929. 9525.64   6
   6   6  -2 340174. 8776.40   8
   6  -6  -2 311553. 9403.30   3
   6   2   6 323476. 9162.20  10
   2   6  -6 329526. 10174.7   2
  -6  -2   6 300478. 9587.81   4
   6  -2   6 321495. 9768.19   5
   6  -2   6 318444. 8599.15  10
   6  -6   2 311881. 9537.15   3
   6   2  -6 379760. 8710.83   5
   6  -2   6 342273. 9114.62   3
   6  -6  -2 323034. 9634.55   9
  -6   6   2 315150. 8912.21   8
   6   2   6 306376. 9275.04   5
   6   2  -6 313213. 8982.24   2
   2   6   6 314168. 8514.78   5
   2   6   6 340238. 9623.80  10
   2  -6   6 308641. 9305.26   3
  -6   6   2 351465. 8084.94  10
  -2   6  -6 342245. 10352.7   2
  -6   6  -2 317169. 8766.47   2
  -6  -6   2 316546. 9686.53   1
  -6  -6  -2 343069. 9629.72   1
  -2  -6   6 300823. 9699.24   4
   2   6  -6 338954. 9518.14   8
  -2  -6  -6 345340. 7738.49   7
   6  -2  -6 337837. 9307.82   7
   6  -2  -6 344976. 8778.38   2
  -6   2   6 308279. 9431.04   4
  -2   6   6 346048. 8909.12   4
  -6   2   6 304959. 9551.09  10
   6   6  -2 321590. 9163.11   5
  -2   6  -6 333072. 8148.47   6
  -6   6  -2 315679. 10061.0   8
   6  -2  -6 306626. 9561.32   9
   6   2  -6 276813. 8870.19   9
  -2   6  -6 331864. 10271.6   8
   6  -6  -2 311727. 7703.31   1
  -6   2  -6 361014. 9500.60   6
  -6  -6   2 347185. 9611.16   4
  -2  -6  -6 346166. 9291.86   6
   2  -6  -6 318796. 8548.61   7
   6  -6   2 314729. 9557.64   9
   2  -6  -6 354062. 9135.08   6
  -2   6   6 318930. 9333.06  10
   6   6  -2 297035. 8492.32   7
   6   4  -6 428958. 9536.23   8
  -6  -6  -4 396755. 11216.9   1
  -4  -6   6 396539. 11658.9   4
  -6   6   4 373017. 11124.0   4
   6   4   6 393700. 11024.1  10
  -4   6  -6 423174. 9739.79   6
  -6  -4   6 375444. 11422.4   4
  -4   6   6 387895. 10796.2   4
   4   6  -6 398355. 11586.8   2
  -4  -6  -6 398004. 11177.9   6
  -6  -4  -6 375090. 11326.2   6
  -6   4  -6 410664. 10603.6   6
  -6   4   6 404638. 11025.1  10
  -6  -6  -4 374617. 11244.0   6
   4   6  -6 416233. 10591.4   8
   6  -6  -4 371294. 10747.0   7
   6  -6   4 419423. 11138.8   9
   6   4   6 374082. 10869.7   5
   6   6   4 380588. 10834.4   5
  -6   4   6 387420. 11163.8   4
   6  -4   6 396386. 10404.7  10
  -6   6  -4 391407. 11123.7   2
  -4   6  -6 401802. 11682.9   2
   4  -6  -6 378102. 10482.0   7
   6  -4   6 435746. 11128.4   3
  -4   6  -6 395556. 11829.9   8
  -6   6  -4 398792. 11834.3   8
   6  -6  -4 390930. 11280.1   9
   4  -6   6 406344. 11146.2   3
  -4   6   6 366403. 10694.4  10
   6   6  -4 420997. 10194.5   8
  -6   4  -6 382144. 10997.7   2
   6   6   4 402798. 11056.6  10
   4   6   6 399174. 11258.0  10
   4  -6  -6 390662. 11101.8   9
   6   4  -6 379986. 10852.4   2
   6  -4  -6 382533. 11235.1   9
  -6   6   4 370617. 9994.18   8
   4   6   6 384409. 10517.4   5
  -6  -6   4 392524. 11414.8   4
  -6  -6   4 397789. 11741.4   1
   6   6  -4 391503. 10857.8   2
   6  -4  -6 398449. 10860.1   7
  -6   6   4 394270. 10161.0  10
   6  -6   4 404150. 11224.7   3
  -6   6  -4 429979. 10222.8   6
   6  -6  -6 239353. 7865.94   7
   6   6  -6 256562. 8269.15   2
   6   6   6 264864. 8361.73  10
  -6   6  -6 285570. 8756.52   2
  -6   6   6 276143. 8007.93  10
   6  -6  -6 260330. 8491.93   9
  -6  -6   6 276038. 8903.16   4
   6   6   6 260558. 8102.95   5
  -6   6  -6 272881. 9024.73   8
  -6  -6  -6 276450. 8620.31   1
   6   6  -6 271937. 7266.25   8
  -6   6   6 263507. 8372.33   4
  -6   6  -6 284122. 7374.31   6
   6  -6   6 258428. 8222.04   3
  -6  -6  -6 255733. 8540.72   6
   7  -1   1 57148.8 2560.67   5
   1   1  -7 54794.3 2614.80   6
   7  -1  -1 58130.9 2673.95   7
  -7   1  -1 61314.1 2530.33   4
   1  -1  -7 54571.2 2587.22   6
  -1   1  -7 56836.4 2518.20   6
   1   1  -7 64204.0 3136.76   2
  -1  -7  -1 53900.4 1967.97   6
   1  -7  -1 57301.8 2610.78   3
   7  -1  -1 56146.7 2369.23   5
  -1  -7   1 56596.8 1695.09   6
  -7  -1  -1 60027.2 2363.99   4
  -7  -1   1 64214.8 2774.92   1
   1  -7   1 60360.5 2516.42   1
  -1   7   1 57961.1 2779.85   8
   7  -1   1 61694.3 1643.28  10
   7  -1  -1 59226.0 3204.43   9
  -1   1   7 59238.4 2899.62  10
   1   1   7 57287.1 2119.28   4
   1   7  -1 58949.4 2801.13   8
   1   1   7 59963.5 2829.26  10
   7   1  -1 60331.9 3123.06   9
   1  -7   1 59768.1 2801.90   3
   1  -1   7 60331.6 2860.87  10
  -1  -7   1 58715.8 2643.41   1
   7  -1   1 60510.2 3272.22   9
  -1  -7  -1 58094.8 2615.50   1
   1  -7  -1 59818.6 2464.06   1
   1   7   1 54764.7 1740.84   7
   1  -1   7 58609.3 2353.75   4
  -1  -7  -1 60545.3 2570.70   3
  -1   7  -1 58830.5 2902.20   8
   1   1   7 54205.3 2046.62   3
  -7  -1   1 62715.7 2638.72   4
   7  -1  -1 54191.6 1731.60  10
  -1  -7   1 55576.1 2635.12   3
   1   7  -1 60461.7 2789.94   2
   1  -7   1 59896.2 2412.83   9
   7   1   1 59189.0 2636.70   5
  -1  -1  -7 53377.0 2548.98   6
   1   7   1 57110.6 2791.82   8
   7   1  -1 56517.5 2466.33   5
  -1  -1   7 61851.3 3122.54  10
  -1  -1   7 59017.1 2628.50   4
  -1   1   7 58213.9 2442.93   4
   1  -1   7 52319.6 2267.62   3
  -1   7  -1 57787.1 2697.42   2
  -7   1  -1 63444.3 2105.47   1
  -7  -1  -1 64911.1 2495.21   1
   7   1  -1 62409.1 2652.50   7
   1  -7  -1 55162.5 1897.77   6
  -7   1   1 58322.6 2637.08   4
  -3  -1  -7 34031.8 2092.29   6
   7  -3   1 35187.7 2389.71   9
  -3  -7  -1 33755.3 2022.20   1
  -1  -7   3 35713.8 2150.03   1
   1  -7  -3 30149.2 1522.03   6
  -1  -3  -7 32061.0 1958.92   6
  -3  -1   7 38740.0 2577.83  10
  -1   3  -7 33093.7 1786.34   6
  -1  -7   3 27889.1 921.620   6
  -1   7  -3 39765.2 2425.07   2
   1   7   3 35391.4 2130.63   8
  -1  -7  -3 35059.1 2042.20   1
   3  -1  -7 32716.0 1272.22   5
   3  -7   1 35085.0 1714.02   1
   1   3  -7 36455.3 2186.25   8
  -7   1  -3 37034.3 1572.85   1
  -3  -7  -1 30887.6 1677.92   6
   7  -1   3 34654.9 1965.61   3
  -1  -7   3 33668.1 1036.56   6
   7  -3   1 34015.6 2104.00   3
   3  -7  -1 32602.5 1587.93   1
  -3  -7   1 33883.5 1695.47   6
  -1  -7  -3 31076.5 1604.83   6
   3   1  -7 37578.9 1911.28   9
  -7  -1  -3 35620.7 2267.41   6
  -3  -7   1 35037.3 1992.54   3
  -7   1  -3 33481.5 2086.37   6
   7   1   3 36541.4 1727.14  10
  -7   1   3 33710.3 2051.22   4
   3  -7   1 30510.9 1820.76   9
   3   1  -7 40672.7 2496.64   2
   7  -1  -3 33353.6 1979.33   7
   1   3   7 31590.4 1177.95   3
   3  -7  -1 34248.9 2026.93   3
   3   1   7 34216.6 1985.69   5
   3  -7   1 35575.2 2174.53   3
   7  -3   1 31780.7 1904.43   5
  -3   1   7 34090.8 2264.16  10
  -1  -3   7 38816.1 2506.47  10
   7  -1  -3 32741.0 1588.69   5
  -1   7   3 35076.5 2030.06  10
   7   1  -3 31215.6 1694.19   5
   7   1   3 32790.0 2011.64   5
  -7  -3   1 35292.5 2137.75   1
  -7  -3  -1 37642.3 2053.10   1
   3   7   1 31471.0 1983.84   8
   1  -7  -3 33163.0 1663.28   3
   3  -1   7 32573.5 1949.94  10
  -7  -1  -3 35909.9 1834.52   1
  -1  -7  -3 35329.5 1514.41   3
  -7   1  -3 35281.1 1781.17   4
   7   3  -1 31695.0 1862.43   5
   1   7   3 35437.8 1826.70   5
  -1   3  -7 30240.6 1294.40   9
  -7   3  -1 37924.5 1400.34   2
  -1   3   7 34077.3 2107.15  10
  -7   3   1 38666.5 1972.02   8
   1  -7   3 35617.4 1587.99   9
  -7  -3   1 33745.4 1928.79   4
   1   3  -7 35559.3 1990.14   6
   3  -1   7 32442.1 1741.95   3
   1   3  -7 36123.5 2475.02   2
   1   3   7 35064.0 1666.38   5
  -1   3   7 35805.1 1717.31   4
   7  -1  -3 32310.2 2350.88   9
   1   7  -3 34603.8 2142.61   8
  -3   1   7 37173.5 2050.62   4
  -3  -1   7 36308.0 2144.40   4
   1  -7  -3 34472.2 1927.96   1
   1   3   7 34505.5 2125.43  10
   1   3  -7 38506.8 1193.96   9
   1   7  -3 37735.5 2323.44   2
  -1   3  -7 37781.4 2422.60   2
   1  -3  -7 30727.0 1105.34   5
   3  -1  -7 33612.6 1902.02   9
   7  -3  -1 33076.4 2342.07   9
  -3   1  -7 30918.8 1899.49   6
  -1   7   3 34066.8 2023.15   8
  -7   3  -1 41215.5 2327.87   8
   7   3   1 33197.7 1931.37   5
   1  -3   7 31406.3 1853.68   3
   3   7  -1 31839.7 1975.22   8
   3  -7  -1 33422.2 1978.37   9
  -3  -7   1 32598.2 2017.82   1
  -3   7   1 34815.5 2097.98   8
   1  -3  -7 30934.8 1890.32   6
   7   1  -3 33820.3 1960.76   7
   1  -7   3 36885.5 2077.93   1
  -1   7  -3 37034.6 2354.59   8
   7   1  -3 33588.5 2279.32   9
  -7  -1  -3 33903.3 1514.71   4
   7  -3  -1 31828.7 1734.94   5
   3  -1  -7 31575.9 2018.99   6
   1  -3   7 34211.8 2198.56  10
   7  -1   3 33838.1 2049.81   5
   3   1  -7 37487.7 1814.32   8
  -3   7  -1 33555.6 1076.78   6
  -3  -1  -7 30963.2 1130.06   4
   1  -7   3 32307.8 2077.41   3
  -7   3   1 35772.6 2084.51   4
  -3  -7  -1 36349.2 1801.00   3
   1   3   7 35170.6 1406.44   4
  -7  -1   3 35951.9 2102.43   4
   7   3  -1 34953.9 1852.43   7
  -7  -3  -1 34656.5 1765.95   4
   7  -1   3 33439.2 1334.19  10
  -3   7  -1 35220.8 1936.33   2
  -3   7  -1 37385.1 2351.09   8
   3   1   7 34317.5 2057.22  10
   3   1   7 36467.2 1591.92   3
  -7  -1   3 34089.5 1032.68   8
  -1  -3   7 34344.9 2088.73   4
  -1  -7   3 34936.1 2126.90   3
   3  -7  -3 14996.3 1341.47   9
   3   3   7 16769.6 1279.60   5
   7   3   3 16639.5 1409.14   5
   7  -3   3 16309.5 1594.70   9
  -7   3   3 16432.1 1454.79   4
  -3  -7   3 18383.9 1545.74   3
   3   7  -3 17011.0 1499.02   2
  -3   3  -7 15698.0 1206.01   6
   3   3   7 18073.8 1549.03  10
  -3   7  -3 18530.1 1620.96   2
  -3  -3  -7 16863.7 1511.13   6
  -3  -3   7 18727.0 1603.21   4
   3  -7  -3 18230.7 1282.85   1
   3  -7   3 17931.6 1532.82   3
  -7  -3  -3 17071.2 1668.90   6
   7  -3   3 17896.7 1482.93   3
  -7   3  -3 16457.1 1346.00   6
  -3   7   3 18854.6 1401.02  10
   7  -3   3 16052.0 1456.22   5
  -3   3  -7 19640.1 1656.24   2
  -7   3  -3 18847.7 664.955   1
   7  -3  -3 15066.1 1046.43   5
   3  -3   7 17891.6 1469.75  10
   3  -3  -7 15261.2 1322.48   9
   3  -3  -7 16229.8 1390.54   6
   3   3  -7 20940.4 1871.91   2
   3   7   3 17472.2 1504.10   8
   7  -3  -3 16277.8 1620.36   9
  -3   7   3 17498.6 1382.78   8
   3  -3   7 15267.7 1272.14   3
   3   3  -7 16993.6 898.159   9
  -7   3  -3 19313.9 1298.71   2
   7   3  -3 16750.0 1332.58   7
  -3  -7  -3 19457.8 1044.58   3
  -7   3   3 17364.4 886.996   8
   3  -7  -3 17835.2 1326.49   3
  -7  -3  -3 16850.1 1381.12   1
  -3  -7  -3 14843.9 1220.90   6
   7   3   3 17425.5 1306.50  10
  -3   7  -3 19610.0 1806.36   8
   3  -7   3 17167.2 1273.71   9
   3   3  -7 18562.2 1316.25   8
  -7  -3  -3 19731.6 1125.96   4
  -7  -3   3 16449.0 1447.68   4
   7  -3  -3 16888.2 1419.14   7
   7   3  -3 16687.9 1284.48   5
   3  -3  -7 16542.0 1326.80   7
   3   7   3 17011.5 1343.44   5
   3   7  -3 16908.7 1391.66   8
  -3  -7   3 15573.4 1460.28   1
  -3  -7  -3 17886.5 1488.19   1
  -3   3   7 18495.5 1397.10   4
  -3   3   7 17445.8 1505.92  10
  -5  -7  -1 71494.4 3382.10   1
   5   1   7 72790.4 3227.39  10
  -1   5   7 71832.4 3376.97  10
  -7  -1   5 76944.7 3563.30   4
   1  -5  -7 66615.9 3051.78   6
   1  -5   7 66414.2 3186.72   3
  -1  -5  -7 63887.9 3057.49   6
  -1  -7  -5 66593.0 2879.42   6
   7   1  -5 69461.9 2606.71   2
   5  -7  -1 65864.3 3244.17   9
  -5   1   7 75228.9 3806.64  10
   5   1  -7 71004.1 3245.45   9
   1   7  -5 80624.0 3942.04   2
   5  -1  -7 72398.6 3388.17   9
  -5   1  -7 71426.7 3291.89   6
  -5  -1  -7 70912.6 3441.27   6
  -7   5   1 73115.5 3190.36   8
   7  -5  -1 70563.0 3424.68   3
  -1   5  -7 70694.9 2831.36   6
   5   1   7 69413.3 3316.92   5
  -7   1  -5 72469.0 3400.72   6
  -5  -7  -1 70623.5 3268.92   6
  -5  -7   1 69197.1 3370.53   1
  -5   7   1 78159.6 2735.71  10
   1   5  -7 76350.0 4006.98   2
   7  -5   1 70940.2 3460.74   3
   7  -1   5 71174.0 3068.14   3
  -5  -7   1 69308.9 3219.89   6
  -7  -5  -1 74065.6 3757.09   6
   5  -1   7 72735.0 2963.77   3
  -7  -1  -5 74941.0 3595.87   6
   5  -1  -7 70882.7 2043.64   5
   5   7   1 69861.4 3180.06   8
   5  -1   7 65531.3 3401.37   5
  -7  -5  -1 74071.9 3406.94   1
   5  -7   1 67731.1 3362.84   3
   7   1  -5 73970.9 2806.60   5
   1  -7   5 66184.8 3305.74   3
   7  -1  -5 66799.6 2397.07   5
  -7  -5   1 73524.3 3495.29   1
   7  -1   5 69515.8 2619.90  10
   7   1   5 66226.4 3272.99   5
  -1  -5   7 73608.1 3530.52   4
  -1   5  -7 79967.5 3952.81   2
   5   7  -1 65611.1 3134.97   5
  -1   5   7 75773.0 2081.49   5
   5  -1  -7 66832.8 3165.23   7
  -1   7   5 72626.1 3349.48  10
   5  -1  -7 78041.5 3429.63   2
  -1   7  -5 74649.9 3823.04   8
   5  -1   7 68499.3 3010.22  10
   7   5  -1 66037.9 3083.16   5
   7   1  -5 66976.9 3468.17   9
   1  -5  -7 68795.7 2758.57   7
   5   7  -1 68016.5 2454.58   7
   7  -5   1 66770.8 3522.99   9
   5   1   7 71247.9 2591.26   3
   7  -5  -1 69457.6 3559.60   9
   5  -7   1 65601.3 3205.39   9
   5   1  -7 72087.6 2536.30   5
   7  -1  -5 74023.2 3760.36   9
  -5  -1   7 81415.6 4062.17  10
   1  -7  -5 70841.7 2540.55   7
  -1   7  -5 75829.2 3867.82   2
   5  -7  -1 68445.5 3351.14   3
  -1  -7   5 70091.8 3420.88   3
   7   5   1 67843.3 3167.82   5
   5   7  -1 71151.8 3070.99   8
   5   7   1 62998.7 3080.03   5
   1   7   5 71544.0 3347.55  10
   1   5   7 70356.7 2550.20   5
   7  -1  -5 65770.1 2263.82   2
  -1   5   7 74960.0 2801.82   4
  -5   7   1 71664.8 3339.32   8
   5  -7  -1 69040.3 2315.72   1
  -7  -5   1 74297.8 3261.71   4
  -1  -5   7 67422.6 3272.32   3
   1   7  -5 77424.3 3607.98   8
   7   5  -1 73639.2 2838.74   7
  -7   5  -1 75033.5 2364.92   2
   1   5  -7 77916.2 3653.78   8
  -7   5  -1 76474.6 3707.97   8
  -1   5  -7 79780.2 3836.68   8
  -5  -1   7 72313.5 3475.31   4
  -1   7   5 72026.3 2444.15   5
   7  -1  -5 71377.0 3220.37   7
  -5   1   7 74981.8 3443.56   4
   1   5   7 78199.8 3577.02  10
   1  -7   5 68315.7 2013.99   9
   7   1   5 72978.8 2950.44  10
  -5  -7   1 71047.1 3309.16   4
   7  -1   5 71845.2 3470.26   5
  -7   1   5 77190.4 3535.41   4
   1   5   7 74063.7 2337.41   4
  -5   7  -1 72520.7 2875.47   2
   1   7   5 71453.2 2739.71   5
  -1   7   5 69982.9 3180.37   8
  -7  -5  -1 73085.0 2998.01   4
   5   1  -7 77527.1 3545.47   2
  -7  -1  -5 73800.5 2257.31   4
  -5   7  -1 73398.1 3700.26   8
   7   1  -5 63920.0 3088.48   7
   1  -7  -5 62738.5 2759.87   6
   7   3  -5 44044.7 2417.95   7
  -3  -7  -5 45907.6 2690.12   1
   5  -3   7 45254.1 2364.03  10
   3   7  -5 51154.3 2620.79   8
   3  -7  -5 41285.7 2214.02   6
   7  -3   5 45530.7 1994.79  10
   3  -5  -7 40569.0 2351.14   6
   7   3  -5 44761.2 2203.40   2
   3   5  -7 47259.9 2456.54   8
  -3   7   5 49027.5 1616.01   5
  -7   5   3 47703.1 2736.83   4
  -3  -7  -5 45651.3 2460.52   6
  -3   5  -7 44178.3 2026.33   6
  -5   7  -3 48073.1 3109.77   8
  -5   3  -7 48734.0 2713.48   2
   5  -3   7 44127.8 2379.97   3
   5   3  -7 42615.0 1953.29   9
  -7  -5   3 47295.5 2710.50   4
  -5   7  -3 48204.4 2661.41   2
   5   7   3 44772.9 2520.78   5
  -7  -5  -3 51622.5 2098.06   4
   5  -3  -7 48195.4 2596.02   7
  -7   5   3 47036.3 2042.36   8
  -5   3  -7 47645.6 2456.17   6
  -5  -3  -7 43168.7 2673.80   6
   5  -7   3 44692.2 2527.01   9
  -5  -7  -3 44232.6 2528.72   6
   5  -7  -3 45490.8 2533.64   3
  -5   7  -3 50193.9 1815.07   6
  -3   5   7 51766.8 2507.96   4
  -7  -3  -5 46073.4 2842.12   6
  -7   5  -3 45565.3 2280.10   6
   7   3  -5 42851.5 2194.21   5
   3   5  -7 48473.0 3087.21   2
  -7   5  -3 48364.6 2430.32   2
   5   3  -7 50761.2 2883.60   2
   5   3  -7 46328.9 1751.90   8
   7  -3   5 44700.0 2505.98   3
  -7  -5   3 43930.2 2823.29   1
   7  -3   5 43132.3 2717.03   5
   7  -3  -5 46904.7 1797.05   5
   3   5   7 50469.5 2837.33  10
   5   3   7 49377.0 2707.53  10
   7  -5   3 43874.1 2695.05   9
  -5   3   7 50740.8 2832.24  10
   5  -7  -3 46023.9 2011.46   1
  -3   5   7 46743.8 2596.27  10
  -3   7   5 50926.6 2658.18  10
  -7  -5  -3 47413.4 2669.82   1
  -3   7   5 47002.4 2370.49   8
   3  -7  -5 40537.6 2448.07   9
   3   5   7 45901.0 2252.12   5
  -7  -5  -3 44739.2 2895.95   6
  -7   5   3 54075.6 1937.67  10
  -5   7   3 46557.0 2350.73   8
   5  -7  -3 41626.1 2563.19   9
   7  -5  -3 45264.7 2563.75   7
   7  -5  -3 47022.2 2829.95   9
   7  -5   3 44861.9 2654.16   3
   7   5   3 45544.7 2530.10   5
  -5   7   3 49436.7 2244.65  10
   3  -7   5 43643.7 2595.47   3
  -3  -7   5 45239.1 2725.30   3
   3  -5   7 40074.5 2399.15   3
   7   3  -5 44540.0 2313.47   9
  -7   3  -5 47649.6 2442.13   2
  -7   3   5 47384.9 2739.29   4
   5   3   7 42735.1 2435.62   5
   5  -3  -7 45858.5 2646.98   9
   7  -3  -5 46521.4 2883.08   9
   3   7  -5 49210.6 2942.87   2
  -5   3   7 49585.3 2699.02   4
  -5  -7  -3 43679.3 2614.28   1
   7   5  -3 40237.5 2284.51   5
  -3  -5  -7 43629.6 2586.37   6
  -3  -7   5 45100.5 2876.90   4
   5   7  -3 46405.0 2324.40   8
  -5  -7  -3 49598.4 1882.46   3
  -3   7  -5 52350.6 3126.10   2
  -7   3   5 53634.1 2580.02  10
  -3  -5   7 45754.9 2805.02   4
   3   7   5 46339.5 2653.45  10
   7   3   5 49505.4 2520.49  10
   3  -7   5 44354.3 1962.68   9
  -5  -3   7 50920.5 2932.68   4
   3  -7  -5 47440.3 2250.07   7
  -7  -3   5 46541.6 2793.58   4
  -7   3  -5 46862.9 2524.89   6
  -7   5  -3 49820.4 2980.52   8
   5   7  -3 45467.1 2569.37   2
  -3   5  -7 49658.6 2984.43   8
   7   3   5 46157.3 2610.51   5
  -3   7  -5 47076.3 3075.97   8
   5  -7   3 48923.1 2781.50   3
   3   7   5 45466.3 2329.48   5
  -5  -7   3 46233.8 2769.85   4
  -3   5  -7 51564.8 3005.06   2
   7  -3  -5 43184.5 2452.66   7
  -7  -3  -5 47685.0 2588.37   1
  -5  -7   3 44476.0 2768.93   1
   3  -5  -7 44741.4 2293.27   7
   7   5  -3 45708.8 2319.97   7
  -5   5   7 88182.2 3804.24   4
   7   5  -5 72006.5 3253.44   7
  -5  -7  -5 75867.0 3611.00   6
  -7   5   5 85969.5 3887.11   4
  -5   7   5 79206.8 3677.11   4
   5   5  -7 82351.0 3979.12   2
  -5  -7  -5 77947.5 3765.28   1
  -7  -5  -5 81842.3 3763.28   1
  -5  -5  -7 76505.3 3835.02   6
   7   5   5 80319.0 3610.74  10
  -7  -5  -5 76094.1 3911.47   6
   5  -5  -7 77459.1 3424.72   7
  -7   5  -5 85786.8 3340.11   6
  -7   5  -5 84119.3 3693.77   2
   7  -5   5 74495.6 3567.65   3
  -7   5   5 91685.2 3432.99  10
  -5   5  -7 78010.1 3761.02   2
   5   5   7 86088.7 3928.61  10
   5   5   7 79501.8 3479.76   5
  -5   7   5 82158.2 3377.19  10
   7   5   5 73592.8 3511.08   5
   5  -7   5 75816.1 3638.02   3
   5   7   5 77592.1 3458.26   5
   7  -5   5 76204.8 3581.00   9
  -5   5  -7 80755.9 3088.43   6
   7   5  -5 75739.0 2659.27   8
  -5   7   5 76511.7 3101.57   8
   7  -5  -5 75324.5 3837.77   9
  -5   7  -5 88370.7 4450.04   8
   5  -7  -5 71876.3 3627.93   9
   5  -5  -7 72442.3 3611.88   9
  -5  -7   5 84956.2 4093.58   4
   5   7  -5 76140.0 3715.87   2
   7   5  -5 75419.5 3351.30   2
  -5   5  -7 78093.4 3968.01   8
   5   7  -5 75523.5 3173.97   8
   5   5  -7 80618.1 2939.91   8
  -5   7  -5 84019.4 4029.61   2
  -7  -5   5 81737.6 3936.31   4
   7   5  -5 71678.6 3249.10   5
  -7   5  -5 79664.1 3994.49   8
   5   7   5 78546.9 3686.22  10
  -5  -5   7 85118.3 4093.98   4
   5  -7  -5 74912.4 3345.56   7
   7  -5  -5 76533.4 3499.73   7
   5  -7   5 79500.4 3253.93   9
  -5   5   7 81682.1 3662.61  10
   5  -5   7 76081.6 3494.46   3
   7   1  -7 14039.0 1384.26   7
  -1   7   7 13688.7 1109.96   4
   7   1   7 14631.6 1121.96   3
   1  -7  -7 12048.3 1230.40   6
   1   7  -7 17177.5 1883.83   2
  -7  -7  -1 13024.3 1515.04   6
   7   1  -7 14110.2 1236.10   2
   7  -7   1 11980.7 1437.41   9
   7   7  -1 11364.0 1261.72   5
   7  -7   1 12408.8 1434.06   3
   7   1  -7 13243.1 1041.25   5
  -1   7  -7 14808.8 1710.65   2
   7   1   7 14506.6 1525.25   5
  -1   7   7 15155.4 1547.01  10
   7  -1  -7 15364.9 1205.85   2
   7  -1   7 13953.8 1573.36   5
   7   1  -7 13076.7 1454.13   9
   7  -1  -7 14152.5 1432.96   7
  -7  -1  -7 13123.4 1460.19   6
  -7   1  -7 12434.2 1356.92   6
  -1   7  -7 16048.9 1751.09   8
   7  -1  -7 15048.4 1644.07   9
   1   7   7 15606.8 1580.42  10
  -7   1   7 16457.2 1656.60   4
   1  -7   7 13358.3 1427.65   3
   1   7   7 14363.3 1036.17   5
   7  -7  -1 12585.8 1464.33   9
   7  -7  -1 14594.7 1549.46   3
  -1  -7   7 15469.7 1578.15   3
  -7  -7   1 15229.5 1451.33   4
   7  -1   7 14107.0 1211.83  10
  -7  -1   7 15380.8 1613.62   4
  -7  -7  -1 16875.7 1417.14   4
   1   7  -7 13534.8 1528.43   8
  -1  -7  -7 11361.3 1204.13   6
  -7   7   1 15981.7 1531.86   8
  -7   7  -1 16545.1 1737.66   8
   7   1   7 14035.2 1307.59  10
   7  -1   7 14665.6 1283.49   3
  -7   1   7 16752.4 1678.90  10
  -7  -7  -1 13725.6 1481.48   1
   7   7   1 13562.9 1403.36   5
   1  -7  -7 13924.9 1028.14   7
   7   7  -1 14083.2 1041.62   7
  -7  -7   1 13795.3 1545.09   1
   3  -7  -7 5646.02 840.568   6
  -3  -7   7 6191.53 1108.69   4
   7   3  -7 5418.57 874.383   7
  -7   7  -3 7446.12 928.119   2
  -3  -7  -7 5966.94 930.061   6
   7   3  -7 6729.43 901.117   2
  -7   3  -7 5831.48 862.435   6
   7  -3   7 7581.30 868.705  10
  -7   7  -3 6638.53 771.132   6
  -3   7   7 8216.29 1102.47  10
  -7   3   7 8498.40 1148.03  10
  -7  -3  -7 5951.27 975.664   6
   7  -7   3 5912.89 977.735   3
  -7  -7   3 7752.08 1215.45   1
   7   7   3 5762.34 908.879   5
   7  -3   7 5788.58 859.088   3
   3   7  -7 7433.73 1203.40   2
   7   3   7 5970.78 948.893   5
  -7  -3   7 7128.70 1135.42   4
   3   7   7 7365.21 857.145   5
   7   3  -7 6455.73 806.834   9
  -3   7  -7 7335.92 1274.31   8
   7  -7   3 5927.12 967.507   9
   3   7   7 6854.47 1035.26  10
   7   7  -3 5681.75 861.948   5
   7   3  -7 5297.92 710.736   5
  -3   7   7 6085.29 821.219   4
   7  -7  -3 5118.71 921.060   9
  -3  -7   7 7961.24 1166.25   3
   3  -7  -7 7170.10 850.731   7
  -7   3  -7 6652.59 991.838   2
  -7  -7   3 6786.46 1099.60   4
  -7   7   3 5946.60 794.034   8
   3   7  -7 6655.75 957.857   8
   7   7  -3 5970.59 767.052   8
  -3   7  -7 7597.25 1196.46   2
   3  -7   7 6643.99 1014.40   3
  -7   7  -3 7124.78 1207.77   8
   7   3   7 7356.65 1006.68  10
  -7  -7  -3 7137.73 1064.58   1
  -7   3   7 7146.54 1102.93   4
   7  -3  -7 6054.07 912.544   7
   7  -3  -7 5676.92 976.339   9
  -7  -7  -3 6342.62 1053.73   6
   7   7  -3 5925.27 764.952   7
  -7  -5  -7 22944.3 1982.57   1
   7  -5  -7 21502.0 1779.62   7
  -7   7   5 22904.0 1972.75   4
   7   7  -5 21122.2 1409.87   8
   7   5  -7 23409.7 1863.68   2
   5   7  -7 22651.5 2076.13   2
  -5  -7  -7 19836.5 1852.13   6
  -7  -7  -5 20374.6 1912.66   6
  -7   5  -7 23214.0 1627.89   6
  -7  -5  -7 19246.3 1891.83   6
  -7   7  -5 24290.1 1958.10   2
   7  -7   5 20820.3 1722.05   9
   5  -7  -7 20225.8 1611.98   7
  -7  -7  -5 21443.5 1920.07   1
  -5   7  -7 24109.9 2127.60   2
   7  -7   5 20908.5 1829.22   3
   7  -5   7 20595.3 1734.48   3
  -7   7  -5 23810.4 2229.50   8
   7  -7  -5 20353.8 1893.70   9
   7   5   7 21636.0 1906.34  10
   5   7   7 22106.7 1949.31  10
  -7   5   7 24785.5 1920.13  10
   7   5  -7 19497.5 1532.03   5
  -7   5  -7 22410.2 2073.55   8
   7   7  -5 19658.8 1647.64   5
   5  -7  -7 21708.4 1884.83   9
   7  -5  -7 19693.8 1880.92   9
  -5  -7  -7 21445.9 1957.53   1
   5   7   7 21415.3 1683.63   5
   7   5   7 21104.6 1819.08   5
   7   7   5 22862.4 1903.15  10
  -7  -5   7 24653.3 2160.61   4
   7   7   5 21023.0 1788.03   5
  -5   7   7 24589.5 1905.28   4
  -5   7  -7 23396.4 2212.44   8
  -7  -7   5 22140.0 2031.76   4
  -7   5  -7 21780.8 1864.10   2
  -5   7   7 24417.3 1877.22  10
  -5  -7   7 23472.6 2153.60   4
  -7   5   7 22527.4 1949.74   4
   5  -7   7 18624.3 1708.82   3
   7   7  -5 21014.8 1763.88   2
   7  -7  -5 22269.8 1808.48   7
   5   7  -7 22155.4 1581.27   8
   7  -7  -7 3182.00 685.988   7
   7   7   7 2878.01 720.358   5
  -7  -7  -7 1827.79 589.658   1
  -7  -7   7 2528.03 813.434   4
  -7   7   7 2599.32 687.393   4
   7   7   7 1613.62 546.531  10
  -7  -7  -7 2743.69 765.025   6
   7  -7   7 2191.69 604.547   3
   7  -7  -7 1621.00 526.531   9
   7   7  -7 2429.33 664.027   2
  -7   7  -7 3541.70 869.269   2
  -7   7  -7 2337.29 794.401   8
   0  -8   0 877412. 16176.3   6
   0   0  -8 665686. 17562.7   6
  -8   0   0 656481. 17330.0   4
   0  -8   0 708270. 17769.2   3
  -8   0   0 692991. 16253.0   2
   0   0   8 698780. 18195.0  10
   8   0   0 851988. 19438.5   9
  -8   0   0 783165. 17360.3   1
   0   8   0 734077. 18160.8   8
   0   0   8 707082. 17154.6   4
   0  -8   0 719210. 17508.5   1
   8   0   0 811035. 17809.1   5
  -8   0  -2 22142.8 1384.68   4
   2   0  -8 19124.3 1556.35   6
   0   8   2 23256.1 1744.20   8
  -8   2   0 19962.7 1505.16   4
   0  -8  -2 17376.3 1041.39   6
   0  -8  -2 25085.8 1657.69   1
   2  -8   0 21823.4 1400.38   1
  -2   0  -8 20981.2 1584.77   6
   0  -8  -2 20805.3 1410.24   3
  -2  -8   0 17984.9 1036.29   6
   0   2  -8 20892.2 1547.43   6
  -2   8   0 20814.9 891.932   6
  -8  -2   0 23274.7 1630.08   1
   0  -8   2 20923.4 1589.21   1
   2   0   8 21542.2 1701.21  10
  -2   0   8 21114.3 1560.76   4
   0  -2   8 22924.1 1875.13  10
   8   0   2 22246.6 1636.37   5
   8   0  -2 20339.7 1384.02   5
   8   2   0 24697.9 1632.02   5
  -2   8   0 19909.4 1688.78   8
   0   2  -8 25019.9 2003.66   2
   2   0  -8 21906.0 1426.50   9
   8   0  -2 22589.1 1991.69   9
   8  -2   0 20907.2 1930.37   9
   0  -8   2 18998.9 1583.36   3
   2   0   8 19159.9 1220.89   3
   0  -2  -8 19581.4 1545.65   6
   8   0   2 20792.7 1069.06  10
   0  -2   8 21659.3 1522.15   4
  -2  -8   0 21052.4 1487.62   3
   2   8   0 21113.7 1676.43   8
   2  -8   0 20392.6 1470.32   9
   0   2   8 20930.1 1709.83  10
   0  -2   8 20905.8 1459.22   3
   0   8  -2 23006.4 1819.39   8
   2   0  -8 22803.3 1854.47   2
  -8   0  -2 23241.5 1311.22   1
   0   2   8 21157.9 1280.42   4
   2  -8   0 19893.7 1600.39   3
  -2  -8   0 21822.7 1613.02   1
   8  -2   0 20464.8 1451.18   5
   0  -8   2 19718.5 1240.75   9
  -8  -2   0 21486.5 1448.47   4
   8   2   0 22836.8 1525.38   7
   8   0  -2 20656.2 1582.83   7
  -2   0   8 23242.7 1921.86  10
  -8   0   2 22521.3 1646.44   4
   0   8  -2 21645.5 1729.44   2
  -2   8  -2 417323. 11591.3   2
  -8   2   2 387861. 11309.1   4
  -2   2   8 397073. 11662.1  10
   2  -2  -8 420766. 11453.6   6
   8  -2  -2 429798. 11492.2   7
  -8   2  -2 392228. 11031.6   4
  -2   2  -8 373128. 10894.7   6
  -2  -2  -8 410927. 11476.2   6
   8   2  -2 483530. 11290.2   5
   2  -2   8 405957. 11581.4  10
   2   8  -2 464203. 11778.8   8
   8  -2   2 430542. 11540.5   3
  -2  -8   2 464284. 9949.06   6
   2  -8   2 491514. 11225.3   9
  -8   2  -2 435534. 9654.47   1
  -2  -2   8 436975. 12469.2  10
   2  -8  -2 410696. 11095.9   3
   2   2   8 401864. 10969.4   5
   2  -8  -2 382585. 10735.3   1
  -2  -8  -2 436614. 10824.9   3
   2   2   8 404885. 11576.3  10
  -2  -8  -2 406022. 11387.6   1
  -2  -8   2 392865. 11423.6   1
  -8  -2   2 425362. 11752.1   1
  -2  -2   8 413825. 11428.7   4
  -2  -8  -2 444021. 10616.2   6
   8   2  -2 417706. 11866.1   9
   8  -2   2 468753. 12607.8   9
  -8   2  -2 421382. 10301.6   2
   2  -2   8 426342. 10899.7   3
   2   2  -8 435353. 12380.9   2
   2   2   8 467279. 10181.9   3
  -8  -2  -2 426437. 11101.4   1
   2  -8   2 402000. 11608.1   3
   2   2   8 431511. 9810.58   4
   2   2  -8 369555. 10277.2   9
   8  -2   2 435404. 11459.8   5
  -2   2  -8 376004. 11679.5   2
  -2  -8   2 392421. 11348.7   3
  -2   8  -2 419835. 12126.7   8
   8   2   2 445269. 11488.2   5
   2   8   2 437236. 11748.4   8
  -8   2   2 445784. 10354.0   8
   2   2  -8 419476. 11334.6   8
  -2   2   8 388824. 10890.8   4
   8  -2  -2 423846. 12416.6   9
  -8  -2   2 388976. 11197.2   4
   2  -8   2 434553. 11134.6   1
  -8  -2  -2 411848. 10545.7   4
  -2   8   2 395943. 11410.3   8
   2   8  -2 413957. 11650.8   2
   8   2  -2 443689. 11334.9   7
   8  -2  -2 414155. 10646.1   5
   0   4   8 680901. 16058.5   4
  -8   0  -4 681031. 16213.1   4
   0   4  -8 556342. 16580.5   6
   8   4   0 750278. 17295.9   5
   0  -4  -8 759062. 17424.7   6
   0  -8  -4 792173. 16664.8   6
   0  -8  -4 658846. 17163.0   1
   8   0  -4 798214. 16635.2   5
  -8   0  -4 639638. 16363.6   1
   8  -4   0 705618. 17702.2   3
  -8   0  -4 669459. 17607.9   6
   0  -8  -4 668836. 15927.8   3
  -8  -4   0 699417. 17542.5   1
  -4  -8   0 694493. 16881.1   3
   0   4   8 642227. 15915.4   5
   4   0   8 670353. 17509.7   5
   8  -4   0 680422. 17019.0   5
   0   8  -4 734568. 18371.9   2
   4  -8   0 600741. 17199.5   3
  -4   0   8 648494. 18289.0  10
   4   0  -8 692763. 17937.4   2
   8   0   4 745399. 17679.2   5
   8   0   4 725105. 16178.3  10
   4   0   8 692532. 17372.8  10
   0   4  -8 695232. 18382.5   2
   0   4   8 692641. 17664.4  10
   0   8   4 679645. 17414.4  10
  -8   4   0 538179. 16932.2   8
  -4   0  -8 639331. 17281.3   6
   0   8   4 660048. 16408.1   5
   8   0  -4 690806. 18281.8   9
   0  -8   4 612932. 17309.5   3
   0  -4   8 714830. 17451.1   4
   0  -4   8 693981. 17196.7   3
   0   8   4 679779. 17418.9   8
   4   8   0 723466. 17448.1   8
  -8   4   0 651130. 17345.7   4
   4   0   8 835851. 16777.9   3
  -4   8   0 583107. 17388.9   8
   0   8  -4 743268. 18234.5   8
  -8  -4   0 650823. 16851.8   4
  -4  -8   0 719208. 16783.5   6
   4  -8   0 691397. 16227.2   1
  -4   0   8 609539. 17171.7   4
   0   4  -8 709877. 17938.6   8
   4   0  -8 668230. 17100.8   9
   4  -8   0 801263. 17618.2   9
   8  -4   0 722597. 18304.4   9
   8   4   0 735764. 16651.0   7
  -8   0   4 629414. 17367.0   4
  -4  -8   0 677941. 17449.0   1
   8   0  -4 728104. 17326.7   7
   4   8   0 665474. 15385.8   7
   2  -8  -4 17547.3 1422.55   1
   4  -2   8 16919.3 1452.08  10
   4   8   2 16088.2 1503.30   8
   4   2  -8 17737.9 1155.27   8
   2  -8  -4 13592.8 1111.97   6
   8   2   4 17389.0 1306.95  10
   2   8  -4 18440.1 1745.51   2
   2  -4  -8 18379.2 1534.48   6
   2   4  -8 19998.5 1996.82   2
  -8  -4   2 17094.5 1643.37   1
  -8   4   2 18771.4 1613.84   4
  -4   8   2 17413.9 1513.62   8
  -2  -4  -8 14270.9 1408.15   6
  -8  -4   2 16670.5 1495.59   4
  -4  -2   8 20182.2 2017.10  10
  -2  -8  -4 13798.4 1190.98   6
  -4  -8   2 17570.7 1613.70   1
  -4   2  -8 16740.7 1429.34   6
  -2  -8  -4 17270.3 1546.46   1
  -4  -2  -8 15623.8 1584.58   6
   8   2  -4 14958.8 1049.69   2
  -8   2  -4 17125.3 999.951   1
   2  -4  -8 18095.7 1404.31   7
  -4  -8  -2 14266.6 1231.28   6
  -2   4  -8 14345.9 1200.74   6
  -4   8  -2 17447.4 1489.97   2
   2  -8  -4 16511.0 1211.87   3
   8  -2   4 15897.6 1440.43   3
   8  -4   2 15850.1 1542.19   3
  -8  -2  -4 17914.2 1431.99   1
  -8  -2  -4 16713.0 1690.90   6
  -8   4  -2 19743.6 1171.82   2
  -8   2  -4 15570.9 1459.69   6
  -4  -8   2 16815.7 1275.13   6
  -8  -4  -2 18568.8 1839.82   6
   4  -8  -2 18137.7 1535.69   3
   8   2   4 16626.2 1498.15   5
   4   2   8 17428.2 1479.47   5
  -2  -8  -4 16588.3 834.445   3
   4   2   8 16551.9 917.857   3
   8  -4   2 15439.4 1468.99   5
   8  -4  -2 16081.1 1264.96   5
  -2  -8   4 15475.2 1552.58   1
   2   4   8 17752.8 1265.05   5
   4  -8  -2 16662.8 1141.27   1
  -4   2   8 18256.5 1717.47  10
   4  -8   2 16798.6 1595.59   3
   2   4   8 17346.9 1622.39  10
  -4  -8  -2 17608.4 1578.11   1
  -8  -4  -2 18817.1 1585.86   1
   4   2  -8 19817.5 1864.24   2
   4  -2   8 16252.6 1318.12   3
  -4  -8  -2 17514.2 1214.06   3
   8   4   2 14875.6 1365.26   5
  -4   8   2 18938.0 1408.17  10
   2   8   4 17646.6 1561.38  10
   4   8  -2 16073.8 1416.32   8
  -4   2   8 20074.0 1615.14   4
   8   2  -4 16178.0 1293.75   5
  -2   8  -4 19289.1 1822.61   2
  -2   4  -8 16813.3 1640.09   8
   8   2  -4 15822.5 1522.13   9
   8  -4   2 18087.0 1764.11   9
  -2   4  -8 18258.9 1755.22   2
   8   4  -2 16392.2 1326.10   7
   2   8   4 16556.9 1320.89   5
   8   4  -2 14762.8 1321.08   5
   2  -8   4 18421.3 1185.16   9
   8  -2  -4 17389.4 1833.64   9
   8  -4  -2 15592.0 1687.53   9
   4   8   2 15541.1 1415.29   5
   8  -2   4 17244.5 1596.71   5
   4  -8   2 16030.9 1404.58   9
   4   2   8 16936.4 1546.95  10
  -8  -2   4 21465.8 1755.20   4
   4  -8  -2 15786.7 1457.98   9
   2  -4   8 15127.1 1326.95   3
   4   2  -8 20414.1 1366.62   9
   2   8   4 16496.4 1581.31   8
  -2   8   4 16826.2 1461.50   8
  -2  -8   4 18243.9 1657.75   3
  -2   4   8 18545.4 1618.93  10
   2   8  -4 18024.1 1591.49   8
  -4  -8   2 16463.1 1490.69   3
   2  -4   8 16827.0 1576.28  10
  -8   4   2 17252.6 1204.78   8
  -4   8  -2 18891.0 1877.60   8
  -8  -4  -2 17878.4 1283.76   4
  -4  -2   8 17204.1 1616.05   4
   2   4  -8 18823.3 1605.40   8
  -2   4   8 17606.7 1331.07   4
  -8   4  -2 18703.1 1691.53   8
  -2  -4   8 17326.0 1604.87   4
   4  -2  -8 15686.5 1427.14   9
   2  -8   4 15432.5 1527.39   3
  -8  -2  -4 18150.1 1051.50   4
  -2   8   4 17940.3 1536.13  10
   8  -2   4 16616.2 928.836  10
   8  -2  -4 16566.0 1468.14   7
   8  -2  -4 15078.4 1027.69   5
   8   2  -4 16663.3 1424.60   7
  -8   2   4 18567.3 1631.41   4
  -2   8  -4 17757.8 1837.37   8
   4   4   8 619534. 16234.1   5
  -4   4  -8 645003. 15999.6   6
  -4   8  -4 618465. 17164.3   2
  -4  -4  -8 660426. 17172.1   6
  -4  -8  -4 703170. 16580.1   6
   4  -8  -4 601139. 16137.5   3
   8   4  -4 692458. 16429.6   5
  -8  -4  -4 654025. 17686.4   6
  -4  -8  -4 657687. 16989.9   1
  -8   4  -4 623529. 16379.6   6
   8  -4   4 674642. 17053.4   3
   4  -4   8 651339. 16649.0  10
   4  -8   4 681490. 17110.9   3
   8  -4   4 698688. 17360.8   5
   4   4  -8 604384. 17579.9   2
   4   8   4 612963. 16404.5   5
  -8  -4  -4 678333. 16848.8   1
   4  -8  -4 718185. 17059.1   9
  -4  -8   4 666225. 17367.2   1
  -8   4  -4 681203. 16351.7   2
  -4   8  -4 546172. 17432.2   8
   8  -4  -4 639987. 17522.3   9
   8  -4  -4 691218. 16844.4   7
   8   4   4 670606. 16832.4   5
   8   4   4 678054. 16501.7  10
   8   4  -4 641611. 16415.8   7
   8  -4   4 722366. 17562.5   9
   4  -8   4 738783. 16389.4   9
  -4   4  -8 619170. 17042.0   2
   4   4   8 666088. 17158.0  10
   4  -4  -8 636081. 16695.9   9
   4  -4   8 702554. 16660.1   3
  -4   4   8 632513. 16919.3  10
  -4   8   4 590573. 16141.1   8
   4   8  -4 703828. 16674.0   8
  -4  -4   8 656214. 17269.9   4
  -4  -8   4 609736. 16963.2   3
   4   4  -8 706433. 16012.9   8
  -8  -4   4 609466. 16898.1   4
  -4   8   4 579555. 16239.2  10
  -4  -8   4 636328. 17392.8   4
  -4   4   8 629739. 16510.0   4
  -8   4   4 653315. 17023.9   4
   4  -4  -8 691665. 16741.5   7
   4   8  -4 682377. 17208.3   2
   4  -8  -4 585224. 15841.2   1
   6   0  -8 12711.2 1343.03   7
   0  -8  -6 11386.7 1116.48   6
   0  -6  -8 12690.4 1286.76   6
   0  -6  -8 13983.1 1066.41   7
  -6   0  -8 13345.2 1433.91   6
   0   8  -6 15540.0 1787.14   2
   8   0   6 12985.6 1203.62   3
  -8  -6   0 14581.2 1531.41   1
  -8   0  -6 12912.2 1426.17   6
   8  -6   0 14141.5 1545.35   3
  -6  -8   0 12619.6 1367.37   6
   6  -8   0 14303.0 1532.30   3
   6   0   8 12698.0 1105.41   3
   6   0   8 13391.3 1509.43   5
   0   6  -8 13746.6 1708.12   2
   0   8  -6 14922.0 1682.53   8
   6   0   8 12071.5 1241.12  10
  -6   0   8 14828.6 1746.82  10
   8   0   6 12435.0 1085.87  10
   6   0  -8 13461.6 1396.92   2
   0   8   6 13677.7 1467.40  10
   8   0  -6 12794.5 993.718   5
   6   0  -8 13535.2 1447.92   9
   8   0   6 12789.6 1460.04   5
   6   8   0 12174.4 1325.31   5
   8   0  -6 14913.2 1667.53   9
   8  -6   0 13874.0 1589.75   9
   6  -8   0 10853.6 1312.51   9
   0  -8   6 14433.5 1553.94   3
  -6  -8   0 12657.9 1424.67   1
   0  -6   8 11594.7 1316.74   3
   8   6   0 12812.6 992.559   7
   6   8   0 10883.2 1205.60   8
   0   6   8 14040.2 1501.17  10
  -6   0   8 13364.9 1512.98   4
  -8  -6   0 13452.6 1300.12   4
  -6   8   0 15168.2 1657.27   8
   8   0  -6 12951.5 1330.75   7
   0   6  -8 14105.8 1614.50   8
  -8   0   6 14291.4 1579.82   4
  -8   6   0 14236.8 1502.25   8
   0   8   6 13015.6 975.507   5
   8   6   0 13393.4 1358.97   5
   0   6   8 13196.5 986.179   4
   2  -8  -6 387719. 10052.0   6
   8   2  -6 336231. 9355.84   2
   2  -6  -8 377840. 10375.1   6
   8   6   2 365790. 10431.6   5
  -8   6   2 359848. 10824.7   4
  -2  -6  -8 383070. 10582.1   6
  -2   8   6 373457. 9979.71   4
  -2  -8  -6 387606. 10241.8   6
   2   8  -6 388934. 11567.9   2
   6   8  -2 392340. 10174.1   8
  -6   2  -8 373418. 10460.0   6
  -6  -2  -8 362717. 10856.3   6
   6  -8   2 379729. 10818.2   9
   8   2  -6 336111. 10339.7   9
  -8  -2  -6 368727. 10965.1   6
  -2   8  -6 378681. 11449.4   2
  -6  -8  -2 345520. 10363.3   6
  -8   2  -6 373528. 10491.9   6
   6   8   2 353851. 10469.5   5
   6  -8  -2 344062. 10562.6   3
   8   2   6 354232. 9992.23  10
  -8  -6  -2 362718. 11355.7   6
   8  -6   2 355196. 10841.7   3
   8  -2   6 377710. 10383.6   3
  -2   8   6 352577. 10599.9  10
  -2   6  -8 373556. 11460.7   2
   6   2   8 368612. 10654.2   5
   2   6  -8 343316. 11400.9   2
   6   2  -8 356189. 10645.8   2
   6  -8   2 353537. 10727.9   3
   8  -2   6 361015. 11037.9   5
   2   6   8 355893. 9392.52   5
   6  -2  -8 393424. 10745.6   7
  -6   2   8 351774. 11157.6  10
   8  -2   6 355190. 9311.41  10
   6  -2   8 354358. 9977.05  10
   8   6  -2 372292. 10338.7   5
   6   2   8 362095. 10473.1  10
  -2   6   8 360022. 10675.0  10
   8   6  -2 346915. 9664.78   7
   2   8   6 360192. 10630.2  10
   2   8   6 359147. 9615.81   5
   2   8  -6 399823. 11013.1   8
   8   2  -6 417862. 9977.37   5
   2  -8   6 336205. 10572.1   3
  -8  -2  -6 368420. 10300.2   1
   8  -2  -6 363669. 11348.9   9
   8  -6  -2 353846. 11005.1   9
   2  -6   8 350648. 10375.0   3
   6   2  -8 437562. 9682.44   5
   6   8  -2 375135. 10474.0   5
  -6  -8   2 348368. 10827.2   1
   6  -2  -8 365615. 10803.7   9
   6  -8  -2 380621. 10826.1   9
   2   6  -8 368082. 10712.8   8
  -8  -2   6 345354. 10842.8   4
  -6  -8  -2 362774. 10765.9   1
   8  -6   2 356023. 10870.4   9
  -2  -6   8 349550. 10900.4   4
  -6  -8   2 346910. 10569.0   4
  -2   6  -8 349329. 9488.50   6
  -8  -6  -2 363920. 9770.59   4
  -2  -8   6 330358. 10685.6   3
  -8  -6  -2 379926. 10881.9   1
  -8  -6   2 369535. 10486.8   4
  -6   8  -2 321152. 11078.0   8
  -8   6   2 369093. 9938.50   8
   2   6   8 374304. 10942.4  10
  -6   8   2 330892. 10161.0   8
  -2   8  -6 341743. 11346.8   8
  -6  -2   8 327109. 10754.6   4
  -8   6  -2 374208. 11312.0   8
  -6  -8  -2 380704. 9550.00   3
  -2   6  -8 361381. 11167.3   8
  -8  -6   2 344932. 10931.8   1
   8   2   6 357641. 10620.1   5
   6   2  -8 321398. 9817.80   9
   2  -8  -6 361223. 9395.95   7
  -6   2   8 328682. 10545.0   4
   6  -2  -8 389278. 10442.5   2
  -8   2   6 344155. 10727.2   4
   8  -2  -6 357593. 10347.5   7
   6  -2   8 397057. 10135.4   3
   2  -6  -8 368009. 9741.50   7
  -6   8  -2 339258. 9784.22   2
   8   2  -6 354323. 10334.0   7
  -2   6   8 375474. 9850.00   4
  -2  -6   8 329037. 10458.1   3
   6   8  -2 344335. 9274.45   7
   8   4  -6 9106.29 1111.64   7
   8   4  -6 9310.02 1019.28   2
  -4   8  -6 10493.6 1548.43   8
   4   8  -6 10149.0 1365.35   2
  -8   6   4 10288.1 1299.40   4
  -4   8   6 10245.5 1190.14   4
  -4  -8  -6 9438.95 1233.00   1
  -6   8  -4 10104.5 1245.42   2
  -8  -4  -6 10179.6 1240.41   1
  -4  -6  -8 9188.57 1234.61   6
  -4  -8  -6 8513.69 1127.53   6
  -6   4  -8 9085.14 1058.29   6
  -6  -4  -8 10256.3 1344.16   6
  -6  -8  -4 9118.45 1168.57   6
  -8  -4  -6 10524.8 1384.63   6
  -8   4  -6 9567.17 1098.86   6
   6   4  -8 10895.8 1337.39   2
   4   6  -8 11699.0 1545.52   2
  -8  -6  -4 7596.92 1264.26   6
   6  -8   4 8811.71 1103.57   9
  -8   6  -4 9520.92 1040.10   6
   8   6   4 11479.0 1293.13   5
  -8   6  -4 11260.9 1185.53   2
  -8   4   6 12467.7 1224.65  10
   6  -8   4 9803.38 1259.38   3
  -8   4  -6 9450.66 1133.35   2
   8  -6   4 9988.31 1270.09   3
   8  -4   6 10111.8 1222.97   3
   6   8   4 8650.67 1142.31   5
   6   4   8 9085.80 1147.08   5
   8   4   6 9816.67 1240.00   5
   4  -8   6 9025.37 1193.55   3
   6  -4   8 10381.0 1116.17  10
  -6   4   8 11147.9 1377.09  10
   6  -4   8 11163.4 1197.56   3
  -6  -8  -4 10610.8 1337.19   1
   8   4  -6 9177.58 1028.42   5
   4   8   6 10431.8 1289.46  10
  -4   6   8 11552.8 1330.52  10
   4   6   8 9391.52 1041.31   5
   6   8  -4 9449.62 1207.06   2
  -6   8   4 10229.4 996.567  10
  -8  -6  -4 10500.6 1322.69   1
   6   4   8 10574.8 1306.72  10
   4   6   8 10015.4 1297.36  10
  -4   8  -6 10390.9 1392.50   2
   8   4   6 10135.6 1183.30  10
  -6   4  -8 9830.39 1244.58   2
   4  -6   8 9428.53 1168.97   3
   8  -4  -6 7513.49 1061.79   7
   4   8   6 10334.8 1111.74   5
  -6   4   8 11206.5 1354.08   4
   8  -6   4 9658.13 1246.50   9
  -6  -8   4 13130.3 1568.65   1
   8   6  -4 7749.33 1006.90   5
   8  -4  -6 9139.51 1302.21   9
   8  -6  -4 8515.15 1246.59   9
   6  -4  -8 8172.06 1170.60   9
   4   6  -8 9675.56 1077.37   8
   4  -8  -6 9484.65 1210.97   9
   4  -6  -8 9705.04 1225.91   9
  -8  -6   4 10148.6 1308.80   4
  -8  -4   6 10438.7 1390.37   4
  -4  -8   6 10562.4 1454.37   4
  -4   8   6 10190.9 1092.06   8
   6  -8  -4 8311.23 1183.44   9
  -6  -8   4 10478.2 1355.80   4
  -4   8   6 9872.86 1179.30  10
   6   8  -4 9812.37 1040.04   8
  -4  -6   8 13223.5 1570.84   4
  -6   8   4 10068.5 1057.96   8
   4   8  -6 9474.72 1114.24   8
  -6  -4   8 10454.4 1417.93   4
  -4  -8   6 10608.8 1383.70   3
  -6   8  -4 12803.8 1673.08   8
  -8   4   6 13762.1 1516.91   4
  -8   6  -4 11512.9 1485.76   8
  -4   6  -8 11060.9 1460.48   8
   6  -4  -8 10039.7 1212.78   7
   8   6   4 10562.8 1240.17  10
   4  -8  -6 10101.1 1061.36   7
   4  -6  -8 9560.45 1067.69   7
   8   6  -4 9238.43 1057.10   7
  -4   6   8 10498.5 1169.98   4
  -4   6  -8 11151.0 1417.67   2
   6   8  -6 301068. 9474.70   2
   8   6  -6 278937. 8729.38   7
   8   6  -6 299475. 8787.94   5
  -6   8   6 305076. 9411.76   4
   6   6  -8 308502. 9783.70   2
  -8   6   6 306672. 9574.25   4
  -6  -6  -8 291321. 9602.00   6
  -6  -8  -6 289201. 9270.00   6
  -8  -6  -6 282368. 9612.54   6
  -6   8   6 297579. 8738.74  10
  -6   8  -6 324661. 9766.64   2
  -8  -6  -6 301934. 9473.74   1
   8  -6   6 304684. 9348.36   3
  -8   6  -6 314568. 9366.37   2
   6   6   8 308761. 9652.40  10
   6   6   8 309808. 9109.23   5
  -6   6  -8 301386. 9558.83   2
   8   6   6 293971. 9206.08   5
   6   8   6 285391. 8955.56   5
   8   6   6 307371. 9363.80  10
   6   8   6 298662. 9411.36  10
   6  -8  -6 287648. 9364.74   9
   8  -6  -6 282467. 9553.29   9
   6  -6  -8 290999. 9449.85   9
  -6   6   8 294602. 9243.01  10
  -6   8   6 282087. 8265.26   8
  -6  -8   6 307819. 9946.17   4
   6  -6   8 292070. 9009.83   3
   6   8  -6 306580. 8492.16   8
  -6  -6   8 304403. 9934.25   4
  -8  -6   6 306020. 9773.12   4
  -6   8  -6 314109. 10352.9   8
  -8   6  -6 305976. 9961.26   8
  -6   6  -8 305434. 9958.09   8
  -6  -8  -6 306261. 9614.14   1
   6  -8   6 285434. 9192.21   3
   6  -8  -6 284650. 8818.26   7
   8  -6  -6 272394. 8928.75   7
   6  -6  -8 284680. 8870.44   7
   8   6  -6 279394. 8795.71   2
  -6   6   8 313013. 9393.90   4
   0  -8  -8 640214. 15359.7   6
   8  -8   0 600561. 16270.3   9
  -8   0  -8 612761. 15754.9   6
   0   8  -8 608903. 16773.7   2
   8  -8   0 547963. 15924.7   3
  -8  -8   0 536739. 16001.9   6
  -8  -8   0 595080. 16170.6   1
   8   0   8 575159. 16130.6   5
   8   0   8 580108. 14847.9  10
   0  -8   8 555251. 15834.7   3
   8   0  -8 545047. 16064.3   9
   0   8   8 575250. 15909.5  10
   8   8   0 557418. 15419.4   5
  -8  -8   0 568348. 15205.9   4
   0   8  -8 551301. 16214.1   8
  -8   8   0 541202. 15853.3   8
  -8   0   8 544980. 16028.7   4
   8   0  -8 578506. 15529.7   7
   8   2  -8 7043.03 1037.96   7
  -2   8   8 7238.25 895.625   4
   2   8  -8 9708.50 1350.94   8
  -8  -2   8 7860.97 1286.16   4
   8   2  -8 6480.53 879.599   2
   2   8  -8 7774.47 1348.41   2
   8  -8  -2 7815.75 1229.35   3
  -8  -8  -2 6451.31 1178.92   6
  -2   8  -8 7469.54 1291.61   2
   8  -8   2 7298.49 1187.23   3
   2  -8  -8 4871.96 837.741   6
   8  -2   8 6795.67 973.422   3
  -8  -2  -8 6322.42 1087.14   6
   8  -2   8 7155.23 1212.04   5
   8   2   8 7154.85 1149.93   5
   2   8   8 8087.02 1238.60  10
   8  -2  -8 7735.87 1272.68   9
   8   8   2 6196.02 1017.04   5
  -2  -8  -8 5909.13 932.055   6
   8   2  -8 7193.96 1032.21   9
   8  -8   2 5749.26 1077.50   9
  -2  -8   8 6900.49 1157.91   3
   8  -8  -2 7209.79 1193.01   9
  -8   8   2 6789.66 996.101   8
   8   8  -2 7114.31 1057.96   5
  -8   2  -8 7657.06 1120.40   2
  -8  -8   2 6444.62 1033.03   4
  -8   2  -8 6035.73 978.996   6
   8   2   8 7613.80 1050.16  10
   8  -2   8 7619.83 928.967  10
  -8  -8   2 7605.37 1234.82   1
  -8   8  -2 8275.06 1336.38   8
  -2   8  -8 7987.30 1365.08   8
  -8  -8  -2 6826.09 1139.41   1
   2  -8   8 7626.57 1165.50   3
  -8   2   8 8756.59 1314.55   4
  -2   8   8 9159.26 1286.29  10
   8  -2  -8 7554.66 1114.93   7
   8   4  -8 532063. 14545.5   7
  -4   8   8 536382. 14338.9   4
  -8  -8  -4 563503. 15367.5   1
   8   4  -8 496402. 14204.2   2
  -8   8   4 533756. 15334.1   4
   4   8  -8 552404. 15927.1   2
  -4  -8  -8 564306. 14979.1   6
  -8   4  -8 564702. 14414.0   6
  -8  -4  -8 546461. 15402.8   6
  -8  -8  -4 531183. 15240.1   6
   8   8  -4 550733. 13754.4   8
  -4   8  -8 542235. 15507.0   2
   4   8  -8 598992. 14793.5   8
   8  -8   4 548737. 15174.7   3
   8  -4   8 574980. 14736.1   3
   8   8   4 515923. 14779.4   5
   4  -8  -8 524582. 14848.7   9
   8   4   8 531800. 14798.1  10
   8   8   4 544401. 14928.9  10
   8   8  -4 549555. 14556.6   5
  -4  -8   8 522312. 15214.9   3
  -8   4   8 554346. 15018.3  10
  -4  -8   8 562912. 15830.7   4
   8  -8   4 568282. 15021.4   9
   8   4  -8 603581. 14208.6   5
   8  -4  -8 524659. 15357.1   9
   8  -8  -4 531113. 15179.0   9
   4  -8   8 550972. 14958.9   3
  -8  -8   4 520945. 15083.8   4
  -8   4  -8 529642. 14822.6   2
  -8  -8   4 570838. 15958.0   1
  -4   8   8 538562. 14956.5  10
  -8  -4   8 520770. 15485.9   4
  -8   8  -4 541474. 15908.5   8
  -4   8  -8 525900. 15833.1   8
   4   8   8 512477. 13896.4   5
   4   8   8 539100. 15221.4  10
   4  -8  -8 526897. 13904.1   7
   8   4   8 538702. 14948.6   5
  -8   4   8 505459. 15082.1   4
   8  -4  -8 520465. 14668.7   7
  -8  -4  -8 556815. 15101.3   1
   8   8  -4 525567. 13952.7   7
  -8  -6  -8 4809.48 1006.26   1
   6  -8  -8 3534.12 737.531   7
   8  -6  -8 2663.19 690.484   7
   8   8   6 4032.28 849.645  10
   8   8  -6 3803.00 713.521   7
   8   6  -8 2683.04 657.759   7
  -6  -8   8 4293.50 1036.87   4
  -8  -8   6 3916.49 929.989   4
  -8  -6   8 3809.44 977.644   4
  -8   6   8 4429.46 934.397   4
  -6   8   8 4754.16 904.009   4
  -8   8   6 4513.79 964.421   4
   8   6   8 3690.93 880.626  10
  -8  -8  -6 5468.42 1047.00   1
  -6  -8  -8 3000.24 798.539   6
  -8  -6  -8 4125.33 984.754   6
  -8  -8  -6 2717.03 762.925   6
  -6   8   8 4545.67 874.318  10
   6   8   8 5193.53 999.505  10
   8   6   8 3834.00 817.654   5
   6   8   8 3695.76 761.422   5
   8   8   6 3515.98 800.376   5
   8   6  -8 3445.91 684.809   5
   8   8  -6 3573.47 744.251   5
   8  -6  -8 3135.96 802.788   9
   6  -8  -8 2965.11 751.660   9
   8  -6   8 3455.42 768.917   3
   8   8  -6 4701.72 898.558   2
   8  -8  -6 4057.50 948.634   9
   8  -8   6 4048.07 847.381   3
   6   8  -8 3626.37 886.002   2
   6  -8   8 4111.31 848.337   3
  -6   8  -8 4933.61 1001.00   2
  -8   8  -6 4930.33 1111.91   8
  -6   8  -8 4141.60 983.904   8
  -8   6  -8 3988.81 990.591   8
  -8   6  -8 3710.29 830.113   2
   8   6  -8 3891.83 803.980   2
  -6  -8  -8 4374.06 945.603   1
  -8   8   8 411598. 12244.7   4
   8   8  -8 367072. 11159.7   7
   8   8  -8 390585. 11314.7   5
  -8  -8  -8 389406. 12299.7   6
  -8  -8  -8 404594. 12339.2   1
  -8   8  -8 409479. 12078.1   2
   8  -8  -8 369482. 11948.7   9
   8  -8   8 369787. 11468.3   3
   8   8   8 401952. 12193.3  10
  -8  -8   8 407226. 12572.8   4
   8   8   8 401002. 11778.7   5
  -8   8  -8 403628. 12720.8   8
   8  -8  -8 362974. 11361.2   7
   8   8  -8 383457. 11855.1   2
  -9   1  -1 147152. 4960.58   4
   1   1  -9 133063. 5132.82   6
   1  -1  -9 131322. 5075.03   6
  -1   1  -9 132665. 4951.80   6
  -1  -1  -9 132844. 5082.57   6
  -1  -9  -1 140336. 3990.34   6
   1  -1   9 138165. 5422.67  10
  -1  -9   1 144559. 5164.37   1
   1  -9   1 144031. 4963.44   1
   9  -1   1 152823. 6097.22   9
   9  -1  -1 142080. 4785.33   5
  -9  -1  -1 146028. 4831.02   1
  -1  -1   9 138746. 5709.55  10
  -1   1   9 136892. 5467.14  10
   1   1   9 135149. 5378.03  10
   1  -9   1 149458. 4815.39   9
   9   1  -1 142195. 4911.52   5
   1  -9  -1 138284. 5030.31   3
   9   1   1 143229. 5094.90   5
   1  -9   1 143202. 5308.76   3
  -1  -9  -1 148850. 5018.39   3
  -9   1  -1 160670. 4313.47   1
  -1   9  -1 141022. 5496.59   8
   9   1  -1 143823. 5829.15   9
   9  -1  -1 146545. 6020.50   9
  -9  -1   1 159687. 5244.48   1
  -1   9   1 136035. 5309.52   8
  -1  -9   1 134833. 5094.37   3
   9  -1   1 137053. 4995.11   5
   1  -9  -1 144247. 4888.06   1
   1  -1   9 136985. 4616.04   3
   1  -1   9 137436. 4561.83   4
  -1  -9  -1 144044. 5122.98   1
   1   1   9 140696. 4316.87   3
   1   9   1 139968. 5330.40   8
   1   1  -9 147673. 5802.47   2
   1   9  -1 143878. 5396.03   8
  -1  -1   9 138515. 4899.68   4
  -1   1   9 142177. 4748.34   4
   1   1   9 140506. 4284.11   4
   9  -1  -1 142010. 5205.59   7
   9   1  -1 144007. 5071.59   7
  -9  -1   1 152558. 5141.36   4
  -9  -1  -1 149052. 4803.93   4
  -9   1   1 149775. 5202.62   4
  -1   9  -3 110497. 4826.74   2
   3  -1  -9 103582. 4481.21   6
   1   3  -9 112212. 4506.67   6
  -9   1  -3 119135. 4134.91   4
   1  -9  -3 105955. 3621.18   6
  -9   3   1 112251. 4514.84   4
  -1  -3  -9 107798. 4478.50   6
  -1  -9  -3 103643. 3650.10   6
  -1   3  -9 119807. 5112.93   2
  -3   1  -9 102505. 4315.29   6
  -3  -1  -9 100455. 4443.23   6
   1  -3  -9 106703. 4419.62   6
   3   1  -9 121111. 5216.58   2
  -9  -3  -1 118290. 4527.79   1
  -3  -9  -1 109104. 3709.40   6
  -3  -9   1 110600. 3495.71   6
  -3  -9   1 108617. 4534.64   1
  -9  -1  -3 113523. 4908.05   6
  -9   1  -3 114290. 4699.81   6
   1  -9  -3 111484. 4279.96   1
   1  -9  -3 115448. 4005.65   3
   3   1   9 118053. 4539.57   5
  -9   3  -1 112663. 4454.50   4
  -1  -9  -3 107783. 4410.40   1
   3  -9  -1 105884. 4424.84   3
   1  -9   3 122551. 4604.69   1
   9  -3   1 108721. 4349.91   5
  -1  -9  -3 114070. 3749.59   3
  -1  -3   9 118891. 5172.32  10
   1  -3   9 117778. 4900.40  10
  -3  -1   9 118655. 5328.21  10
   9   1   3 110127. 4484.93   5
  -3   1   9 113777. 4988.46  10
   3  -1   9 117004. 4687.41  10
   3  -9   1 109740. 4617.16   3
   3   1   9 114087. 4697.22  10
   9  -1   3 111146. 4543.63   5
   1  -3   9 105796. 4152.00   3
   1   3   9 111636. 4756.47  10
  -9  -1  -3 111561. 4039.31   1
   9   1   3 105371. 3618.80  10
   9   3   1 104295. 4246.71   5
   9   1  -3 110584. 4064.29   5
   3   1   9 121071. 3775.15   3
   9   3  -1 108164. 4243.55   5
   3  -9  -1 110389. 4367.75   9
   1  -9   3 106206. 4624.30   3
   3  -1   9 106853. 3940.55   3
   9  -3   1 113455. 5124.02   9
   9  -1  -3 108354. 5134.71   9
   9  -3  -1 107257. 5030.16   9
   9  -3  -1 108004. 4057.18   5
  -3  -1   9 113732. 4542.43   4
  -3  -9  -1 118304. 4181.75   3
   1   9   3 111250. 4163.61   5
   3  -9   1 114947. 4350.79   9
   3   1  -9 119787. 4153.23   9
  -1   9  -3 121926. 5153.12   8
   1   3  -9 121787. 5303.25   2
  -1  -9   3 123442. 3664.41   9
  -3  -9   1 115891. 4462.65   3
   1   9   3 118128. 4774.10   8
   3   9   1 111808. 4625.68   8
  -1  -3   9 106826. 4386.19   4
  -1   9   3 110747. 4561.56   8
   9   1  -3 112176. 5001.45   9
   3   9  -1 113348. 4580.05   8
  -3  -9  -1 112937. 4575.87   1
  -3   9   1 107842. 4634.44   8
   3  -1  -9 113839. 4286.85   9
   1   9  -3 116575. 4818.43   8
   3  -9  -1 107755. 3887.89   1
   1   3   9 107613. 3370.39   4
  -9   3  -1 124622. 4741.24   8
  -3   9  -1 118921. 5078.45   8
  -1  -3   9 103627. 4221.69   3
  -1   3   9 115910. 4798.67  10
  -9   1  -3 117437. 3538.06   1
  -9   3   1 122877. 4307.92   8
  -3   1   9 113235. 4432.41   4
  -1   3   9 111383. 3917.75   4
  -9  -3  -1 115650. 4108.91   4
  -9  -3   1 114554. 4360.69   4
   1   3  -9 121052. 4759.73   8
   1  -9   3 120205. 3865.75   9
  -1  -9   3 108567. 4579.70   3
  -9  -3   1 114329. 4667.52   1
  -1   3  -9 110357. 4254.38   6
  -9  -1   3 118587. 4668.50   4
   9   3  -1 117683. 4288.03   7
   9  -1  -3 111988. 4478.03   7
   9   1  -3 108581. 4381.20   7
  -9  -1  -3 119692. 3866.21   4
  -9   1   3 120375. 4711.42   4
   3  -9   1 120229. 4150.99   1
   1   9  -3 117094. 4913.54   2
   9  -1  -3 108962. 3882.92   5
  -1  -9   3 108509. 4562.70   1
  -9   3   3 84021.4 3893.41   4
  -3   9  -3 88479.6 4133.29   2
   3  -3  -9 77912.0 3741.45   6
  -3  -9   3 85439.7 3985.11   3
  -3   3  -9 77341.0 3442.12   6
  -9   3  -3 86900.1 3738.70   4
  -3  -3  -9 79998.3 3902.84   6
  -3  -9  -3 78147.9 3260.27   6
   9  -3   3 87917.4 3970.46   3
   3  -9  -3 86256.6 3595.05   3
  -9  -3  -3 88978.8 4417.24   6
  -9   3  -3 82350.9 3761.21   6
   3  -9  -3 82580.3 3350.54   1
   3  -3   9 81471.6 3822.50  10
   9  -3   3 83126.8 3887.59   5
   3   3   9 88518.0 3637.13   5
  -9  -3  -3 88712.9 3229.12   4
   9   3  -3 83536.4 3536.27   5
  -3   3   9 88158.7 4146.57  10
  -3  -9  -3 82844.1 3880.73   1
   3   9  -3 86485.1 3880.44   8
   3   3   9 89540.9 4106.18  10
  -3  -9  -3 90790.0 3057.70   3
   3   3  -9 93463.4 4662.33   2
   9   3   3 85688.3 3810.66   5
   9   3   3 87323.9 3418.94  10
   3  -9   3 80367.2 3898.66   3
   3  -3  -9 78539.3 3613.78   9
   9  -3   3 84635.8 4245.96   9
  -9   3  -3 95674.2 3269.59   2
   3  -3   9 79329.1 3458.69   3
   3   9   3 80920.9 3615.86   5
   3  -9   3 91186.2 3541.56   9
  -3   3  -9 90508.0 4249.34   2
   3   9   3 84267.7 4006.98   8
  -3   9   3 93507.1 3900.55  10
  -3   9   3 83692.1 3794.94   8
  -9  -3   3 84974.7 3889.74   4
  -3  -3   9 86151.9 3975.93   4
  -3   9  -3 95588.1 4675.68   8
   3   3  -9 91475.4 3715.11   8
  -3  -9   3 83038.5 3991.57   1
  -9  -3  -3 89307.1 3797.42   1
  -3   3   9 87310.1 3660.90   4
   9  -3  -3 82926.0 3793.04   7
   9  -3  -3 76357.9 3100.50   5
   9  -3  -3 79536.5 4334.39   9
   3   9  -3 85627.2 4059.09   2
   3  -9  -3 77326.2 3656.44   9
   9   3  -3 82432.6 3616.26   7
   1  -5  -9 145723. 4900.51   7
   9   1  -5 134834. 5762.57   9
  -1   5  -9 137711. 4927.41   6
   9   1   5 144893. 4684.76  10
   1  -9  -5 133509. 5155.61   1
   1  -9  -5 127095. 4591.01   6
   5   1  -9 148394. 5934.10   2
   1   9  -5 154555. 6160.03   2
  -9   1  -5 150560. 4739.68   4
  -9  -5  -1 148572. 5673.25   1
  -1  -5  -9 137316. 5312.29   6
  -9   5   1 146311. 5620.67   4
  -1  -9  -5 135611. 4735.39   6
  -1   9  -5 158195. 6298.27   2
  -1  -9  -5 135310. 5342.73   1
   1  -5  -9 129419. 5150.19   6
  -5   1  -9 138867. 5377.51   6
  -5  -1  -9 137266. 5532.81   6
  -9   1  -5 140866. 4470.52   1
   9  -1   5 146943. 5251.92   3
  -5  -9  -1 133486. 4844.22   6
   9  -5   1 141943. 5671.58   3
  -9  -1  -5 143306. 4928.86   1
  -1   5   9 143464. 5598.64  10
   5   1  -9 141205. 5161.64   9
  -5  -9   1 136236. 4858.98   6
  -9  -1  -5 141933. 5708.50   6
  -9   1  -5 142670. 5525.08   6
  -9  -5  -1 151173. 6303.57   6
  -5  -9   1 144299. 5631.53   1
   5  -9  -1 137909. 5502.21   3
   5   1   9 139910. 5510.18   5
   5  -9   1 131485. 5434.21   3
   9   5   1 131315. 5130.85   5
   9  -1   5 144959. 5691.21   5
   5   1   9 145713. 5513.02  10
   9   1  -5 142278. 4756.82   5
   9   1   5 139669. 5485.92   5
   5  -1   9 134560. 5216.23  10
   1   5  -9 152041. 6348.75   2
   9  -1  -5 136139. 4372.28   5
   1   5   9 144178. 5660.63  10
  -5  -9   1 144555. 5246.75   3
   1   9   5 144552. 5554.05  10
  -5   9   1 152630. 4913.46  10
   5  -9   1 138659. 5336.54   9
   9  -5   1 133371. 5753.62   9
   1   9   5 139593. 4721.59   5
   1  -9   5 133573. 5535.59   3
   9  -1  -5 142582. 6157.36   9
   9  -5  -1 127885. 5770.41   9
  -1   9   5 142217. 4402.70   5
   5   9   1 118800. 5051.70   5
   9   5  -1 132885. 5122.71   5
   5  -9  -1 136149. 5319.05   9
   5  -1  -9 141223. 5357.35   9
   5   9  -1 131302. 5226.38   5
  -1  -9   5 129655. 5564.92   3
   5  -1  -9 149382. 5755.94   2
  -9  -5   1 147453. 5808.29   1
  -5   1   9 150407. 6267.26  10
  -1   5  -9 154630. 6219.07   2
  -1  -5   9 137953. 5503.17   4
  -5  -9  -1 153333. 4960.73   3
   5   9   1 138021. 5395.90   8
  -1   9   5 140723. 5368.65   8
  -1   9   5 143986. 5520.88  10
  -1  -5   9 135496. 5266.17   3
   1  -5   9 136071. 5230.31   3
  -5   9   1 138743. 5559.94   8
  -9  -5  -1 151583. 5079.07   4
   1   9  -5 155262. 5980.81   8
  -5   9  -1 152925. 6217.98   8
   5   9  -1 136367. 5204.69   8
  -9  -5   1 143474. 5249.77   4
  -1   9  -5 151988. 6224.79   8
  -9   5   1 155666. 5271.57   8
  -5  -1   9 141870. 5650.62   4
  -9   5  -1 157285. 5891.29   8
   1   5  -9 151960. 5852.98   8
  -5  -9  -1 139283. 5517.54   1
  -1   5  -9 145368. 5861.61   8
  -5   1   9 139471. 5540.55   4
  -9  -1   5 148642. 5758.91   4
  -5  -1   9 145500. 6382.36  10
  -1   5   9 142640. 4619.08   4
   9   5  -1 146071. 4879.42   7
  -9   1   5 153100. 5819.85   4
   9  -1  -5 125320. 5094.33   7
   9   1  -5 132831. 5136.37   7
   5  -1   9 149100. 4880.34   3
  -5   9  -3 116917. 4791.81   2
   3   9  -5 124018. 5291.14   2
   3  -9  -5 112880. 4394.95   1
   3  -5  -9 101336. 4452.64   6
   5  -3   9 108707. 4503.36  10
  -9   5   3 116605. 4896.95   4
   9  -3  -5 117553. 5485.24   9
  -3   5  -9 115520. 4135.62   6
   3   5   9 122003. 5097.81  10
  -3   9  -5 124151. 5374.98   2
  -3  -5  -9 102421. 4669.40   6
  -3  -9  -5 105688. 4231.84   6
  -5   3  -9 105016. 4317.35   6
  -5  -3  -9 106913. 4870.06   6
  -3  -9  -5 115444. 4831.76   1
  -5  -9  -3 108662. 4340.39   6
   5  -9  -3 110771. 4616.82   3
  -9  -3  -5 117073. 5210.80   6
  -9   3  -5 112919. 4616.13   6
  -9  -5  -3 122289. 5558.84   6
   9  -3   5 113340. 4707.83   3
   9  -5   3 111754. 4905.52   3
  -9   5  -3 116830. 4499.17   6
  -9  -3  -5 119959. 4656.24   1
   9   5  -3 99584.4 4279.91   5
   9  -3   5 110963. 4985.19   5
   3   5  -9 114268. 5542.88   2
   5   3  -9 117593. 5344.18   2
   5   3   9 115284. 4649.62   5
  -5   3   9 119514. 5204.78  10
  -3   5   9 112309. 4858.61  10
   9   3   5 112234. 4733.30   5
   5  -3   9 108947. 4279.37   3
   9   3   5 115874. 4323.42  10
  -3   9   5 114679. 4744.70  10
  -5   9   3 121018. 4365.67  10
  -3   5  -9 118307. 5151.49   2
   3  -9   5 109160. 4800.70   3
   3   9   5 113684. 4810.51  10
  -5  -9  -3 111232. 4847.00   1
   3  -5   9 101547. 4378.15   3
   9   3  -5 115369. 4330.95   5
   3   9   5 113743. 4368.11   5
   9  -5   3 101971. 4841.58   9
   9   5   3 102577. 4451.54   5
   5   9   3 104813. 4578.99   5
   5  -9   3 118897. 4686.28   9
   9  -5  -3 103872. 5098.83   9
   5  -9  -3 108033. 4653.38   9
   5  -3  -9 112022. 4733.06   9
  -9   3  -5 120637. 4371.09   2
   3  -9  -5 102080. 4509.66   9
   3  -5  -9 101788. 4468.98   9
  -9  -5   3 118169. 5283.88   1
   3   5  -9 121896. 4646.95   8
   5  -9  -3 105350. 3743.74   1
  -9  -5  -3 117323. 4905.95   1
  -3   9   5 109464. 4448.32   8
   9   3  -5 110563. 4502.90   9
  -5   3  -9 110752. 4875.35   2
  -3  -5   9 114586. 4986.00   4
   5   9  -3 110076. 4448.02   8
  -5   9   3 115448. 4583.81   8
   3   9  -5 114183. 4737.57   8
  -5  -9   3 116570. 4854.64   3
  -5  -3   9 112742. 4966.47   4
  -5   9  -3 121253. 5671.23   8
  -3   9  -5 112897. 5474.96   8
  -9  -3   5 117998. 5087.07   4
  -3  -9   5 111201. 4966.54   3
  -9   5  -3 124989. 5257.76   8
   3   5   9 112894. 4151.46   5
  -3   5  -9 120110. 5184.82   8
   5  -9   3 109926. 4818.19   3
  -5   3   9 116671. 4812.84   4
  -5  -9   3 109101. 4942.89   1
   9  -3  -5 109271. 4564.06   7
  -9  -5   3 117140. 4820.04   4
  -3   5   9 114160. 4386.52   4
   5   3   9 113445. 4876.83  10
   9   5  -3 109379. 4305.75   7
   9   3  -5 108470. 4457.21   7
  -9   3   5 120204. 5014.02   4
   3  -5  -9 118155. 4512.45   7
   5  -3  -9 111671. 4710.13   7
  -9   5   5 139872. 5616.40   4
  -9  -5   5 137070. 5624.67   4
   5  -9  -5 130644. 4628.75   1
  -5   5  -9 135752. 4689.08   6
  -5   9  -5 144912. 5814.00   2
  -5  -5  -9 130548. 5556.57   6
  -5  -9  -5 125437. 5061.74   6
  -9  -5  -5 132615. 5847.47   6
  -9   5  -5 140281. 5086.47   6
   5   5  -9 146294. 6154.52   2
   9  -5   5 131656. 5411.00   3
  -5   9   5 142747. 5144.82  10
  -5  -9  -5 135804. 5523.93   1
   5   5   9 141368. 5680.91  10
   5   5   9 131921. 5021.08   5
  -9  -5  -5 139656. 5491.45   1
  -5   5   9 140507. 5633.03  10
   9   5   5 140283. 5198.50  10
   5   9   5 131808. 5404.10  10
  -5   5  -9 131843. 5528.73   2
   9   5  -5 128540. 4925.81   5
   9  -5  -5 133445. 5871.84   9
   5  -9  -5 120318. 5197.29   9
   9   5  -5 115042. 4795.36   7
  -5   9   5 127969. 4813.03   8
   5  -9   5 117474. 5177.34   3
   5  -5   9 121018. 4914.45   3
   5   9  -5 133236. 5001.34   8
  -5  -5   9 138818. 5775.60   4
  -5   5  -9 131477. 5674.58   8
   5  -5  -9 125465. 5265.30   9
  -5  -9   5 138802. 5681.29   3
  -5   9  -5 146158. 6391.83   8
  -9   5  -5 138623. 5770.84   8
   9   5   5 128164. 5236.84   5
   5   9   5 134568. 5178.14   5
   9  -5  -5 122311. 5101.20   7
  -5   5   9 140870. 5360.82   4
   5   9  -5 132646. 5542.29   2
   5  -5  -9 129957. 5106.94   7
   7   1  -9 61034.6 3371.24   7
   1  -9  -7 57959.7 3010.12   6
   1  -7  -9 56833.5 3160.39   6
  -1  -7  -9 58951.1 3279.78   6
  -1  -9  -7 58726.0 3059.26   6
  -1   9   7 63863.2 2866.87   4
  -9  -7  -1 69344.6 3849.03   1
   1   9  -7 69429.9 4115.07   2
  -7   1  -9 61461.7 3404.50   6
  -7  -1  -9 64504.4 3597.57   6
  -1   9  -7 71936.1 4143.02   2
   9  -7  -1 67982.1 3805.88   3
  -9  -1  -7 62593.8 3533.63   6
  -9   1  -7 64718.7 3434.22   6
   9  -1   7 64274.4 3227.89   3
  -7  -9  -1 64313.9 3481.53   6
   9  -7   1 65778.2 3766.76   3
   9   1   7 68307.4 3772.98   5
   7  -9  -1 63736.9 3670.59   3
  -7  -9   1 64781.9 3513.84   6
  -9  -7  -1 72074.7 4214.81   6
   7  -9   1 68627.4 3799.20   3
   1   7  -9 70294.7 4219.68   2
   7  -1   9 66035.3 3095.63   3
   9  -7   1 57869.4 3591.78   9
   7   1  -9 67975.2 3460.56   2
   7  -1   9 64365.4 3798.89   5
  -1   7  -9 68287.2 4056.31   2
   9  -1   7 69746.1 3941.82   5
   7   1   9 66733.5 3745.73   5
  -7   1   9 73701.1 4206.45  10
  -7  -9   1 71139.6 3926.05   1
   7  -1   9 62825.3 3186.31  10
   7   1   9 65774.4 3376.11  10
   9   1   7 66725.5 3058.71  10
  -1   7   9 68227.0 3708.30  10
   1   7   9 64402.5 3643.60  10
  -1   9   7 69690.4 3777.44  10
   1   9   7 64450.1 3598.71  10
   9   7   1 60237.9 3320.35   5
   9   7  -1 56782.7 3200.87   5
   9   1  -7 64130.0 3699.62   9
   7   9   1 58313.0 3367.75   5
   1  -9   7 62684.3 3604.81   3
   9  -1  -7 68350.6 4124.07   9
   9  -7  -1 57998.2 3675.83   9
   7  -9   1 58357.2 3493.76   9
   7   9  -1 57649.7 3277.56   5
   7  -1  -9 67356.1 3777.24   9
   7  -9  -1 59160.7 3474.70   9
  -9  -7   1 68805.3 3931.29   1
   1  -7   9 57850.5 3337.85   3
   7   1  -9 68081.7 3584.41   9
  -1  -9   7 65215.1 3769.49   3
  -1  -7   9 64251.5 3602.45   3
  -9  -7  -1 69874.5 3288.10   4
  -9  -7   1 67053.9 3404.80   4
  -7   9   1 67984.0 3675.83   8
  -1   7  -9 73813.4 4144.01   8
  -9   7   1 71757.9 3579.95   8
   1   9  -7 68402.6 3928.19   8
  -7   9  -1 65955.0 3996.83   8
  -1   9  -7 72561.8 4211.25   8
  -9   7  -1 63574.2 3724.21   8
   1   7  -9 72560.2 3974.93   8
  -7  -1   9 69023.6 3927.93   4
  -9  -1   7 71061.3 3983.84   4
  -7   1   9 75240.8 4011.14   4
  -7  -9  -1 64041.7 2977.68   3
  -9   1   7 70839.7 3927.44   4
   9  -1  -7 59447.7 3299.73   7
   9   1  -7 56702.1 3201.84   7
  -7  -9  -1 70398.7 3834.35   1
   7  -1  -9 61582.8 3440.49   7
  -9  -1  -7 69214.4 3261.77   1
   3  -7  -9 39552.4 2601.72   6
   3   9   7 44876.8 2406.36   5
  -3  -9  -7 44271.7 2922.01   1
  -7  -9   3 48308.7 3266.12   1
  -3   9   7 44424.1 2546.60   4
   3   9  -7 51780.8 3492.29   2
  -9   7   3 48014.1 3147.58   4
  -9  -3  -7 48707.1 2860.78   1
  -3  -7  -9 42750.9 2822.27   6
  -3  -9  -7 43568.8 2673.22   6
  -7   3  -9 45821.9 2713.87   6
  -7  -3  -9 45885.1 3091.25   6
   7  -9  -3 49101.2 3042.75   3
  -3   9  -7 52947.6 3427.66   2
  -7  -9  -3 43961.9 2802.69   6
  -9  -3  -7 44628.4 3041.10   6
  -9   3  -7 46557.4 2761.84   6
   7   3  -9 46348.5 2877.70   2
   3   7  -9 47446.9 3409.11   2
  -9  -7  -3 46678.7 3329.94   6
   9  -7   3 46003.5 3052.31   3
   9  -3   7 46748.1 2820.59   3
   7   9   3 45734.0 2933.97   5
   9  -3   7 53209.1 3419.10   5
   7  -9   3 45508.2 3013.75   3
   7  -3   9 44355.0 2589.98   3
  -3   7  -9 47207.9 3238.34   2
  -7   3   9 54083.3 3412.02  10
   7  -3   9 45759.9 2609.63  10
   9   3   7 47326.6 3003.03   5
  -9  -3   7 50888.0 3335.80   4
  -3   9   7 49306.7 3051.27  10
  -3   7   9 48410.3 3071.75  10
   3  -7   9 41795.1 2756.45   3
   7   3   9 47646.8 2927.49  10
   3  -7  -9 46293.1 2455.46   7
   9   3   7 44453.8 2646.39  10
   3   7   9 47038.4 3057.65  10
   3   9   7 49011.9 3060.98  10
   3  -9   7 44090.1 2920.96   3
   9   3  -7 42943.3 2522.31   9
   9   3  -7 48117.8 2544.93   5
   9  -7   3 43764.6 2983.03   9
   9   7  -3 43458.8 2702.57   5
   7  -9   3 44383.4 2862.34   9
   7   3   9 48385.1 3009.14   5
   9  -3  -7 48646.6 3393.65   9
   9  -7  -3 43781.5 3096.78   9
   7   9  -3 42596.5 2732.92   5
   7  -3  -9 43965.9 2979.05   9
   7  -9  -3 43697.2 2929.30   9
  -9  -7   3 51953.2 3441.10   1
   3  -9  -7 42993.0 2816.23   9
   3  -7  -9 41220.7 2761.04   9
  -7   9   3 48421.1 2711.41   8
  -7  -9  -3 50181.0 3176.46   1
  -9   3  -7 48905.8 2827.69   2
  -3  -7   9 51032.9 3318.96   4
  -7  -9   3 47020.1 3033.18   4
   7   9  -3 45186.6 2544.67   8
  -3  -9   7 45421.3 3109.87   3
   9   7   3 45630.8 2861.74   5
  -9  -7   3 47097.9 2932.96   4
  -9  -7  -3 51976.0 3244.79   1
  -3  -7   9 47312.9 3055.24   3
  -7   3  -9 46745.7 3000.71   2
   3   9  -7 51028.1 3063.54   8
   3   7  -9 53872.6 3109.92   8
  -7  -3   9 51211.7 3319.70   4
  -7   9  -3 52683.0 3601.37   8
  -3   9  -7 52759.2 3610.06   8
  -9   7  -3 52852.6 3472.23   8
  -3   7  -9 51752.0 3431.66   8
  -7   3   9 50261.5 3185.37   4
  -9   3   7 52424.4 3269.82   4
   9  -3  -7 40644.8 2678.35   7
   9   7  -3 42779.9 2403.69   7
   7  -3  -9 46288.7 2909.15   7
  -3   7   9 51186.2 2673.90   4
   9   3  -7 42022.7 2697.28   7
   5   9   7 62894.8 3634.76  10
   5   9  -7 72980.2 4060.58   2
  -9   7   5 71384.0 3958.32   4
  -5   9   7 67669.7 3487.85   4
  -7   9   5 70786.6 3916.77   4
  -7   9  -5 73705.6 3733.21   2
  -5  -7  -9 65701.4 3741.31   6
  -5  -9  -7 59720.8 3415.47   6
   7   5  -9 70115.8 3788.48   2
   5   7  -9 73139.1 4253.63   2
  -5  -9  -7 68615.7 3798.23   1
  -7  -5  -9 62079.1 3758.26   6
  -7  -9  -5 64262.3 3585.75   6
  -9  -5  -7 70073.8 3705.79   1
  -9   5  -7 68150.1 3253.93   6
  -9  -5  -7 64689.7 3845.01   6
  -5   9  -7 71368.8 3970.80   2
  -9  -7  -5 61344.9 3833.08   6
  -5  -9   7 76541.2 4282.53   4
   7   5   9 66472.8 3528.87   5
   9  -7   5 61489.1 3574.79   3
   9  -5   7 63182.1 3474.47   3
   7  -9   5 58699.2 3442.37   3
  -5   7  -9 69454.3 3918.90   2
   5   7   9 66741.4 3248.48   5
  -5   7   9 71891.3 3800.47  10
   9   5   7 67000.8 3637.09   5
   5  -9   7 62781.9 3529.45   3
  -5   9   7 68198.3 3548.86  10
  -7  -9  -5 68811.7 3837.26   1
   7   5   9 69498.8 3772.64  10
   5  -7   9 61260.6 3344.43   3
   9   5   7 70210.8 3627.93  10
   9   7   5 63448.0 3553.45   5
  -9  -7  -5 71821.8 3883.27   1
   5   9   7 67326.6 3314.12   5
   9   7   5 72610.8 3699.40  10
   7   9   5 67540.3 3699.75  10
  -7   5  -9 68330.9 3726.81   2
   7   9   5 65330.6 3563.37   5
   9  -7   5 64503.5 3518.26   9
   9   7  -5 66562.9 3308.20   7
   9   5  -7 62088.3 3142.02   5
   9   7  -5 57930.9 3186.40   5
   9  -5  -7 63914.0 3901.10   9
   9  -7  -5 59882.1 3724.10   9
   5   7   9 71988.6 3928.39  10
  -9   5  -7 75649.0 3686.58   2
   7  -9  -5 56483.7 3449.88   9
   7   9  -5 61273.3 3341.93   5
   5  -9  -7 61230.7 3532.62   9
   5  -7  -9 56687.9 3430.39   9
  -7  -9   5 71104.3 3967.24   4
  -5  -7   9 73476.1 4130.68   4
   7   9  -5 63302.8 3016.93   8
   5   9  -7 69416.2 3352.05   8
  -9  -7   5 69447.4 3827.89   4
  -7  -5   9 72727.8 4097.50   4
  -7   5   9 76984.6 3969.47  10
  -5  -9   7 70887.0 3975.50   3
  -9  -5   7 68033.3 3957.24   4
  -7   9  -5 68435.7 4229.52   8
  -5   9  -7 70516.4 4239.55   8
  -9   7  -5 72171.0 4166.29   8
  -5   7  -9 69893.3 4020.34   8
  -9   5  -7 69412.7 3980.13   8
   7   5  -9 59231.4 2950.16   5
  -7   5  -9 66363.5 3927.27   8
   7   9  -5 63873.8 3577.51   2
   7  -5   9 63363.6 3307.02   3
   7  -5  -9 60752.1 3599.30   9
   9  -5  -7 58330.1 3334.91   7
   5  -7  -9 62312.5 3213.46   7
  -7   5   9 74181.2 3886.84   4
   7  -5  -9 60818.4 3399.77   7
   9   5  -7 60973.0 3079.66   2
  -9   5   7 72691.6 3944.95   4
  -5   7   9 70327.5 3514.39   4
   9   5  -7 62518.1 3356.52   7
  -9   7   7 27373.4 2424.33   4
  -7   7  -9 25656.4 2411.22   8
  -7   9   7 27485.4 2309.53   4
  -7  -7  -9 27396.4 2429.24   1
   7   7  -9 24865.2 2282.41   2
  -7  -7  -9 26657.0 2425.72   6
  -7   7  -9 26495.5 2324.68   2
  -7  -9  -7 24714.6 2236.16   6
  -7   9  -7 29348.9 2387.48   2
  -9  -7  -7 24263.4 2356.75   6
  -7  -9  -7 26535.1 2347.25   1
   9  -7   7 23254.0 2066.87   3
  -9  -7  -7 27561.3 2394.50   1
   7  -9   7 23175.5 2074.65   3
   9   7   7 24934.5 2174.63   5
   7   7   9 27922.0 2397.63  10
   7   9   7 26485.8 2172.25   5
   9   7   7 26525.3 2240.73  10
   7   9   7 25800.1 2263.84  10
   9   7  -7 21407.3 1822.85   5
   9   7  -7 25105.1 2014.03   2
   9  -7  -7 22663.3 2228.77   9
   7  -7  -9 22415.2 2122.16   9
   7   7   9 25451.0 2079.88   5
  -7  -9   7 26842.0 2461.60   4
  -7  -7   9 27385.9 2494.68   4
  -9  -7   7 27130.4 2467.50   4
  -7   9  -7 27150.2 2567.26   8
  -9   7  -7 27471.5 2481.24   8
   7  -9  -7 22346.6 2103.02   9
   7  -7   9 22789.3 1986.78   3
   9  -7  -7 22226.7 2020.04   7
   7  -7  -9 24848.0 2047.43   7
   7   9  -7 24555.7 2225.87   2
  -7   7   9 27393.3 2308.58   4
   9   7  -7 24171.7 1982.54   7
   1  -9  -9 103249. 4654.35   6
  -1  -9  -9 99419.7 4584.93   6
  -9   1  -9 108457. 4825.54   6
  -9  -1  -9 105093. 4933.37   6
   1   9  -9 114217. 5696.09   2
  -9  -9  -1 119065. 5564.80   1
   9  -9  -1 104155. 5242.70   3
  -1   9  -9 115507. 5606.57   2
  -9  -9  -1 107361. 5329.91   6
   9  -9   1 107008. 5285.70   3
  -9  -9   1 108281. 5375.68   6
   9   1   9 112090. 4615.84  10
   9  -1   9 108551. 5466.72   5
   9   1   9 110279. 5365.91   5
  -1   9   9 115513. 5330.07  10
   1   9   9 115999. 5293.11  10
   9   9   1 101943. 4855.37   5
   9   9  -1 99393.4 4748.13   5
   9  -9   1 99935.4 5123.43   9
   1  -9   9 101318. 4983.91   3
   9  -1  -9 115807. 5679.85   9
  -9  -9   1 118128. 5679.42   1
  -1  -9   9 107966. 5221.66   3
  -9  -9   1 115659. 4985.95   4
  -9   9   1 120708. 5249.65   8
  -9   9  -1 117554. 5645.92   8
   1   9  -9 119973. 5638.53   8
  -1   9  -9 111820. 5605.47   8
  -9  -1   9 118921. 5731.68   4
  -9   1   9 114181. 5524.76   4
   9  -9  -1 99389.0 5159.16   9
   9  -1  -9 97386.5 4759.17   7
   9   1  -9 102210. 4828.13   7
  -3  -9  -9 81729.6 4179.96   6
  -9   9   3 97258.0 5010.52   4
   3   9  -9 96050.8 5198.05   2
  -9   3  -9 89011.0 4142.64   6
  -9  -3  -9 85730.5 4511.23   6
  -9  -9  -3 83845.4 4556.89   6
  -3   9  -9 93945.1 4849.12   2
   9  -9   3 84089.6 4541.87   3
   9  -3   9 89765.0 4205.07   3
  -9  -9   3 93801.2 5044.40   1
   9   3   9 96541.7 4748.77   5
   9  -9  -3 83671.6 4562.77   9
   9   3   9 88885.2 4216.79  10
  -3   9   9 91526.8 4642.56  10
   3   9   9 91765.0 4666.83  10
   9   9   3 86717.0 4381.72   5
   3  -9   9 85032.3 4384.83   3
   9  -9   3 88680.9 4544.73   9
   9  -3  -9 93314.8 5038.02   9
  -9   3  -9 93420.6 4515.18   2
  -9  -9   3 87726.1 4407.39   4
  -3  -9   9 86728.4 4640.00   3
   3  -9  -9 79533.0 4261.12   9
   3   9  -9 102410. 4783.74   8
  -9  -3   9 96966.7 5088.40   4
  -9   9  -3 90694.6 5038.58   8
  -3   9  -9 96095.5 5089.98   8
   9   9  -3 81639.8 4124.75   5
  -9  -9  -3 95366.1 4857.93   1
  -9   3   9 95640.5 4910.15   4
   9  -3  -9 81847.7 4242.13   7
   9   3  -9 82528.7 4193.26   7
   9   5  -9 92948.9 4418.30   7
  -5   9   9 100893. 4483.18   4
  -9   9   5 108327. 5246.65   4
   5   9  -9 106778. 5431.79   2
  -5  -9  -9 101494. 5034.55   1
  -9  -5  -9 96840.7 4791.03   1
  -5  -9  -9 90489.1 4609.60   6
  -9  -5  -9 94971.9 4890.84   6
  -9  -9  -5 86799.6 4709.27   6
  -5   9  -9 101438. 5038.73   2
   9  -9   5 92934.2 4678.49   3
   9  -5   9 90938.1 4368.88   3
   9   5   9 99092.5 4781.37   5
  -5   9   9 107393. 4964.45  10
   5  -9   9 90890.6 4511.68   3
   9   5   9 106033. 4840.56  10
   5   9   9 100113. 4966.22  10
   9   9   5 94831.6 4678.98   5
  -9   5  -9 108533. 4938.03   2
   9   9   5 98990.8 4792.32  10
   9   9  -5 89539.1 4337.81   5
   9  -5  -9 96311.9 5037.22   9
   9  -9  -5 87467.5 4726.77   9
  -9  -9  -5 100398. 5036.08   1
   5  -9  -9 86899.9 4563.63   9
  -9  -9   5 96846.3 4857.59   4
  -5  -9   9 98542.0 5032.51   3
  -9  -5   9 108712. 5400.70   4
  -9   9  -5 104846. 5428.33   8
  -5   9  -9 97478.4 5167.78   8
  -9   5  -9 104512. 5217.35   8
   9  -5  -9 87517.6 4477.50   7
  -9   5   9 109619. 5269.61   4
   9   7  -9 50006.3 3121.77   7
   7   9  -9 54532.9 3650.18   2
  -9   9   7 57995.5 3735.04   4
  -7  -9  -9 51313.2 3479.49   6
  -9  -7  -9 51854.1 3620.96   6
  -9  -9  -7 48280.2 3432.99   6
  -7  -9  -9 57624.5 3740.04   1
  -9  -7  -9 53627.7 3560.24   1
  -7   9  -9 52405.7 3417.84   2
   9   7   9 54568.6 3385.15   5
   9  -9   7 48025.7 3201.53   3
   9  -7   9 47237.2 3078.59   3
   7  -9   9 46481.7 3087.24   3
   9   9   7 52845.2 3382.68   5
   9   7   9 57818.9 3582.21  10
  -9  -9  -7 57113.4 3714.21   1
   7   9   9 58378.5 3699.38  10
   9   9   7 50927.4 3398.84  10
   9   7  -9 47764.3 2855.16   5
   9   9  -7 45646.0 2942.99   5
   9  -9  -7 44751.5 3265.25   9
  -7  -9   9 58914.7 3896.24   4
  -9  -9   7 54159.2 3631.74   4
  -9  -7   9 57597.4 3843.45   4
  -7  -9   9 58000.6 3741.21   3
  -9   9  -7 58262.8 3901.52   8
  -7   9  -9 58602.9 3892.65   8
   7  -9  -9 50411.5 3355.39   9
  -9   7  -9 54643.2 3732.20   8
   9  -7  -9 48017.1 3155.37   7
  -9   7   9 56260.9 3656.86   4
   9  -7  -9 49634.5 3462.84   9
   9   7  -9 52216.9 3202.67   2
  -7   9   9 54650.1 3385.79   4
   9   9  -9 57811.8 3364.39   5
   9   9  -9 65434.3 3875.11   2
   9   9   9 65796.0 3814.55   5
   0 -10   0 13368.2 1320.27   1
   0   0 -10 10451.6 1265.33   6
  10   0   0 12697.9 1271.67   5
   0   0  10 13707.8 1549.51  10
   0 -10   0 12463.2 1315.22   3
  10   0   0 12955.1 1634.22   9
   0   0  10 11968.0 1105.18   4
   0  10   0 13819.9 1496.23   8
   0   0  10 13531.8 1148.89   3
 -10   0   0 12963.3 1288.47   4
  -2 -10   0 353947. 10496.4   1
 -10   2   0 354321. 10348.7   4
   2   0 -10 342652. 10550.6   6
   0   2 -10 317341. 10167.8   6
   0  -2 -10 358607. 10540.3   6
  -2   0 -10 343412. 10396.0   6
   2 -10   0 353780. 9934.42   1
  -2 -10   0 353542. 10245.1   3
   0  -2  10 361101. 11169.3  10
  10  -2   0 358811. 10135.1   5
  -2   0  10 347211. 11226.6  10
   2 -10   0 359570. 10516.6   3
   2   0  10 360210. 10852.8  10
  10   0   2 371529. 10480.8   5
   0   2  10 349518. 10854.5  10
  10   0  -2 393609. 10160.7   5
  10   2   0 384295. 10385.0   5
   0 -10   2 333140. 10503.3   3
  10  -2   0 381206. 11614.8   9
   0 -10  -2 343364. 10169.3   1
   2   0  10 375862. 9578.72   3
   2 -10   0 419743. 10426.8   9
   0 -10   2 436173. 9928.06   9
   2   0 -10 350586. 9848.47   9
   0 -10  -2 360556. 9948.10   3
   0   2 -10 352405. 11186.8   2
   0 -10   2 360649. 10471.6   1
   0  -2  10 353446. 9979.86   4
   0  10   2 350040. 10671.7   8
   2  10   0 379069. 10833.9   8
   0  -2  10 360926. 9991.38   3
   2   0 -10 347506. 11050.6   2
  -2  10   0 350263. 10874.8   8
   0  10  -2 381958. 11105.3   8
   0   2  10 380854. 9345.83   3
   0   2  10 343777. 9367.23   4
  -2   0  10 347787. 10086.3   4
  10   0  -2 381113. 11638.7   9
 -10  -2   0 328274. 10134.5   1
 -10   2   0 379637. 10308.7   8
 -10  -2   0 362495. 10097.7   4
   0  10  -2 373837. 10990.2   2
  10   0  -2 367724. 10467.0   7
 -10   0   2 357263. 10450.5   4
 -10   0  -2 374792. 9986.26   4
   2  -2 -10 255011. 8339.46   6
 -10   2  -2 266478. 8009.39   4
  -2   2 -10 237848. 7886.58   6
 -10  -2  -2 259152. 7888.66   1
  -2  -2 -10 249274. 8317.28   6
  -2 -10  -2 265560. 7139.11   6
   2   2  10 262616. 8657.55  10
   2 -10  -2 263040. 7988.36   3
  -2  -2  10 270715. 9258.95  10
  10  -2   2 264573. 8291.32   5
  10  -2  -2 253698. 7564.72   5
  -2   2  10 251708. 8704.65  10
  10   2   2 254610. 8136.41   5
   2 -10   2 253936. 8363.34   3
  -2 -10  -2 274041. 7655.19   3
  10   2  -2 265688. 7913.11   5
  10   2   2 261859. 7229.99  10
  10  -2  -2 273827. 9358.93   9
  10  -2   2 277368. 9237.39   9
  -2 -10   2 249140. 8305.83   1
   2   2 -10 285748. 9344.25   2
   2 -10  -2 254880. 7730.50   1
   2  -2  10 259544. 7645.01   3
  -2 -10   2 255314. 8281.70   3
   2 -10   2 302961. 8044.91   9
  -2 -10  -2 252488. 8252.35   1
   2  -2  10 256684. 8615.09  10
   2 -10  -2 260838. 8059.69   9
   2  10   2 255969. 8479.40   8
  -2   2 -10 255231. 8820.49   2
  -2  10   2 250345. 8364.44   8
   2  10  -2 278045. 8607.71   8
  -2  -2  10 248190. 8034.75   4
  -2  10  -2 286638. 9243.94   8
  -2   2  10 240507. 7686.02   4
   2   2 -10 277956. 8286.33   8
 -10  -2   2 268879. 8281.58   4
 -10  -2  -2 282994. 7695.75   4
  10  -2  -2 263687. 8325.48   7
  -2  10  -2 271720. 8610.84   2
  10   2  -2 267558. 8127.47   7
   2 -10   2 276555. 8107.81   1
 -10   2   2 271475. 8438.44   4
  10   0  -4 9512.65 1016.61   5
   0  10  -4 9951.13 1392.37   2
   0   4 -10 9016.72 1134.36   6
  -4 -10   0 10211.5 1304.69   1
   0 -10  -4 8195.69 876.939   6
 -10   4   0 9945.18 1229.15   4
   0  -4 -10 8903.00 1184.63   6
  -4   0 -10 9239.03 1231.06   6
 -10   0  -4 9386.63 1291.19   6
   0 -10  -4 9121.10 1150.59   1
  10  -4   0 8987.79 1080.28   5
  10   4   0 9317.60 1129.65   5
   4 -10   0 8353.38 1146.52   3
  -4   0  10 11420.4 1582.43  10
  10   0   4 9979.95 1270.27   5
   4   0  10 9324.49 1259.48  10
   0   4  10 10233.8 1357.04  10
   4   0  10 9115.72 929.030   3
   0  10   4 10198.2 1285.28  10
 -10  -4   0 11016.7 1377.06   1
  10   0  -4 9561.75 1425.64   9
  10  -4   0 11028.3 1505.82   9
   0 -10   4 9316.43 1284.77   3
   0  10   4 9933.71 1042.72   5
   4 -10   0 8051.26 1069.91   9
   4   0 -10 10700.4 1196.33   9
   4   0 -10 9974.89 1393.16   2
  -4 -10   0 11148.0 1222.26   3
   0  -4  10 9303.77 1151.43   3
   0  10   4 10416.9 1307.01   8
   4  10   0 8796.70 1193.71   8
   4 -10   0 10000.2 1005.26   1
   0   4 -10 10238.0 1462.91   2
  -4  10   0 9376.79 1338.19   8
   0  10  -4 10988.8 1497.23   8
  -4   0  10 11372.2 1339.99   4
 -10  -4   0 8684.28 1074.62   4
 -10   4   0 11742.8 1316.72   8
   0   4 -10 11457.7 1395.63   8
   0 -10   4 11763.1 1387.00   1
 -10   0   4 10757.2 1352.04   4
  10   0  -4 8827.68 1165.73   7
   0  -4  10 9463.10 1351.71  10
 -10   0  -4 10344.6 1004.21   4
  -2  10  -4 349075. 10761.0   2
 -10   4   2 331541. 10200.6   4
   2  -4 -10 333467. 10074.5   6
  -2   4 -10 322662. 9451.74   6
 -10   2  -4 336223. 9518.87   4
  -4  -2  10 346147. 11354.4  10
 -10   4  -2 325940. 9925.45   4
  -2  -4 -10 346725. 10279.7   6
  -2 -10  -4 357525. 9250.16   6
  -4   2 -10 332199. 9786.15   6
  -4  -2 -10 306808. 10085.0   6
  -4 -10  -2 349145. 9242.47   6
  -2 -10   4 326831. 10396.8   3
  10  -2   4 339302. 10031.3   3
  10  -4   2 337895. 10323.2   3
   2 -10  -4 320270. 9062.50   3
 -10  -2  -4 337659. 10681.1   6
   2 -10  -4 297114. 9338.61   1
  10   2  -4 364156. 9632.21   5
 -10   2  -4 323861. 10051.5   6
 -10  -4  -2 344249. 11128.9   6
   4 -10  -2 325111. 9916.66   3
   4   2  10 328065. 9898.86   5
  10  -4   2 318077. 9890.10   5
  10  -4  -2 324570. 9284.95   5
  -2 -10  -4 313785. 9926.18   1
   2  -4  10 332263. 10257.6  10
   4  -2  10 320927. 10054.8  10
   4 -10   2 329054. 10195.9   3
  -4   2  10 331270. 10686.3  10
  -2   4  10 325270. 10333.4  10
  10   2   4 333830. 10014.6   5
   4   2  10 319161. 10201.1  10
   2   4  10 334977. 10406.4  10
   2   4 -10 348554. 11221.7   2
  10   2   4 321460. 8993.91  10
  10   4   2 334157. 9889.50   5
   4  -2  10 359832. 9483.06   3
   4   2 -10 341828. 11017.6   2
   2 -10   4 315567. 10143.2   3
  -2  10   4 330719. 10105.9  10
  -4  10   2 339434. 9727.68  10
  10   2  -4 338439. 10425.9   9
  10  -4   2 343294. 10752.2   9
  -2   4 -10 337396. 10659.0   2
  10  -2  -4 352187. 11226.7   9
  10  -4  -2 332211. 10857.6   9
 -10  -4   2 343804. 10570.0   1
   2  10   4 321763. 9441.27   5
  -4 -10   2 329026. 10270.6   1
 -10  -2  -4 319963. 9451.53   1
   2  -4  10 328513. 9597.00   3
   4  10   2 292496. 9620.99   5
   4 -10   2 378678. 10019.1   9
  -2 -10   4 340354. 10372.3   1
   4 -10  -2 355163. 10055.0   9
   4  -2 -10 332552. 9863.11   9
  -4 -10   2 331873. 10050.3   3
   2  10   4 334663. 10334.3   8
   4  10   2 331675. 10238.9   8
   4 -10  -2 305071. 8856.59   1
  -2  -4  10 317366. 9957.72   4
  -4 -10  -2 324032. 10149.8   1
  -2  10   4 307112. 9821.64   8
  -4  10   2 302866. 9884.06   8
   2  10  -4 361983. 10472.6   8
  -4   2 -10 321089. 10437.7   2
  -4  -2  10 323124. 10074.2   4
  -4  10  -2 341897. 11045.1   8
  -2  10  -4 364853. 11328.6   8
   4  -2 -10 346060. 10404.6   2
  -2  -4  10 313450. 9725.07   3
 -10  -4  -2 359131. 9421.10   4
  10  -2  -4 325548. 8862.32   5
 -10  -4   2 327084. 9883.84   4
   4  10  -2 345587. 10020.5   8
   2   4 -10 320603. 10001.8   8
 -10   4  -2 355444. 10454.0   8
  -4   2  10 311820. 9792.99   4
 -10  -2   4 336620. 10287.1   4
  -2   4  10 320689. 9277.07   4
  -2   4 -10 330199. 10397.0   8
  10   4  -2 340011. 9698.03   5
  -4  10  -2 330352. 9975.27   2
  10  -2  -4 327559. 9906.77   7
  10   4  -2 348151. 9691.19   7
  10   2  -4 326147. 9748.33   7
 -10   2   4 331971. 10241.5   4
  10  -2   4 337296. 10305.3   5
   2  10  -4 361309. 10828.2   2
 -10  -4  -2 344370. 10179.9   1
 -10   4   4 8135.42 1223.45   4
  -4  10  -4 8045.71 1223.49   2
  10   4   4 7107.90 1066.04   5
  -4   4 -10 7227.08 961.363   6
  -4  -4 -10 8026.68 1307.07   6
  -4 -10  -4 6669.34 915.057   6
   4 -10  -4 6790.49 946.371   3
  10  -4   4 5318.35 979.640   3
 -10  -4  -4 10079.7 1491.57   6
 -10   4  -4 7206.92 1050.16   6
   4 -10  -4 7123.36 878.705   1
   4  -4  10 6792.59 1043.06  10
   4   4  10 6819.35 981.763   5
  -4   4  10 8435.99 1283.18  10
  -4 -10  -4 7044.14 1102.02   1
   4   4  10 6705.03 1134.48  10
  -4 -10   4 6624.88 1139.45   1
  -4  10   4 8368.68 1126.42  10
   4  -4  10 5674.16 883.298   3
  10  -4   4 6268.49 1094.72   9
   4  10   4 7234.46 1044.67   5
  -4   4 -10 7181.07 1182.78   2
 -10  -4  -4 7523.24 1093.88   1
  10  -4   4 5747.40 1035.68   5
   4 -10  -4 5642.40 968.143   9
   4  -4 -10 5856.58 984.972   9
  10  -4  -4 5302.83 1127.94   9
  -4  10   4 7273.05 1038.33   8
  -4 -10   4 8578.24 1283.69   3
   4  10  -4 7509.53 1077.02   8
  -4  -4  10 8055.54 1235.93   4
   4 -10   4 6660.12 1086.35   3
  -4  10  -4 8346.62 1460.85   8
 -10  -4   4 7610.69 1203.30   4
  10   4  -4 6201.37 932.251   5
 -10   4  -4 7096.56 1150.65   8
  -4   4  10 8217.65 1110.91   4
  10  -4  -4 7169.03 1094.73   7
   4  10  -4 8275.76 1258.16   2
  10   4  -4 6605.45 966.691   7
  10   4   4 6384.39 891.134  10
   4   4 -10 8823.79 1427.95   2
   4  -4 -10 6425.31 1015.93   7
   6   0 -10 325909. 9772.87   7
   0 -10  -6 327878. 8958.18   6
   0  10  -6 319701. 10528.5   2
   0  -6 -10 314841. 9599.43   6
 -10   6   0 293779. 9730.47   4
   0 -10  -6 289329. 9316.60   1
  -6   0 -10 316049. 9759.88   6
  -6 -10   0 300935. 9862.58   1
  -6 -10   0 286349. 8769.53   6
 -10   0  -6 303993. 9723.63   6
 -10  -6   0 303505. 10593.5   6
   6 -10   0 279770. 9653.44   3
   6   0  10 318175. 10088.4   5
  -6   0  10 296814. 10621.3  10
  10   0   6 313150. 9982.65   5
   0   6 -10 311224. 10598.5   2
   6   0  10 305913. 9528.98  10
  10   6   0 293983. 9234.97   5
 -10  -6   0 320627. 10273.4   1
   0   6  10 303288. 9858.84  10
   6   0 -10 313664. 9939.24   2
   0  10   6 310707. 9831.79  10
  10   0  -6 315169. 10554.8   9
  10  -6   0 289432. 10038.7   9
   0 -10   6 282509. 9792.59   3
   6  10   0 289701. 9390.87   5
   6   0 -10 290628. 9394.78   9
   6 -10   0 312545. 9686.10   9
   0  -6  10 290488. 9415.90   3
   6  10   0 327914. 9631.46   8
  -6 -10   0 306864. 9009.50   3
 -10  -6   0 305944. 9122.13   4
  -6  10   0 286913. 10038.2   8
   0  10  -6 325889. 10562.1   8
 -10   6   0 307603. 9593.30   8
   0   6 -10 321432. 10260.2   8
  -6   0  10 278319. 9721.97   4
 -10   0   6 303838. 10041.7   4
  10   0  -6 288708. 9227.16   7
 -10  -6  -2 212348. 7507.94   1
   2 -10  -6 189644. 6231.09   6
   2  10  -6 209892. 7845.11   2
   2  -6 -10 180450. 6753.74   6
   2 -10  -6 189305. 6618.54   1
 -10   6   2 201606. 7313.38   4
  -2  10  -6 214649. 7941.37   2
  -2  -6 -10 181036. 6874.57   6
  -2 -10  -6 185294. 6317.33   6
  -6   2 -10 198986. 6830.97   6
  -6  -2 -10 194159. 7234.73   6
  -2 -10  -6 183096. 6881.69   1
  -6 -10  -2 182222. 6343.83   6
  10  -2   6 192096. 6835.08   3
 -10  -6   2 208574. 7749.59   1
  10  -6   2 189761. 7235.05   3
 -10  -2  -6 192875. 7266.63   6
 -10   2  -6 197309. 6948.29   6
   6 -10  -2 192707. 7131.10   3
 -10  -6  -2 207130. 8110.92   6
 -10  -2  -6 199218. 6555.13   1
  -6 -10   2 198963. 7419.40   1
   2 -10   6 180400. 7028.40   3
   2   6 -10 206831. 8126.51   2
   6 -10   2 188736. 7099.74   3
  10  -2   6 193087. 7391.17   5
   6   2  10 190082. 7083.22   5
   6   2 -10 200846. 7497.10   2
  -2   6 -10 205516. 7663.13   2
  -6   2  10 208794. 7919.31  10
   6  -2  10 196574. 6363.05   3
   6  -2  10 198375. 6850.57  10
  10   2   6 193087. 7088.37   5
   6   2  10 189276. 6995.12  10
  -2   6  10 198443. 7260.98  10
   2   6  10 193531. 7232.57  10
  10   2   6 188078. 6150.06  10
  -2  10   6 194230. 7128.39  10
   2  10   6 191011. 7042.50  10
  10   6   2 179546. 6659.60   5
  10   2  -6 196199. 6293.40   5
  10   6  -2 186598. 6632.78   5
  10   2  -6 193211. 7037.60   9
  10  -6   2 180469. 7208.04   9
   6  10   2 182149. 6862.14   5
  10  -2  -6 196055. 7909.55   9
  10  -6  -2 169578. 7280.62   9
   2  -6  10 183100. 6700.90   3
   6 -10   2 206637. 7150.24   9
   6  -2 -10 206380. 7107.18   2
   6  10  -2 180798. 6750.30   5
   6  -2 -10 200530. 7118.69   9
   6 -10  -2 186453. 6890.33   9
  -2 -10   6 190319. 7374.59   3
  -2  -6  10 191754. 7184.28   4
  -2  10   6 189057. 6759.90   8
   6  10  -2 196084. 6688.29   8
   2  10   6 193602. 6203.92   5
  -2  -6  10 175852. 6763.31   3
  -6 -10   2 201285. 6931.54   3
  -6  10   2 195860. 7017.35   8
 -10   2  -6 204103. 6599.14   2
   2  10  -6 216582. 7540.38   8
 -10  -6   2 198033. 6851.30   4
  -6   2 -10 203979. 7484.95   2
  -6  10  -2 214796. 8216.02   8
  -2  10  -6 200598. 7952.20   8
  -6  -2  10 186689. 7244.25   4
  -6 -10  -2 192889. 7210.73   1
   2   6 -10 195234. 7143.74   8
 -10   6  -2 208970. 7568.31   8
  -2   6 -10 203933. 7511.00   8
 -10  -2   6 197067. 7450.74   4
  -6   2  10 197347. 7256.85   4
  10   6  -2 160664. 5969.62   7
 -10   2   6 204361. 7472.09   4
  10  -2  -6 143737. 6248.67   7
  10   2  -6 182315. 6629.71   7
   2  -6 -10 204099. 6431.88   7
   6  -2 -10 193211. 7088.74   7
  -6  10  -4 279334. 8936.87   2
 -10   6   4 274745. 9251.03   4
   4 -10  -6 263779. 8247.02   1
  -4  10   6 273709. 8746.28   4
  -4  10  -6 302521. 9794.13   2
  -4  -6 -10 264913. 9121.08   6
  -6   4 -10 278869. 8389.77   6
  -4 -10  -6 273412. 8533.74   6
  -6  -4 -10 261248. 9177.10   6
  -6 -10  -4 265237. 8475.92   6
 -10  -4  -6 272394. 9510.36   6
 -10   4  -6 276504. 8597.69   6
 -10  -6  -4 277884. 9890.98   6
  10  -4   6 282598. 9046.34   3
 -10   6  -4 293839. 8571.07   6
  10  -6   4 279231. 9220.51   3
  -4 -10  -6 266676. 9009.02   1
   4   6 -10 274830. 9972.38   2
   6   4 -10 274096. 9508.77   2
 -10  -4  -6 272469. 8762.11   1
   6 -10   4 257695. 8870.11   3
   6   4  10 274174. 8834.94   5
   6  -4  10 262743. 8518.30  10
   6  -4  10 267955. 8349.72   3
  -4   6  10 284547. 9320.54  10
  10   4   6 263754. 8872.16   5
   6   4  10 279928. 9207.86  10
  -4   6 -10 270099. 9301.52   2
   4   6  10 278854. 9259.14  10
   4 -10   6 258138. 8880.95   3
  -4  10   6 274026. 8924.16  10
  10   4   6 271225. 8465.42  10
  10   6   4 263824. 8787.07   5
 -10  -6  -4 290267. 9310.99   1
   4  10   6 266593. 8984.41  10
   4  -6  10 264192. 8554.25   3
  10   6   4 280178. 8688.70  10
   4  10   6 269140. 8388.78   5
   6  10   4 276714. 8976.85   5
  10  -6   4 258741. 9015.19   9
  10   4  -6 286923. 8468.29   5
  10   6  -4 263333. 8458.79   5
  -6 -10  -4 280552. 9259.02   1
  10  -4  -6 282621. 9986.11   9
  10  -6  -4 257852. 9517.32   9
  -6   4 -10 275474. 9228.45   2
   6 -10  -4 268131. 8975.42   9
   6  -4 -10 277238. 9112.42   9
  -6 -10   4 269906. 9442.30   1
   4 -10  -6 259700. 8789.05   9
   4  -6 -10 259887. 8820.23   9
  -4  10   6 252712. 8318.99   8
  -6   4  10 275930. 9461.42  10
  -4  -6  10 267203. 9239.62   4
   6  10  -4 281016. 8475.69   8
  -4 -10   6 262005. 9251.42   3
  -6  10   4 254712. 8314.20   8
   4  10  -6 294611. 9018.71   8
  -6  -4  10 260217. 9186.61   4
  -6 -10   4 289246. 9262.37   3
 -10  -6   4 265077. 8931.13   4
  -6  10  -4 283580. 10177.9   8
  -4  10  -6 286118. 10141.5   8
 -10  -4   6 276238. 9429.15   4
 -10   6  -4 291679. 9552.03   8
  -4   6 -10 276058. 9441.10   8
  -6   4  10 277968. 9115.69   4
  10  -4  -6 261129. 8673.33   7
  -4   6  10 277519. 8588.04   4
  10   6  -4 257896. 8268.22   7
   4  -6 -10 282604. 8534.87   7
  10   4  -6 263321. 8533.45   7
 -10   4   6 272694. 9283.33   4
   6  -4 -10 280160. 8964.87   7
   4  10  -6 290247. 9617.61   2
 -10   6   6 150595. 6195.81   4
  -6  10   6 139777. 5804.53   4
  -6  10  -6 146869. 6000.20   2
  -6  -6 -10 121909. 5709.16   6
  -6 -10  -6 125373. 5339.85   6
   6   6 -10 143159. 6318.84   2
 -10  -6  -6 136139. 6151.74   6
  10  -6   6 127067. 5574.38   3
  -6 -10  -6 136132. 5863.63   1
   6 -10   6 120089. 5431.23   3
   6   6  10 138928. 5382.24   5
  -6   6  10 142609. 5967.48  10
   6  -6  10 119612. 5099.20   3
  10   6   6 133023. 5635.07   5
   6   6  10 140978. 5944.29  10
  -6   6 -10 140548. 5940.41   2
 -10  -6  -6 139007. 5808.86   1
  10   6   6 140099. 5531.35  10
   6  10   6 131302. 5704.98  10
   6  10   6 132780. 5427.31   5
   6  -6 -10 122599. 5552.38   9
  10   6  -6 122809. 5088.08   5
  10  -6  -6 131050. 6086.79   9
   6 -10  -6 119263. 5447.90   9
   6  10  -6 132055. 5088.68   8
  -6  -6  10 138334. 6090.63   4
  -6 -10   6 142908. 6052.61   3
 -10  -6   6 141049. 5966.87   4
  -6  10  -6 137536. 6409.95   8
 -10   6  -6 135532. 6071.98   8
  -6   6 -10 133712. 5963.93   8
  10  -6  -6 124149. 5405.11   7
  -6   6  10 141384. 5719.24   4
   6  10  -6 137736. 5902.29   2
   6  -6 -10 130566. 5340.38   7
  10   6  -6 128873. 5221.10   7
  10   0  -8 2299.63 658.994   7
   8   0 -10 2815.29 776.396   7
  -8   0  10 4000.69 973.088   4
 -10   0   8 4709.81 1083.49   4
  -8 -10   0 3670.97 908.651   1
   0 -10  -8 2906.89 682.954   6
   0  -8 -10 3519.81 837.007   6
  -8   0 -10 4109.98 898.007   6
 -10   0  -8 3638.67 804.376   6
  -8 -10   0 3120.49 765.533   6
 -10  -8   0 5472.51 1203.56   6
   8   0  10 3951.20 844.908  10
   0  10   8 4105.31 971.304  10
   8   0  10 3476.24 911.214   5
  10   0   8 5344.79 1143.08   5
 -10  -8   0 3143.55 872.270   1
  10   8   0 3710.35 841.990   5
   8  10   0 3248.74 791.405   5
  10  -8   0 4202.29 977.413   9
   8 -10   0 2893.83 802.844   9
   0   8  10 4131.28 933.985  10
  10  -8   0 3729.51 943.191   3
   0   8 -10 3419.93 919.258   8
   8 -10   0 4356.36 997.155   3
   0  10  -8 3850.74 993.972   2
   0   8 -10 4326.81 1060.13   2
   0 -10   8 3612.95 895.387   3
   0  -8  10 3460.91 812.438   3
  -8  10   0 3717.75 928.272   8
 -10   8   0 4634.39 989.841   8
   0  10  -8 4886.40 1179.43   8
  10   0  -8 3905.20 940.307   9
   8   2 -10 234756. 8304.47   7
   2 -10  -8 237415. 7915.61   6
   2  -8 -10 239439. 8209.85   6
  -2 -10  -8 233298. 8389.10   1
 -10  -8  -2 256791. 9160.76   1
 -10  -8   2 271767. 9553.00   1
  -2  -8 -10 249270. 8430.58   6
   2  10  -8 254626. 9452.12   2
  -2 -10  -8 250449. 8108.65   6
 -10   8   2 248802. 8980.77   4
 -10  -2  -8 245369. 7978.03   1
  -8   2 -10 248858. 8267.67   6
  -2  10  -8 259552. 9266.89   2
  -8  -2 -10 246290. 8664.03   6
 -10   2  -8 249072. 8212.85   6
 -10  -2  -8 243907. 8559.42   6
   8 -10  -2 238415. 8764.48   3
  -8 -10  -2 233393. 8233.91   6
  10  -2   8 245442. 8173.15   3
   2   8 -10 256877. 9512.42   2
  10  -8   2 241663. 8836.35   3
 -10  -8  -2 237681. 9263.68   6
   8 -10   2 245589. 8779.66   3
  -2   8 -10 245101. 9043.17   2
  10  -2   8 253408. 9268.05   5
   8   2  10 251096. 8892.39   5
  -8   2  10 260990. 9275.00  10
  10   2   8 250319. 8860.44   5
   8   2  10 241325. 8257.12  10
  -2   8  10 249234. 8814.01  10
   2   8  10 256969. 8872.72  10
  -2  10   8 253403. 8831.27  10
   2  10   8 243973. 8730.58  10
  10   8   2 238141. 8324.11   5
   2 -10   8 236005. 8664.78   3
   8  10   2 228450. 8357.55   5
  10   8  -2 233094. 8116.38   5
  10  -8   2 228822. 8696.46   9
   2  -8  10 236003. 8392.72   3
   8 -10   2 247749. 8710.46   9
  10  -2  -8 264729. 9736.97   9
  10  -8  -2 238013. 8983.27   9
   8  10  -2 229132. 8176.41   5
   8  -2 -10 257130. 9096.95   9
   8 -10  -2 243077. 8654.26   9
  -2 -10   8 236297. 8857.57   3
  -2  -8  10 232497. 8560.19   3
 -10  -8   2 256693. 8385.89   4
 -10   2  -8 254736. 8408.97   2
  -8  10   2 255056. 8444.92   8
  -8   2 -10 253272. 8802.14   2
   2  10  -8 276731. 9297.65   8
  -8  10  -2 247916. 9501.62   8
   2   8 -10 261392. 8964.27   8
  -2  10  -8 254794. 9501.64   8
 -10   8  -2 262241. 9237.57   8
  -8  -2  10 246524. 9143.69   4
  -2   8 -10 257007. 9210.28   8
  -8 -10   2 252491. 9151.51   1
 -10  -2   8 251162. 9314.44   4
  -8   2  10 233494. 8816.25   4
 -10   2   8 247307. 9046.29   4
  -8 -10  -2 255425. 8989.25   1
  10  -2  -8 220650. 8083.10   7
  10   2  -8 223601. 8045.97   7
   8  -2 -10 238643. 8473.85   7
  10  -4  -8 2230.23 646.036   7
   8  -4 -10 2064.31 685.398   7
  10   4  -8 2779.94 704.588   7
   8   4 -10 3136.97 758.860   7
  -4 -10  -8 3248.04 838.204   1
   8   4  10 2939.50 804.176  10
  -4  -8  10 2302.38 789.999   4
  -8 -10   4 2158.66 691.234   4
 -10  -8   4 2379.68 757.761   4
  -8  -4  10 3562.53 1008.37   4
 -10  -4   8 3485.32 949.800   4
  -8   4  10 3051.70 815.416   4
 -10   4   8 3531.44 954.966   4
 -10  -4  -8 2015.23 623.903   1
  -4  10   8 2863.94 660.078   4
 -10   8   4 3540.35 956.788   4
  -8  10   4 2483.27 808.779   4
  -4  -8 -10 2831.34 801.735   6
  -4 -10  -8 2592.98 721.158   6
  -8   4 -10 3494.63 752.334   6
  -8  -4 -10 2625.58 852.153   6
  -8 -10  -4 1929.72 605.192   6
 -10   4  -8 2604.75 672.318   6
 -10  -4  -8 2167.28 752.523   6
 -10  -8  -4 2479.60 867.705   6
  -4   8  10 2848.93 817.672  10
  -4  10   8 3314.35 839.673  10
  10   4   8 4010.02 818.405  10
   4   8  10 3605.62 919.258  10
   4  10   8 2765.14 793.515  10
  10   8   4 3509.91 840.176  10
  -8 -10  -4 2888.37 838.629   1
   8   4  10 2490.33 740.500   5
 -10  -8  -4 2993.78 805.490   1
  10   4   8 2846.67 794.153   5
  10   8   4 1867.28 610.175   5
   8  10   4 2529.13 745.293   5
  10   8  -4 1928.16 610.127   5
   8  10  -4 2239.09 683.811   5
  10  -8   4 2736.26 728.462   9
  10  -4  -8 2270.85 810.473   9
  10  -8  -4 2147.70 732.230   9
   8 -10  -4 1875.55 632.323   9
   4 -10  -8 2132.95 720.851   9
   4  -8 -10 4313.62 929.654   9
  10  -4   8 2781.47 740.896   3
  10  -8   4 2949.79 809.260   3
   8 -10   4 2570.68 748.069   3
   8  -4  10 2479.27 683.157   3
   4  10  -8 3958.17 1007.53   2
   4 -10   8 3353.49 827.002   3
   8  -4 -10 2681.93 823.331   9
   8   4 -10 2654.25 709.287   2
   4   8 -10 2554.82 864.785   2
   4  -8  10 2735.09 720.730   3
  -4  10  -8 2130.52 682.474   2
   4  10  -8 2964.86 751.508   8
  -4   8 -10 2842.43 822.635   2
  -4 -10   8 3268.78 921.368   3
  -8  10  -4 3054.96 984.267   8
  -4  10  -8 3179.06 982.340   8
 -10   8  -4 3749.96 1024.55   8
  -4  -8  10 2182.90 754.489   3
   8  10   4 2925.45 771.976  10
  -4   8 -10 3054.32 891.960   8
  -8   4 -10 2780.90 821.654   2
  -8 -10   4 2594.73 821.050   1
  -6  -8 -10 201805. 7857.41   1
 -10   8   6 201244. 7802.89   4
  -8  -6 -10 199209. 7779.87   1
  -6  10   8 194321. 7112.92   4
  -8  10   6 198438. 7655.21   4
   8   6 -10 187296. 7202.43   2
   6   8 -10 201717. 8076.02   2
  -6  -8 -10 183790. 7378.66   6
  -6 -10  -8 180610. 7098.40   6
  -8  -6 -10 177839. 7450.26   6
  -6  10  -8 202261. 7619.10   2
  -8 -10  -6 176935. 7166.49   6
 -10  -6  -8 181939. 7581.39   6
 -10  -8  -6 175540. 7524.89   6
  -6 -10  -8 194028. 7548.71   1
   6 -10   8 177805. 7022.19   3
  10  -8   6 184444. 7242.73   3
  10  -6   8 184055. 7036.50   3
 -10  -6  -8 186291. 7284.21   1
  -6   8 -10 184196. 7412.09   2
   8 -10   6 176399. 7038.78   3
   8  -6  10 167435. 6559.13   3
   8   6  10 192283. 7152.42   5
  10   8   6 201437. 7385.75  10
  10   6   8 193033. 7316.05   5
   6  -8  10 174172. 6765.61   3
  -8   6 -10 200731. 7494.53   2
   8   6  10 199085. 7501.23  10
  10   8   6 187743. 7236.46   5
   6   8  10 196394. 7546.31  10
  10   6   8 199256. 7298.86  10
   6  10   8 190648. 7412.47  10
   8  10   6 190661. 7217.40   5
   8  10   6 194983. 7428.70  10
  -8 -10  -6 197959. 7729.67   1
 -10  -8  -6 197314. 7602.27   1
  10   6  -8 181812. 6537.95   5
  10   8  -6 180820. 6742.55   5
  10  -6  -8 186148. 7750.65   9
  10  -8  -6 178566. 7488.68   9
   8  10  -6 180778. 6901.82   5
   8  -6 -10 181955. 7403.61   9
   8 -10  -6 177297. 7259.09   9
   6 -10  -8 173994. 7127.12   9
   6  -8 -10 176167. 7156.05   9
  -8 -10   6 195307. 7696.73   4
  -6  -8  10 197097. 7907.75   4
 -10  -8   6 191938. 7477.86   4
  -8  -6  10 201469. 7943.36   4
  -6 -10   8 197033. 7736.48   3
 -10  -6   8 191116. 7719.79   4
  -6  -8  10 184216. 7443.41   3
  -8  10  -6 202112. 8113.96   8
  -6  10  -8 203569. 8130.41   8
 -10   8  -6 198701. 7967.83   8
  -6   8 -10 198282. 7925.49   8
 -10   6  -8 199335. 7840.77   8
  -8   6 -10 198142. 7753.75   8
  10  -6  -8 176609. 6984.00   7
   6  -8 -10 186999. 6647.84   7
  -8   6  10 197883. 7540.47   4
   8  -6 -10 167384. 6842.62   7
  -6   8  10 201069. 7141.69   4
 -10   6   8 202143. 7792.97   4
  10   6  -8 183691. 6871.32   7
   6  10  -8 202473. 7871.78   2
   8  -8 -10 1267.66 528.578   7
  10   8  -8 698.275 384.438   7
  -8  -8 -10 687.892 472.178   1
  -8 -10   8 498.941 494.082   4
 -10  -8   8 954.305 688.399   4
  -8   8  10 963.196 490.786   4
 -10   8   8 711.327 482.207   4
  -8  10   8 363.015 408.697   4
  -8  -8 -10 615.757 445.983   6
  -8 -10  -8 1318.16 679.775   6
 -10  -8  -8 997.811 541.102   6
  -8 -10  -8 682.961 471.341   1
 -10  -8  -8 1315.35 606.906   1
   8   8 -10 645.886 397.153   5
   8   8  10 491.248 472.373  10
  10   8   8 882.668 481.008  10
   8  10   8 1242.14 638.138  10
  10   8   8 696.595 429.856   5
   8  10   8 714.334 468.104   5
  10   8  -8 757.860 362.143   5
   8  10  -8 897.844 498.668   5
  10  -8  -8 997.411 555.687   9
   8  -8 -10 796.949 542.810   9
   8  10  -8 629.068 462.492   2
  10  -8   8 499.720 364.007   3
   8   8 -10 656.052 465.373   2
   8 -10   8 833.647 441.743   3
   8  -8  10 613.415 437.591   3
  -8   8 -10 1714.92 674.561   2
 -10   8  -8 619.691 566.231   8
  -8 -10   8 615.976 570.587   3
   0 -10 -10 185467. 7098.47   6
   0  10 -10 207179. 8322.67   2
 -10   0 -10 183401. 7137.49   6
  10 -10   0 192138. 7942.15   3
 -10 -10   0 193015. 7822.64   6
  10   0  10 188451. 8041.28   5
   0  10  10 204378. 7915.00  10
  10  10   0 175892. 7211.40   5
  10 -10   0 172650. 7555.94   9
   0 -10  10 189394. 7660.03   3
 -10 -10   0 213967. 8512.62   1
   0  10 -10 212217. 8418.00   8
 -10   0  10 205743. 8393.35   4
  10   0 -10 185991. 7265.97   7
   2 -10 -10 78446.2 4241.06   6
  -2 -10 -10 78469.9 4257.24   6
 -10 -10   2 97791.0 5463.40   1
 -10  10   2 98345.0 5301.44   4
   2  10 -10 95842.2 5356.18   2
 -10   2 -10 84948.5 4319.46   6
 -10 -10  -2 99161.0 5304.77   1
 -10  -2 -10 80461.4 4417.60   6
  -2  10 -10 93223.2 5040.49   2
 -10 -10  -2 83449.1 4732.52   6
  10 -10   2 88830.3 4924.85   3
   2  10  10 88076.6 4796.50  10
  10   2  10 90935.2 5015.58   5
  -2  10  10 96162.8 5021.65  10
  10  10   2 80137.8 4441.03   5
   2 -10  10 85291.0 4684.55   3
  10  10  -2 81143.7 4382.97   5
  10 -10   2 86098.2 4789.44   9
  10  -2 -10 91355.6 5256.27   9
  10 -10  -2 80155.3 4751.88   9
  -2 -10  10 86942.2 4852.12   3
 -10   2 -10 102638. 4989.84   2
   2  10 -10 97048.3 5126.19   8
 -10  10  -2 96553.9 5365.70   8
  -2  10 -10 92425.6 5210.37   8
 -10  -2  10 98383.2 5457.35   4
 -10   2  10 95905.9 5302.54   4
  10  -2 -10 79208.4 4355.51   7
  10   2 -10 79434.4 4272.47   7
  -4 -10 -10 171102. 7159.03   1
   4  10 -10 185097. 7904.62   2
 -10  10   4 189426. 7777.60   4
  -4 -10 -10 160388. 6720.66   6
 -10  -4 -10 175399. 6861.50   1
 -10  -4 -10 170516. 7196.91   6
 -10 -10  -4 158229. 7007.83   6
  -4  10 -10 168934. 7162.88   2
  10 -10   4 165093. 7016.20   3
  10   4  10 177994. 7285.85   5
  10   4  10 171615. 6644.30  10
   4  10  10 171622. 7144.64  10
   4 -10  10 161910. 6732.93   3
  10  10   4 167418. 6948.30   5
  10  10   4 180225. 7141.07  10
  -4  10  10 174141. 7256.73  10
  10  10  -4 162166. 6595.73   5
  10  -4 -10 167654. 7553.60   9
  10 -10  -4 164592. 7142.30   9
   4 -10 -10 160445. 6890.95   9
 -10 -10   4 167783. 6929.55   4
  -4 -10  10 174090. 7349.88   3
 -10  -4  10 189563. 7878.78   4
 -10  10  -4 178670. 7776.75   8
  -4  10 -10 171630. 7579.20   8
 -10 -10  -4 188356. 7638.23   1
 -10   4  10 193306. 7776.88   4
  10  -4 -10 162898. 6822.98   7
  10   4 -10 165390. 6688.74   7
  -6 -10 -10 49612.5 3472.30   6
 -10 -10  -6 49767.4 3588.11   6
 -10  -6 -10 58001.4 3728.68   1
  -6  10 -10 57371.5 3736.26   2
  10  -6  10 52203.7 3304.46   3
  10   6  10 57537.4 3599.70  10
  10  10   6 52967.7 3569.02   5
  10  10   6 59583.5 3761.78  10
  10   6  10 58961.8 3734.43   5
  10  -6 -10 51017.1 3736.10   9
 -10 -10   6 54850.1 3679.45   4
 -10  10  -6 60639.2 4101.75   8
  10   6 -10 50392.0 3281.30   7
   1   1 -11 17257.6 1714.40   6
   1  -1 -11 19102.9 1841.10   6
  -1   1 -11 17800.4 1716.00   6
  -1  -1 -11 16857.9 1717.86   6
  -1 -11   1 18241.3 1723.21   1
   1  -1  11 17239.6 1419.45   3
  -1  -1  11 20803.8 2087.80  10
   1 -11  -1 21107.8 1742.51   3
   1  -1  11 20208.4 1995.95  10
  11  -1   1 16755.0 1595.39   5
  -1   1  11 18063.5 1913.07  10
  11  -1  -1 17104.5 1509.18   5
   1   1  11 19487.0 1943.55  10
  11   1   1 16945.2 1597.70   5
  11   1  -1 17358.9 1573.47   5
  -1 -11  -1 17509.4 1542.00   3
   1 -11   1 19320.7 1690.28   1
   1 -11   1 18765.7 1749.07   3
  -1 -11   1 19334.9 1748.35   3
  11  -1   1 20202.7 2104.32   9
  11  -1  -1 20626.1 2119.56   9
   1 -11   1 17134.7 1437.09   9
   1 -11  -1 16381.6 1486.80   9
   1   1 -11 19243.2 2013.26   2
   1  11   1 20213.1 1893.88   8
  -1  -1  11 19037.4 1577.39   4
  -1  11   1 19646.3 1890.87   8
   1  11  -1 19915.5 1912.68   8
  -1  11  -1 19930.2 1953.99   8
  -1   1  11 18284.0 1453.65   4
  -1   1 -11 19835.8 2049.35   2
  -1  -1  11 16670.8 1458.21   3
  -1 -11  -1 18514.7 1697.33   1
   1 -11  -1 19108.0 1623.67   1
 -11  -1   1 20232.8 1750.07   4
 -11  -1  -1 20142.7 1635.48   4
 -11   1   1 19657.4 1748.48   4
 -11   1  -1 19706.8 1674.41   4
  -3 -11  -1 12724.2 1298.51   3
 -11   1  -3 11069.7 1197.99   4
   3 -11  -1 9895.76 1085.55   1
 -11   3   1 10662.8 1322.33   4
   1   3 -11 11177.4 1379.96   6
 -11   3  -1 9728.79 1251.96   4
  -1   3 -11 8991.60 1186.17   6
   1  -3 -11 9130.36 1279.57   6
 -11  -3  -1 10998.0 1315.81   1
  -1  -3 -11 9251.79 1302.13   6
  -3   1 -11 8980.59 1229.76   6
  -3  -1 -11 9049.05 1303.52   6
  -1 -11   3 9729.57 1302.89   1
 -11  -1  -3 9245.82 1403.01   6
 -11   1  -3 9864.85 1350.03   6
   1 -11  -3 9864.53 1067.97   3
   3 -11  -1 11010.2 1315.63   3
  -3 -11   1 10029.4 1328.13   1
  11  -3   1 9382.16 1193.82   5
  11  -3  -1 9752.32 1135.32   5
  -1  -3  11 11045.8 1536.64  10
   1  -3  11 11216.9 1471.55  10
  -3  -1  11 12111.2 1688.13  10
  11  -1   3 9482.84 1300.39   5
  11   1   3 10554.9 1315.71   5
  -3   1  11 11008.4 1566.23  10
   3 -11   1 10834.6 1362.10   3
   3  -1  11 8923.16 1299.24  10
   3   1  11 11795.6 1498.27  10
  11  -1  -3 9956.74 1074.82   5
  -1   3  11 10365.5 1440.74  10
   1   3  11 10341.9 1435.63  10
  11   1  -3 9534.29 1112.41   5
  11   3   1 8982.48 1156.25   5
   1 -11   3 11138.6 1323.10   1
  11   3  -1 9226.12 1169.30   5
   1 -11  -3 10493.5 1235.69   1
  -1  11   3 10386.5 1328.09  10
 -11  -3   1 12112.5 1445.73   1
   3  -1  11 9905.45 1054.76   3
  11   1  -3 10757.6 1532.61   9
  -1 -11  -3 11392.1 1368.18   1
  11  -3   1 9529.18 1434.56   9
   1   3 -11 11791.8 1610.63   2
  11  -1  -3 10395.6 1558.54   9
  11  -3  -1 10557.1 1555.83   9
  -1 -11   3 8937.48 1309.98   3
  -3 -11   1 9831.58 1245.95   3
   3   1 -11 12702.5 1640.35   2
  -1   3 -11 11243.9 1567.40   2
   1  11   3 10646.2 1209.14   5
   3 -11   1 10515.8 1200.93   9
   3  11   1 9386.56 1214.05   5
   3 -11  -1 11065.2 1287.01   9
   1  -3  11 9264.44 1116.62   3
   3  -1 -11 10901.6 1226.36   9
  -1  -3  11 8958.76 1178.40   4
   1  11   3 8934.92 1277.97   8
   3  11   1 10044.3 1352.82   8
  -1  11   3 11154.3 1378.96   8
   3  11  -1 10107.9 1310.80   8
   3  -1 -11 11306.9 1497.64   2
  -1  -3  11 8553.85 1125.10   3
  -3  11   1 9650.78 1371.07   8
   1 -11   3 10157.6 1381.26   3
   1  11  -3 10559.0 1440.43   8
  -3  11  -1 10649.0 1525.83   8
  -1  11  -3 12323.5 1631.89   8
  -3  -1  11 10563.9 1287.83   4
   3 -11   1 10187.8 1143.91   1
  -3   1  11 10469.7 1240.75   4
 -11  -3  -1 10378.4 1161.29   4
 -11   3  -1 11935.3 1357.89   8
 -11  -3   1 9149.36 1177.57   4
   1   3 -11 12001.5 1430.46   8
 -11  -1   3 12254.9 1455.32   4
  11   3  -1 11308.2 1259.84   7
   1  11  -3 10448.4 1443.79   2
  11  -1  -3 10737.3 1323.80   7
  -3 -11  -1 10472.1 1331.34   1
  11   1  -3 10555.7 1287.76   7
 -11  -1  -3 11318.9 1128.63   4
  -1  11  -3 11556.5 1514.95   2
 -11   1   3 12234.3 1457.95   4
  11   3  -3 4630.16 834.200   7
 -11   3  -3 6918.04 1026.20   4
  -3 -11  -3 5332.90 993.461   1
  -3  -3  11 5122.97 957.332   4
 -11  -3   3 3939.74 843.680   4
 -11   3   3 5710.59 1017.45   4
   3 -11  -3 5605.08 892.087   3
   3  -3 -11 4403.66 894.665   6
  -3   3 -11 4391.38 839.401   6
  -3  -3 -11 5355.42 1061.02   6
 -11  -3  -3 3725.32 945.360   6
 -11   3  -3 4423.82 873.035   6
  11  -3  -3 4167.05 686.731   5
   3  -3  11 5388.76 1022.51  10
  -3   3  11 6541.96 1171.61  10
   3 -11   3 5622.23 1020.47   3
  11   3   3 5146.91 944.658   5
  11   3  -3 4649.94 805.666   5
  -3  11   3 5446.72 958.727  10
   3   3  11 5449.73 1060.83  10
   3  -3  11 4608.32 794.910   3
   3 -11  -3 4269.18 750.324   1
  11  -3   3 3996.99 865.214   5
   3 -11  -3 4801.99 867.383   9
   3  -3 -11 4764.26 870.417   9
  -3 -11   3 5825.59 1046.83   1
   3  11   3 4527.14 820.944   5
  11  -3   3 5176.46 1075.32   9
  11  -3  -3 4059.76 985.981   9
  -3  11   3 5772.76 1009.32   8
  -3  11  -3 7375.80 1355.85   8
  -3   3  11 5169.09 889.836   4
   3  11   3 4723.12 987.116   8
  -3 -11   3 5688.92 1049.98   3
   3  11  -3 4668.69 923.888   8
   3   3 -11 5814.45 1204.05   2
  -3  11  -3 6191.00 1092.16   2
  -3   3 -11 4267.32 964.096   2
 -11  -3  -3 5411.23 894.662   1
   1  -5 -11 26035.8 1905.63   7
  -1  11  -5 28614.1 2563.11   2
  -1   5 -11 27026.5 2021.20   6
 -11  -5   1 28574.8 2459.20   1
 -11   5   1 26589.8 2235.68   4
   1  -5 -11 22753.1 2066.36   6
  -1 -11  -5 22711.6 1663.43   6
  -1  -5 -11 24504.0 2164.89   6
 -11   5  -1 26339.8 2231.11   4
  -5   1 -11 25578.3 2146.67   6
  -5  -1 -11 23909.5 2177.69   6
 -11  -1  -5 23408.3 2195.22   6
 -11   1  -5 25401.9 2211.15   6
   1 -11  -5 23271.5 1934.83   1
 -11  -5  -1 27341.7 2635.15   6
   5 -11  -1 24984.5 2184.94   3
  -1 -11  -5 25420.8 2104.91   1
   5 -11   1 24867.5 2185.02   3
  -5  -1  11 30382.6 2824.46  10
  11  -1   5 24002.7 2199.57   5
 -11  -5  -1 26988.1 2349.09   1
  -5   1  11 29823.4 2695.67  10
   1   5 -11 28667.2 2630.86   2
  -5 -11   1 24912.3 2282.19   1
  11   1   5 24664.7 2161.54   5
   5  -1  11 28298.8 2293.99  10
   5   1  11 26641.9 2293.00  10
  -1   5  11 26878.5 2374.25  10
  11   1  -5 24371.3 1784.87   5
  11   5   1 21336.6 1890.09   5
  -1   5 -11 27992.1 2533.22   2
  -1  11   5 29714.6 2357.71  10
   5   1 -11 28865.6 2533.51   2
   1  11   5 26362.5 2235.25  10
  11   5  -1 22085.0 1889.09   5
   1 -11   5 26182.4 2324.55   3
  11   1  -5 25217.7 2384.33   9
  11  -5   1 22427.4 2236.13   9
  11  -1  -5 28583.8 2694.38   9
  11  -5  -1 24449.2 2370.72   9
   1  11   5 25024.8 1798.42   5
  -1 -11   5 23477.7 2219.59   3
   5  11   1 21223.3 1948.65   5
   5 -11   1 25561.5 2097.26   9
   5  -1 -11 29575.2 2459.86   2
   5  -1 -11 26727.1 2100.36   9
   5 -11  -1 22733.3 2001.46   9
   5  11  -1 23043.5 2030.23   5
   1  -5  11 23481.3 1944.33   3
   1   5  11 28512.9 2414.91  10
  -5 -11   1 25880.6 2065.80   3
   5  11   1 24774.9 2169.31   8
  -1  11   5 26526.1 2223.04   8
   5  11  -1 25882.4 2126.07   8
  -1  -5  11 25990.5 2106.88   3
  -5  11   1 27592.9 2386.66   8
   1  11  -5 28191.8 2479.12   8
  -5  11  -1 30036.2 2671.50   8
  -1  11  -5 29698.1 2679.17   8
  -5  -1  11 27418.2 2279.68   4
 -11  -5   1 24820.0 2008.30   4
 -11   5  -1 27883.8 2279.07   8
  -5   1  11 27832.7 2314.50   4
   1   5 -11 28751.4 2378.19   8
  -1   5 -11 28095.1 2380.13   8
 -11  -1   5 27693.9 2379.91   4
  11   5  -1 26919.2 1920.94   7
 -11   1   5 26866.0 2360.00   4
  11  -1  -5 18782.1 1801.63   7
  11   1  -5 23312.4 1969.02   7
   1  11  -5 26981.6 2476.22   2
  -5 -11  -1 26936.4 2320.11   1
   5  -3 -11 17060.7 1780.17   7
  -5 -11   3 15713.8 1818.61   1
  -3  11  -5 20093.3 2075.05   2
 -11   5   3 18976.0 1923.54   4
   3  -5 -11 14951.0 1662.98   6
  -3   5  11 16336.0 1856.69  10
 -11   3  -5 17288.0 1618.60   4
  -3  -5 -11 13491.2 1675.51   6
 -11   5  -3 19963.3 1881.86   4
  -5   3 -11 15080.7 1550.46   6
  -3 -11  -5 16089.7 1460.43   6
  -5  -3 -11 15887.3 1848.44   6
  11  -3   5 17404.3 1779.25   3
  11  -5   3 16280.9 1788.61   3
   5 -11  -3 15756.6 1640.94   3
 -11  -3  -5 15871.2 1927.60   6
 -11   3  -5 16005.2 1678.50   6
 -11  -5  -3 16184.6 2041.27   6
   3 -11  -5 16562.7 1537.72   1
 -11   5  -3 17279.2 1706.18   6
   5   3  11 19617.2 1848.07   5
  11  -3   5 17064.5 1887.66   5
   3   5 -11 17683.9 2165.83   2
   5 -11   3 15821.0 1728.54   3
   5   3 -11 17415.7 2060.92   2
   5  -3  11 17817.4 1765.45  10
  -5   3  11 19691.8 2144.59  10
  -3 -11  -5 16460.8 1760.18   1
  11   3   5 18075.7 1790.21   5
   5   3  11 16450.5 1827.64  10
   3   5  11 18485.8 1948.68  10
   5  -3  11 14515.9 1402.13   3
  11   5   3 13823.3 1557.00   5
   3 -11   5 15626.2 1732.15   3
  -3  11   5 18708.2 1849.45  10
  11   3  -5 16077.8 1519.24   5
  11   5   3 15400.6 1467.26  10
   3  11   5 16431.0 1767.67  10
  -3   5 -11 17936.0 1968.25   2
  11   5  -3 16415.0 1581.21   5
  11  -5   3 16846.1 1882.79   9
   3  -5  11 14605.8 1528.67   3
   3  11   5 16848.7 1597.95   5
   5  11   3 16703.4 1712.86   5
  11  -3  -5 16178.3 2013.30   9
  11  -5  -3 16216.4 1964.02   9
 -11  -3  -5 18143.3 1678.19   1
   5 -11  -3 13133.0 1540.64   9
   5  -3 -11 18239.0 1797.53   9
  -3 -11   5 17611.1 1949.50   3
   3 -11  -5 13879.5 1583.92   9
   3  -5 -11 17063.5 1727.35   9
  -5   3 -11 18510.0 1983.38   2
  -5 -11   3 17538.7 1817.64   3
  -3  11   5 15332.5 1611.09   8
  -3  -5  11 17643.1 1828.95   4
  -5 -11  -3 15267.3 1740.13   1
   5  11  -3 16899.5 1663.74   8
  -5  11   3 15843.3 1675.00   8
   5  -3 -11 18303.1 1857.72   2
   3  11  -5 17479.8 1835.76   8
  -5  -3  11 17031.6 1816.43   4
  -3  -5  11 17213.0 1752.05   3
  -5  11  -3 19478.6 2281.45   8
  -3  11  -5 18099.4 2183.39   8
 -11  -5   3 16061.1 1692.59   4
 -11  -3   5 17375.9 1918.35   4
 -11   5  -3 21129.1 2058.87   8
  -3   5 -11 16865.1 1867.49   8
  -5   3  11 16645.3 1737.60   4
  11  -3  -5 13943.5 1545.29   7
  -5  11  -3 16957.7 1746.35   2
  11   5  -3 16063.3 1548.82   7
 -11  -5  -3 16342.9 1767.22   1
  11   3  -5 15892.5 1591.15   7
   3  11  -5 17029.1 1933.60   2
 -11   3   5 17698.9 1890.59   4
   3  -5 -11 17699.1 1672.07   7
  -5  11  -5 36072.5 2728.01   2
  -5  -5 -11 28191.6 2517.74   6
  -5 -11  -5 27861.5 2105.71   6
  11  -5   5 30477.0 2516.43   3
 -11  -5  -5 34753.7 2927.71   6
 -11   5  -5 33986.6 2394.30   6
   5   5 -11 36098.1 3044.66   2
   5 -11   5 31613.6 2510.96   3
  -5   5  11 34530.0 2787.36  10
   5  -5  11 27697.9 2102.60   3
  -5 -11  -5 34392.0 2658.04   1
  11   5   5 31909.5 2244.66  10
   5  11   5 30704.8 2522.36  10
  11   5  -5 28807.0 2151.41   5
   5  11   5 33747.9 2477.37   5
  -5   5 -11 32402.0 2664.84   2
  11  -5  -5 28135.1 2710.03   9
   5 -11  -5 28541.5 2345.48   9
   5  -5 -11 28459.0 2368.57   9
 -11  -5  -5 36784.4 2664.84   1
  -5  11   5 30607.5 2262.21   8
  -5 -11   5 34517.6 2759.82   3
  -5  -5  11 33925.9 2692.36   4
   5  11  -5 32158.5 2369.63   8
 -11  -5   5 34192.6 2679.20   4
  -5  11  -5 35441.3 3102.47   8
 -11   5  -5 34692.7 2743.41   8
  11   5   5 30026.5 2410.68   5
  -5   5 -11 33613.5 2725.11   8
  -5   5  11 34180.7 2494.20   4
  11  -5  -5 29641.5 2359.79   7
   5  11  -5 32343.0 2661.02   2
  11   5  -5 30039.6 2234.01   7
   5  -5 -11 28375.7 2292.97   7
   5   5  11 33766.6 2720.47  10
 -11   5   5 35175.0 2764.37   4
   1   7  11 4439.43 984.893  10
  11  -1  -7 4145.02 865.100   7
  11   1  -7 4557.42 917.904   7
   7   1 -11 5644.06 1033.27   7
   1 -11  -7 4386.75 877.458   1
   1  11  -7 7315.14 1357.36   2
   1  -7 -11 6226.43 1128.11   6
  -7   1  11 6921.94 1330.03  10
  -1 -11  -7 4785.12 879.314   6
  -7 -11  -1 5141.57 1080.56   1
  -7  -1  11 5031.03 1116.02   4
  -7   1  11 5328.98 1095.87   4
 -11  -1   7 5141.09 1140.50   4
 -11   1   7 5216.88 1110.74   4
  -1 -11  -7 5217.18 993.673   1
 -11   7   1 5263.93 1083.73   4
 -11   7  -1 4475.54 1004.25   4
   1 -11  -7 4270.23 793.625   6
  -1  -7 -11 4584.65 942.556   6
  -7   1 -11 4179.00 882.914   6
  -7  -1 -11 4874.82 1021.34   6
 -11  -1  -7 3954.12 908.508   6
 -11   1  -7 4300.80 915.769   6
 -11  -7  -1 5444.78 1275.09   6
 -11  -7   1 5990.92 1187.05   1
 -11  -7   1 5425.18 1251.16   6
   7   1  11 6399.73 1128.21  10
 -11  -7  -1 6870.07 1273.93   1
   7  -1  11 5314.39 967.329  10
  -1   7  11 5067.16 1064.96  10
  -1  11   7 6053.42 1136.87  10
   7   1  11 5628.57 1126.68   5
  11  -1   7 4266.62 1034.63   5
  11   1   7 5749.90 1138.00   5
  11   7   1 4024.17 864.334   5
   1  11   7 5285.00 1079.09  10
  11   7  -1 4504.89 867.776   5
   7  11   1 4655.41 957.656   5
   7  11  -1 4254.73 906.711   5
  11   1  -7 5425.93 1103.29   9
  11  -7   1 4748.55 1039.81   9
  11  -1  -7 6175.01 1294.82   9
  11  -7  -1 3881.60 946.027   9
   7 -11   1 5314.86 1058.59   9
   7 -11  -1 4006.72 907.022   9
 -11  -7   1 6485.63 1054.16   4
  -7 -11   1 5500.72 1186.25   1
  11  -7   1 4083.48 950.530   3
   7 -11  -1 4247.76 978.152   3
   7 -11   1 5306.44 1083.00   3
  -1  11  -7 5207.95 1111.29   2
   1 -11   7 4839.63 1050.22   3
   1  -7  11 5172.26 1004.26   3
  -1 -11   7 6236.81 1193.65   3
   7  11  -1 4308.94 863.224   8
   1   7 -11 6158.86 1311.15   2
  -1  -7  11 5283.69 1015.24   3
  -7  11   1 5951.59 1135.86   8
   1  11  -7 6818.70 1306.27   8
  -7  11  -1 5226.58 1187.69   8
  -1  11  -7 4462.52 1120.37   8
  -1   7 -11 5968.05 1235.03   2
 -11   7  -1 6175.10 1114.53   8
   1   7 -11 5065.91 1020.14   8
  -1   7 -11 5605.94 1128.49   8
   7  -1 -11 8920.78 1316.41   7
  11  -3  -7 2203.90 699.155   7
  11   3  -7 2519.26 658.350   7
   7  -3 -11 2679.14 767.476   7
 -11  -7   3 2435.36 722.021   4
  -7  -3  11 3262.20 941.091   4
 -11  -3   7 2425.80 793.475   4
  -7   3  11 2970.83 886.014   4
 -11   3   7 4469.45 1043.56   4
 -11   7   3 2600.23 754.353   4
  -3  11   7 2920.03 676.911   4
  -3 -11  -7 2321.80 693.230   1
   3  -7 -11 2492.86 717.642   6
  -3  -7 -11 2248.11 759.886   6
  -3 -11  -7 3096.35 730.461   6
  -7   3 -11 2762.70 726.299   6
  -7  -3 -11 2672.91 779.203   6
  -7 -11  -3 2478.75 630.475   6
 -11  -3  -7 2738.11 743.139   6
 -11   3  -7 1678.65 582.815   6
 -11  -7  -3 2328.38 852.802   6
   7  -3  11 2325.15 664.087  10
  -7   3  11 1892.55 711.904  10
  -3   7  11 3306.12 898.522  10
   7   3  11 2970.99 796.437  10
   3   7  11 2387.24 755.878  10
  -3  11   7 2997.19 818.288  10
   3  11   7 3100.67 811.893  10
  11   7   3 2546.39 705.317  10
 -11  -7   3 2362.17 816.334   1
  11  -3   7 2355.34 826.703   5
   7   3  11 2758.14 809.269   5
  11   3   7 2142.51 727.115   5
  11   7   3 2085.34 595.602   5
  11   7  -3 2567.31 647.917   5
   7  11   3 2202.43 678.163   5
  11  -7   3 2630.90 771.139   9
   7  11  -3 2086.80 671.863   5
  11  -3  -7 3050.52 956.399   9
  11  -7  -3 1825.09 661.681   9
   7  -3 -11 3641.44 878.471   9
   7 -11  -3 2491.27 773.208   9
   3 -11  -7 3364.48 831.930   9
   3  -7 -11 2794.46 772.942   9
  -7 -11   3 3423.63 906.745   1
  -7 -11  -3 2401.38 760.151   1
   7 -11  -3 3390.71 831.518   3
  11  -3   7 2135.81 655.483   3
  11  -7   3 3940.20 932.584   3
   3  11  -7 2887.03 868.610   2
   7 -11   3 2626.88 813.314   3
  -3  11  -7 2974.58 865.220   2
   3 -11   7 2436.40 754.696   3
   3  -7  11 3283.40 803.298   3
   3   7 -11 2294.61 845.537   2
   7   3 -11 3323.36 864.783   2
   7  11  -3 2222.46 604.057   8
  -7  11   3 3210.30 748.117   8
  -3 -11   7 2769.98 870.988   3
   3  11  -7 3101.91 819.809   8
  -3  -7  11 2779.61 830.186   3
  -7  11  -3 2689.67 914.475   8
  -3  11  -7 3108.18 998.806   8
  -7 -11   3 3425.20 861.880   3
 -11   7  -3 3226.17 873.879   8
  -3   7 -11 4331.82 1044.47   2
  -3   7 -11 3273.26 919.805   8
 -11  -7  -3 3295.75 891.208   1
  -7   3 -11 2777.83 851.112   2
   3 -11  -7 2131.99 576.421   1
 -11   7   5 8238.81 1416.25   4
  -5  11   7 8783.65 1252.85   4
  -5  11  -7 10234.2 1508.72   2
  -7  11   5 10161.8 1526.99   4
  -5  -7 -11 8877.23 1421.20   6
  -5 -11  -7 7689.73 1172.08   6
  -7  -5 -11 8337.34 1409.19   6
  -7 -11  -5 7640.74 1182.23   6
   7   5 -11 9048.26 1436.78   2
   5   7 -11 10138.6 1647.80   2
 -11  -7  -5 9839.76 1581.26   6
  11  -5   7 9318.95 1359.73   3
  11  -7   5 8577.13 1376.33   3
 -11  -5  -7 7987.32 1384.88   6
  -5 -11  -7 9797.80 1434.62   1
   7 -11   5 7325.86 1221.13   3
   7   5  11 8650.96 1301.31   5
   7  -5  11 8195.39 1152.76   3
  -5   7 -11 9854.81 1484.28   2
  -5   7  11 9981.96 1486.28  10
  11   5   7 7811.64 1262.10   5
   5 -11   7 8809.96 1349.70   3
 -11  -5  -7 10846.3 1443.68   1
   7   5  11 9583.86 1412.20  10
   5   7  11 8513.48 1395.40  10
  11   7   5 8630.83 1315.96   5
   5  -7  11 8285.57 1191.29   3
  11   5   7 8688.14 1212.62  10
   5  11   7 10571.0 1498.22  10
  11   7   5 8859.15 1259.85  10
   7  11   5 7506.52 1254.13  10
   7  11   5 8651.56 1290.97   5
  -7   5 -11 8925.55 1391.74   2
  11   5  -7 7858.09 1106.97   5
  11   7  -5 7793.91 1146.97   5
  11  -5  -7 8422.62 1507.59   9
  11  -7  -5 7894.71 1421.32   9
  -7 -11  -5 9519.13 1463.20   1
   7  11  -5 7335.03 1198.19   5
   7  -5 -11 7534.06 1262.33   9
   7 -11  -5 8576.60 1312.91   9
   5 -11  -7 8106.84 1268.39   9
   5  -7 -11 10656.8 1467.81   9
  -5  -7  11 10149.6 1546.12   4
  -5 -11   7 9792.57 1540.50   3
 -11  -7  -5 10667.1 1522.59   1
   5  11  -7 9880.44 1321.97   8
  -7  -5  11 10318.0 1601.79   4
  -7 -11   5 9742.64 1459.52   3
 -11  -7   5 7896.47 1264.77   4
  -5  -7  11 9940.52 1468.13   3
 -11  -5   7 10382.4 1569.91   4
  -7  11  -5 10615.4 1734.95   8
  -5  11  -7 10357.6 1655.04   8
 -11   7  -5 9710.29 1516.75   8
  -5   7 -11 9414.74 1473.17   8
 -11   5  -7 9902.65 1538.11   8
  -7   5 -11 9011.68 1442.67   8
  -7   5  11 9641.21 1418.16   4
  11  -5  -7 8143.59 1245.27   7
  -7   5  11 9469.34 1498.69  10
   5  -7 -11 7770.34 1109.07   7
   5  11  -7 10741.0 1603.18   2
   7  -5 -11 8668.57 1296.04   7
 -11   5   7 9884.03 1521.31   4
  11   5  -7 8121.45 1194.61   7
   7  -7 -11 1345.35 549.138   7
  11   7  -7 1175.22 429.145   7
  -7  -7  11 1804.90 700.752   4
 -11  -7   7 2018.56 769.019   4
  -7   7  11 2027.13 703.869   4
 -11   7   7 1609.22 689.072   4
  -7  11   7 1048.35 492.733   4
  -7  -7 -11 1905.39 758.168   6
  -7 -11  -7 1681.70 602.904   6
 -11  -7  -7 1030.84 526.326   6
  -7 -11  -7 1222.29 497.750   1
 -11  -7  -7 1064.89 475.993   1
   7   7  11 1754.28 668.438  10
  11   7   7 1247.45 521.902  10
   7  11   7 1733.20 659.418  10
  11   7   7 3069.69 815.223   5
   7  11   7 1008.53 465.377   5
  11   7  -7 1476.03 511.617   5
   7  11  -7 1358.66 510.324   5
  11  -7  -7 1562.80 679.070   9
   7 -11  -7 1512.29 541.743   9
   7  -7 -11 1539.63 538.264   9
   7  11  -7 1310.66 548.821   2
  11  -7   7 1951.49 644.110   3
   7 -11   7 1433.13 568.072   3
   7  -7  11 1344.57 520.706   3
   7   7 -11 1995.11 729.588   2
  -7  11  -7 2274.95 823.005   8
  -7 -11   7 1880.00 728.200   3
 -11   7  -7 2039.69 760.523   8
  -7   7 -11 2607.25 810.794   8
  -7   7 -11 1426.54 532.447   2
  -7  -7 -11 1111.47 566.977   1
   1 -11  -9 25805.8 2235.72   1
   1 -11  -9 23959.0 2122.73   6
   1  -9 -11 24162.7 2254.54   6
  -1 -11  -9 25770.4 2216.99   6
  -1  -9 -11 26288.3 2377.54   6
  -1 -11  -9 24628.6 2271.52   1
   1  11  -9 32669.2 2989.25   2
 -11   9   1 33431.3 2900.37   4
  -1  11  -9 28344.7 2703.80   2
  -9   1 -11 25932.4 2276.50   6
  -9  -1 -11 26808.8 2393.99   6
 -11   1  -9 25305.0 2252.89   6
 -11  -1  -9 25117.2 2302.46   6
  11  -9   1 26857.8 2620.53   3
   9 -11  -1 26944.2 2599.64   3
   1   9 -11 29010.9 2787.71   2
  -1   9 -11 31046.9 2827.70   2
 -11  -9  -1 28718.2 2866.21   6
   9 -11   1 29580.2 2692.43   3
 -11  -9   1 28273.8 2846.28   6
  -9 -11  -1 28108.6 2718.97   1
   9   1  11 28180.0 2706.00   5
  11  -1   9 29299.8 2820.21   5
  11   1   9 29567.0 2744.17   5
 -11  -9  -1 30081.4 2875.30   1
  -1   9  11 28331.7 2636.98  10
   1   9  11 27675.1 2549.60  10
  -1  11   9 29771.6 2660.99  10
   1  11   9 30715.7 2692.65  10
  11   9   1 25352.1 2297.70   5
  11   9  -1 23138.3 2190.27   5
   9  11   1 24912.5 2346.03   5
   1 -11   9 24934.0 2493.66   3
   9  11  -1 26534.5 2376.43   5
  11  -9   1 25378.4 2524.76   9
  11  -1  -9 27347.6 2770.26   9
   1  -9  11 23962.2 2307.23   3
  11  -9  -1 23747.0 2469.57   9
   9 -11   1 24941.9 2474.56   9
   9 -11  -1 25158.5 2459.72   9
  -1 -11   9 28949.9 2686.84   3
  -1  -9  11 26688.0 2449.24   3
  -9 -11   1 31530.4 2930.64   1
  -9  11   1 30516.1 2637.52   8
  -9  11  -1 28349.7 2768.22   8
   1  11  -9 31497.5 2910.72   8
  -9   1 -11 32071.0 2769.13   2
  -1  11  -9 30039.8 2936.07   8
   1   9 -11 30692.2 2794.72   8
  -1   9 -11 30863.2 2809.27   8
  -9  -1  11 31919.7 3007.30   4
 -11  -1   9 31371.7 2960.26   4
  -9   1  11 31727.6 2905.97   4
 -11   1   9 30558.9 2889.02   4
 -11  -9   1 29401.6 2895.21   1
  11  -1  -9 23104.8 2176.77   7
  11   1  -9 21854.8 2069.27   7
   9  -1 -11 26017.4 2363.87   7
   9   1 -11 26939.3 2399.91   7
   3  11  -9 21612.7 2430.47   2
 -11   9   3 23588.9 2440.33   4
 -11  -9  -3 23871.9 2456.28   1
  -3  -9 -11 18245.4 2005.06   6
  -3 -11  -9 18445.2 1904.48   6
  -9  11   3 21621.3 2405.03   4
  -3  11  -9 22896.5 2359.84   2
  -3 -11  -9 21201.1 2148.22   1
  -9   3 -11 20195.8 1901.78   6
  -9  -3 -11 19365.3 2119.40   6
   3   9 -11 20600.7 2425.87   2
 -11   3  -9 17262.1 1773.01   6
 -11  -3  -9 19385.0 2095.52   6
  -9 -11  -3 18111.3 1882.57   6
 -11  -9  -3 20267.2 2349.81   6
  11  -9   3 18675.0 2104.78   3
  -3   9 -11 20817.3 2236.77   2
   9 -11   3 20003.2 2165.54   3
 -11  -9   3 20739.8 2365.15   6
   9   3  11 21695.8 2276.23   5
  11   3   9 21652.2 2266.81   5
  -9 -11   3 21867.7 2469.20   1
   9   3  11 19404.2 1991.77  10
  -3   9  11 20539.8 2243.20  10
  -3  11   9 21339.9 2233.08  10
   3   9  11 19377.8 2118.44  10
   3  11   9 20185.5 2168.70  10
   3 -11   9 18174.7 2055.06   3
  11   9   3 17405.2 1929.72   5
   3  -9  11 17768.8 1943.23   3
  11   9   3 20364.4 2068.97  10
   9  11   3 18672.4 2037.69   5
  11   9  -3 19209.7 1931.55   5
  11  -9   3 18719.2 2072.61   9
   9  11  -3 16011.7 1818.05   5
  11  -3  -9 22343.1 2554.47   9
  11  -9  -3 17421.9 2115.58   9
   9  -3 -11 20238.8 2254.37   9
   9 -11  -3 17329.7 2017.56   9
  -3 -11   9 19598.6 2268.16   3
  -9   3 -11 21390.6 2213.47   2
   3 -11  -9 19207.0 2093.32   9
   3  -9 -11 18833.0 2052.16   9
  -3  -9  11 21148.3 2193.06   3
 -11  -9   3 19035.1 1972.19   4
 -11  -9   3 21705.5 2503.05   1
   3  11  -9 21987.6 2252.81   8
  -9 -11   3 19799.0 1955.02   3
  -9  -3  11 23320.3 2502.34   4
  -9  11  -3 23511.2 2593.91   8
  -3  11  -9 22689.0 2526.64   8
 -11   9  -3 19738.5 2262.47   8
 -11  -3   9 22438.7 2484.12   4
  -3   9 -11 19701.5 2259.02   8
  -9   3  11 23967.4 2494.32   4
 -11   3   9 23193.6 2450.08   4
  11  -3  -9 17700.9 1926.11   7
   9  -3 -11 17346.2 1945.05   7
  11   3  -9 18238.7 1876.19   7
  -9 -11  -3 22302.6 2358.86   1
   3 -11  -9 19067.3 1844.41   1
   9   3 -11 17182.0 1868.54   7
   5  11  -9 33658.5 3019.37   2
   9   5 -11 27853.4 2375.16   7
  -9  -5 -11 32577.3 2787.55   1
  -9  11   5 32051.7 2901.75   4
   5   9 -11 35089.6 3166.86   2
  -5  -9 -11 26869.7 2499.02   6
  -5 -11  -9 24787.0 2285.37   6
  -5  11  -9 30627.2 2692.17   2
  -9 -11  -5 23945.2 2296.48   6
 -11  -9  -5 25919.7 2640.65   6
  11  -5   9 32036.4 2550.26   3
  11  -9   5 28252.3 2540.00   3
  -5   9 -11 29293.4 2656.96   2
 -11  -5  -9 29294.9 2456.83   1
   9   5  11 30425.2 2634.08   5
  11   5   9 30329.4 2648.12   5
   9   5  11 28436.7 2502.16  10
   5  -9  11 27040.0 2346.83   3
  11   9   5 28698.4 2550.71   5
   9  11   5 28507.8 2523.84   5
  11   9   5 29539.8 2539.22  10
  -9   5 -11 31239.0 2708.22   2
   9  11   5 32070.4 2711.70  10
  11   9  -5 27137.5 2291.87   5
  11  -5  -9 29019.7 2877.76   9
   9  11  -5 26876.5 2347.20   5
   9  -5 -11 29270.7 2701.95   9
   9 -11  -5 25898.2 2464.55   9
   5  -9 -11 30659.4 2653.57   9
  -5   9  11 31620.4 2797.01  10
  -5 -11   9 30920.0 2820.17   3
 -11  -9   5 28591.4 2532.27   4
  -9 -11  -5 29543.8 2752.86   1
  -9 -11   5 30352.8 2569.18   3
  -9  11  -5 32897.1 3061.80   8
 -11   9  -5 31960.1 2899.81   8
  -5   9 -11 34101.2 2946.73   8
 -11  -9  -5 31307.7 2827.83   1
 -11   5  -9 30793.1 2847.48   8
  -9   5  11 35216.9 2939.79   4
  11  -5  -9 27234.9 2423.43   7
 -11   5   9 33219.2 2942.30   4
   9  -5 -11 28261.6 2492.85   7
  11   5  -9 25348.1 2223.91   7
  -7  11   9 12524.5 1617.85   4
  -7   9 -11 12763.2 1711.15   2
  11   7   9 13743.1 1710.76  10
  11   7  -9 10791.0 1436.51   7
   1 -11 -11 2515.52 801.610   6
  -1 -11 -11 3506.20 939.626   6
 -11   1 -11 2881.39 819.131   6
  11 -11   1 2395.09 801.426   9
   1  11 -11 3046.98 899.679   8
 -11 -11  -3 1238.35 581.155   6
  -3  11  11 1093.85 583.306  10
   0   0 -12 529821. 15075.7   6
   0 -12   0 516578. 14688.7   1
   0   0  12 488585. 15418.1  10
  12   0   0 552409. 14709.2   5
   0 -12   0 553449. 14823.9   3
   0 -12   0 591029. 14426.5   9
   0   0  12 561144. 14071.5   3
   0  12   0 561839. 15574.2   8
   0   0 -12 482082. 15499.1   2
 -12   0   0 569867. 14961.7   4
  -2 -12   0 5937.18 1042.57   1
 -12   0   2 4910.03 969.173   4
   2   0 -12 4128.39 861.108   6
   0   2 -12 4196.54 896.256   6
   0  -2 -12 5040.06 1035.76   6
   0 -12   2 5666.82 977.797   1
  -2   0 -12 5846.25 1045.75   6
   2 -12   0 6244.90 961.085   1
   0  -2  12 7291.68 1297.59  10
   2 -12   0 6252.32 1035.27   3
  12   0   2 5777.94 1004.67   5
   0   2  12 6976.83 1235.25  10
  12   0  -2 6257.94 956.692   5
  12   2   0 6273.58 992.247   5
   0 -12   2 6641.19 1099.23   3
  -2 -12   0 5980.18 989.694   3
  -2   0  12 6684.28 1278.91  10
   2   0  12 5384.78 1099.46  10
  12   0  -2 9006.21 1447.24   9
  12  -2   0 6195.46 1215.68   9
  12  -2   0 4597.22 839.751   5
   2 -12   0 6126.94 930.946   9
   0  -2  12 5183.33 843.502   4
   0  -2  12 6202.22 943.684   3
   0  12   2 5859.24 1085.38   8
   0 -12  -2 5525.74 952.553   1
  -2   0  12 6197.10 936.834   4
   2  12   0 5926.69 1070.48   8
 -12  -2   0 6474.17 1002.86   4
  -2  12   0 4972.72 1024.38   8
   0  12  -2 5981.48 1125.92   8
 -12   0  -2 6703.41 981.842   4
   0   2 -12 5261.91 1177.04   2
   2   0 -12 5342.22 1115.96   2
 -12   2   0 5469.58 994.188   4
 -12   2  -2 293741. 8853.99   4
   2  -2 -12 263141. 9012.62   6
  -2   2 -12 261947. 8705.15   6
  -2  -2 -12 265464. 9085.95   6
   2 -12   2 278604. 8646.44   1
 -12  -2  -2 273487. 9663.81   6
   2 -12  -2 254122. 8304.45   3
  12  -2   2 275706. 8875.51   5
  -2  -2  12 270443. 9783.23  10
  12  -2  -2 244950. 8039.76   5
   2  -2  12 271946. 9380.58  10
  -2   2  12 273299. 9561.69  10
   2   2  12 260752. 9286.41  10
  12   2   2 259088. 8589.60   5
   2 -12   2 261715. 8866.40   3
  12   2  -2 272668. 8448.80   5
  12  -2  -2 288801. 9983.89   9
  -2 -12   2 260414. 8866.27   3
   2   2 -12 283327. 9851.87   2
   2  -2  12 266523. 8117.12   3
   2  12   2 252501. 8424.91   5
   2 -12  -2 269216. 8551.56   9
   2  -2 -12 266336. 8429.41   9
  -2   2 -12 272406. 9595.70   2
   2  12   2 258914. 9006.36   8
  -2  -2  12 254076. 8383.06   4
  -2  12   2 252494. 8939.74   8
   2  12  -2 285745. 9278.79   8
  -2 -12   2 257500. 8926.24   1
  -2  12  -2 281543. 9803.30   8
  -2  -2  12 254533. 8299.90   3
  -2 -12  -2 261445. 8818.48   1
   2 -12  -2 257686. 8199.40   1
 -12  -2   2 281633. 8960.44   4
  12   2  -2 270550. 8695.99   7
 -12   2   2 281224. 9065.49   4
 -12  -4   0 511274. 14324.1   1
   0   4 -12 447913. 13575.1   6
 -12   4   0 501508. 14124.2   4
   0  -4 -12 533202. 14517.3   6
  -4   0 -12 475095. 14003.4   6
   0   4 -12 491189. 14885.2   2
 -12   0  -4 497775. 14572.3   6
  -4 -12   0 473860. 14226.7   1
   4 -12   0 484713. 13997.4   3
  12  -4   0 462115. 13436.4   5
  -4   0  12 494584. 15245.7  10
  12   0   4 479824. 14031.8   5
   4   0  12 494203. 14492.0  10
   0   4  12 497427. 14666.0  10
  12   0  -4 518802. 13229.7   5
  12   4   0 477865. 13599.1   5
   0 -12  -4 430265. 13454.4   1
   0  12   4 487817. 14178.9  10
   0 -12   4 467214. 14288.7   3
  12   0  -4 530804. 15321.8   9
  12  -4   0 514258. 14962.2   9
   4   0 -12 503216. 14822.7   2
   4 -12   0 525052. 13826.3   9
   4  12   0 473494. 13785.6   5
   0  -4  12 484868. 13582.9   3
   0  12   4 477503. 14110.1   8
   4  12   0 495678. 14162.4   8
  -4  12   0 471284. 14595.0   8
   0  12  -4 551438. 15217.0   8
  -4   0  12 466038. 13696.1   4
 -12  -4   0 499520. 13693.8   4
   0   4 -12 472375. 14081.3   8
 -12   0   4 480453. 14284.5   4
  12   0  -4 477074. 13728.3   7
   0  12  -4 521440. 15013.3   2
  12   4  -2 4047.09 804.429   7
  12  -2  -4 4334.26 890.406   7
  12   2  -4 4284.42 873.057   7
 -12   4  -2 6306.64 1047.29   4
  -2  -4  12 3674.17 846.150   4
  -4  -2  12 4441.58 958.689   4
  -4   2  12 4404.87 898.845   4
 -12  -4   2 5442.30 1016.98   4
 -12  -2   4 4822.59 1005.10   4
 -12   2   4 3912.32 927.349   4
 -12   4   2 5148.85 1047.61   4
   2  -4 -12 4206.25 929.305   6
  -2   4 -12 3806.46 771.656   6
  -2  -4 -12 3760.53 947.314   6
  -4   2 -12 4860.32 955.852   6
  -4  -2 -12 4039.52 990.883   6
 -12  -2  -4 3497.47 969.737   6
 -12   2  -4 3903.03 899.232   6
 -12  -4  -2 4451.36 1103.38   6
   2 -12  -4 3936.62 787.734   1
  -2 -12  -4 4434.86 924.805   1
 -12  -4  -2 4017.05 865.758   1
  -4  -2  12 5679.80 1253.64  10
   2  -4  12 4846.81 1005.32  10
   4  -2  12 4841.82 1011.96  10
  -4   2  12 4737.33 1137.45  10
  -2   4  12 4255.58 1004.65  10
   4   2  12 4242.40 1015.69  10
   2   4  12 3210.11 863.359  10
  -2  12   4 4342.15 950.957  10
   2  12   4 4619.48 984.069  10
  12  -4   2 4297.81 913.375   5
  12  -2   4 3295.21 849.261   5
  12   2   4 3448.67 833.606   5
  -2 -12   4 4553.38 941.053   1
  12   4   2 3524.12 799.725   5
  12   2  -4 3542.49 745.169   5
  12   4  -2 3099.87 719.783   5
   2  12   4 3831.07 778.198   5
   4  12   2 3720.73 811.191   5
  12  -4   2 4705.20 1043.04   9
  12  -2  -4 4290.87 1070.44   9
  12  -4  -2 4011.96 1032.62   9
   4 -12  -2 3746.60 821.068   9
   4  -2 -12 3645.74 778.167   9
   2 -12  -4 4044.55 866.324   9
   2  12  -4 5437.36 1136.81   2
  -2  12  -4 4912.39 1096.29   2
   4 -12  -2 4667.28 908.232   3
  -4 -12  -2 4411.64 924.832   1
   4 -12   2 4438.33 935.001   3
   2 -12   4 4860.90 984.888   3
   2  -4  12 3830.28 787.282   3
  -2 -12   4 3444.80 889.489   3
  -4 -12   2 5929.96 1042.16   3
   2  12   4 5646.46 1082.07   8
   4  12   2 4048.03 921.476   8
  -4 -12   2 4487.07 1014.77   1
  -2  12   4 4145.44 893.772   8
   4  12  -2 3875.21 867.949   8
  -4  12   2 5245.81 1035.67   8
   2  12  -4 4426.61 979.803   8
  -4  12  -2 5278.73 1175.17   8
  -2  12  -4 4424.90 1157.40   8
  -2  -4  12 4078.72 852.642   3
 -12   4  -2 5024.46 964.144   8
  -2   4 -12 3763.96 915.629   8
   2   4 -12 4383.75 1047.69   2
   4   2 -12 5290.89 1152.20   2
  -2   4 -12 5722.32 1166.33   2
  -4   2 -12 3704.73 962.253   2
   4  -2 -12 5216.94 1067.52   2
   4  -4 -12 489486. 13397.9   7
 -12   4  -4 468024. 13034.0   4
  -4   4 -12 439721. 12419.5   6
  -4  -4 -12 443231. 13524.5   6
 -12  -4  -4 449789. 14165.0   6
 -12   4  -4 478990. 13305.1   6
  12  -4   4 432959. 13302.3   5
   4  -4  12 432670. 13115.1  10
   4   4 -12 449931. 14418.7   2
  -4   4  12 444493. 13863.6  10
   4 -12   4 421590. 13079.7   3
   4   4  12 439837. 13589.0  10
  12   4   4 440390. 12970.7   5
   4  -4  12 451130. 12489.9   3
  12   4  -4 444357. 12541.1   5
   4  12   4 437115. 12845.2   5
  12  -4  -4 436771. 14135.2   9
  -4   4 -12 450077. 13806.9   2
  -4 -12   4 460095. 13659.5   1
  -4 -12  -4 440946. 13301.1   1
  -4 -12   4 441428. 13503.6   3
   4 -12  -4 449522. 13055.1   9
   4  -4 -12 427278. 12919.9   9
  -4  12   4 426668. 12862.0   8
  -4  -4  12 426087. 13075.5   4
   4  12  -4 465703. 13259.7   8
  -4  12  -4 470183. 14716.5   8
 -12  -4   4 438775. 13287.4   4
 -12   4  -4 468948. 13547.1   8
  12   4  -4 401030. 12437.8   7
  -4  12  -4 423549. 13307.4   2
 -12   4   4 446074. 13457.7   4
  12   0  -6 2529.64 711.409   7
 -12  -6   0 3635.44 943.053   1
   6   0 -12 2984.14 803.493   7
  -6   0  12 3453.75 897.725   4
 -12   0   6 3654.52 948.251   4
  -6 -12   0 3286.76 884.330   1
 -12   6   0 3641.22 888.968   4
   0 -12  -6 2612.31 712.036   1
   0  -6 -12 2738.10 804.759   6
  -6   0 -12 2781.16 822.743   6
 -12   0  -6 2872.52 810.184   6
 -12  -6   0 3936.61 1141.39   6
  12   6   0 5978.38 1008.62   5
  -6   0  12 3841.33 1043.06  10
   6   0  12 3285.97 857.114  10
   0   6  12 2969.12 886.656  10
   0  12   6 3328.35 862.542  10
  12   0   6 2474.59 751.322   5
   6  12   0 2559.56 730.288   5
  12   0  -6 3307.17 953.998   9
  12  -6   0 2054.16 691.893   9
   6 -12   0 2991.81 764.240   9
   0  12  -6 2784.14 840.647   2
   6 -12   0 2763.74 824.339   3
   0 -12   6 2879.69 843.252   3
   6  12   0 1717.63 619.283   8
   0  -6  12 2819.85 728.613   3
  -6  12   0 2907.90 893.975   8
   0  12  -6 3267.94 972.103   8
   0   6 -12 3197.83 829.445   8
   0   6 -12 4863.80 1162.86   2
   6   0 -12 3454.11 892.559   2
   6  -2 -12 225656. 8176.60   7
  -2  12  -6 235640. 8669.35   2
 -12   6   2 224398. 8270.33   4
   2  -6 -12 206254. 7863.41   6
  -2  -6 -12 216729. 8096.95   6
 -12   6  -2 213770. 7930.86   4
  -6   2 -12 217621. 7669.27   6
  -6  -2 -12 215258. 8107.35   6
 -12  -2  -6 217860. 8278.03   6
 -12   2  -6 217504. 7885.89   6
   6 -12  -2 214636. 7976.31   3
 -12  -6  -2 233732. 9304.57   6
   2 -12  -6 201972. 7290.92   1
 -12  -6  -2 240118. 8605.61   1
   6 -12   2 207750. 7917.79   3
   2   6 -12 231157. 9082.16   2
  12  -2   6 220265. 8392.52   5
  -2 -12  -6 206072. 7737.30   1
   6   2 -12 226307. 8593.13   2
  -6   2  12 231258. 8957.87  10
   6  -2  12 215983. 7945.85  10
  12   2   6 208596. 7905.04   5
   6   2  12 219438. 8183.02  10
  -2   6  12 227765. 8484.29  10
  -2   6 -12 218455. 8472.37   2
   2   6  12 213225. 8215.33  10
  12   6   2 200859. 7513.73   5
  -2  12   6 223013. 8193.43  10
   2 -12   6 212121. 8147.12   3
   2  12   6 211612. 8018.80  10
  12   6  -2 197909. 7307.52   5
  12   2  -6 218148. 8101.28   9
  12  -6   2 204205. 8168.42   9
  12  -2  -6 227963. 9077.24   9
  12  -6  -2 201678. 8324.22   9
   2  -6  12 201649. 7463.58   3
   6  12   2 193834. 7647.43   5
  -2 -12   6 212081. 8341.59   3
   6  12  -2 205717. 7715.28   5
   6 -12  -2 202496. 7681.29   9
  -6 -12   2 215636. 7722.21   3
   2 -12  -6 209261. 7826.15   9
  -2  12   6 206409. 7681.58   8
   6  12  -2 213271. 7627.75   8
  -2  -6  12 201887. 7675.16   3
  -6   2 -12 234491. 8722.08   2
  -6  12   2 216408. 8105.08   8
 -12  -6   2 235824. 8804.12   1
   2  12  -6 242800. 8681.07   8
  -6  12  -2 233628. 9224.93   8
 -12  -6   2 217066. 7694.75   4
  -6  -2  12 215923. 8133.10   4
  -2  12  -6 236099. 9164.16   8
  -6 -12   2 218877. 8392.20   1
  -6   2  12 210892. 8066.02   4
  -2   6 -12 206469. 8083.73   8
 -12  -2   6 226298. 8502.44   4
 -12   2   6 220311. 8355.24   4
  12  -2  -6 196039. 7452.27   7
  12   2  -6 200970. 7451.29   7
  -6 -12  -2 222229. 8312.59   1
   2  12  -6 236399. 8855.30   2
  12  -4  -6 2396.43 718.325   7
   4  -6 -12 1159.07 451.714   7
   6  -4 -12 1472.77 574.754   7
  -4  -6  12 1901.55 713.113   4
  -6  -4  12 2272.79 789.993   4
 -12  -6   4 1657.52 668.017   4
 -12  -4   6 2317.58 744.595   4
  -6   4  12 2122.54 692.247   4
 -12   4   6 2559.73 827.206   4
 -12   6   4 2886.83 886.742   4
 -12   6  -4 2157.87 675.548   4
  -4  12   6 2345.78 673.861   4
  -4  -6 -12 2095.57 855.978   6
  -6  -4 -12 2128.76 761.921   6
 -12  -4  -6 1693.90 686.122   6
 -12   4  -6 2048.13 628.059   6
 -12  -6  -4 2226.87 878.082   6
  -6 -12   4 2178.42 840.193   1
  -4 -12  -6 1248.24 606.047   1
   6  -4  12 1235.43 516.327  10
  -6   4  12 1777.48 682.101  10
  -4   6  12 2113.37 767.291  10
   6   4  12 3718.65 925.751  10
   4   6  12 2636.08 790.030  10
   4  12   6 2476.41 771.661  10
   6  12   4 2397.75 798.214  10
  -6 -12  -4 2440.53 777.960   1
  12   4   6 2784.07 794.527   5
  12   6   4 2120.78 753.688   5
  12   4  -6 1184.32 460.616   5
  12   6  -4 1371.47 508.082   5
   6  12   4 1566.71 619.028   5
  12  -6   4 2395.37 780.653   9
  12  -4  -6 2768.89 862.441   9
  12  -6  -4 1792.83 793.624   9
   6  12  -4 2165.86 678.668   5
   6 -12  -4 1605.84 609.301   9
   6  -4 -12 2160.03 688.673   9
   4 -12  -6 1538.28 688.967   9
   4  -6 -12 1529.58 605.553   9
  12  -4   6 4710.17 985.170   3
  12  -6   4 1447.57 614.398   3
   4  12  -6 2424.25 779.235   2
  -4  12  -6 1594.77 649.647   2
   6 -12   4 2523.96 767.510   3
   4 -12   6 1593.07 620.888   3
   4  -6  12 1369.07 521.186   3
   4   6 -12 1945.82 792.377   2
   6   4 -12 1765.26 696.733   2
  -4  12   6 2054.34 635.806   8
   6  12  -4 1045.63 456.274   8
  -6  12   4 2174.66 653.412   8
  -4 -12   6 2253.87 803.530   3
   4  12  -6 1994.07 690.542   8
  -6 -12   4 3017.75 823.435   3
  -6  12  -4 4431.91 1240.26   8
  -4  12  -6 3250.52 1068.72   8
 -12   6  -4 2918.67 843.100   8
  -4  -6  12 3624.29 907.567   3
  -4   6 -12 2726.72 846.626   8
 -12   4  -6 3262.66 955.443   8
 -12  -6  -4 1929.44 631.136   1
  -4   6 -12 2055.87 761.957   2
  -6   4 -12 3094.70 899.631   2
  12   4  -6 6644.64 1073.06   7
  -6  12   6 176642. 7054.88   4
  -6  -6 -12 166295. 7159.26   6
   6   6 -12 171742. 7541.55   2
 -12  -6  -6 162992. 7349.23   6
  12  -6   6 161213. 6783.69   3
   6 -12   6 162975. 6733.60   3
  -6   6  12 178616. 7450.09  10
   6  -6  12 149582. 6086.91   3
  12   6   6 161858. 6739.85   5
   6   6  12 172180. 7128.53  10
  -6   6 -12 182264. 7361.23   2
   6  12   6 164416. 6960.83  10
   6  12   6 164846. 6513.97   5
  12   6  -6 158006. 6197.84   5
  -6 -12  -6 175774. 7190.97   1
  12  -6  -6 168932. 7566.18   9
   6 -12  -6 164649. 6866.66   9
   6  -6 -12 156402. 6772.14   9
  -6 -12   6 181209. 7357.12   3
  -6  -6  12 176004. 7288.44   4
 -12  -6  -6 174497. 6969.98   1
 -12  -6   6 169113. 7043.88   4
  -6  12  -6 180952. 7913.51   8
 -12   6  -6 173058. 7277.15   8
  -6   6 -12 173846. 7341.41   8
  12   6  -6 148457. 6105.80   7
   6  -6 -12 158904. 6493.93   7
 -12   6   6 178260. 7375.59   4
   0  12  -8 397716. 12594.8   2
   0  -8 -12 374499. 11640.8   6
 -12   8   0 346071. 11690.1   4
  -8   0 -12 364268. 11415.8   6
   0 -12  -8 342627. 11052.8   1
 -12   0  -8 340732. 11186.6   6
   8 -12   0 341071. 11778.6   3
 -12  -8   0 379922. 13068.7   6
   0   8 -12 370828. 12384.0   2
  12   0   8 359173. 12114.5   5
   8   0  12 367913. 11363.3  10
   0   8  12 359333. 11891.8  10
  -8 -12   0 362346. 12260.5   1
   0  12   8 362869. 11905.9  10
  12   8   0 322764. 10878.6   5
  12   0  -8 361025. 12219.4   9
   0 -12   8 333571. 11848.6   3
  12  -8   0 342903. 11911.8   9
   8  12   0 340213. 11421.4   5
   8 -12   0 347969. 11589.0   9
   0  -8  12 334891. 11217.8   3
  -8  12   0 364439. 12258.2   8
   0  12  -8 396977. 12908.5   8
 -12  -8   0 388162. 12794.5   1
   0   8 -12 359217. 12000.2   8
  -8   0  12 348949. 12080.5   4
 -12   0   8 360268. 12350.2   4
  12   0  -8 331474. 10965.3   7
   8   0 -12 374980. 11757.4   7
  12  -2  -8 1084.76 469.378   7
   8  -2 -12 733.057 442.775   7
   8   2 -12 1356.74 616.720   7
  -8 -12  -2 1539.50 660.947   1
  -8  -2  12 2180.46 831.378   4
   2 -12  -8 1123.44 476.618   1
 -12  -2   8 1280.66 653.353   4
  -8   2  12 3411.19 908.640   4
 -12   2   8 1950.62 839.228   4
 -12  -8   2 1178.09 585.931   1
 -12   8   2 1552.16 684.532   4
 -12   8  -2 1906.12 667.447   4
  -2 -12  -8 1648.38 607.415   1
   2  -8 -12 311.849 335.049   6
 -12  -8  -2 1195.06 697.650   1
  -2  -8 -12 871.923 518.092   6
  -8   2 -12 898.040 441.026   6
  -8  -2 -12 2083.32 777.030   6
 -12  -2  -8 859.083 552.902   6
 -12   2  -8 788.585 396.534   6
 -12  -8  -2 2399.14 954.677   6
 -12  -8   2 1716.56 692.057   6
   2   8  12 8613.09 1439.46  10
   8   2  12 1425.42 592.062  10
  -2   8  12 1178.71 617.118  10
  -2  12   8 1174.46 596.178  10
   2  12   8 1609.04 708.206  10
  -8 -12   2 586.037 494.902   1
   8   2  12 1148.34 580.466   5
  12  -2   8 1568.19 673.890   5
  12   2   8 1434.33 556.218   5
  12   8   2 1439.18 611.044   5
  12   8  -2 1632.25 568.877   5
   8  12   2 1059.82 515.394   5
   8  12  -2 735.893 565.198   5
  12  -8   2 876.942 551.839   9
  12  -2  -8 413.986 494.368   9
  12  -8  -2 431.760 366.829   9
   8 -12  -2 705.194 445.531   9
   2 -12  -8 736.319 527.966   9
  12  -8   2 577.706 429.274   3
   8 -12  -2 1555.69 632.057   3
   8 -12   2 938.843 577.272   3
   2  12  -8 1125.96 662.842   2
  -2  12  -8 1251.77 670.772   2
   2 -12   8 4941.81 1086.44   3
   2   8 -12 3704.85 974.364   2
   2  -8  12 1838.81 665.741   3
  -2 -12   8 1154.50 615.978   3
  -8  12   2 869.638 474.120   8
  -2  -8  12 913.752 549.148   3
  -2   8 -12 1869.21 710.539   2
   2  12  -8 976.844 558.884   8
  -8  12  -2 1080.19 712.972   8
  -2  12  -8 2009.67 864.135   8
  -2   8 -12 1577.33 634.806   8
  12   2  -8 11465.6 1426.93   7
  -8   2 -12 895.371 598.106   2
   8   4 -12 304919. 10280.7   7
 -12  -8  -4 333254. 11280.8   1
 -12   8   4 331404. 11263.0   4
  -4  12  -8 336592. 11089.3   2
  -4  -8 -12 323405. 10923.8   6
  -8  12   4 340861. 11572.5   4
  -8  -4 -12 316283. 10849.0   6
   4   8 -12 343338. 11923.4   2
 -12  -4  -8 307386. 10776.4   6
  12  -4   8 317195. 10482.1   3
  12  -8   4 312041. 10787.7   3
 -12  -8  -4 324894. 11680.3   6
   8 -12   4 309673. 10597.6   3
  -4 -12  -8 312889. 10637.8   1
  -4   8 -12 310306. 10982.1   2
   8   4  12 307406. 10581.9   5
  12   4   8 323303. 10799.4   5
  -4   8  12 325750. 11274.9  10
   8   4  12 306852. 10583.7  10
   4 -12   8 314222. 10639.8   3
   4   8  12 314673. 10871.9  10
  12   8   4 307046. 10435.3   5
   4  -8  12 300182. 10143.5   3
   4  12   8 313449. 10731.5  10
  12   8   4 311539. 10260.5  10
   8  12   4 325735. 10910.4  10
   8  12   4 310675. 10569.8   5
  12   8  -4 304552. 10042.9   5
  12  -8   4 305653. 10578.8   9
  -8   4 -12 321286. 11008.5   2
  12  -4  -8 324712. 11709.8   9
  12  -8  -4 301727. 11133.6   9
   8  12  -4 282005. 10062.0   5
   8  -4 -12 297534. 10647.6   9
   8 -12  -4 298887. 10419.3   9
   4 -12  -8 315338. 10670.1   9
   4  -8 -12 307906. 10585.9   9
  -4 -12   8 323136. 11262.1   3
  -4  -8  12 302448. 10525.3   3
  -8 -12   4 318654. 10459.8   3
 -12  -8   4 320803. 10515.7   4
   4  12  -8 331131. 10781.6   8
  -8  -4  12 321057. 11281.6   4
  -8  12  -4 351766. 12218.8   8
  -4  12  -8 343297. 11907.2   8
 -12  -4   8 331120. 11496.5   4
 -12   8  -4 325216. 11153.0   8
  -4   8 -12 315385. 11096.6   8
  -8 -12   4 332733. 11487.9   1
  -8   4  12 306006. 10899.2   4
 -12   4  -8 355304. 11654.6   8
  -8 -12  -4 327349. 11106.3   1
  12  -4  -8 280458. 10045.2   7
 -12   4   8 341175. 11447.7   4
  12   4  -8 297875. 9953.48   7
   8  -4 -12 316234. 10725.1   7
   4  12  -8 334618. 11540.0   2
   8  -6 -12 275.311 293.032   7
  12   6  -8 265.727 249.218   7
  -8   6  12 446.330 429.534   4
  -6  12   8 1028.13 472.360   4
  -6 -12  -8 378.256 326.548   6
  12   8  -6 0.58370 273.421   5
   8  -6 -12 991.325 618.623   9
 -12  -8  -6 103.994 298.817   1
  12  -6   8 680.031 435.334   3
  -8 -12   6 719.253 592.845   3
 -12   8  -6 329.065 381.039   8
  -8   6 -12 786.869 491.719   2
 -12 -10   0 1051.17 698.633   6
  10 -12   0 1646.50 730.878   9
   0  10 -12 836.158 522.110   8
  -2 -12 -10 125317. 5726.65   6
   2 -12 -10 119835. 5475.28   1
 -10   2 -12 122662. 5572.93   6
 -12   2 -10 125165. 5587.82   6
 -12 -10  -2 130211. 6600.91   6
  -2  12  10 135108. 6480.21  10
 -10   2 -12 147038. 6612.53   2
   2  12 -10 144177. 6765.39   8
 -10  12  -2 146502. 7086.64   8
   1   1 -13 94518.2 4763.95   6
   1  -1 -13 93492.2 4795.13   6
  -1   1 -13 86341.0 4525.19   6
  -1  -1 -13 92266.2 4765.19   6
  -1 -13  -1 98916.2 4692.21   1
   1 -13  -1 93800.0 4384.53   1
   1 -13  -1 92360.3 4282.29   3
  -1  -1  13 100652. 5332.48  10
  13  -1   1 90376.1 4422.51   5
   1  -1  13 99191.6 5235.75  10
  13  -1  -1 90872.5 4271.43   5
  -1   1  13 88509.6 5059.48  10
   1   1  13 92009.2 5050.84  10
  13   1   1 87654.4 4338.59   5
   1 -13   1 94942.4 4549.20   3
  13   1  -1 89821.8 4282.77   5
  -1 -13   1 100464. 4671.48   3
  13  -1  -1 98523.5 5290.11   9
  -1 -13   1 98905.2 4750.25   1
   1 -13  -1 86893.9 4109.32   9
   1   1 -13 103481. 5346.76   2
   1  13   1 93846.6 4788.66   8
   1 -13   1 96995.2 4524.49   1
  -1   1 -13 100055. 5323.96   2
  -1  13   1 93376.1 4844.15   8
  -1  -1  13 87981.2 4051.89   3
   1  13  -1 102547. 5065.51   8
  -1  13  -1 99593.5 5111.48   8
   1  -1 -13 102649. 5260.78   2
 -13  -1   1 106922. 4818.63   4
 -13  -1  -1 107349. 4625.95   4
 -13   1   1 107287. 4877.20   4
 -13   1  -1 112048. 4804.47   4
 -13   3  -1 86649.0 4345.33   4
  -1   3 -13 76447.6 4057.71   6
   1  -3 -13 76788.7 4352.41   6
  -1  -3 -13 80586.6 4474.70   6
  -3   1 -13 75572.0 4114.22   6
  -3  -1 -13 76850.8 4290.44   6
  -3 -13  -1 78515.4 4298.48   1
 -13  -1  -3 78426.4 4593.57   6
 -13   1  -3 78928.1 4472.75   6
   3 -13  -1 74798.8 3957.73   3
  -1 -13   3 78313.2 4240.36   1
  13  -3   1 71355.9 3903.19   5
  13  -3  -1 70739.8 3707.47   5
  -1  -3  13 80988.5 4756.06  10
   3 -13   1 74417.1 4020.51   3
   1  -3  13 79127.8 4585.60  10
  -3  -1  13 86726.4 5031.79  10
  13  -1   3 74368.9 4104.03   5
  -3   1  13 84808.7 4934.93  10
   3  -1  13 83048.1 4661.37  10
  13   1   3 67834.2 3877.05   5
   3   1  13 83940.2 4695.46  10
  -1   3  13 80395.8 4629.78  10
   1   3  13 83439.3 4689.21  10
  13   1  -3 79039.1 3839.50   5
  13   3   1 70919.6 3837.77   5
  13   3  -1 70049.0 3799.39   5
   1 -13   3 73375.3 4107.76   3
  -1  13   3 84259.6 4397.93  10
  -1 -13   3 74795.5 4197.53   3
  -3 -13   1 74373.0 4258.29   1
  -3 -13   1 84889.8 4213.63   3
  13  -3   1 78321.3 4562.87   9
   1   3 -13 83451.2 4824.03   2
  13  -1  -3 79350.1 4765.03   9
  13  -3  -1 77018.0 4634.10   9
   3   1 -13 83809.1 4781.54   2
  -1   3 -13 82213.0 4753.14   2
   1  13   3 72970.1 3738.66   5
   1  -3  13 73555.5 3695.96   3
   3  13   1 73846.6 3959.92   5
   3 -13  -1 72614.1 3770.40   9
   1 -13  -3 72050.7 3884.80   9
  -1  -3  13 74978.6 3794.77   4
   3  -1 -13 84662.5 4675.51   2
  -1  -3  13 73262.8 3809.55   3
   1  13   3 76426.0 4289.47   8
   1 -13   3 81707.0 4179.60   1
   3  13   1 78429.2 4306.09   8
  -1  13   3 79309.4 4345.52   8
   3  13  -1 76672.4 4213.19   8
  -3  13   1 75115.4 4402.25   8
  -3   1 -13 85649.9 4923.87   2
  -3  -1  13 73596.4 3829.19   4
   1  13  -3 78678.9 4509.87   8
  -3  13  -1 85153.5 4823.51   8
  -1  13  -3 82270.0 4758.74   8
  -1 -13  -3 72298.7 4006.43   1
   1 -13  -3 72976.2 3843.02   1
 -13  -3   1 82154.2 4160.16   4
  -1   3 -13 77024.9 4278.93   8
 -13  -1   3 84390.9 4416.46   4
  13   1  -3 72187.0 3948.88   7
 -13   1   3 83014.0 4416.34   4
 -13   3   1 89294.6 4467.96   4
 -13   3  -3 65391.9 3624.16   4
  -3   3 -13 60583.2 3489.93   6
  -3  -3 -13 61896.6 3905.50   6
  -3 -13   3 61932.9 3859.06   1
 -13  -3  -3 67502.0 4318.32   6
 -13   3  -3 62223.6 3853.11   6
  13  -3   3 60678.7 3740.99   5
   3  -3  13 63208.1 3927.24  10
  -3   3  13 62140.5 4111.02  10
   3 -13   3 61479.6 3709.21   3
   3   3  13 61612.1 4044.27  10
  13   3   3 58351.6 3480.70   5
   3   3 -13 67219.9 4391.94   2
  13   3  -3 57280.7 3288.37   5
  -3  13   3 64567.2 3727.78  10
  13  -3  -3 56318.3 4031.85   9
  -3 -13   3 63080.0 3815.15   3
   3  13   3 58391.7 3415.30   5
  -3   3 -13 66738.1 4249.02   2
   3 -13  -3 52678.0 3306.40   9
   3  -3 -13 55650.9 3369.70   9
   3  13   3 61140.6 3843.24   8
  -3  -3  13 58250.3 3462.02   4
  -3  13   3 62686.8 3774.14   8
   3  13  -3 60257.8 3741.18   8
  -3  13  -3 72849.5 4562.53   8
  -3  -3  13 56636.2 3395.46   3
  -3 -13  -3 57796.9 3647.09   1
   3  -3 -13 68907.7 4118.17   2
 -13  -3   3 65773.1 3878.83   4
  13   3  -3 58287.0 3448.16   7
 -13   3   3 65328.6 3934.93   4
 -13   5   1 96887.3 4897.37   4
 -13   5  -1 91359.6 4707.37   4
   1  -5 -13 81214.8 4609.08   6
  -1  -5 -13 87584.1 4798.98   6
  -5   1 -13 88177.7 4542.55   6
  -5  -1 -13 83061.0 4632.83   6
  -5 -13  -1 93080.3 4933.27   1
 -13  -1  -5 89350.5 4881.45   6
 -13   1  -5 86737.4 4707.15   6
 -13  -5  -1 94758.0 5491.56   6
   5 -13  -1 90196.6 4643.28   3
   5 -13   1 84613.1 4551.92   3
  13  -1   5 84939.6 4712.57   5
  -5  -1  13 100521. 5642.25  10
  -5   1  13 96448.5 5473.06  10
  13   1   5 82672.5 4532.07   5
   5  -1  13 90265.9 4889.74  10
   5   1  13 91929.9 4938.82  10
   1   5 -13 100040. 5411.39   2
  -1   5  13 93758.2 5081.75  10
   1   5  13 94707.4 5097.18  10
  13   5   1 79629.0 4195.42   5
  -1   5 -13 95424.1 5229.60   2
   5   1 -13 99669.7 5287.28   2
  13   5  -1 75612.7 4090.76   5
   1 -13   5 88506.1 4807.30   3
  -1  13   5 90280.3 4764.98  10
   1 -13  -5 83394.9 4244.12   1
   1  13   5 89876.0 4781.22  10
  -1 -13  -5 84682.5 4451.59   1
  13   1  -5 84661.7 4945.97   9
  13  -5   1 87352.3 4909.33   9
  -1 -13   5 91886.9 4994.89   3
  13  -1  -5 97396.7 5470.55   9
  13  -5  -1 84909.3 4956.98   9
   5  -1 -13 95920.0 5025.61   2
  -5 -13   1 90630.8 4907.80   1
   5  13   1 79677.3 4337.79   5
   1  -5  13 81803.9 4206.27   3
   5  13  -1 82356.2 4422.51   5
   5 -13  -1 80363.7 4238.85   9
  -1  -5  13 80764.5 4311.48   3
   5  13   1 87426.0 4663.95   8
  -1  13   5 88805.7 4682.44   8
   5  13  -1 86806.9 4552.70   8
  -5  13   1 96416.6 5160.02   8
   1  13  -5 99093.8 5258.23   8
  -5  13  -1 98935.7 5458.50   8
  -1  13  -5 106324. 5613.27   8
  -5  -1  13 87293.9 4544.76   4
  -5   1 -13 99444.9 5471.97   2
 -13  -5   1 95295.1 4516.09   4
  -5   1  13 94377.0 4661.36   4
  -1   5 -13 88625.3 4745.92   8
 -13  -1   5 98084.7 5134.17   4
 -13   1   5 98265.0 5076.38   4
   1  13  -5 97337.9 5318.27   2
  13  -1  -5 78701.4 4211.78   7
  13   1  -5 78358.6 4194.99   7
  -1  13  -5 92395.3 5153.33   2
   5  -3 -13 73818.6 4253.26   7
 -13   5  -3 74096.1 4100.85   4
  -5   3 -13 76686.0 3945.53   6
  -3  -5 -13 72781.5 4374.93   6
  -5  -3 -13 72897.9 4365.92   6
 -13  -3  -5 79478.9 4701.59   6
 -13   3  -5 73448.8 4150.66   6
 -13  -5  -3 78241.9 4949.41   6
  -5 -13   3 75691.1 4488.14   1
 -13   5  -3 80768.5 4292.76   6
  13  -3   5 75944.3 4443.01   5
   3   5 -13 85498.5 5143.05   2
   5 -13   3 63797.5 3915.68   3
   5  -3  13 75270.7 4267.49  10
   5   3 -13 79896.4 4866.50   2
  -5   3  13 80921.3 4911.09  10
  -3   5  13 80962.5 4743.17  10
  13   3   5 71610.3 4058.06   5
   5   3  13 72626.1 4409.91  10
   3   5  13 74500.1 4487.82  10
   3 -13   5 69967.3 4162.42   3
  13   5   3 67769.4 3907.92   5
  -3  13   5 77509.2 4311.14  10
  13   5  -3 63072.4 3609.07   5
  -3   5 -13 81113.5 4727.82   2
   3  13   5 74788.8 4342.91  10
   3  -5  13 64552.1 3642.38   3
  13  -5   3 67321.5 4229.63   9
  13  -3  -5 73731.1 4792.99   9
  13  -5  -3 65798.1 4409.52   9
   5  13   3 70008.2 4002.96   5
  -3 -13  -5 71768.5 4155.37   1
  -3 -13   5 73544.8 4417.79   3
  -5 -13   3 69054.3 4039.26   3
   5 -13  -3 67688.3 3923.89   9
  -5   3 -13 81937.8 4780.56   2
   3 -13  -5 66668.4 3942.55   9
   3  -5 -13 68549.3 4020.69   9
  -3  -5  13 74619.6 4120.38   4
  -3  13   5 69390.4 4030.04   8
   5  13  -3 72327.8 4044.27   8
  -5  13   3 75424.6 4240.84   8
  -5  -3  13 71864.0 4125.29   4
   3  13  -5 79956.5 4470.45   8
  -3  -5  13 67944.4 3912.02   3
  -5  13  -3 85651.6 5234.73   8
  -3  13  -5 84971.0 5145.83   8
 -13  -5   3 76574.1 4216.64   4
 -13  -3   5 77879.8 4517.15   4
  -3   5 -13 79601.7 4527.81   8
  -5 -13  -3 74239.3 4329.93   1
  13  -3  -5 67805.4 3897.50   7
  13   3  -5 66998.0 3815.34   7
  -3  13  -5 82027.8 4670.51   2
 -13   3   5 78980.3 4533.34   4
   3  -5 -13 76574.9 4033.22   7
 -13   5   3 83561.5 4571.91   4
  -5  -5 -13 75055.0 4591.45   6
 -13  -5  -5 83706.1 5070.42   6
   5   5 -13 86101.5 5150.34   2
   5 -13   5 74774.1 4333.33   3
  -5   5  13 89396.8 5112.85  10
  13   5   5 76765.4 4304.87   5
   5   5  13 88493.5 4910.77  10
  13   5  -5 75361.7 3941.99   5
   5  13   5 80848.5 4617.14  10
  -5   5 -13 88750.3 4988.59   2
   5  13   5 79663.6 4237.19   5
  13  -5  -5 74998.0 4802.88   9
   5 -13  -5 75453.9 4309.58   9
  -5 -13   5 83121.1 4743.64   3
   5  -5 -13 77932.8 4411.14   9
  -5 -13  -5 80706.5 4627.16   1
  -5  13   5 75270.1 4166.78   8
  -5  -5  13 85044.7 4624.55   4
   5  13  -5 81071.0 4341.92   8
  -5  13  -5 93074.1 5489.29   8
 -13  -5   5 82511.1 4618.10   4
  -5  -5  13 81510.3 4434.66   3
 -13   5  -5 85189.3 4734.79   8
  -5   5 -13 81751.9 4736.55   8
  -5  13  -5 84076.2 4607.17   2
  13   5  -5 73247.3 3954.23   7
 -13   5   5 93550.0 4989.32   4
   5  -5 -13 76592.9 4255.19   7
   7   1 -13 45462.6 3298.23   7
   1  -7 -13 44536.6 3330.52   6
 -13   7   1 49869.6 3559.13   4
  -1  -7 -13 46651.9 3441.79   6
 -13   7  -1 51313.9 3501.28   4
  -7   1 -13 44394.1 3140.98   6
  -7  -1 -13 50458.6 3450.71   6
 -13  -1  -7 45116.5 3279.56   6
 -13   1  -7 43694.5 3146.93   6
   7 -13  -1 44772.4 3367.62   3
 -13  -7  -1 48708.8 3992.67   6
 -13  -7   1 52842.1 4120.10   6
   7 -13   1 51065.0 3548.08   3
  -7 -13  -1 51052.9 3700.29   1
   1   7 -13 55412.3 3997.09   2
   1 -13  -7 45583.7 3053.42   1
  13  -1   7 50288.4 3673.98   5
  -1   7 -13 51790.7 3810.43   2
  -7   1  13 51404.2 3989.69  10
  13   1   7 50319.5 3581.81   5
  -1 -13  -7 46618.8 3207.93   1
   7  -1  13 47242.0 3381.99  10
   7   1  13 51999.9 3571.38  10
  -1   7  13 50816.0 3728.93  10
   1   7  13 48147.7 3564.53  10
 -13  -7   1 53584.5 3932.05   1
  -1  13   7 48526.2 3557.58  10
  13   7   1 40822.3 3005.00   5
   1  13   7 47606.4 3469.60  10
  13   7  -1 39582.4 2899.21   5
   1 -13   7 47083.2 3545.56   3
  13   1  -7 46623.3 3514.15   9
  13  -7   1 43005.3 3408.80   9
  13  -1  -7 51718.0 3958.50   9
  13  -7  -1 42537.1 3449.43   9
  -1 -13   7 51441.5 3773.77   3
   7  13   1 43660.1 3214.09   5
   1  -7  13 43583.1 3097.97   3
   7  13  -1 43499.2 3167.60   5
   7 -13  -1 41606.3 3108.14   9
  -1  -7  13 45587.1 3281.57   3
  -7 -13   1 50698.7 3767.70   1
  -7  13   1 49188.3 3632.25   8
   1  13  -7 55008.3 3947.48   8
  -7  13  -1 54818.8 4087.81   8
  -7   1 -13 54022.0 3926.25   2
 -13  -7  -1 51663.7 3830.61   1
  -1  13  -7 53136.6 4077.56   8
  -7  -1  13 50854.2 3612.05   4
  -7   1  13 52517.5 3684.97   4
  -1   7 -13 53875.7 3716.81   8
 -13  -1   7 51461.9 3790.87   4
 -13   1   7 53438.5 3814.82   4
  13  -1  -7 39622.5 2921.09   7
  13   1  -7 42592.7 2995.52   7
   1  13  -7 57399.2 4014.50   2
  -1  13  -7 50857.5 3741.03   2
   7  -1 -13 46376.6 3404.17   7
 -13   7   3 40497.6 3219.96   4
 -13   7  -3 38252.1 2957.62   4
  -7  -3 -13 35445.4 2970.98   6
   7 -13  -3 34407.1 2822.58   3
 -13   3  -7 34755.9 2681.04   6
 -13  -7  -3 39860.3 3582.64   6
   3   7 -13 41632.0 3556.66   2
   7 -13   3 35976.4 2902.06   3
 -13  -7  -3 40805.2 3282.75   1
  -7 -13   3 39936.3 3303.97   1
  -7   3  13 39056.9 3385.24  10
  -3   7 -13 37924.7 3208.48   2
  -3   7  13 41017.3 3358.05  10
   7   3  13 40309.5 3172.81  10
  -3 -13  -7 34275.4 2828.60   1
   3 -13   7 38654.2 3091.48   3
   3  13   7 37002.3 3024.84  10
  13   7  -3 32459.6 2538.80   5
   3  -7  13 31408.8 2559.35   3
  13  -7   3 33809.1 2923.81   9
   7  13   3 33510.7 2812.49   5
  13  -3  -7 38746.9 3462.39   9
  -3 -13   7 38720.9 3228.86   3
   7 -13  -3 32287.9 2715.54   9
  -7   3 -13 41890.7 3357.54   2
   3 -13  -7 34190.9 2859.80   9
   3  -7 -13 32732.5 2825.11   9
   7  13  -3 34392.6 2651.70   8
  -3  -7  13 35850.2 2861.95   3
  -7  13   3 36271.2 2844.81   8
   3  13  -7 40428.8 3198.49   8
 -13  -7   3 36928.3 2841.82   4
  -7  -3  13 39921.9 3205.90   4
  -7  13  -3 48273.3 3936.54   8
 -13  -3   7 43476.9 3443.31   4
  -7   3  13 38279.4 3110.88   4
  -3   7 -13 39187.1 3203.84   8
  13   3  -7 26582.3 2357.21   7
   7  -3 -13 37297.7 3032.69   7
  -3  13  -7 39396.3 3178.85   2
  13  -5   7 47203.1 3339.87   3
   7   5 -13 48519.1 3588.23   2
  -5   7  13 48741.3 3712.53  10
   5  -7  13 39423.0 2822.93   3
  13   7  -5 36471.3 2709.38   5
   7  13   5 43696.6 3153.86   5
   7  -5 -13 44562.9 3322.00   9
   5  -7 -13 41528.7 3197.61   9
  -7 -13   5 45543.0 3299.43   3
 -13  -7   5 42094.1 3192.29   4
 -13   7  -5 49710.7 3633.82   8
 -13   5  -7 51204.4 3738.53   8
  13   5  -7 37921.0 2802.84   7
   7  -5 -13 42880.5 3184.09   7
  -5  13  -7 46868.0 3381.78   2
   1 -13  -9 57432.4 3559.36   1
  -9  13  -1 66111.1 4575.22   8
 -14   0   0 1770.14 641.400   4
   0   0 -14 1000.55 511.305   6
   0   0  14 1912.07 767.933  10
  14   0   0 1424.05 551.523   5
   0 -14   0 1551.53 588.245   1
   0  14   0 1248.90 615.268   8
   0   0 -14 1930.18 774.778   2
   0   2 -14 182900. 7505.78   6
   0 -14  -2 191637. 7374.24   1
   0  -2 -14 196215. 7981.58   6
  -2   0 -14 198189. 7832.87   6
   0 -14   2 199085. 7584.97   1
 -14   0  -2 213048. 8422.80   6
   2 -14   0 184252. 7157.58   3
  14  -2   0 195463. 7339.01   5
   0  -2  14 213038. 8548.82  10
  -2   0  14 202717. 8511.07  10
  14   0   2 194939. 7486.50   5
   2   0  14 199169. 8378.95  10
   0   2  14 206965. 8453.48  10
  14   0  -2 189632. 7081.91   5
  14   2   0 188790. 7209.22   5
  -2 -14   0 201139. 7821.45   1
   0 -14   2 197580. 7534.56   3
  14  -2   0 207270. 8398.38   9
   0   2 -14 207912. 8530.75   2
   2   0 -14 214574. 8523.95   2
   0 -14  -2 194595. 7112.59   9
   0  14   2 192543. 7776.44   8
   2  14   0 197861. 7811.19   8
  -2  14   0 208343. 8264.46   8
   0  14  -2 220835. 8449.17   8
  -2   0 -14 206197. 8601.58   2
 -14   0   2 212939. 7946.54   4
 -14   2   0 216532. 7890.57   4
   2  -2 -14 84379.4 4780.91   6
  -2 -14  -2 89023.8 4702.58   1
  -2   2 -14 83518.4 4535.00   6
  -2  -2 -14 82428.0 4774.84   6
 -14  -2  -2 90746.9 5241.35   6
 -14   2  -2 92440.7 5066.94   6
  14  -2   2 87249.2 4597.50   5
  -2  -2  14 95913.3 5436.77  10
   2  -2  14 97070.5 5256.26  10
  -2   2  14 93663.8 5348.98  10
   2 -14   2 84087.0 4483.41   3
   2   2  14 91301.4 5212.57  10
  14   2   2 80959.4 4348.42   5
  14   2  -2 79441.5 4146.44   5
  -2 -14   2 86563.2 4547.83   3
  -2  14   2 86710.9 4639.38  10
  14  -2  -2 92430.7 5260.35   9
   2   2 -14 91918.5 5241.46   2
   2  14   2 76944.4 4163.41   5
  -2   2 -14 93537.6 5308.59   2
   2 -14  -2 77615.3 4101.97   9
   2  14   2 86738.8 4734.71   8
  -2  14   2 81774.4 4685.70   8
   2  14  -2 90686.4 4857.05   8
  -2  -2  14 83355.6 4190.98   3
  -2  14  -2 94381.5 5278.36   8
   2  -2 -14 90175.5 5057.06   2
 -14  -2   2 94030.7 4828.55   4
 -14   2   2 95918.5 4902.73   4
 -14   2  -2 99254.3 4745.48   4
  -2 -14   2 87517.7 4745.50   1
 -14   0   4 3206.88 960.113   4
 -14   4   0 1102.72 570.146   4
   0  -4 -14 648.307 590.819   6
  -4   0 -14 687.663 426.880   6
 -14   0  -4 1061.65 480.176   6
  -4   0  14 762.438 523.776  10
   4   0  14 717.546 579.490  10
   0   4  14 783.277 570.568  10
   0  14   4 1717.93 682.218  10
  -4 -14   0 851.775 562.679   1
  14  -4   0 818.743 467.072   5
   0 -14  -4 795.760 435.433   1
  14   0   4 134.002 410.673   5
  14   4   0 772.227 425.359   5
  14   0  -4 1031.93 655.249   9
  14  -4   0 2803.58 876.087   9
   4  14   0 1316.78 538.370   5
   4 -14   0 777.808 439.697   3
   0 -14   4 1099.81 556.293   3
   0  -4  14 366.750 344.341   3
   0  14   4 1518.37 654.270   8
   4  14   0 791.146 498.183   8
   0  14  -4 1844.03 766.050   8
   0   4 -14 1735.51 751.096   2
   4   0 -14 915.187 549.660   2
  -4   0 -14 448.945 445.121   2
   2  -4 -14 177721. 6914.77   7
 -14   4  -2 187704. 7342.84   4
   4  -2 -14 192320. 7444.49   7
   2  -4 -14 173563. 7465.39   6
  -2  -4 -14 182480. 7717.24   6
  -4   2 -14 173581. 6949.67   6
  -4  -2 -14 180218. 7523.38   6
  -4 -14  -2 177065. 7432.21   1
 -14  -2  -4 183542. 7915.39   6
 -14   2  -4 188918. 7639.79   6
 -14  -4  -2 182176. 8152.54   6
 -14   4  -2 190548. 7645.76   6
  14  -4   2 165266. 6978.60   5
  14  -2   4 171383. 7294.75   5
   4 -14   2 167924. 6999.04   3
   4  -2  14 186364. 7737.46  10
  -4   2  14 188579. 8250.87  10
  14   2   4 166929. 6957.48   5
  -2   4  14 192362. 8068.22  10
   4   2  14 183687. 7855.84  10
   2   4  14 188312. 7917.65  10
   2   4 -14 187678. 8122.59   2
   2 -14   4 171949. 7196.61   3
  14   4   2 158693. 6686.17   5
   4   2 -14 188017. 8022.04   2
  14   4  -2 159884. 6572.78   5
  -2  14   4 183967. 7369.13  10
   2  14   4 186850. 7623.91  10
  -2   4 -14 185760. 7934.02   2
  -2 -14   4 174268. 7447.01   3
  14  -2  -4 184789. 8080.80   9
  14  -4  -2 181825. 7875.28   9
   4  14   2 157178. 6727.79   5
   4 -14  -2 169655. 6799.93   9
   2 -14  -4 165607. 6844.02   9
   4  -2 -14 188813. 7753.13   2
  -4   2 -14 196333. 8267.82   2
   4  14   2 180141. 7430.96   8
  -2  14   4 168922. 7194.54   8
  -2  -4  14 168565. 6828.45   3
   4  14  -2 181803. 7343.80   8
  -4  14   2 174966. 7452.50   8
  -4  -2  14 172579. 6868.62   4
   2  14  -4 197860. 7881.11   8
  -4  14  -2 197619. 8424.05   8
  -2  14  -4 196643. 8342.52   8
  -2 -14  -4 169969. 7133.38   1
 -14  -4   2 186301. 7286.05   4
 -14  -2   4 186892. 7613.07   4
  -2   4 -14 179272. 7376.49   8
  14   2  -4 159677. 6747.27   7
 -14   2   4 196673. 7825.66   4
  -4 -14   2 181854. 7599.64   1
 -14   4   2 192464. 7567.79   4
  14   4  -4 622.443 387.149   7
   4  -4 -14 747.192 466.035   7
  -4  -4  14 1209.03 603.426   4
 -14  -4   4 999.652 638.174   4
 -14   4   4 1098.39 579.617   4
 -14   4  -4 479.302 435.735   6
  -4 -14   4 969.944 598.372   1
   4  -4  14 570.117 484.027  10
  -4   4  14 309.842 350.776  10
   4   4  14 404.334 416.300  10
   4  14   4 140.182 384.623  10
  14  -4   4 245.604 326.719   5
  14   4  -4 263.489 357.354   5
   4  14   4 296.992 364.081   5
  14  -4  -4 662.507 561.575   9
   4 -14  -4 116.865 238.670   9
  -4 -14  -4 3.00684 306.252   1
   4 -14   4 938.994 529.279   3
  -4 -14   4 2491.98 793.392   3
  -4  14   4 613.549 494.509   8
   4  14  -4 445.449 388.883   8
   4   4 -14 662.207 461.054   2
  -4  -4  14 1613.60 654.788   3
  -4   4 -14 783.986 535.780   8
 -14   6   0 167936. 7027.66   4
  -6   0 -14 152195. 6641.80   6
 -14   0  -6 158628. 6927.30   6
   6 -14   0 150534. 6691.83   3
   6   0  14 165597. 7173.30  10
   0  14   6 160988. 7042.18  10
   0 -14   6 153716. 7038.05   3
   0 -14  -6 149434. 6391.62   1
  14   0  -6 165252. 7530.66   9
   6  14   0 141701. 6416.29   5
   0  -6  14 141277. 6251.39   3
   6  14   0 155003. 6683.03   8
  -6  14   0 164847. 7563.37   8
  -6   0  14 158566. 6771.65   4
 -14   6  -2 56419.1 3720.63   4
  -6   2 -14 48980.6 3332.93   6
 -14   2  -6 52918.8 3605.79   6
   6 -14  -2 51403.5 3519.47   3
   6 -14   2 53445.6 3618.53   3
  -6   2  14 64867.5 4538.55  10
   6  -2  14 60628.3 3958.27  10
   6   2  14 58090.3 3994.35  10
  14   6  -2 44860.9 3130.23   5
  -2  14   6 54182.7 3757.05  10
   2  -6  14 49738.6 3311.92   3
  14  -2  -6 62629.1 4454.14   9
  -2 -14   6 53916.6 3907.19   3
   6  14   2 51351.5 3518.78   5
  -2 -14  -6 52549.5 3554.82   1
   6 -14  -2 47694.3 3272.23   9
   2  -6 -14 48974.9 3512.47   9
  -2  -6  14 53295.7 3507.78   3
   6  14  -2 52346.6 3521.44   8
  -6  14   2 56293.3 3896.65   8
  -6  -2  14 58873.3 3822.10   4
  -2   6 -14 58816.3 3947.36   8
  14   2  -6 48729.0 3291.24   7
  -2  14  -6 67897.6 4342.46   2
   6   4 -14 137874. 6733.13   2
  -6   4  14 148326. 7146.24  10
   6  14   4 125885. 5913.62   5
   4  -6 -14 125007. 6059.49   9
  -4  14   6 124061. 5852.74   8
   6  14  -4 133895. 5953.50   8
 -14  -6   4 142087. 6288.21   4
 -14   4  -6 144413. 6618.04   8
  -4  14  -6 139758. 6479.64   2
  14   4  -6 122459. 5587.67   7
  -1 -15   1 5237.04 1137.16   1
 -15  -1   1 6099.74 1180.53   4
 -15   1   1 6007.82 1224.46   4
   1  -1 -15 5528.88 1218.82   6
  -1   1 -15 5922.63 1197.47   6
  -1  -1 -15 6809.86 1363.79   6
 -15  -1  -1 5020.12 1200.90   6
  -1 -15  -1 6368.52 1228.24   1
  15  -1   1 5176.10 1049.76   5
  15  -1  -1 6084.34 1138.63   5
  15   1   1 4656.80 1011.79   5
  15   1  -1 5346.22 1071.93   5
  -1  15   1 5148.52 1166.55   8
   1   1 -15 7624.24 1489.85   2
   1  -1 -15 6759.99 1390.55   2
  -1  -1 -15 6548.71 1383.49   2
 -15  -1   3 3786.87 986.413   4
 -15   1   3 5044.97 1152.46   4
 -15   3   1 4067.57 1005.15   4
 -15   3  -1 3910.10 978.368   4
  -3   1 -15 3447.62 951.871   6
  -3  -1 -15 6485.44 1281.21   6
 -15   1  -3 2202.12 794.268   6
  -3 -15  -1 3988.19 996.880   1
  -1 -15   3 3747.76 941.553   1
  -1  15   3 2971.41 883.001  10
   1  15   3 3538.92 966.376  10
  15  -3   1 4118.58 945.067   5
  15  -1   3 3227.86 879.246   5
  15   3  -1 3300.32 836.620   5
   3  15   1 4007.23 915.360   5
   1 -15  -3 2964.23 801.365   9
   3 -15   1 2513.70 710.159   3
   1 -15   3 3509.18 925.304   3
  -1 -15   3 2341.63 758.851   3
   3   1 -15 3432.38 1005.67   2
   3  -1 -15 3660.21 1035.44   2
  -1 -15  -3 4126.16 977.972   1
   1  -3 -15 3445.73 993.866   2
  -3 -15   1 3711.32 964.181   1
   3  -3 -15 2579.25 754.958   7
 -15  -3   3 2001.42 743.666   4
 -15   3  -3 2425.67 795.962   6
  15   3  -3 2156.08 672.481   5
   3 -15  -3 1472.17 588.597   9
   3 -15   3 2235.59 763.568   3
  -3   3 -15 2581.61 812.010   8
   3  -3 -15 1974.37 794.373   2
  -3 -15   3 2320.38 831.639   1
   5   1 -15 10245.0 1692.63   2
  -1  15   5 8216.50 1451.05  10
  -1  -5  15 7884.72 1323.29   3
   0   0   0    0.00    0.00   0

TITL 1 in Fm-3m
REM Fm-3m (#225 in standard setting)
CELL 0.71073  10.514005  10.514005  10.514005  90.0000  90.0000  90.0000
ZERR    6.00   0.000104   0.000104   0.000104   0.0000   0.0000   0.0000
LATT  4
SYMM -x,-y, z
SYMM -x, y,-z
SYMM  x,-y,-z
SYMM  z, x, y
SYMM  z,-x,-y
SYMM -z,-x, y
SYMM -z, x,-y
SYMM  y, z, x
SYMM -y, z,-x
SYMM  y,-z,-x
SYMM -y,-z, x
SYMM  y, x,-z
SYMM -y,-x,-z
SYMM  y,-x, z
SYMM -y, x, z
SYMM  x, z,-y
SYMM -x, z, y
SYMM -x,-z,-y
SYMM  x,-z, y
SYMM  z, y,-x
SYMM  z,-y, x
SYMM -z, y, x
SYMM -z,-y,-x
SFAC Na Cl In Cs
UNIT 6.00 36.00 6.00 12.00
TREF
HKLF 4
END
;
_shelx_hkl_checksum              35514
_olex2_exptl_crystal_mounting_method tip-mounted
_olex2_submission_special_instructions 'No special instructions were received'
_oxdiff_exptl_absorpt_empirical_details
;
Empirical correction (ABSPACK) includes:
- Absorption correction using spherical harmonics
- Frame scaling
;
_oxdiff_exptl_absorpt_empirical_full_max 1.533
_oxdiff_exptl_absorpt_empirical_full_min 0.723
loop_
_space_group_symop_operation_xyz
'x, y, z'
'-x, -y, z'
'-x, y, -z'
'x, -y, -z'
'z, x, y'
'z, -x, -y'
'-z, -x, y'
'-z, x, -y'
'y, z, x'
'-y, z, -x'
'y, -z, -x'
'-y, -z, x'
'y, x, -z'
'-y, -x, -z'
'y, -x, z'
'-y, x, z'
'x, z, -y'
'-x, z, y'
'-x, -z, -y'
'x, -z, y'
'z, y, -x'
'z, -y, x'
'-z, y, x'
'-z, -y, -x'
'x, y+1/2, z+1/2'
'-x, -y+1/2, z+1/2'
'-x, y+1/2, -z+1/2'
'x, -y+1/2, -z+1/2'
'z, x+1/2, y+1/2'
'z, -x+1/2, -y+1/2'
'-z, -x+1/2, y+1/2'
'-z, x+1/2, -y+1/2'
'y, z+1/2, x+1/2'
'-y, z+1/2, -x+1/2'
'y, -z+1/2, -x+1/2'
'-y, -z+1/2, x+1/2'
'y, x+1/2, -z+1/2'
'-y, -x+1/2, -z+1/2'
'y, -x+1/2, z+1/2'
'-y, x+1/2, z+1/2'
'x, z+1/2, -y+1/2'
'-x, z+1/2, y+1/2'
'-x, -z+1/2, -y+1/2'
'x, -z+1/2, y+1/2'
'z, y+1/2, -x+1/2'
'z, -y+1/2, x+1/2'
'-z, y+1/2, x+1/2'
'-z, -y+1/2, -x+1/2'
'x+1/2, y, z+1/2'
'-x+1/2, -y, z+1/2'
'-x+1/2, y, -z+1/2'
'x+1/2, -y, -z+1/2'
'z+1/2, x, y+1/2'
'z+1/2, -x, -y+1/2'
'-z+1/2, -x, y+1/2'
'-z+1/2, x, -y+1/2'
'y+1/2, z, x+1/2'
'-y+1/2, z, -x+1/2'
'y+1/2, -z, -x+1/2'
'-y+1/2, -z, x+1/2'
'y+1/2, x, -z+1/2'
'-y+1/2, -x, -z+1/2'
'y+1/2, -x, z+1/2'
'-y+1/2, x, z+1/2'
'x+1/2, z, -y+1/2'
'-x+1/2, z, y+1/2'
'-x+1/2, -z, -y+1/2'
'x+1/2, -z, y+1/2'
'z+1/2, y, -x+1/2'
'z+1/2, -y, x+1/2'
'-z+1/2, y, x+1/2'
'-z+1/2, -y, -x+1/2'
'x+1/2, y+1/2, z'
'-x+1/2, -y+1/2, z'
'-x+1/2, y+1/2, -z'
'x+1/2, -y+1/2, -z'
'z+1/2, x+1/2, y'
'z+1/2, -x+1/2, -y'
'-z+1/2, -x+1/2, y'
'-z+1/2, x+1/2, -y'
'y+1/2, z+1/2, x'
'-y+1/2, z+1/2, -x'
'y+1/2, -z+1/2, -x'
'-y+1/2, -z+1/2, x'
'y+1/2, x+1/2, -z'
'-y+1/2, -x+1/2, -z'
'y+1/2, -x+1/2, z'
'-y+1/2, x+1/2, z'
'x+1/2, z+1/2, -y'
'-x+1/2, z+1/2, y'
'-x+1/2, -z+1/2, -y'
'x+1/2, -z+1/2, y'
'z+1/2, y+1/2, -x'
'z+1/2, -y+1/2, x'
'-z+1/2, y+1/2, x'
'-z+1/2, -y+1/2, -x'
'-x, -y, -z'
'x, y, -z'
'x, -y, z'
'-x, y, z'
'-z, -x, -y'
'-z, x, y'
'z, x, -y'
'z, -x, y'
'-y, -z, -x'
'y, -z, x'
'-y, z, x'
'y, z, -x'
'-y, -x, z'
'y, x, z'
'-y, x, -z'
'y, -x, -z'
'-x, -z, y'
'x, -z, -y'
'x, z, y'
'-x, z, -y'
'-z, -y, x'
'-z, y, -x'
'z, -y, -x'
'z, y, x'
'-x, -y+1/2, -z+1/2'
'x, y+1/2, -z+1/2'
'x, -y+1/2, z+1/2'
'-x, y+1/2, z+1/2'
'-z, -x+1/2, -y+1/2'
'-z, x+1/2, y+1/2'
'z, x+1/2, -y+1/2'
'z, -x+1/2, y+1/2'
'-y, -z+1/2, -x+1/2'
'y, -z+1/2, x+1/2'
'-y, z+1/2, x+1/2'
'y, z+1/2, -x+1/2'
'-y, -x+1/2, z+1/2'
'y, x+1/2, z+1/2'
'-y, x+1/2, -z+1/2'
'y, -x+1/2, -z+1/2'
'-x, -z+1/2, y+1/2'
'x, -z+1/2, -y+1/2'
'x, z+1/2, y+1/2'
'-x, z+1/2, -y+1/2'
'-z, -y+1/2, x+1/2'
'-z, y+1/2, -x+1/2'
'z, -y+1/2, -x+1/2'
'z, y+1/2, x+1/2'
'-x+1/2, -y, -z+1/2'
'x+1/2, y, -z+1/2'
'x+1/2, -y, z+1/2'
'-x+1/2, y, z+1/2'
'-z+1/2, -x, -y+1/2'
'-z+1/2, x, y+1/2'
'z+1/2, x, -y+1/2'
'z+1/2, -x, y+1/2'
'-y+1/2, -z, -x+1/2'
'y+1/2, -z, x+1/2'
'-y+1/2, z, x+1/2'
'y+1/2, z, -x+1/2'
'-y+1/2, -x, z+1/2'
'y+1/2, x, z+1/2'
'-y+1/2, x, -z+1/2'
'y+1/2, -x, -z+1/2'
'-x+1/2, -z, y+1/2'
'x+1/2, -z, -y+1/2'
'x+1/2, z, y+1/2'
'-x+1/2, z, -y+1/2'
'-z+1/2, -y, x+1/2'
'-z+1/2, y, -x+1/2'
'z+1/2, -y, -x+1/2'
'z+1/2, y, x+1/2'
'-x+1/2, -y+1/2, -z'
'x+1/2, y+1/2, -z'
'x+1/2, -y+1/2, z'
'-x+1/2, y+1/2, z'
'-z+1/2, -x+1/2, -y'
'-z+1/2, x+1/2, y'
'z+1/2, x+1/2, -y'
'z+1/2, -x+1/2, y'
'-y+1/2, -z+1/2, -x'
'y+1/2, -z+1/2, x'
'-y+1/2, z+1/2, x'
'y+1/2, z+1/2, -x'
'-y+1/2, -x+1/2, z'
'y+1/2, x+1/2, z'
'-y+1/2, x+1/2, -z'
'y+1/2, -x+1/2, -z'
'-x+1/2, -z+1/2, y'
'x+1/2, -z+1/2, -y'
'x+1/2, z+1/2, y'
'-x+1/2, z+1/2, -y'
'-z+1/2, -y+1/2, x'
'-z+1/2, y+1/2, -x'
'z+1/2, -y+1/2, -x'
'z+1/2, y+1/2, x'
loop_
_atom_site_label
_atom_site_type_symbol
_atom_site_fract_x
_atom_site_fract_y
_atom_site_fract_z
_atom_site_U_iso_or_equiv
_atom_site_adp_type
_atom_site_occupancy
_atom_site_site_symmetry_order
_atom_site_calc_flag
_atom_site_refinement_flags_posn
_atom_site_refinement_flags_adp
_atom_site_refinement_flags_occupancy
_atom_site_disorder_assembly
_atom_site_disorder_group
In01 In 0.500000 0.500000 0.500000 0.0115(2) Uani 1 48 d S T P . .
Cs02 Cs 0.250000 0.250000 0.250000 0.0211(2) Uani 1 24 d S T P . .
Cl03 Cl 0.26141(8) 0.500000 0.500000 0.0226(3) Uani 1 8 d S T P . .
Na1 Na 0.000000 0.500000 0.500000 0.0134(11) Uani 1 48 d S T P . .
loop_
_atom_site_aniso_label
_atom_site_aniso_U_11
_atom_site_aniso_U_22
_atom_site_aniso_U_33
_atom_site_aniso_U_23
_atom_site_aniso_U_13
_atom_site_aniso_U_12
In01 0.0115(2) 0.0115(2) 0.0115(2) 0.000 0.000 0.000
Cs02 0.0211(2) 0.0211(2) 0.0211(2) 0.000 0.000 0.000
Cl03 0.0122(3) 0.0277(3) 0.0277(3) 0.000 0.000 0.000
Na1 0.0134(11) 0.0134(11) 0.0134(11) 0.000 0.000 0.000
loop_
_atom_type_symbol
_atom_type_description
_atom_type_scat_dispersion_real
_atom_type_scat_dispersion_imag
_atom_type_scat_source
Cl Cl 0.1484 0.1585 'International Tables Vol C Tables 4.2.6.8 and 6.1.1.4'
Cs Cs -0.3680 2.1192 'International Tables Vol C Tables 4.2.6.8 and 6.1.1.4'
In In -0.7276 1.3100 'International Tables Vol C Tables 4.2.6.8 and 6.1.1.4'
Na Na 0.0362 0.0249 'International Tables Vol C Tables 4.2.6.8 and 6.1.1.4'
loop_
_exptl_crystal_face_index_h
_exptl_crystal_face_index_k
_exptl_crystal_face_index_l
_exptl_crystal_face_perp_dist
1 -1 -1 0.1458
-1 1 1 0.1105
1 0 1 0.1230
-1 0 -1 0.1329
-5 5 -4 0.1327
4 -5 3 0.0735
-2 -4 5 0.1105
-5 -4 2 0.0775
-4 -5 -5 0.1178
5 4 -5 0.0965
1 1 1 0.1081
loop_
_geom_angle_atom_site_label_1
_geom_angle_atom_site_label_2
_geom_angle_atom_site_label_3
_geom_angle
_geom_angle_site_symmetry_1
_geom_angle_site_symmetry_3
_geom_angle_publ_flag
Cs02 In01 Cs02 180.0 . 97_666 ?
Cs02 In01 Cs02 109.5 . 49 ?
Cs02 In01 Cs02 70.5 97_666 25 ?
Cs02 In01 Cs02 109.5 97_666 145_565 ?
Cs02 In01 Cs02 109.471(1) 97_666 121_655 ?
Cs02 In01 Cs02 109.5 . 25 ?
Cs02 In01 Cs02 180.0 121_655 25 ?
Cs02 In01 Cs02 70.5 145_565 25 ?
Cs02 In01 Cs02 70.5 97_666 49 ?
Cs02 In01 Cs02 109.5 121_655 145_565 ?
Cs02 In01 Cs02 70.5 121_655 49 ?
Cs02 In01 Cs02 180.0 145_565 49 ?
Cs02 In01 Cs02 70.5 . 145_565 ?
Cs02 In01 Cs02 70.529(1) . 121_655 ?
Cs02 In01 Cs02 109.5 25 49 ?
Cl03 In01 Cs02 125.3 105_666 . ?
Cl03 In01 Cs02 125.3 . 121_655 ?
Cl03 In01 Cs02 54.7 105_666 49 ?
Cl03 In01 Cs02 54.7 97_666 49 ?
Cl03 In01 Cs02 125.3 97_666 25 ?
Cl03 In01 Cs02 125.3 5 25 ?
Cl03 In01 Cs02 54.7 5 . ?
Cl03 In01 Cs02 54.7 9 145_565 ?
Cl03 In01 Cs02 54.7 101_666 25 ?
Cl03 In01 Cs02 54.7 . 145_565 ?
Cl03 In01 Cs02 125.3 101_666 . ?
Cl03 In01 Cs02 125.3 97_666 145_565 ?
Cl03 In01 Cs02 54.736(1) . 25 ?
Cl03 In01 Cs02 125.3 9 49 ?
Cl03 In01 Cs02 54.7 105_666 25 ?
Cl03 In01 Cs02 125.3 9 97_666 ?
Cl03 In01 Cs02 125.3 . 49 ?
Cl03 In01 Cs02 125.3 . 97_666 ?
Cl03 In01 Cs02 125.3 105_666 145_565 ?
Cl03 In01 Cs02 125.3 105_666 121_655 ?
Cl03 In01 Cs02 54.7 105_666 97_666 ?
Cl03 In01 Cs02 54.7 9 121_655 ?
Cl03 In01 Cs02 54.7 5 49 ?
Cl03 In01 Cs02 125.3 101_666 121_655 ?
Cl03 In01 Cs02 54.7 . . ?
Cl03 In01 Cs02 54.7 5 121_655 ?
Cl03 In01 Cs02 125.3 9 25 ?
Cl03 In01 Cs02 54.7 97_666 121_655 ?
Cl03 In01 Cs02 125.3 101_666 49 ?
Cl03 In01 Cs02 125.3 5 145_565 ?
Cl03 In01 Cs02 54.7 9 . ?
Cl03 In01 Cs02 54.7 101_666 97_666 ?
Cl03 In01 Cs02 125.3 97_666 . ?
Cl03 In01 Cs02 125.3 5 97_666 ?
Cl03 In01 Cs02 54.7 101_666 145_565 ?
Cl03 In01 Cs02 54.7 97_666 97_666 ?
Cl03 In01 Cl03 90.0 105_666 97_666 ?
Cl03 In01 Cl03 90.0 105_666 . ?
Cl03 In01 Cl03 180.0 105_666 9 ?
Cl03 In01 Cl03 180.0 101_666 5 ?
Cl03 In01 Cl03 90.0 101_666 97_666 ?
Cl03 In01 Cl03 90.0 5 . ?
Cl03 In01 Cl03 90.0 105_666 101_666 ?
Cl03 In01 Cl03 90.0 105_666 5 ?
Cl03 In01 Cl03 90.0 9 . ?
Cl03 In01 Cl03 90.0 9 101_666 ?
Cl03 In01 Cl03 90.0 101_666 . ?
Cl03 In01 Cl03 90.0 9 5 ?
Cl03 In01 Cl03 90.0 5 97_666 ?
Cl03 In01 Cl03 90.0 9 97_666 ?
Cl03 In01 Cl03 180.0 97_666 . ?
Cl03 Cs02 Cl03 56.97(2) . 5 ?
Cl03 Cs02 Cl03 176.30(2) 173_556 125_655 ?
Cl03 Cs02 Cl03 120.0 53_454 129_655 ?
Cl03 Cs02 Cl03 120.0 153_565 125_655 ?
Cl03 Cs02 Cl03 120.0 . 129_655 ?
Cl03 Cs02 Cl03 120.0 153_565 169_556 ?
Cl03 Cs02 Cl03 90.060(1) 5 173_556 ?
Cl03 Cs02 Cl03 90.060(1) 53_454 125_655 ?
Cl03 Cs02 Cl03 63.01(2) 9 125_655 ?
Cl03 Cs02 Cl03 56.97(2) 129_655 125_655 ?
Cl03 Cs02 Cl03 90.060(1) 9 129_655 ?
Cl03 Cs02 Cl03 90.060(1) 81_445 129_655 ?
Cl03 Cs02 Cl03 176.30(2) 153_565 129_655 ?
Cl03 Cs02 Cl03 56.97(2) 53_454 145_565 ?
Cl03 Cs02 Cl03 56.97(2) 81_445 173_556 ?
Cl03 Cs02 Cl03 90.060(1) 53_454 173_556 ?
Cl03 Cs02 Cl03 120.0 9 53_454 ?
Cl03 Cs02 Cl03 90.060(1) 81_445 153_565 ?
Cl03 Cs02 Cl03 63.01(2) 81_445 53_454 ?
Cl03 Cs02 Cl03 120.0 25_544 153_565 ?
Cl03 Cs02 Cl03 90.060(1) . 169_556 ?
Cl03 Cs02 Cl03 120.0 9 169_556 ?
Cl03 Cs02 Cl03 176.30(2) 9 81_445 ?
Cl03 Cs02 Cl03 120.0 53_454 169_556 ?
Cl03 Cs02 Cl03 56.97(2) 173_556 169_556 ?
Cl03 Cs02 Cl03 90.060(1) . 145_565 ?
Cl03 Cs02 Cl03 63.01(2) 125_655 145_565 ?
Cl03 Cs02 Cl03 63.01(2) . 173_556 ?
Cl03 Cs02 Cl03 56.97(2) 153_565 145_565 ?
Cl03 Cs02 Cl03 120.0 173_556 145_565 ?
Cl03 Cs02 Cl03 176.30(2) 5 53_454 ?
Cl03 Cs02 Cl03 56.97(2) . 9 ?
Cl03 Cs02 Cl03 120.0 129_655 173_556 ?
Cl03 Cs02 Cl03 90.060(1) 9 153_565 ?
Cl03 Cs02 Cl03 120.0 . 125_655 ?
Cl03 Cs02 Cl03 90.060(1) 5 125_655 ?
Cl03 Cs02 Cl03 120.0 81_445 125_655 ?
Cl03 Cs02 Cl03 56.97(2) 53_454 153_565 ?
Cl03 Cs02 Cl03 120.0 5 81_445 ?
Cl03 Cs02 Cl03 56.97(2) 25_544 125_655 ?
Cl03 Cs02 Cl03 56.97(2) 81_445 169_556 ?
Cl03 Cs02 Cl03 176.30(2) . 25_544 ?
Cl03 Cs02 Cl03 90.060(1) 25_544 169_556 ?
Cl03 Cs02 Cl03 63.01(2) 5 129_655 ?
Cl03 Cs02 Cl03 63.01(2) 129_655 169_556 ?
Cl03 Cs02 Cl03 120.0 5 25_544 ?
Cl03 Cs02 Cl03 120.0 125_655 169_556 ?
Cl03 Cs02 Cl03 56.97(2) 5 9 ?
Cl03 Cs02 Cl03 120.0 5 145_565 ?
Cl03 Cs02 Cl03 120.0 9 25_544 ?
Cl03 Cs02 Cl03 120.0 81_445 145_565 ?
Cl03 Cs02 Cl03 56.97(2) 25_544 129_655 ?
Cl03 Cs02 Cl03 90.060(1) 25_544 145_565 ?
Cl03 Cs02 Cl03 63.01(2) 81_445 25_544 ?
Cl03 Cs02 Cl03 120.0 129_655 145_565 ?
Cl03 Cs02 Cl03 63.01(2) 9 145_565 ?
Cl03 Cs02 Cl03 176.30(2) 169_556 145_565 ?
Cl03 Cs02 Cl03 63.01(2) 53_454 25_544 ?
Cl03 Cs02 Cl03 120.0 . 53_454 ?
Cl03 Cs02 Cl03 120.0 9 173_556 ?
Cl03 Cs02 Cl03 120.0 25_544 173_556 ?
Cl03 Cs02 Cl03 63.01(2) . 153_565 ?
Cl03 Cs02 Cl03 120.0 5 153_565 ?
Cl03 Cs02 Cl03 120.0 . 81_445 ?
Cl03 Cs02 Cl03 63.01(2) 153_565 173_556 ?
Cl03 Cs02 Cl03 63.01(2) 5 169_556 ?
In01 Cl03 Cs02 91.849(12) . . ?
In01 Cl03 Cs02 91.849(12) . 169_556 ?
In01 Cl03 Cs02 91.849(12) . 25 ?
In01 Cl03 Cs02 91.849(12) . 145_565 ?
In01 Cl03 Na1 180.0 . . ?
Cs02 Cl03 Cs02 89.940(1) . 169_556 ?
Cs02 Cl03 Cs02 176.30(2) 145_565 169_556 ?
Cs02 Cl03 Cs02 89.940(1) . 145_565 ?
Cs02 Cl03 Cs02 176.30(2) . 25 ?
Cs02 Cl03 Cs02 89.940(1) 25 145_565 ?
Cs02 Cl03 Cs02 89.940(1) 25 169_556 ?
Na1 Cl03 Cs02 88.151(12) . 169_556 ?
Na1 Cl03 Cs02 88.151(12) . . ?
Na1 Cl03 Cs02 88.151(12) . 25 ?
Na1 Cl03 Cs02 88.151(12) . 145_565 ?
Cs02 Na1 Cs02 109.5 169_556 97_566 ?
Cs02 Na1 Cs02 70.529(1) 121 73_455 ?
Cs02 Na1 Cs02 70.529(1) 121 . ?
Cs02 Na1 Cs02 180.0 25 121 ?
Cs02 Na1 Cs02 70.5 25 169_556 ?
Cs02 Na1 Cs02 109.5 . 73_455 ?
Cs02 Na1 Cs02 109.471(1) 121 97_566 ?
Cs02 Na1 Cs02 109.5 121 169_556 ?
Cs02 Na1 Cs02 70.5 25 97_566 ?
Cs02 Na1 Cs02 109.471(1) 25 73_455 ?
Cs02 Na1 Cs02 70.5 . 169_556 ?
Cs02 Na1 Cs02 180.0 . 97_566 ?
Cs02 Na1 Cs02 70.5 97_566 73_455 ?
Cs02 Na1 Cs02 109.5 25 . ?
Cs02 Na1 Cs02 180.0 169_556 73_455 ?
Cl03 Na1 Cs02 125.3 57_455 . ?
Cl03 Na1 Cs02 54.7 173_556 169_556 ?
Cl03 Na1 Cs02 125.3 57_455 73_455 ?
Cl03 Na1 Cs02 54.7 57_455 169_556 ?
Cl03 Na1 Cs02 125.3 97_566 25 ?
Cl03 Na1 Cs02 125.3 97_566 169_556 ?
Cl03 Na1 Cs02 125.3 . 73_455 ?
Cl03 Na1 Cs02 125.3 153_565 97_566 ?
Cl03 Na1 Cs02 54.7 97_566 97_566 ?
Cl03 Na1 Cs02 54.7 153_565 121 ?
Cl03 Na1 Cs02 125.3 57_455 121 ?
Cl03 Na1 Cs02 54.7 57_455 25 ?
Cl03 Na1 Cs02 54.7 57_455 97_566 ?
Cl03 Na1 Cs02 125.3 153_565 169_556 ?
Cl03 Na1 Cs02 54.7 97_566 121 ?
Cl03 Na1 Cs02 54.7 173_556 . ?
Cl03 Na1 Cs02 54.7 . . ?
Cl03 Na1 Cs02 125.3 . 121 ?
Cl03 Na1 Cs02 54.7 97_566 73_455 ?
Cl03 Na1 Cs02 125.3 77_455 169_556 ?
Cl03 Na1 Cs02 125.3 97_566 . ?
Cl03 Na1 Cs02 125.3 77_455 121 ?
Cl03 Na1 Cs02 54.7 77_455 73_455 ?
Cl03 Na1 Cs02 125.3 . 97_566 ?
Cl03 Na1 Cs02 54.7 . 25 ?
Cl03 Na1 Cs02 54.7 153_565 . ?
Cl03 Na1 Cs02 125.3 153_565 25 ?
Cl03 Na1 Cs02 54.7 77_455 97_566 ?
Cl03 Na1 Cs02 125.3 77_455 . ?
Cl03 Na1 Cs02 54.7 77_455 25 ?
Cl03 Na1 Cs02 125.3 173_556 73_455 ?
Cl03 Na1 Cs02 125.3 173_556 25 ?
Cl03 Na1 Cs02 54.7 153_565 73_455 ?
Cl03 Na1 Cs02 125.3 173_556 97_566 ?
Cl03 Na1 Cs02 54.7 . 169_556 ?
Cl03 Na1 Cs02 54.7 173_556 121 ?
Cl03 Na1 Cl03 90.0 . 77_455 ?
Cl03 Na1 Cl03 90.0 . 57_455 ?
Cl03 Na1 Cl03 90.0 57_455 173_556 ?
Cl03 Na1 Cl03 180.0 . 97_566 ?
Cl03 Na1 Cl03 90.0 57_455 77_455 ?
Cl03 Na1 Cl03 90.0 57_455 97_566 ?
Cl03 Na1 Cl03 90.0 153_565 77_455 ?
Cl03 Na1 Cl03 90.0 . 153_565 ?
Cl03 Na1 Cl03 180.0 153_565 57_455 ?
Cl03 Na1 Cl03 90.0 153_565 97_566 ?
Cl03 Na1 Cl03 90.0 . 173_556 ?
Cl03 Na1 Cl03 90.0 153_565 173_556 ?
Cl03 Na1 Cl03 90.0 173_556 97_566 ?
Cl03 Na1 Cl03 180.0 173_556 77_455 ?
Cl03 Na1 Cl03 90.0 77_455 97_566 ?
loop_
_geom_bond_atom_site_label_1
_geom_bond_atom_site_label_2
_geom_bond_distance
_geom_bond_site_symmetry_2
_geom_bond_publ_flag
In01 Cs02 4.55274(5) . ?
In01 Cs02 4.55274(4) 97_666 ?
In01 Cs02 4.55274(5) 121_655 ?
In01 Cs02 4.55274(4) 145_565 ?
In01 Cs02 4.55274(4) 25 ?
In01 Cs02 4.55274(5) 49 ?
In01 Cl03 2.5085(8) 105_666 ?
In01 Cl03 2.5085(8) 9 ?
In01 Cl03 2.5085(8) 101_666 ?
In01 Cl03 2.5085(8) 5 ?
In01 Cl03 2.5086(8) . ?
In01 Cl03 2.5085(8) 97_666 ?
Cs02 Cl03 3.71923(5) 145_565 ?
Cs02 Cl03 3.71923(5) 125_655 ?
Cs02 Cl03 3.71923(5) . ?
Cs02 Cl03 3.71923(4) 153_565 ?
Cs02 Cl03 3.71923(5) 53_454 ?
Cs02 Cl03 3.71923(5) 5 ?
Cs02 Cl03 3.71923(5) 173_556 ?
Cs02 Cl03 3.71923(4) 129_655 ?
Cs02 Cl03 3.71923(5) 169_556 ?
Cs02 Cl03 3.71923(5) 25_544 ?
Cs02 Cl03 3.71923(4) 81_445 ?
Cs02 Cl03 3.71923(4) 9 ?
Cl03 Na1 2.7485(8) . ?
loop_
_exptl_oxdiff_crystal_face_indexfrac_h
_exptl_oxdiff_crystal_face_indexfrac_k
_exptl_oxdiff_crystal_face_indexfrac_l
_exptl_oxdiff_crystal_face_x
_exptl_oxdiff_crystal_face_y
_exptl_oxdiff_crystal_face_z
0.9975 -0.9993 -1.0041 0.0939 0.0269 0.0641
-0.9975 0.9993 1.0041 -0.0939 -0.0269 -0.0641
1.0067 0.0054 0.9932 -0.0513 -0.0107 0.0797
-1.0067 -0.0054 -0.9932 0.0513 0.0107 -0.0797
-5.0471 4.9758 -3.9827 -0.0197 0.2343 -0.4952
4.0404 -4.9812 2.9894 0.0711 -0.2236 0.4156
-1.9511 -3.9954 5.0293 -0.0660 -0.4426 0.0693
-4.9714 -4.0116 2.0495 0.0880 -0.4104 -0.1698
-4.0136 -5.0246 -4.9566 0.4817 -0.1376 -0.2220
4.9515 4.0048 -5.0505 0.0619 0.5334 0.1116
1.0027 1.0055 0.9899 -0.0966 0.0336 0.0565
