#------------------------------------------------------------------------------
#$Date: 2019-11-11 03:15:49 +0200 (Mon, 11 Nov 2019) $
#$Revision: 226238 $
#$URL: file:///home/coder/svn-repositories/cod/cif/4/00/31/4003134.cif $
#------------------------------------------------------------------------------
#
# This file is available in the Crystallography Open Database (COD),
# http://www.crystallography.net/
#
# All data on this site have been placed in the public domain by the
# contributors.
#
data_4003134
loop_
_publ_author_name
'Hodges, James M.'
'Xia, Yi'
'Malliakas, Christos D.'
'Alexander, Grant C. B.'
'Chan, Maria K. Y.'
'Kanatzidis, Mercouri G.'
_publ_section_title
;
 Two-Dimensional CsAg5Te3--xSx Semiconductors: Multi-anion Chalcogenides
 with Dynamic Disorder and Ultralow Thermal Conductivity
;
_journal_issue                   20
_journal_name_full               'Chemistry of Materials'
_journal_page_first              7245
_journal_paper_doi               10.1021/acs.chemmater.8b03306
_journal_volume                  30
_journal_year                    2018
_chemical_formula_moiety         '2(Ag2.5 Cs0.5 S Te0.5)'
_chemical_formula_sum            'Ag5 Cs S2 Te'
_chemical_formula_weight         863.98
_space_group_crystal_system      tetragonal
_space_group_IT_number           123
_space_group_name_Hall           '-P 4 2'
_space_group_name_H-M_alt        'P 4/m m m'
_audit_creation_date             2018-07-30
_audit_creation_method
;
Olex2 1.2
(compiled 2018.05.29 svn.r3508 for OlexSys, GUI svn.r5506)
;
_cell_angle_alpha                90
_cell_angle_beta                 90
_cell_angle_gamma                90
_cell_formula_units_Z            1
_cell_length_a                   4.282(3)
_cell_length_b                   4.282(3)
_cell_length_c                   11.221(5)
_cell_measurement_reflns_used    3667
_cell_measurement_temperature    100(2)
_cell_measurement_theta_max      29.981
_cell_measurement_theta_min      3.631
_cell_volume                     205.7(2)
_computing_cell_refinement       'SAINT V8.34A (Bruker, 2017)'
_computing_data_collection       'APEX2 V2017.3 (Bruker, 2017)'
_computing_data_reduction        'Bruker SAINT'
_computing_molecular_graphics    'Olex2 (Dolomanov et al., 2009)'
_computing_publication_material  'Olex2 (Dolomanov et al., 2009)'
_computing_structure_refinement  'XL (Sheldrick, 2008)'
_diffrn_ambient_temperature      100(2)
_diffrn_detector_area_resol_mean 8
_diffrn_measured_fraction_theta_full 0.993
_diffrn_measured_fraction_theta_max 0.991
_diffrn_measurement_device_type  'Bruker Kappa APEX CCD area detector'
_diffrn_measurement_method       '\w and \f scans'
_diffrn_radiation_monochromator  'MX optics'
_diffrn_radiation_type           MoK\a
_diffrn_radiation_wavelength     0.71073
_diffrn_reflns_av_R_equivalents  0.0374
_diffrn_reflns_av_unetI/netI     0.0141
_diffrn_reflns_Laue_measured_fraction_full 0.993
_diffrn_reflns_Laue_measured_fraction_max 0.991
_diffrn_reflns_limit_h_max       6
_diffrn_reflns_limit_h_min       -6
_diffrn_reflns_limit_k_max       5
_diffrn_reflns_limit_k_min       -6
_diffrn_reflns_limit_l_max       15
_diffrn_reflns_limit_l_min       -15
_diffrn_reflns_number            4092
_diffrn_reflns_point_group_measured_fraction_full 0.993
_diffrn_reflns_point_group_measured_fraction_max 0.991
_diffrn_reflns_theta_full        25.242
_diffrn_reflns_theta_max         30.128
_diffrn_reflns_theta_min         3.631
_diffrn_source                   microsource
_exptl_absorpt_coefficient_mu    19.928
_exptl_absorpt_correction_T_max  0.7460
_exptl_absorpt_correction_T_min  0.4698
_exptl_absorpt_correction_type   multi-scan
_exptl_absorpt_process_details
'SADABS-2014/5 (Bruker,2014/5) was used for absorption correction. wR2(int) was 0.1340 before and 0.0518 after correction. The Ratio of minimum to maximum transmission is 0.6298. The \l/2 correction factor is Not present.'
_exptl_crystal_colour            black
_exptl_crystal_colour_primary    black
_exptl_crystal_density_diffrn    6.972
_exptl_crystal_description       plate
_exptl_crystal_F_000             374
_exptl_crystal_size_max          0.053
_exptl_crystal_size_mid          0.048
_exptl_crystal_size_min          0.018
_refine_diff_density_max         1.273
_refine_diff_density_min         -1.365
_refine_diff_density_rms         0.198
_refine_ls_extinction_coef       0.0030(7)
_refine_ls_extinction_expression Fc^*^=kFc[1+0.001xFc^2^\l^3^/sin(2\q)]^-1/4^
_refine_ls_extinction_method     'SHELXL-2014/7 (Sheldrick 2014'
_refine_ls_goodness_of_fit_ref   1.307
_refine_ls_hydrogen_treatment    undef
_refine_ls_matrix_type           full
_refine_ls_number_parameters     15
_refine_ls_number_reflns         227
_refine_ls_number_restraints     0
_refine_ls_restrained_S_all      1.307
_refine_ls_R_factor_all          0.0153
_refine_ls_R_factor_gt           0.0153
_refine_ls_shift/su_max          0.000
_refine_ls_shift/su_mean         0.000
_refine_ls_structure_factor_coef Fsqd
_refine_ls_weighting_details
'w=1/[\s^2^(Fo^2^)+(0.0182P)^2^+0.5822P] where P=(Fo^2^+2Fc^2^)/3'
_refine_ls_weighting_scheme      calc
_refine_ls_wR_factor_gt          0.0421
_refine_ls_wR_factor_ref         0.0421
_reflns_Friedel_coverage         0.000
_reflns_number_gt                227
_reflns_number_total             227
_reflns_threshold_expression     'I > 2\s(I)'
_cod_data_source_file            cm8b03306_si_003.cif
_cod_data_source_block           csag5tes2_100k
_cod_original_cell_volume        205.8(3)
_cod_database_code               4003134
_shelx_shelxl_version_number     2014/7
_shelx_space_group_comment
;
The symmetry employed for this shelxl refinement is uniquely defined
by the following loop, which should always be used as a source of
symmetry information in preference to the above space-group names.
They are only intended as comments.
;
_shelx_estimated_absorpt_t_max   0.716
_shelx_estimated_absorpt_t_min   0.418
_olex2_refinement_description
;
;
_shelx_res_file
;
    csag5tes2_100k.res created by SHELXL-2014/7

TITL lt_a.res in P4/mmm
REM Old TITL LT in P4/mmm
REM SHELXT solution in P4/mmm
REM R1 0.050, Rweak 0.015, Alpha 0.023, Orientation as input
REM Formula found by SHELXT: S2 Te5 Cs2
CELL 0.71073 4.2822 4.2822 11.2211 90 90 90
ZERR 1 0.003 0.003 0.0052 0 0 0
LATT 1
SYMM -X,-Y,+Z
SYMM -Y,+X,+Z
SYMM +Y,-X,+Z
SYMM -X,+Y,-Z
SYMM +X,-Y,-Z
SYMM +Y,+X,-Z
SYMM -Y,-X,-Z
SFAC Ag Cs S Te
UNIT 5 1 2 1

L.S. 4
PLAN  20
SIZE 0.018 0.048 0.053
TEMP -173(2)
list 4
fmap 2
acta
REM <olex2.extras>
REM <HklSrc "%.\\CsAg5TeS2_100K.hkl">
REM </olex2.extras>

WGHT    0.018200    0.582200
EXTI    0.002953
FVAR       0.38483
CS1   2    0.500000    0.500000    0.500000    10.06250    0.01141    0.01141 =
         0.01080    0.00000    0.00000    0.00000
TE1   4    0.500000    0.500000    0.000000    10.06250    0.01634    0.01634 =
         0.00888    0.00000    0.00000    0.00000
AG1   1    0.000000    0.000000    0.000000    10.06250    0.00959    0.00959 =
         0.01262    0.00000    0.00000    0.00000
AG2   1    0.000000    0.500000    0.196198    10.25000    0.01586    0.00795 =
         0.01302    0.00000    0.00000    0.00000
S1    3    0.000000    0.000000    0.320729    10.12500    0.00606    0.00606 =
         0.00919    0.00000    0.00000    0.00000
HKLF 4

REM  lt_a.res in P4/mmm
REM R1 =  0.0153 for     227 Fo > 4sig(Fo)  and  0.0153 for all     227 data
REM     15 parameters refined using      0 restraints

END

WGHT      0.0182      0.5822

REM Highest difference peak  1.273,  deepest hole -1.365,  1-sigma level  0.198
Q1    1   0.0000  0.5000  0.2510  10.25000  0.05    1.27
Q2    1   0.5000  0.5000  0.4406  10.12500  0.05    1.07
Q3    1   0.5000  0.5000  0.0529  10.12500  0.05    1.06
Q4    1   0.0000  0.0000  0.0492  10.12500  0.05    1.00
Q5    1   0.0000  0.5000  0.1398  10.25000  0.05    0.84
Q6    1   0.5000  0.5000  0.3417  10.12500  0.05    0.66
Q7    1   0.3623  0.3623  0.0807  10.50000  0.05    0.54
Q8    1   0.1090  0.1090  0.5000  10.25000  0.05    0.48
Q9    1   0.3868  0.3868  0.4179  10.50000  0.05    0.48
Q10   1   0.2704  0.2704  0.0000  10.25000  0.05    0.47
Q11   1   0.1261  0.1261  0.0892  10.50000  0.05    0.45
Q12   1   0.5000  0.3056  0.5000  10.25000  0.05    0.41
Q13   1  -0.1387  0.3442  0.2771  11.00000  0.05    0.38
Q14   1   0.0000  0.1486  0.5000  10.25000  0.05    0.36
Q15   1  -0.1777  0.3518  0.1176  11.00000  0.05    0.36
Q16   1   0.1122  0.1122  0.3924  10.50000  0.05    0.35
Q17   1   0.2413  0.2413  0.3166  10.50000  0.05    0.35
Q18   1   0.2480  0.2480  0.1963  10.50000  0.05    0.31
Q19   1   0.2589  0.2589  0.5000  10.25000  0.05    0.30
Q20   1   0.5000  0.2459  0.0000  10.25000  0.05    0.27
;
_shelx_res_checksum              30158
_shelx_hkl_file
;
   1   0   0   81.09    4.30
   1   0   0   86.19    4.00
   0  -1   0   89.09    4.10
   0  -1   0   89.79    4.20
   0  -1   0   86.19    4.20
  -1   0   0   88.29    4.00
  -1   0   0   78.29    4.30
   1   1   0    2.00    0.30
  -1  -1   0    1.10    0.30
  -1  -1   0    1.80    0.30
  -1   1   0    1.30    0.30
   1  -1   0    1.70    0.40
  -1   1   0    1.80    0.50
   1  -1   0    1.30    0.30
   1  -2   0   51.09    2.70
  -2  -1   0   48.30    2.60
   2   1   0   44.70    2.90
  -2  -1   0   48.20    2.60
  -2  -1   0   48.00    2.90
  -1   2   0   50.09    2.60
  -2  -1   0   47.00    2.80
   0  -2   0 8654.43  418.96
   2   0   0 9190.88  416.06
   2   0   0 9999.00  415.96
  -2   0   0 8828.42  419.66
  -2   0   0 9568.34  415.96
   0  -2   0 8645.13  417.06
   2   0   0 9180.48  415.26
   2   0   0 8861.81  419.66
  -2   0   0 9425.36  416.56
  -2   0   0 9814.62  416.86
  -2   1   0   50.99    3.30
  -1  -2   0   51.79    3.10
   2  -1   0   51.39    2.60
  -2   1   0   52.69    2.70
  -1  -2   0   48.50    3.00
  -1  -2   0   52.89    2.90
   2  -1   0   49.20    2.70
  -2   1   0   48.90    2.70
  -2   1   0   52.19    2.80
   1   2   0   49.40    2.50
   2  -1   0   51.09    2.50
   2  -1   0   49.70    3.30
  -1  -2   0   50.59    2.70
   2  -2   0 6641.14  297.97
  -2   2   0 6852.31  297.37
  -2   2   0 6485.45  297.57
  -2   2   0 6282.77  297.07
   2   2   0 6447.35  298.47
  -2  -2   0 6445.06  299.27
  -2   2   0 6377.76  298.47
  -2   2   0 6905.61  301.07
  -2  -2   0 6687.93  298.67
  -2  -2   0 6662.43  299.47
  -2   3   0   41.10    2.50
  -2   3   0   42.30    2.50
  -2   3   0   38.30    2.50
  -2   3   0   40.10    3.00
  -3  -2   0   37.30    2.60
  -3  -2   0   39.00    2.90
   2  -3   0   39.90    2.60
   1  -3   0    1.40    0.60
  -1   3   0    1.10    0.50
  -3  -1   0    3.00    0.60
  -3  -1   0    1.00    0.50
  -1   3   0    1.30    0.40
   1  -3   0    1.00    0.40
  -1   3   0    1.10    0.40
   3   1   0    1.10    0.70
   1  -3   0    1.70    0.60
  -3  -1   0    0.90    0.50
   0  -3   0   71.29    4.10
  -3   0   0   62.99    3.60
   3   0   0   65.49    3.50
  -3   0   0   72.39    3.70
  -3   0   0   75.09    4.00
   3   0   0   69.79    3.50
   0  -3   0   67.99    3.70
   3   0   0   60.69    3.30
   0  -3   0   66.59    4.10
   0   3   0   72.09    3.60
  -3   0   0   58.59    3.40
   0  -3   0   67.59    4.00
  -1  -3   0    0.80    0.50
   3  -1   0    0.90    0.40
  -1  -3   0    1.00    0.60
  -1  -3   0    0.90    0.40
  -3   1   0    0.70    0.60
  -3   1   0    0.70    0.50
   1   3   0    1.90    0.40
  -1  -3   0    2.50    0.70
   3  -1   0    1.20    0.40
  -3   1   0    2.20    0.60
  -3   1   0    1.10    0.40
  -3   1   0    0.60    0.30
   3  -1   0    1.40    0.30
   3  -2   0   37.10    2.50
  -2  -3   0   36.90    2.90
  -3   2   0   38.50    2.50
  -3   2   0   39.10    2.60
  -2  -3   0   38.00    2.70
  -2  -3   0   37.20    2.80
  -3   2   0   36.90    2.40
  -3   2   0   38.20    2.70
  -3   2   0   37.30    2.30
  -3   3   0    0.10    0.60
  -3   3   0    0.90    0.50
  -3   3   0    0.30    0.50
   3  -3   0    1.00    0.60
  -3   3   0    0.90    0.60
  -3  -3   0    0.50    0.60
  -3  -3   0    0.30    0.60
   3  -4   0    9.10    1.90
   3  -4   0    4.90    1.10
  -4  -3   0    5.00    1.50
  -4  -3   0    5.70    1.30
  -3   4   0    4.40    1.00
  -3   4   0    4.80    1.10
  -3   4   0    5.20    1.10
   2  -4   0 3025.80  138.29
  -4  -2   0 3111.69  140.09
   2  -4   0 3047.60  139.09
  -2   4   0 3005.90  138.19
  -2   4   0 3096.79  137.99
  -4  -2   0 3006.80  138.39
   1  -4   0    7.90    1.30
  -1   4   0    9.00    1.00
   4   1   0   10.80    1.00
  -4  -1   0    7.90    1.30
   1  -4   0    9.00    1.40
   1  -4   0   10.30    1.20
  -4  -1   0    6.80    1.10
  -4   0   0 3840.62  169.38
  -4   0   0 3764.72  169.08
   0  -4   0 3735.33  170.68
   4   0   0 3820.42  168.38
   0   4   0 4043.70  170.48
  -4   0   0 3493.25  168.88
   0  -4   0 3826.62  171.08
   0  -4   0 3718.43  170.68
   0  -4   0 3312.27  169.58
   4   0   0 3820.02  168.68
   4  -1   0    7.70    0.90
   4  -1   0    6.90    0.70
  -4   1   0    8.10    1.30
  -1  -4   0    9.10    1.40
   4  -1   0    7.00    1.00
  -1  -4   0    7.50    1.00
  -4   1   0    6.70    1.10
  -1  -4   0    8.90    1.50
  -4   1   0    6.60    1.00
  -4   1   0    8.20    1.60
  -2  -4   0 2982.50  134.19
  -4   2   0 2916.41  133.19
  -4   2   0 2945.31  133.19
  -4   2   0 2891.61  133.59
  -2  -4   0 3028.40  133.99
   4  -2   0 2724.33  133.19
  -4   2   0 3048.20  133.39
  -4   2   0 2983.60  133.79
   4  -3   0    6.70    1.30
  -4   3   0    2.90    1.00
  -4   3   0    6.90    1.60
  -3  -4   0   10.00    2.10
  -3  -4   0    5.90    1.60
  -4   3   0    4.40    1.10
  -4   3   0    7.50    1.40
  -4   3   0    7.80    1.20
   4  -4   0 1598.74   72.99
  -4  -4   0 1580.14   73.89
  -4   4   0 1618.94   72.89
  -4   4   0 1570.44   72.79
  -4   4   0 1562.84   72.99
  -3   5   0    0.40    0.70
  -3   5   0    0.30    0.90
  -5  -3   0    0.40    0.80
   3  -5   0    0.70    0.80
   3  -5   0    1.10    1.00
   5   2   0   19.10    1.70
   2  -5   0   19.90    2.50
   2  -5   0   23.60    2.20
  -5  -2   0   21.80    2.20
  -2   5   0   20.70    2.00
   1  -5   0    1.90    0.90
   1  -5   0    2.80    0.80
  -5  -1   0    6.40    1.50
  -1   5   0    2.20    0.80
  -5  -1   0    2.90    0.80
   5   1   0    2.40    0.80
   0  -5   0   35.30    3.10
   5   0   0   29.70    2.00
  -5   0   0   29.50    2.50
   0  -5   0   33.00    3.10
   0  -5   0   38.00    2.70
   5   0   0   32.00    2.20
  -5   0   0   33.20    2.80
  -5   0   0   30.20    2.90
  -5   1   0    1.20    0.90
  -5   1   0    1.30    1.10
  -1  -5   0    3.90    1.40
   5  -1   0    3.00    0.60
  -5   1   0    2.10    0.70
  -1  -5   0    4.10    1.30
  -5   2   0   20.60    2.30
  -2  -5   0   21.50    2.70
  -5   2   0   16.70    1.80
  -5   2   0   16.70    2.70
  -2  -5   0   21.10    2.40
  -3  -5   0    2.00    1.10
  -5   3   0    0.00    0.70
  -5   3   0    0.70    1.00
  -5   3   0    0.80    0.60
  -3  -5   0    1.00    1.20
   5  -3   0    1.40    0.90
  -5   3   0   -0.30    1.20
  -6   0   0 1235.58   60.39
   0  -6   0 1392.86   61.39
   6   0   0 1343.97   59.59
   6   0   0 1294.77   59.69
  -6   0   0 1245.78   60.29
  -1   0  -1  161.88    6.90
   0  -1  -1  128.89    7.00
   1   0  -1  141.89    7.20
   0   1  -1  165.98    6.90
   0   1  -1  160.78    7.00
  -1   0  -1  137.29    7.10
   1   0  -1  133.89    6.70
   0  -1  -1  147.49    7.00
   0  -1  -1  139.19    6.90
   1   0   1  135.89    6.70
  -1   0   1  142.39    7.20
   0  -1   1  141.89    7.00
  -1   0   1  148.29    6.80
   0  -1   1  157.08    7.00
   1   0   1  149.59    7.20
   0  -1   1  170.78    7.10
   0  -1   1  148.09    6.80
   1   0   1  149.09    6.90
  -1   1  -1  108.29    5.00
   1   1  -1   99.29    5.10
  -1  -1  -1   99.49    5.00
  -1  -1  -1  111.59    5.10
   1  -1  -1  101.49    4.80
   1  -1  -1  103.49    5.40
  -1   1  -1  110.69    4.90
   1  -1  -1  100.19    5.00
  -1  -1  -1   96.09    5.10
  -1   1  -1  106.99    5.40
  -1   1  -1   91.29    5.00
  -1  -1   1  110.89    5.00
   1  -1   1  108.09    5.00
   1   1   1  101.39    5.10
  -1   1   1  106.59    5.00
   1  -1   1  110.09    5.40
  -1  -1   1  106.29    5.20
  -1   1   1  109.89    5.40
  -2  -1  -1  113.89    5.40
  -2  -1  -1  103.69    5.50
  -1   2  -1  106.59    5.30
  -1   2  -1  120.49    5.80
  -1   2  -1  112.29    5.40
  -2  -1  -1  104.59    5.60
   1  -2  -1  102.99    5.50
   2   1  -1   95.29    5.60
   1  -2  -1  104.39    5.40
  -2  -1   1  111.49    5.60
  -1   2   1  119.49    5.70
  -2  -1   1  109.89    5.80
   1  -2   1  109.79    5.70
  -2  -1   1  114.09    5.40
  -1   2   1  103.89    5.20
   1  -2   1  111.19    5.40
  -2  -1   1  102.59    5.40
   2   1   1  107.69    5.70
  -2   0  -1  653.03   28.70
   0   2  -1  673.53   28.60
   2   0  -1  664.63   28.50
   0  -2  -1  649.14   28.70
  -2   0  -1  614.04   29.30
   0  -2  -1  664.43   29.10
   2   0  -1  585.34   28.50
   0  -2  -1  609.64   28.80
  -2   0  -1  584.64   28.50
   0  -2  -1  629.14   29.00
   0  -2  -1  606.14   29.00
   2   0  -1  594.64   29.30
  -2   0  -1  650.73   28.70
   2   0  -1  608.54   28.40
  -2   0   1  590.84   29.20
   2   0   1  661.03   28.60
  -2   0   1  633.84   28.70
   0  -2   1  641.64   29.00
   0  -2   1  641.44   28.70
  -2   0   1  660.53   28.80
   0  -2   1  619.84   28.90
   0  -2   1  631.84   29.00
   2   0   1  570.04   29.10
   2   0   1  687.83   28.60
   2   0   1  591.04   28.40
  -2   0   1  620.94   28.90
  -1  -2  -1  101.59    5.60
  -1  -2  -1  112.89    5.50
  -2   1  -1  109.69    5.90
  -2   1  -1  114.39    5.20
   2  -1  -1   98.19    5.20
  -2   1  -1  114.39    5.30
  -2   1  -1  104.99    5.30
   1   2  -1  110.09    5.10
   2  -1  -1  105.09    5.10
  -1  -2  -1  106.59    5.30
  -1  -2  -1  106.79    5.50
   2  -1  -1  104.49    5.00
   2  -1  -1  109.99    5.90
  -2   1  -1   96.09    5.20
   2  -1   1  111.89    5.90
  -1  -2   1  108.99    5.60
   2  -1   1  110.69    5.10
  -2   1   1  105.99    5.20
   1   2   1   96.29    5.00
  -1  -2   1  100.29    5.10
  -2   1   1  109.39    5.30
  -2   1   1  104.39    5.40
  -2   1   1  110.59    5.40
  -1  -2   1   98.79    5.50
  -2   1   1  106.99    5.90
   2  -1   1  105.39    5.30
   2  -2  -1  427.36   19.80
  -2  -2  -1  421.66   20.10
  -2   2  -1  419.76   19.70
  -2   2  -1  406.96   19.60
  -2   2  -1  437.96   19.70
  -2  -2  -1  432.26   20.00
  -2  -2  -1  427.16   19.90
   2   2  -1  396.46   19.80
  -2   2  -1  443.06   20.50
  -2   2  -1  437.36   19.50
  -2  -2   1  429.16   20.10
  -2  -2   1  420.36   20.10
   2   2   1  400.86   19.70
  -2  -2   1  422.36   19.70
  -2   2   1  416.36   19.60
  -2   2   1  447.66   19.70
   2  -2   1  426.16   19.70
  -2   2   1  416.76   20.40
  -2   3  -1   54.09    3.30
  -3  -2  -1   51.99    3.60
  -3  -2  -1   56.59    3.50
   3   2  -1   54.69    3.60
  -2   3  -1   66.99    4.10
   2  -3  -1   57.39    3.40
  -2   3  -1   51.39    3.20
  -2   3  -1   55.89    3.00
   3   2   1   52.09    3.50
  -2   3   1   62.59    4.00
  -3  -2   1   59.39    3.40
   2  -3   1   52.89    3.30
  -3  -2   1   52.19    3.60
   2  -3   1   59.19    3.80
  -2   3   1   57.19    3.20
  -3  -1  -1   45.00    2.80
   3   1  -1   49.99    2.50
  -3  -1  -1   42.60    2.80
  -1   3  -1   43.90    2.60
  -3  -1  -1   49.20    2.90
   1  -3  -1   46.50    2.90
   1  -3  -1   49.80    3.30
   1  -3  -1   44.10    3.00
  -1   3  -1   46.70    3.00
  -1   3  -1   43.70    2.70
  -1   3   1   52.89    3.10
  -3  -1   1   43.30    3.00
   3   1   1   45.40    3.80
   1  -3   1   50.89    3.20
   3   1   1   49.10    2.60
  -3  -1   1   49.90    2.80
   1  -3   1   46.40    2.80
   1  -3   1   43.20    2.90
  -3  -1   1   47.20    2.90
   3   1   1   48.70    2.60
   0  -3  -1   67.69    3.70
  -3   0  -1   61.29    3.30
   0   3  -1   68.99    3.50
  -3   0  -1   68.99    3.60
  -3   0  -1   70.99    3.70
   3   0  -1   61.79    3.20
   0  -3  -1   62.09    4.00
   3   0  -1   66.29    3.40
   0  -3  -1   58.79    3.90
   3   0  -1   61.09    3.30
   0  -3  -1   66.29    3.70
   0  -3  -1   71.29    4.10
  -3   0  -1   67.09    3.80
  -3   0   1   61.09    3.50
   3   0   1   68.79    3.40
   3   0   1   66.09    3.50
   0  -3   1   68.69    4.00
   0  -3   1   63.89    3.90
   0  -3   1   71.89    4.00
  -3   0   1   67.09    3.70
   3   0   1   61.19    3.20
  -3   0   1   64.89    3.90
   0   3   1   70.69    3.50
   0  -3   1   65.49    3.60
   3  -1  -1   47.20    2.40
   1   3  -1   45.50    2.50
  -3   1  -1   45.80    2.90
  -3   1  -1   44.50    2.80
  -1  -3  -1   43.80    3.20
  -3   1  -1   47.10    2.70
  -1  -3  -1   47.10    3.20
  -3   1  -1   42.30    2.60
   3  -1  -1   44.60    2.50
  -1  -3  -1   50.29    3.20
   3  -1  -1   42.00    2.60
  -1  -3  -1   47.00    2.70
  -3   1   1   47.40    2.80
   3  -1   1   45.00    2.40
   3  -1   1   46.50    2.50
  -1  -3   1   47.20    3.10
  -3   1   1   47.30    3.00
   1   3   1   49.10    2.50
  -3   1   1   44.70    2.70
   3  -1   1   45.60    2.70
  -3   1   1   48.00    3.10
  -1  -3   1   42.90    3.10
  -1  -3   1   44.70    2.60
  -3   2  -1   53.89    3.10
  -3   2  -1   55.99    3.40
  -2  -3  -1   51.89    3.70
  -3   2  -1   55.19    3.30
   3  -2  -1   55.19    3.20
  -3   2  -1   52.99    3.20
  -2  -3  -1   54.29    3.60
  -2  -3  -1   55.79    3.60
  -2  -3   1   55.49    3.60
  -2  -3   1   54.59    3.80
  -2  -3   1   54.59    3.40
  -3   2   1   56.39    3.60
  -3   2   1   55.49    3.40
  -3   2   1   56.09    3.20
  -3   2   1   55.09    3.30
   3  -2   1   54.29    3.30
  -3  -3  -1   31.10    2.60
   3  -3  -1   29.70    2.30
  -3  -3  -1   30.90    2.70
   3   3  -1   27.20    2.10
  -3   3  -1   31.70    2.40
  -3   3  -1   28.40    2.30
  -3   3  -1   32.60    2.40
  -3  -3  -1   30.30    2.80
  -3   3  -1   34.30    2.10
  -3   3   1   31.10    2.70
  -3   3   1   29.20    2.40
   3  -3   1   31.90    2.40
  -3   3   1   30.00    2.30
  -3   3   1   32.70    2.30
  -3   3   1   32.20    2.10
  -3  -3   1   32.50    2.90
  -3  -3   1   32.30    2.50
  -3   4  -1   35.20    2.80
  -4  -3  -1   35.90    3.30
   3  -4  -1   39.90    3.00
  -3   4  -1   40.10    2.90
  -3   4  -1   36.30    2.80
  -4  -3  -1   39.50    3.20
  -3   4   1   40.40    2.60
  -4  -3   1   37.20    3.30
  -3   4   1   36.60    2.80
  -3   4   1   40.80    2.90
  -4  -3   1   41.60    3.10
   3  -4   1   40.30    3.00
  -3   4   1   38.10    2.70
   3  -4   1   35.10    3.20
   2  -4  -1  166.38    9.50
  -2   4  -1  183.98    8.80
  -4  -2  -1  165.98    8.90
   2  -4  -1  166.58    8.80
  -2   4  -1  177.58    8.50
  -2   4   1  171.38    8.70
   2  -4   1  164.68    8.70
   2  -4   1  169.58    9.30
  -4  -2   1  167.28    9.10
  -4  -2   1  157.38    8.70
  -1   4  -1   61.89    3.50
   1  -4  -1   58.69    3.90
   1  -4  -1   56.09    4.00
  -4  -1  -1   55.69    3.60
  -4  -1  -1   58.19    3.60
   4   1  -1   60.09    3.20
   1  -4  -1   59.09    3.60
   1  -4  -1   61.29    4.20
  -1   4  -1   57.29    3.50
  -4  -1   1   55.09    3.70
   1  -4   1   59.69    3.60
  -1   4   1   60.19    3.50
   1  -4   1   58.49    3.90
   1  -4   1   59.59    4.10
  -4  -1   1   55.99    3.60
  -4  -1   1   57.09    3.90
   4   1   1   58.09    3.20
   1  -4   1   55.39    4.00
   4   0  -1  206.08   10.40
  -4   0  -1  218.28   11.00
   4   0  -1  218.18   10.60
  -4   0  -1  215.78   11.00
   0  -4  -1  244.38   11.20
   0  -4  -1  212.78   11.50
  -4   0  -1  214.28   11.30
   0  -4  -1  204.78   11.50
   0   4  -1  228.58   10.80
   0  -4  -1  235.28   11.10
  -4   0   1  204.58   10.90
   0  -4   1  232.78   11.60
   0  -4   1  231.38   11.60
   4   0   1  218.88   10.40
   0  -4   1  229.18   11.70
   0  -4   1  229.58   11.00
   4   0   1  231.38   10.70
  -4   0   1  220.28   11.10
   0   4   1  239.08   10.80
  -4   0   1  226.18   11.40
  -4   1  -1   65.39    3.80
   4  -1  -1   59.09    3.30
  -1  -4  -1   65.19    4.30
  -4   1  -1   59.99    3.60
   4  -1  -1   59.79    3.10
  -1  -4  -1   59.99    3.60
  -1  -4  -1   56.49    4.00
  -4   1  -1   60.29    4.00
  -1  -4   1   56.69    4.10
  -4   1   1   61.69    3.70
  -1  -4   1   65.49    4.20
   4  -1   1   55.79    3.40
  -4   1   1   57.29    3.50
   4  -1   1   56.69    3.30
  -4   1   1   58.69    4.00
   4  -1   1   57.79    3.10
  -4   1   1   54.49    3.40
   4  -2  -1  150.28    8.40
  -4   2  -1  182.58    9.20
  -4   2  -1  169.48    8.40
  -2  -4  -1  170.78    9.10
  -4   2  -1  168.18    8.60
  -2  -4  -1  181.18    9.50
  -4   2  -1  164.68    8.40
  -4   2  -1  163.58    8.80
  -4   2   1  151.58    8.40
  -4   2   1  167.18    9.00
  -2  -4   1  158.48    9.00
  -2  -4   1  171.28    9.30
   4  -2   1  166.48    8.50
  -4   2   1  159.48    8.60
  -4   2   1  163.08    8.40
  -4   2   1  158.58    8.80
  -4   3  -1   40.80    2.70
  -4   3  -1   35.50    3.00
  -3  -4  -1   39.20    3.50
  -4   3  -1   40.60    3.40
  -4   3  -1   40.90    3.00
  -4   3  -1   36.30    2.80
  -3  -4  -1   38.70    3.40
   4  -3  -1   39.00    2.90
  -4   3   1   30.20    2.90
  -4   3   1   37.20    3.30
  -4   3   1   41.10    2.90
   4  -3   1   43.00    3.00
  -4   3   1   37.20    2.90
  -3  -4   1   39.40    3.50
  -3  -4   1   37.50    3.40
  -4   3   1   38.80    2.70
   4  -4  -1   86.59    5.40
  -4   4  -1   85.99    5.30
  -4  -4  -1   94.99    6.30
  -4   4  -1   78.29    5.40
  -4   4  -1   91.19    5.40
  -4   4   1   81.09    5.40
  -4   4   1   85.89    5.30
   4  -4   1   85.39    5.40
  -4  -4   1   84.99    6.00
  -4   4   1   90.89    5.10
  -4   4   1   80.59    5.30
   3  -5  -1   17.90    2.10
  -3   5  -1   15.80    2.10
  -5  -3  -1   16.60    2.40
   3  -5  -1   15.50    2.40
  -3   5  -1   13.80    1.90
   3  -5   1   14.40    2.00
  -3   5   1   17.40    2.20
   3  -5   1   18.20    2.60
  -3   5   1   14.80    1.90
   2  -5  -1   26.80    2.30
  -2   5  -1   23.90    2.10
   5   2  -1   23.90    1.80
   2  -5  -1   24.10    2.80
  -5  -2  -1   21.40    2.30
  -2   5   1   21.60    2.10
   2  -5   1   23.50    2.30
   5   2   1   21.50    1.80
   2  -5   1   22.60    2.60
  -5  -2   1   26.10    2.40
  -1   5  -1   22.50    2.00
   5   1  -1   24.40    1.90
  -5  -1  -1   27.80    3.00
   1  -5  -1   22.60    2.10
  -5  -1  -1   22.10    2.10
   1  -5  -1   23.40    2.60
   1  -5   1   24.60    2.20
   1  -5   1   23.30    2.50
  -1   5   1   25.20    2.10
  -5  -1   1   23.90    2.20
   5   1   1   21.20    1.90
  -5   0  -1   27.40    2.50
   0  -5  -1   24.00    2.20
   5   0  -1   25.30    1.90
   0  -5  -1   28.80    2.80
   0  -5  -1   27.70    2.70
  -5   0  -1   26.00    2.30
   5   0  -1   27.80    1.80
  -5   0  -1   25.20    2.60
  -5   0   1   23.50    2.20
  -5   0   1   26.10    2.50
   5   0   1   28.50    1.80
   0  -5   1   30.00    2.30
   0  -5   1   27.10    2.70
   5   0   1   24.50    1.90
   0  -5   1   30.40    2.80
  -5   0   1   24.50    2.70
  -5   1  -1   22.00    2.70
  -5   1  -1   21.90    2.10
   5  -1  -1   25.40    1.70
  -1  -5  -1   22.20    2.70
  -5   1  -1   22.80    2.40
  -1  -5  -1   23.70    2.50
  -5   1   1   27.60    2.50
  -5   1   1   25.80    2.90
  -5   1   1   21.90    2.10
  -1  -5   1   23.00    2.50
  -1  -5   1   22.10    2.70
  -2  -5  -1   25.50    2.90
  -2  -5  -1   25.60    2.70
  -5   2  -1   20.20    2.80
  -5   2  -1   23.20    2.20
  -5   2  -1   24.40    2.60
  -5   2   1   25.40    2.20
  -5   2   1   23.80    2.50
  -2  -5   1   25.90    2.70
  -2  -5   1   23.80    2.80
  -5   2   1   22.00    2.80
  -5   3  -1   18.30    3.00
  -3  -5  -1   17.70    2.40
  -5   3  -1   20.90    2.00
  -3  -5  -1   17.70    2.80
  -5   3  -1   14.40    2.30
  -5   3  -1   14.10    1.90
  -3  -5   1   19.90    2.80
  -5   3   1   16.70    2.30
  -3  -5   1   16.20    2.40
   5  -3   1   14.90    2.00
  -5   3   1   16.40    2.00
  -5   3   1   19.50    2.00
   0  -6  -1   79.79    5.70
  -6   0  -1   73.29    4.80
   0  -6  -1   75.49    6.00
  -6   0   1   57.69    4.90
  -6   0   1   64.39    5.20
   0  -6   1   82.09    5.60
   6   0   1   65.59    4.20
  -6   0   1   66.59    4.70
   0   0  -2   20.00    1.50
  -1   0  -2  630.84   29.90
  -1   0  -2  696.23   29.60
   1   0  -2  585.74   29.40
   0  -1  -2  590.44   29.70
   0   1  -2  670.13   29.50
   0  -1  -2  656.03   29.60
   0  -1  -2  628.24   29.70
   0   1  -2  751.72   30.10
   1   0   2  696.73   29.70
   0  -1   2  682.03   30.20
   1   0   2  622.64   29.90
   0  -1   2  620.34   29.50
   0  -1   2  640.34   29.60
   0  -1   2  644.24   29.60
   1  -1  -2 7169.28  310.07
  -1   1  -2 6940.31  307.37
   1   1  -2 7128.79  307.67
  -1  -1  -2 6892.91  308.77
  -1  -1  -2 6077.39  307.67
  -1   1  -2 6876.21  310.57
  -1   1  -2 7340.97  307.07
   1  -1  -2 6482.55  306.47
   1  -1  -2 6052.19  307.57
  -1  -1  -2 7057.89  307.87
  -1   1  -2 6290.67  307.67
   1  -1   2 7008.50  308.17
  -1   1   2 6974.50  307.37
   1  -1   2 6462.65  307.67
  -1   1   2 6762.62  310.37
   1  -1   2 7343.37  311.07
  -2  -1  -2  359.86   19.00
  -1   2  -2  406.96   18.80
   2   1  -2  384.36   18.50
   1  -2  -2  398.26   19.10
  -2  -1  -2  416.46   19.30
  -1   2  -2  462.05   19.40
   1  -2  -2  420.76   19.00
  -2  -1  -2  409.86   19.00
  -1   2  -2  412.46   18.90
   2   1  -2  399.46   19.30
  -2  -1   2  409.56   18.80
  -2  -1   2  400.76   18.90
   2   1   2  394.16   19.20
  -2  -1   2  378.36   19.10
  -1   2   2  450.15   19.30
   1  -2   2  406.26   19.10
   1  -2   2  423.86   18.90
   2   0  -2    8.90    1.10
   0  -2  -2    7.60    0.90
  -2   0  -2    8.70    1.10
   0   2  -2    9.00    0.70
   2   0  -2    8.90    0.60
   0   2  -2   10.80    0.90
  -2   0  -2    8.90    0.80
  -2   0  -2    9.30    0.80
   0  -2  -2   11.90    1.10
   0  -2  -2    9.00    0.90
   2   0  -2    9.60    0.70
  -2   0  -2    6.80    0.60
   0  -2  -2    9.20    1.00
  -2   0   2   10.60    1.10
   0  -2   2   11.90    1.10
   0  -2   2    8.30    0.90
   0  -2   2    8.30    0.70
   2   0   2    7.50    1.10
   2   0   2    9.00    0.60
  -2   0   2    8.60    0.90
   2   0   2    9.40    0.70
  -2   0   2    8.30    1.10
   2  -1  -2  394.36   18.40
  -1  -2  -2  388.06   19.00
  -1  -2  -2  363.66   19.10
  -2   1  -2  401.36   19.50
  -2   1  -2  389.56   18.70
  -1  -2  -2  414.26   18.90
   2  -1  -2  404.16   19.50
  -2   1  -2  436.36   18.70
  -2   1  -2  412.06   18.80
  -2   1  -2  356.96   18.60
   2  -1  -2  368.56   18.70
  -1  -2  -2  414.76   19.10
  -1  -2   2  425.16   19.10
   2  -1   2  430.56   18.60
   2  -1   2  428.26   19.50
  -2   1   2  414.56   19.00
  -2   1   2  406.66   19.50
  -1  -2   2  387.56   19.00
   2  -1   2  427.06   18.80
  -2   1   2  400.26   18.70
  -2   1   2  449.46   19.00
  -2   2  -2    4.50    0.70
  -2   2  -2    4.40    1.10
  -2   2  -2    4.20    0.50
   2  -2  -2    4.30    0.70
   2   2  -2    4.50    0.70
  -2   2  -2    3.30    0.70
  -2  -2  -2    3.40    0.90
  -2  -2  -2    3.80    0.80
  -2  -2  -2    3.70    0.80
  -2   2  -2    4.10    0.70
  -2   2   2    4.70    1.10
   2  -2   2    4.00    0.70
  -2   2   2    5.10    0.90
  -2  -2   2    6.70    0.70
  -2  -2   2    6.70    1.00
  -2   2   2    4.40    0.70
   2   2   2    3.40    0.70
  -2   2   2    4.10    0.70
  -3  -2  -2  184.68    9.90
   2  -3  -2  195.68    9.60
  -2   3  -2  202.28    9.40
  -2   3  -2  185.38    9.40
  -2   3  -2  193.28    9.50
  -3  -2  -2  180.48    9.70
  -2   3  -2  205.18   10.40
  -2   3  -2  195.18    9.40
   2  -3   2  189.78    9.90
  -2   3   2  201.48   10.20
   3   2   2  181.88    9.90
  -3  -2   2  186.48    9.70
   2  -3   2  193.28    9.60
  -3  -2   2  194.38   10.00
  -3  -2   2  202.78    9.60
  -2   3   2  190.28    9.30
  -1   3  -2 3460.85  144.09
   1  -3  -2 3260.17  142.29
  -1   3  -2 3193.48  141.99
   3   1  -2 3157.88  141.79
  -1   3  -2 3246.88  142.59
   1  -3  -2 2838.12  142.49
  -3  -1  -2 3023.80  142.19
   3   1  -2 3184.78  142.09
   3   1   2 3252.17  142.19
   1  -3   2 3238.68  142.99
   1  -3   2 2854.61  142.39
   3   1   2 3198.98  142.19
   1  -3   2 3252.17  143.49
  -3  -1   2 3164.08  142.29
  -3  -1   2 3094.49  142.39
   1  -3   2 3115.49  142.59
  -3  -1   2 2928.41  141.99
   3   0  -2  240.28   10.90
   0  -3  -2  225.58   11.20
   0   3  -2  246.48   11.10
   0  -3  -2  242.18   11.80
   0  -3  -2  231.38   11.40
   0   3  -2  231.68   11.00
  -3   0  -2  233.48   11.20
  -3   0  -2  243.08   11.20
  -3   0  -2  203.88   10.80
   0  -3  -2  233.48   11.70
   0  -3  -2  214.98   11.50
   3   0  -2  226.08   10.80
   0  -3   2  250.57   11.70
  -3   0   2  236.18   11.10
  -3   0   2  244.38   11.60
  -3   0   2  242.18   11.30
   0  -3   2  224.18   11.50
   3   0   2  242.88   11.10
   0  -3   2  231.88   11.10
   3   0   2  220.58   10.70
   0  -3   2  210.88   11.40
   3   0   2  250.17   11.00
  -3   1  -2 2924.31  142.69
  -3   1  -2 3351.96  142.49
   3  -1  -2 2972.20  142.29
  -3   1  -2 3174.38  142.59
   3  -1  -2 3146.39  141.99
  -1  -3  -2 3116.29  142.59
   1   3  -2 3123.99  142.69
  -1  -3  -2 3097.29  144.19
  -1  -3  -2 3252.67  142.99
  -3   1  -2 3112.99  142.49
  -1  -3  -2 3023.60  142.99
  -3   1   2 3202.38  142.89
  -3   1   2 3348.17  142.79
  -1  -3   2 3122.49  142.49
  -3   1   2 2979.90  143.09
  -1  -3   2 3159.38  144.49
  -1  -3   2 2935.61  142.99
   3  -1   2 3380.06  142.49
  -3   1   2 3168.88  142.49
   1   3   2 3393.26  143.49
   3  -1   2 3212.78  142.19
  -3   2  -2  191.28    9.50
  -2  -3  -2  185.98   10.10
  -3   2  -2  201.48    9.30
  -3   2  -2  189.18    9.40
  -2  -3  -2  187.88    9.80
   3  -2  -2  192.78    8.90
   3  -2  -2  181.58    9.40
  -3   2  -2  185.38    9.50
  -2  -3  -2  191.18    9.90
  -3   2   2  193.98    9.80
   3  -2   2  200.38    9.50
  -3   2   2  196.08    9.70
  -2  -3   2  196.78   10.10
  -3   2   2  186.08    9.40
  -3   2   2  189.68    9.40
  -2  -3   2  196.68   10.00
  -3   3  -2 1887.81   84.09
  -3   3  -2 1777.22   83.99
  -3  -3  -2 1755.12   84.29
  -3   3  -2 1952.70   83.79
  -3  -3  -2 1809.92   84.79
   3   3  -2 1710.93   83.99
   3  -3  -2 1770.72   84.09
  -3   3  -2 1892.21   83.99
  -3  -3  -2 1822.52   84.59
  -3   3   2 1804.22   83.89
  -3  -3   2 1890.01   84.79
  -3   3   2 1934.11   83.89
   3  -3   2 1887.21   84.09
  -3   3   2 1923.81   84.39
  -3   3   2 1856.31   84.09
   3  -4  -2  109.89    6.30
  -3   4  -2  105.69    6.10
  -3   4  -2  109.29    6.20
  -4  -3  -2  114.19    6.90
  -4  -3  -2  105.59    6.50
  -3   4   2  102.99    6.00
   3  -4   2  117.79    6.40
  -3   4   2  101.49    6.10
  -4  -3   2  108.79    6.80
  -3   4   2  118.49    6.30
  -2   4  -2    3.00    0.80
  -2   4  -2    3.40    0.80
   2  -4  -2    2.50    0.80
  -4  -2  -2    2.20    0.80
   2  -4   2    4.30    1.00
  -4  -2   2    3.90    1.20
  -2   4   2    1.60    0.80
   2  -4   2    3.20    1.00
  -4  -2   2    4.50    0.90
   4   1  -2  201.28    9.60
   1  -4  -2  197.48   10.60
   1  -4  -2  207.38   10.90
  -1   4  -2  211.08    9.80
  -1   4  -2  209.58   10.00
   1  -4  -2  200.78   10.10
  -4  -1  -2  189.18   10.10
   1  -4  -2  184.68   10.60
   1  -4   2  211.28   10.10
   1  -4   2  206.38   10.50
  -1   4   2  200.38   10.00
   1  -4   2  211.68   10.60
   4   1   2  195.68    9.70
  -4  -1   2  198.08   10.20
  -4  -1   2  181.98   10.00
  -4   0  -2    1.40    0.90
   0  -4  -2    2.80    0.80
   0  -4  -2    3.80    1.10
  -4   0  -2    4.30    0.80
   0  -4  -2    5.10    1.00
   0   4  -2    4.10    0.80
   4   0  -2    4.30    0.80
   0  -4  -2    3.40    0.90
   0  -4  -2    2.60    0.90
  -4   0  -2    3.80    0.90
   0  -4   2    4.00    1.10
  -4   0   2    4.10    1.20
   0  -4   2    3.50    1.00
   0   4   2    3.60    0.70
  -4   0   2    4.40    1.10
   0  -4   2    4.80    0.90
   4   0   2    3.90    0.50
  -4   0   2    2.40    0.70
  -1  -4  -2  199.18   10.00
   4  -1  -2  213.48    9.80
  -1  -4  -2  206.88   10.80
  -1  -4  -2  205.28   10.60
  -4   1  -2  200.98   10.40
  -4   1  -2  202.28   10.00
  -4   1  -2  191.28    9.80
   4  -1  -2  198.78    9.40
  -1  -4  -2  192.48   10.40
  -4   1   2  197.08   10.00
  -1  -4   2  201.28   10.50
   4  -1   2  197.48    9.80
  -4   1   2  207.88   10.50
  -1  -4   2  179.68   10.50
  -4   1   2  194.28    9.90
   4  -1   2  188.58    9.50
  -4   2  -2    2.60    0.80
   4  -2  -2    2.90    0.80
  -4   2  -2    2.90    0.90
  -2  -4  -2    4.10    1.20
  -2  -4  -2    2.20    1.00
  -2  -4  -2    3.70    1.30
   4  -2  -2    4.20    0.60
  -4   2  -2    2.40    0.70
  -2  -4   2    2.20    1.00
  -2  -4   2    2.50    0.90
   4  -2   2    2.50    0.70
  -4   2   2    1.50    1.00
  -4   2   2    1.90    0.90
  -4   2   2    1.90    0.70
  -4   2   2    3.60    1.00
  -4   3  -2   95.39    6.00
  -3  -4  -2  112.19    6.60
   4  -3  -2  102.29    5.90
  -4   3  -2  110.29    6.10
  -4   3  -2  100.19    5.90
  -4   3  -2  109.19    5.80
  -3  -4  -2  108.99    6.80
   4  -3   2  105.19    6.00
  -3  -4   2  108.79    6.80
  -4   3   2  101.19    6.40
  -4   3   2   97.69    5.90
  -4   3   2  104.69    5.80
  -4   3   2   98.19    6.20
  -4   3   2  111.49    6.00
  -4  -4  -2    2.50    1.40
  -4   4  -2    2.30    1.10
  -4  -4  -2    1.00    1.20
  -4   4  -2    3.60    1.20
  -4   4  -2    1.60    0.80
   4  -4  -2    1.80    1.00
  -4   4   2    3.60    1.10
  -4  -4   2    2.30    1.30
  -4   4   2    2.60    0.80
   4  -4   2    3.30    1.10
  -4   4   2    1.20    0.80
  -4   4   2    0.90    0.90
  -3   5  -2  820.92   36.50
   3  -5  -2  789.22   38.00
   3  -5  -2  761.12   37.10
  -5  -3  -2  728.63   37.00
  -3   5  -2  810.12   36.40
  -3   5  -2  800.22   36.60
   3  -5   2  758.22   37.20
  -3   5   2  771.72   36.40
  -3   5   2  756.22   36.60
   2  -5  -2   53.39    4.40
   2  -5  -2   55.79    3.70
  -2   5  -2   53.39    3.50
   5   2  -2   52.49    3.10
  -5  -2  -2   44.70    3.60
  -5  -2   2   46.70    3.60
   2  -5   2   52.49    3.70
   5   2   2   49.10    3.10
  -2   5   2   52.59    3.60
   2  -5   2   49.30    4.00
   1  -5  -2 1171.08   54.09
   5   1  -2 1182.48   53.49
  -1   5  -2 1255.17   53.89
  -5  -1  -2 1047.60   53.99
  -1   5   2 1252.27   53.89
  -5  -1   2 1132.39   53.99
   5   1   2 1106.09   53.49
  -5  -1   2 1129.79   54.19
   1  -5   2 1202.08   54.79
   1  -5   2 1225.68   54.09
   0  -5  -2   63.09    4.60
  -5   0  -2   55.79    4.20
  -5   0  -2   59.99    3.90
   0  -5  -2   59.09    3.90
   5   0  -2   54.99    3.40
   0  -5  -2   63.79    4.50
  -5   0  -2   55.39    3.90
   5   0  -2   58.89    3.30
   0  -5   2   69.99    4.00
   0  -5   2   64.19    4.50
  -5   0   2   55.99    4.40
   0  -5   2   69.59    4.60
  -5   0   2   51.69    3.70
   5   0   2   52.59    3.40
   5   0   2   59.59    3.20
  -5   0   2   58.09    4.10
  -5   1  -2 1141.09   51.49
  -5   1  -2 1109.19   51.39
  -5   1  -2 1086.49   51.99
  -1  -5  -2 1020.60   52.89
  -1  -5  -2 1229.98   52.69
  -1  -5  -2 1166.48   52.29
   5  -1  -2 1129.49   50.59
  -1  -5   2 1153.58   52.19
  -5   1   2 1061.59   51.99
  -5   1   2 1105.09   51.49
  -5   1   2 1048.20   51.29
  -1  -5   2 1090.09   52.19
  -2  -5  -2   53.29    4.10
  -5   2  -2   49.70    3.80
  -5   2  -2   55.19    3.60
  -2  -5  -2   54.19    4.50
  -5   2  -2   51.49    4.20
   5  -2   2   44.20    3.70
  -2  -5   2   52.89    4.20
  -5   2   2   48.90    4.20
  -2  -5   2   55.09    4.40
  -5   2   2   51.89    3.50
  -5   2   2   47.70    3.80
  -5   3  -2  760.92   36.50
  -5   3  -2  730.33   36.70
  -3  -5  -2  780.12   37.90
  -5   3  -2  829.02   36.80
  -5   3  -2  783.52   37.50
  -3  -5  -2  792.82   37.60
  -5   3   2  724.53   36.60
  -5   3   2  774.22   36.50
   5  -3   2  745.13   36.60
  -5   3   2  764.92   37.60
  -5   3   2  819.12   36.60
  -3  -5   2  838.02   37.90
   6   0  -2    4.60    0.90
   0   0  -3  664.53   31.00
   1   0  -3  592.04   27.10
  -1   0  -3  559.74   27.70
   1   0  -3  546.45   27.00
   0  -1  -3  600.84   27.30
  -1   0  -3  598.44   27.20
   0  -1  -3  565.64   27.40
   0  -1  -3  554.24   27.20
  -1   0  -3  621.94   27.20
   0   1  -3  663.53   28.00
   1   0  -3  572.24   27.00
   0   1  -3  644.44   27.20
   0  -1   3  592.84   27.20
   1   0   3  595.64   27.80
   0  -1   3  577.54   27.20
   1   0   3  615.64   27.20
   0  -1   3  650.13   27.10
   1   1  -3 4446.75  191.68
  -1  -1  -3 4370.56  191.98
   1  -1  -3 4324.17  193.58
   1  -1  -3 4056.89  190.48
  -1   1  -3 3872.81  191.78
  -1   1  -3 4226.88  191.08
  -1  -1  -3 4214.28  193.08
  -1   1  -3 4209.78  191.08
  -1  -1  -3 4222.38  192.78
  -1  -1  -3 3997.60  191.38
  -1   1  -3 4210.38  194.28
  -1   1  -3 4269.77  191.08
   1  -1  -3 4111.69  191.48
   1  -1   3 4453.95  194.38
   1  -1   3 3681.73  191.18
  -1   1   3 4637.34  191.48
   1   1   3 4257.97  193.38
   1  -1   3 4504.15  191.98
  -1  -1   3 4274.17  192.58
   1  -2  -3  347.57   16.70
  -2  -1  -3  326.37   16.70
   1  -2  -3  338.77   17.00
  -2  -1  -3  365.56   16.80
   2   1  -3  328.37   17.10
  -2  -1  -3  373.46   17.10
  -1   2  -3  382.66   17.30
  -1   2  -3  342.37   16.60
  -1   2  -3  352.06   16.60
  -2  -1   3  354.66   17.00
  -2  -1   3  366.96   16.50
  -2  -1   3  381.06   17.10
   2   1   3  352.86   17.20
  -2  -1   3  355.16   16.80
   1  -2   3  387.56   16.70
   1  -2   3  360.06   16.80
   0  -2  -3  475.65   22.70
   0  -2  -3  465.75   22.60
  -2   0  -3  480.45   22.20
  -2   0  -3  505.75   22.40
   0   2  -3  478.45   22.30
  -2   0  -3  451.75   22.10
  -2   0  -3  469.75   23.00
   0   2  -3  494.05   22.80
   0   2  -3  509.75   22.30
   2   0  -3  450.65   22.00
   2   0  -3  467.15   22.10
   0  -2  -3  477.95   22.40
   2   0   3  489.45   23.10
  -2   0   3  535.45   22.60
   0  -2   3  454.75   22.50
   2   0   3  523.45   22.40
  -2   0   3  487.65   22.40
   0  -2   3  497.05   22.60
  -2   0   3  475.15   22.20
  -2   0   3  494.95   22.70
   0  -2   3  476.15   22.50
   0  -2   3  510.85   22.20
   2  -1  -3  359.66   17.30
  -2   1  -3  319.87   16.40
  -2   1  -3  350.56   17.30
   1   2  -3  382.76   16.50
  -1  -2  -3  340.77   16.70
  -2   1  -3  350.06   16.50
   2  -1  -3  323.27   16.40
  -2   1  -3  382.86   16.50
   2  -1  -3  353.36   16.20
  -1  -2  -3  325.87   16.90
   2  -1  -3  338.87   16.30
  -1  -2  -3  383.56   16.90
  -2   1  -3  356.16   16.60
  -2   1   3  347.77   17.30
   2  -1   3  373.86   16.60
  -1  -2   3  350.26   16.90
  -2   1   3  385.86   16.80
  -2   1   3  360.46   16.90
   2  -1   3  359.56   17.40
  -1  -2   3  343.27   16.80
   2  -1   3  372.86   16.40
  -2   1   3  361.26   16.60
  -2   2  -3  312.87   15.40
   2  -2  -3  327.57   15.50
  -2   2  -3  322.97   15.40
  -2  -2  -3  312.47   15.80
  -2   2  -3  351.56   15.50
  -2   2  -3  328.67   16.30
   2   2  -3  334.67   15.80
  -2  -2  -3  332.67   15.70
  -2  -2  -3  309.67   15.60
  -2   2  -3  347.27   15.20
  -2  -2   3  325.27   15.90
  -2   2   3  332.37   16.20
  -2   2   3  323.57   15.30
   2  -2   3  312.67   15.50
   2   2   3  315.77   15.70
  -2   2   3  327.77   15.70
  -2   2   3  340.07   15.50
   2  -2   3  347.17   15.60
  -2   3  -3  255.67   11.70
  -2   3  -3  240.38   11.80
  -2   3  -3  231.68   11.70
  -2   3  -3  247.48   12.70
   2  -3  -3  245.38   11.90
  -3  -2  -3  243.58   12.20
  -3  -2  -3  230.48   12.00
  -3  -2   3  247.28   12.10
   3   2   3  229.08   12.80
  -3  -2   3  243.08   12.20
  -2   3   3  244.38   11.60
  -3  -2   3  227.88   11.70
  -2   3   3  248.58   11.70
   2  -3   3  247.08   12.10
   2  -3   3  248.88   11.90
  -1   3  -3 2084.89   91.29
   1  -3  -3 1930.21   91.79
  -3  -1  -3 1907.41   91.39
   3   1  -3 2011.40   90.89
   3   1  -3 2124.89   90.99
  -1   3  -3 1990.90   91.19
   1  -3  -3 1933.31   91.39
  -1   3  -3 2246.68   91.89
   3   1   3 2116.89   91.29
   1  -3   3 2127.69   91.29
  -3  -1   3 2045.90   91.79
   1  -3   3 1927.21   91.49
   1  -3   3 2082.89   91.79
   1  -3   3 1794.52   91.29
  -3  -1   3 1938.41   91.39
  -3  -1   3 2048.40   91.59
  -3  -1   3 1903.21   91.19
   3   0  -3  303.97   15.20
   0  -3  -3  308.97   16.10
   0   3  -3  324.97   15.50
  -3   0  -3  334.47   15.60
   0  -3  -3  320.77   16.00
   0  -3  -3  335.57   16.20
   0   3  -3  355.26   15.80
  -3   0  -3  297.57   15.30
  -3   0  -3  338.87   15.50
   0  -3  -3  315.67   15.90
   0  -3  -3  319.67   15.70
   3   0  -3  341.87   15.30
   0   3  -3  334.77   15.50
  -3   0   3  332.67   16.10
  -3   0   3  329.77   15.80
   3   0   3  365.26   15.60
   0  -3   3  340.17   16.00
  -3   0   3  320.97   15.50
   0  -3   3  324.27   15.90
  -3   0   3  337.07   15.70
   0  -3   3  343.07   15.50
   3   0   3  315.07   15.10
   3   0   3  345.27   15.40
   0  -3   3  344.97   16.10
  -1  -3  -3 1979.40   89.89
  -3   1  -3 1955.20   89.49
   3  -1  -3 1770.12   89.19
  -3   1  -3 1829.62   89.19
  -1  -3  -3 1961.30   89.49
   1   3  -3 1904.71   89.19
   3  -1  -3 1991.00   88.89
  -3   1  -3 2059.99   89.29
  -1  -3  -3 1936.41   89.99
  -3   1  -3 1913.91   89.39
   1   3  -3 1907.01   89.39
  -1  -3  -3 1921.71   89.99
  -1  -3   3 2128.89   89.59
  -1  -3   3 1950.01   89.99
   3  -1   3 2043.50   89.19
  -1  -3   3 2027.00   89.89
   3  -1   3 2163.98   89.49
  -3   1   3 1992.20   89.89
  -3   1   3 1981.20   89.49
  -3   1   3 1913.01   89.29
  -3   1   3 2058.39   89.69
  -2  -3  -3  243.38   12.30
   2   3  -3  238.28   11.60
  -3   2  -3  234.18   11.70
  -2  -3  -3  242.68   12.10
  -3   2  -3  230.28   11.50
  -3   2  -3  252.47   11.50
  -2  -3  -3  237.28   12.00
   3  -2  -3  246.08   11.00
   3  -2  -3  229.38   11.60
  -3   2  -3  240.68   11.60
  -3   2   3  239.68   11.60
  -2  -3   3  231.48   12.20
  -3   2   3  238.38   11.50
  -3   2   3  232.68   11.80
  -3   2   3  244.08   12.00
   3  -2   3  249.08   11.70
  -2  -3   3  221.68   12.10
  -3  -3  -3 1128.99   53.69
  -3   3  -3 1145.69   53.19
  -3   3  -3 1157.38   53.19
   3  -3  -3 1175.48   53.29
  -3   3  -3 1195.58   53.19
  -3  -3  -3 1168.38   53.99
  -3  -3  -3 1139.39   53.59
  -3   3   3 1113.39   53.29
  -3  -3   3 1162.38   53.89
  -3   3   3 1197.18   53.59
  -3   3   3 1167.98   53.09
   3  -3   3 1154.18   53.29
   3  -4  -3  117.99    6.60
  -3   4  -3  116.59    6.50
  -4  -3  -3  110.99    6.90
  -3   4  -3  121.09    6.50
  -3   4  -3  114.29    6.50
  -4  -3  -3  111.39    7.10
   3  -4   3  118.09    6.60
  -3   4   3  117.79    6.60
  -4  -3   3  122.39    7.30
  -3   4   3  120.79    6.60
  -4  -2  -3  142.69    7.90
  -2   4  -3  154.18    7.70
  -2   4  -3  135.79    7.50
  -2   4  -3  150.28    7.50
   2  -4  -3  141.79    7.70
   4   2  -3  148.39    7.10
   2  -4   3  144.69    7.70
  -4  -2   3  145.19    7.70
  -4  -2   3  149.69    8.20
   2  -4   3  141.29    8.00
  -4  -2   3  141.59    8.00
  -1   4  -3  156.68    7.50
   1  -4  -3  136.79    8.10
   4   1  -3  148.99    7.20
  -4  -1  -3  140.49    7.60
   1  -4  -3  147.99    8.40
  -1   4  -3  145.19    7.40
   1  -4  -3  145.99    8.10
   1  -4  -3  140.19    7.60
   1  -4   3  151.38    8.10
  -4  -1   3  137.29    8.00
  -4  -1   3  136.69    7.40
  -4  -1   3  149.39    7.80
   1  -4   3  140.69    7.90
   4   1   3  143.39    7.20
   1  -4   3  144.19    7.50
  -4   0  -3  175.98    9.40
   0  -4  -3  183.78    9.50
  -4   0  -3  189.18    9.30
   0   4  -3  201.88    9.30
   0  -4  -3  179.58    9.90
   0  -4  -3  185.58    9.60
   0  -4  -3  182.48   10.00
   0  -4  -3  183.68   10.10
   4   0  -3  189.78    8.80
  -4   0  -3  188.98    9.70
   0   4  -3  188.68    9.20
   4   0  -3  184.98    9.00
   4   0   3  179.78    9.20
  -4   0   3  192.28    9.60
  -4   0   3  188.78   10.00
   0  -4   3  185.68    9.90
   0  -4   3  181.88    9.90
   4   0   3  184.38    9.10
   4   0   3  188.58    8.80
   0  -4   3  198.38    9.30
   0  -4   3  189.68    9.90
  -4   0   3  170.38    9.30
  -4   1  -3  141.99    7.40
  -1  -4  -3  129.09    7.40
  -1  -4  -3  146.39    8.20
  -4   1  -3  144.29    7.40
   4  -1  -3  137.89    6.80
  -1  -4  -3  140.79    8.00
  -1  -4  -3  150.08    8.00
  -4   1   3  136.99    7.50
   4  -1   3  134.79    7.00
  -4   1   3  148.89    8.00
  -1  -4   3  146.59    7.90
  -4   1   3  137.89    7.30
  -1  -4   3  141.09    8.00
   4  -1   3  148.69    7.40
  -4   2  -3  144.09    7.40
  -4   2  -3  148.49    7.70
  -4   2  -3  141.79    7.80
  -2  -4  -3  137.09    8.30
   4  -2  -3  147.89    6.90
  -2  -4  -3  140.49    8.30
  -4   2  -3  139.79    7.40
  -2  -4  -3  147.69    8.10
  -4   2   3  143.09    7.50
  -4   2   3  145.59    7.70
  -4   2   3  134.89    7.90
  -4   2   3  147.09    8.20
   4  -2   3  146.39    7.60
  -2  -4   3  143.99    8.20
  -2  -4   3  142.39    8.30
   4  -3  -3  111.59    6.40
  -3  -4  -3  123.29    7.40
  -4   3  -3  115.69    6.40
  -4   3  -3  114.09    6.70
  -3  -4  -3  117.09    7.20
  -3  -4  -3  114.29    7.00
  -4   3  -3  115.19    6.60
  -4   3   3  111.09    6.40
  -3  -4   3  119.49    7.30
  -4   3   3  115.29    7.20
  -4   3   3  114.99    6.30
   4  -3   3  115.19    6.50
  -4   3   3  118.79    6.80
  -4  -4  -3   82.79    5.90
  -4   4  -3   80.89    5.00
  -4   4  -3   76.39    5.00
   4  -4  -3   76.69    5.00
  -4  -4  -3   75.59    5.50
  -4   4  -3   73.29    5.10
  -4   4   3   80.99    5.00
  -4   4   3   83.09    4.80
  -4   4   3   65.39    5.00
   4  -4   3   76.79    5.00
  -4  -4   3   80.49    5.80
  -4   4   3   78.59    4.90
  -5  -3  -3  472.05   24.70
   3  -5  -3  486.35   25.70
  -3   5  -3  518.95   24.10
   5   3  -3  485.85   23.40
  -3   5  -3  529.55   24.30
  -3   5  -3  502.85   24.10
  -3   5   3  503.85   24.10
  -3   5   3  521.35   24.30
  -5  -2  -3  135.89    8.20
   5   2  -3  139.59    7.40
   2  -5  -3  149.29    9.10
  -2   5  -3  157.78    8.00
  -2   5  -3  149.39    8.90
   2  -5  -3  146.29    8.10
  -2   5   3  149.19    8.00
  -5  -2   3  145.59    8.10
   5   2   3  139.99    7.50
   2  -5   3  144.99    8.50
   2  -5   3  158.28    8.20
  -5  -1  -3  702.53   35.40
   5   1  -3  764.32   34.80
   1  -5  -3  781.22   36.30
   1  -5  -3  759.52   35.50
   1  -5  -3  745.53   36.40
  -1   5  -3  841.82   35.30
  -5  -1   3  727.83   35.40
   1  -5   3  781.62   36.00
  -5  -1   3  681.03   35.90
   1  -5   3  766.02   35.40
  -5  -1   3  756.12   35.60
  -1   5   3  823.02   35.30
   5   1   3  681.93   34.80
   5   0  -3  183.08    9.00
   5   0  -3  190.18    8.80
   0  -5  -3  180.98    9.60
   0  -5  -3  193.38   10.50
   0  -5  -3  183.18   10.30
  -5   0  -3  173.58    9.40
  -5   0  -3  170.48    9.80
  -5   0  -3  177.68    9.50
   0  -5   3  190.18   10.10
   5   0   3  170.98    9.00
  -5   0   3  157.18   10.00
  -5   0   3  182.08    9.80
  -5   0   3  185.28    9.50
   0  -5   3  198.48   10.20
   5  -1  -3  725.93   34.30
  -5   1  -3  716.83   35.70
  -1  -5  -3  803.62   35.40
  -5   1  -3  733.63   35.20
  -5   1  -3  733.03   35.00
  -1  -5  -3  781.12   36.00
  -1  -5  -3  779.92   36.30
  -5   1   3  716.23   35.90
  -1  -5   3  817.62   36.20
  -5   1   3  694.23   35.00
  -5   1   3  738.43   35.30
  -1  -5   3  748.93   35.80
  -5   2  -3  145.89    8.70
   5  -2  -3  154.38    7.30
  -2  -5  -3  149.99    8.80
  -5   2  -3  148.69    8.00
  -5   2  -3  146.19    8.20
  -2  -5  -3  149.29    9.10
  -5   2   3  139.69    8.20
  -5   2   3  147.19    8.00
  -2  -5   3  153.58    9.00
   5  -2   3  141.49    8.00
  -2  -5   3  149.09    8.80
  -3  -5  -3  549.05   26.00
  -5   3  -3  495.75   25.30
  -5   3  -3  484.45   24.60
  -5   3  -3  522.85   24.60
  -3  -5   3  531.35   25.80
   5  -3   3  516.25   24.60
  -5   3   3  477.05   25.50
  -5   3   3  519.35   24.60
  -5   3   3  492.25   24.80
  -5   3   3  519.45   24.50
   0   0  -4 2795.82  139.39
   0   0  -4 3198.68  137.59
   0   0  -4 3227.48  136.49
   0   0   4 2874.61  136.69
  -1   0  -4  370.46   16.40
   0  -1  -4  338.37   16.20
   1   0  -4  342.87   16.20
  -1   0  -4  359.36   16.30
   0   1  -4  313.87   16.40
  -1   0  -4  342.17   17.00
   0   1  -4  340.37   16.40
   0   1  -4  343.97   17.30
   0  -1  -4  341.57   16.50
   0   1  -4  338.87   16.20
   0  -1  -4  351.56   16.40
   0  -1   4  363.86   16.50
  -1   0   4  360.76   16.80
   1   0   4  346.57   17.00
   1   0   4  371.86   16.30
  -1   0   4  338.87   16.40
  -1   0   4  366.96   16.60
   1   0   4  369.36   16.90
   0  -1   4  400.66   16.30
  -1   1  -4  820.82   38.40
   1   1  -4  871.81   38.10
  -1   1  -4  767.92   37.60
   1  -1  -4  769.72   37.30
  -1  -1  -4  846.82   38.00
   1  -1  -4  840.82   38.30
  -1  -1  -4  831.32   38.10
   1  -1  -4  780.62   37.60
  -1  -1  -4  849.12   37.90
  -1   1  -4  778.72   37.60
  -1  -1  -4  759.42   37.60
  -1   1  -4  828.32   37.60
   1   1   4  831.32   38.40
   1  -1   4  833.22   37.70
   1  -1   4  889.81   37.70
  -1   1   4  815.42   37.60
  -1   1   4  938.11   37.80
  -1  -1   4  777.72   38.20
  -1   1   4  856.71   37.90
   1  -1   4  836.02   38.50
   1  -2  -4  234.98   11.10
  -2  -1  -4  238.48   11.20
  -1   2  -4  255.27   11.80
  -2  -1  -4  227.28   11.20
  -2  -1  -4  229.78   11.50
  -1   2  -4  213.38   10.90
  -2  -1  -4  214.38   11.00
   2   1  -4  215.78   11.60
  -1   2  -4  227.28   11.00
  -1   2  -4  231.18   11.00
   2   1  -4  233.28   10.70
  -2  -1   4  239.48   11.50
  -1   2   4  225.28   11.10
  -2  -1   4  243.78   11.60
   2   1   4  229.88   11.00
  -2  -1   4  219.88   10.80
   1  -2   4  252.87   11.10
   1  -2   4  224.88   11.00
   2   1   4  230.78   11.70
  -2  -1   4  225.98   11.20
   0  -2  -4 2006.00   93.69
  -2   0  -4 2048.90   93.19
   0   2  -4 2295.77   94.09
   0   2  -4 1919.31   93.19
   2   0  -4 1959.30   92.89
   0  -2  -4 1981.40   93.29
  -2   0  -4 2215.98   93.29
  -2   0  -4 2111.09   93.09
  -2   0  -4 1893.01   93.89
   0  -2  -4 2029.40   93.39
   2   0  -4 2022.10   92.89
   0   2  -4 2039.40   93.39
   0  -2  -4 1943.51   93.49
  -2   0   4 2025.70   93.09
   0  -2   4 2105.09   93.29
   0  -2   4 1913.11   93.39
   2   0   4 2144.99   94.09
  -2   0   4 2072.49   93.49
   2   0   4 2141.79   93.39
  -2   0   4 2171.58   93.69
   0  -2   4 2011.60   93.59
  -2   0   4 2070.29   93.29
   2   0   4 2204.68   93.09
   0  -2   4 2108.39   93.39
  -1  -2  -4  225.38   11.70
  -2   1  -4  216.68   11.20
   1   2  -4  253.67   11.40
   2  -1  -4  235.88   11.10
  -2   1  -4  230.78   11.20
  -1  -2  -4  237.18   11.70
  -2   1  -4  253.17   11.20
   2  -1  -4  230.08   12.00
  -1  -2  -4  236.18   11.50
  -1  -2  -4  233.18   11.50
  -2   1  -4  234.88   11.30
   2  -1  -4  234.38   10.90
   1   2  -4  247.38   12.60
  -2   1  -4  227.68   12.10
  -2   1   4  239.48   11.70
   2  -1   4  256.57   11.10
  -2   1   4  234.98   11.30
   2  -1   4  233.38   12.20
  -2   1   4  245.88   11.50
  -1  -2   4  220.08   11.60
  -1  -2   4  244.28   11.70
   2  -1   4  241.38   11.30
   2   2  -4 1453.05   66.89
  -2  -2  -4 1432.36   66.59
  -2   2  -4 1433.76   66.29
   2   2  -4 1470.25   67.09
  -2  -2  -4 1349.16   66.69
  -2  -2  -4 1387.96   66.39
  -2   2  -4 1596.04   69.59
   2  -2  -4 1461.55   66.29
  -2   2  -4 1458.25   66.29
  -2   2  -4 1436.36   66.29
   2  -2   4 1376.56   66.29
   2  -2   4 1510.75   66.39
  -2   2   4 1488.85   66.59
  -2   2   4 1554.74   66.49
  -2  -2   4 1528.05   66.89
  -2   2   4 1418.16   66.19
   2   2   4 1439.86   66.79
   2  -3  -4  131.29    6.90
  -2   3  -4  139.29    6.90
  -3  -2  -4  128.89    7.10
  -2   3  -4  136.29    6.90
  -2   3  -4  124.19    6.80
  -3  -2  -4  125.29    7.20
  -3  -2   4  123.29    7.20
   2  -3   4  138.69    6.90
  -2   3   4  133.79    6.70
  -3  -2   4  128.49    6.70
  -2   3   4  140.89    6.80
  -3  -2   4  138.39    7.40
   2  -3   4  129.49    7.00
   3   1  -4  445.26   20.10
  -3  -1  -4  424.06   20.60
   3   1  -4  430.26   20.00
   1  -3  -4  444.76   20.60
  -1   3  -4  430.96   20.40
  -1   3  -4  444.46   20.40
   1  -3  -4  435.66   21.10
  -1   3  -4  448.16   21.20
   1  -3   4  422.06   20.40
  -3  -1   4  425.46   20.60
   3   1   4  442.86   20.30
   3   1   4  486.45   20.70
  -3  -1   4  421.66   21.00
   1  -3   4  412.26   20.70
  -3  -1   4  442.46   20.90
  -3  -1   4  404.96   20.30
   1  -3   4  460.35   20.90
   0   3  -4  190.58    9.50
   0  -3  -4  185.08    9.50
   0   3  -4  183.38    9.10
  -3   0  -4  185.98    9.10
   3   0  -4  174.78    8.70
   0  -3  -4  174.98    9.60
   0   3  -4  204.58    9.10
   3   0  -4  180.18    8.80
  -3   0  -4  179.58    9.00
  -3   0  -4  164.88    9.00
   0  -3  -4  170.28    9.20
   0  -3  -4  178.38    9.40
   0  -3  -4  186.38    9.80
  -3   0   4  181.48    9.00
   0  -3   4  176.08    9.40
   3   0   4  182.28    8.90
   3   0   4  196.68    9.20
  -3   0   4  192.18    9.30
   0  -3   4  191.88    9.50
   0  -3   4  192.98    9.40
   0  -3   4  203.68    9.00
  -3   0   4  190.28    9.70
  -3   1  -4  421.56   20.10
   3  -1  -4  372.36   19.70
  -3   1  -4  424.76   20.00
  -1  -3  -4  423.86   20.50
  -1  -3  -4  426.36   20.60
  -1  -3  -4  399.36   20.60
   3  -1  -4  395.86   19.70
  -1  -3  -4  403.56   20.20
   1   3  -4  433.86   20.20
   1   3  -4  443.86   20.00
   3  -1  -4  427.56   19.60
   1   3  -4  453.25   20.70
  -3   1  -4  401.46   19.80
  -3   1  -4  447.26   20.00
  -3   1   4  430.76   20.10
  -3   1   4  467.75   20.50
  -1  -3   4  419.46   20.40
  -3   1   4  415.96   19.90
   3  -1   4  433.26   19.80
  -1  -3   4  452.85   20.70
   3  -1   4  455.65   20.10
  -3   1   4  450.15   20.60
   2   3  -4  137.29    7.10
  -3   2  -4  143.29    6.70
  -2  -3  -4  130.49    7.40
  -2  -3  -4  131.89    7.20
  -3   2  -4  127.89    6.90
   3  -2  -4  140.39    6.40
   3  -2  -4  123.09    6.80
  -3   2  -4  133.19    6.90
  -2  -3  -4  123.69    7.40
  -3   2  -4  126.89    6.80
  -2  -3   4  129.29    7.50
  -3   2   4  135.89    7.20
  -3   2   4  135.29    6.90
  -3   2   4  141.29    7.40
   3  -2   4  139.79    7.00
  -3   3  -4  248.28   12.20
  -3  -3  -4  239.58   12.60
  -3   3  -4  234.18   12.10
   3  -3  -4  258.27   12.20
  -3   3  -4  243.58   12.20
  -3  -3  -4  253.77   12.90
   3  -3   4  246.28   12.20
  -3   3   4  228.18   13.20
  -3   3   4  226.58   12.30
  -3   3   4  260.97   12.10
  -3  -3   4  260.57   13.00
   3  -4  -4   58.99    3.80
  -3   4  -4   55.49    3.70
  -3   4  -4   57.59    3.70
  -4  -3  -4   47.20    5.00
  -4  -3  -4   49.30    3.90
  -3   4  -4   54.39    3.60
  -3   4   4   52.99    3.70
   3  -4   4   50.59    3.70
  -4  -3   4   51.59    4.30
   4   2  -4  691.23   31.10
  -2   4  -4  667.23   31.50
   2  -4  -4  678.33   31.80
  -2   4  -4  703.53   31.70
  -4  -2  -4  605.24   31.90
  -2   4  -4  688.53   31.60
   2  -4   4  697.03   31.80
  -4  -2   4  608.44   31.50
   2  -4   4  782.02   33.30
  -4  -2   4  661.73   32.20
  -4  -2   4  666.23   32.00
  -4  -1  -4   88.09    5.30
  -1   4  -4   98.99    5.20
   1  -4  -4   88.99    6.60
   1  -4  -4   93.69    5.90
   1  -4  -4   99.59    6.20
  -1   4  -4   89.59    5.10
   1  -4  -4   90.89    5.30
   4   1  -4   96.39    4.80
   1  -4   4   93.09    5.50
  -4  -1   4   87.29    5.10
   4   1   4   88.69    4.90
   1  -4   4   91.79    5.60
  -4  -1   4   88.59    5.80
  -4  -1   4   96.99    5.50
   1  -4   4   95.19    5.20
  -4  -1   4   88.99    5.80
   0  -4  -4  874.61   40.90
   0   4  -4  923.91   40.50
   0  -4  -4  814.72   40.60
   4   0  -4  872.01   39.90
   0   4  -4  877.71   40.40
  -4   0  -4  833.52   40.50
   0  -4  -4  871.71   41.40
  -4   0  -4  891.51   40.40
   4   0  -4  875.01   40.10
   0  -4  -4  853.31   41.40
   0  -4  -4  883.91   41.20
   0  -4   4  870.91   41.10
   4   0   4  857.01   40.20
   0  -4   4  905.71   41.00
  -4   0   4  851.01   40.50
  -4   0   4  885.91   40.80
  -4   0   4  848.72   41.20
   0  -4   4  916.91   41.10
   4   0   4  928.61   40.50
   0  -4   4  911.61   40.40
  -4   1  -4   91.59    5.10
  -1  -4  -4   91.89    5.90
  -1  -4  -4   87.49    5.30
  -1  -4  -4   92.69    5.70
  -1  -4  -4   86.89    5.60
  -4   1  -4   91.89    5.20
   4  -1  -4   96.09    4.60
   4  -1   4   84.39    5.10
   4  -1   4   89.29    4.80
  -4   1   4   87.19    5.10
  -4   1   4   91.89    5.80
  -1  -4   4   94.59    5.60
  -4   1   4   88.99    5.30
  -1  -4   4   98.89    5.80
  -2  -4  -4  688.53   32.30
  -4   2  -4  692.03   31.30
  -4   2  -4  682.43   31.50
  -2  -4  -4  672.33   32.40
   4  -2  -4  694.23   30.70
  -2  -4  -4  699.43   32.10
  -4   2  -4  639.54   31.20
  -2  -4   4  688.63   32.40
  -4   2   4  673.23   32.10
  -4   2   4  651.73   31.80
  -4   2   4  684.23   31.50
  -2  -4   4  605.74   32.10
  -4   2   4  652.03   31.40
   4  -2   4  690.83   31.50
  -3  -4  -4   57.19    4.40
   4  -3  -4   51.19    3.60
  -4   3  -4   51.09    3.80
  -3  -4  -4   54.79    4.30
  -4   3  -4   57.19    3.60
  -4   3  -4   51.19    3.70
  -4   3   4   49.90    3.90
  -4   3   4   54.69    3.50
  -3  -4   4   50.09    4.20
  -4   3   4   57.99    4.40
   4  -3   4   52.89    3.70
  -4   3   4   54.09    3.70
   4  -4  -4  360.06   17.50
  -4   4  -4  350.06   17.50
  -4   4  -4  377.36   17.60
  -4  -4  -4  365.16   18.60
  -4  -4  -4  339.67   18.20
  -4   4  -4  332.97   17.60
  -4   4   4  357.26   17.60
  -4   4   4  331.67   17.70
  -4   4   4  363.56   17.30
  -4   4   4  373.16   17.70
  -4  -4   4  350.26   18.50
   4  -4   4  341.87   17.60
   5   3  -4  103.39    5.60
  -5  -3  -4  101.79    6.80
  -3   5  -4  113.49    6.30
   3  -5  -4   98.59    8.40
  -3   5  -4  107.89    6.30
  -3   5   4  104.59    6.40
  -3   5   4  113.79    6.50
   2  -5  -4   50.89    4.60
  -2   5  -4   51.79    3.50
  -5  -2  -4   46.10    3.80
   5   2  -4   50.69    3.10
   2  -5  -4   53.99    3.80
  -2   5  -4   49.70    3.50
   2  -5   4   47.70    3.60
  -2   5   4   55.09    3.70
   5   2   4   48.60    3.20
  -5  -2   4   53.79    4.20
   1  -5  -4  158.38    8.80
   1  -5  -4  168.48    9.60
   1  -5  -4  165.48    9.70
   5   1  -4  161.68    8.20
  -5  -1  -4  146.69    8.80
  -1   5  -4  174.98    8.60
   5   1   4  145.49    8.20
  -5  -1   4  154.88    8.70
  -5  -1   4  171.38    9.10
  -1   5   4  161.98    8.60
   1  -5   4  175.98    8.80
   1  -5   4  164.38    9.10
   5   0  -4   66.29    3.70
   0  -5  -4   78.29    5.30
  -5   0  -4   59.59    4.20
   0  -5  -4   67.79    5.10
   0   5  -4   80.49    4.60
  -5   0  -4   64.69    4.30
   5   0  -4   67.99    3.90
  -5   0  -4   61.09    4.50
   0  -5  -4   75.39    4.50
  -5   0   4   58.29    4.80
  -5   0   4   61.19    4.20
  -5   0   4   65.59    4.60
   5   0   4   60.39    3.90
   0  -5   4   65.59    4.80
   0  -5   4   75.99    4.90
  -5   1  -4  162.68    8.60
  -1  -5  -4  170.48    9.70
  -1  -5  -4  160.08    8.80
  -1  -5  -4  163.18    9.40
  -5   1  -4  160.38    8.70
  -5   1  -4  158.68    9.10
   5  -1  -4  160.38    7.90
  -1  -5   4  169.48    9.50
  -1  -5   4  159.38    9.20
  -5   1   4  152.68    8.70
  -5   1   4  153.18    9.40
  -5   1   4  146.09    8.40
  -2  -5  -4   50.69    4.10
  -5   2  -4   51.69    3.60
  -5   2  -4   51.29    4.20
   5  -2  -4   49.00    2.90
  -5   2  -4   52.09    3.80
  -2  -5  -4   58.79    4.70
  -5   2   4   48.00    3.50
  -2  -5   4   56.09    4.40
  -2  -5   4   51.09    4.40
  -5   2   4   50.79    3.90
  -5   2   4   47.20    4.30
   5  -2   4   49.00    3.60
  -5   3  -4  102.49    6.50
  -3  -5  -4  114.99    7.60
  -5   3  -4  106.29    7.10
  -3  -5   4  115.89    7.50
  -5   3   4  103.19    7.20
  -5   3   4  104.69    6.50
  -5   3   4   98.19    6.20
  -5   3   4  108.29    6.30
   0   0  -5 3015.10  142.69
   0   0  -5 3122.59  141.29
   0   0  -5 3243.58  141.39
   0   0  -5 3200.38  141.99
   0   0   5 3005.90  142.09
   0   0   5 3212.38  141.89
  -1   0  -5   43.40    2.40
   0   1  -5   43.50    2.50
  -1   0  -5   45.30    3.20
  -1   0  -5   43.40    2.50
   0  -1  -5   44.20    2.70
   0  -1  -5   47.70    2.80
   0   1  -5   43.90    2.70
   0   1  -5   40.80    3.40
   0  -1  -5   41.80    3.30
  -1   0  -5   46.60    2.70
   0   1  -5   39.70    2.60
   1   0   5   38.70    3.10
   0  -1   5   46.70    2.90
   1   0   5   45.40    2.80
  -1   0   5   46.20    2.80
   1   0   5   48.30    2.60
  -1   0   5   43.10    2.60
   0   1   5   48.50    2.60
  -1   0   5   45.50    3.10
   0  -1   5   50.49    2.50
  -1   1  -5 1633.84   74.29
  -1   1  -5 1741.23   75.39
   1   1  -5 1614.14   73.99
  -1   1  -5 1593.84   74.19
  -1  -1  -5 1557.44   74.19
  -1  -1  -5 1517.65   74.89
  -1   1  -5 1556.84   74.29
  -1  -1  -5 1650.53   74.49
   1  -1  -5 1635.54   74.29
   1  -1  -5 1586.14   73.89
   1   1  -5 1613.34   74.79
   1  -1   5 1721.53   75.39
   1   1   5 1555.54   74.09
   1  -1   5 1630.74   74.39
  -1   1   5 1654.73   74.19
   1  -1   5 1686.43   74.09
  -1   1   5 1760.02   74.49
  -1   1   5 1765.02   74.69
  -1  -1   5 1594.14   74.99
   1  -1   5 1700.23   74.39
   1   1   5 1650.73   75.39
  -1   2  -5   41.30    2.60
   2   1  -5   43.80    2.30
  -2  -1  -5   40.80    2.80
  -2  -1  -5   38.00    3.90
  -1   2  -5   42.50    2.50
   2   1  -5   39.20    3.10
  -1   2  -5   41.20    3.20
   1  -2  -5   42.20    2.60
  -2  -1  -5   44.10    2.70
  -1   2  -5   40.00    2.50
  -2  -1  -5   47.00    2.80
   1  -2  -5   42.30    2.80
   2   1   5   39.10    3.10
   2   1   5   42.90    2.70
  -2  -1   5   44.30    2.40
   1  -2   5   47.20    2.60
   1  -2   5   48.50    2.70
   1  -2   5   37.00    2.50
  -2  -1   5   42.40    2.80
  -1   2   5   43.70    2.80
  -2  -1   5   41.10    3.20
   1  -2   5   42.60    2.50
  -2   0  -5 2096.59   95.79
   0  -2  -5 2072.89   96.19
   2   0  -5 2084.19   95.59
   0   2  -5 2096.99   95.89
   0  -2  -5 2099.99   95.99
   2   0  -5 2026.00   95.49
   0  -2  -5 2128.79   95.89
   0   2  -5 2289.57   97.09
  -2   0  -5 2156.38   95.79
  -2   0  -5 2098.29   95.69
   0  -2  -5 2079.39   96.39
   0   2  -5 1953.50   95.89
   0  -2   5 2293.47   95.89
  -2   0   5 2095.39   95.89
  -2   0   5 2137.39   96.09
   2   0   5 1888.51   96.69
  -2   0   5 2229.38   96.49
   2   0   5 2199.18   95.79
   0  -2   5 2054.99   96.19
   0  -2   5 2130.29   96.49
   2   0   5 2234.18   96.09
   1   2  -5   44.90    2.80
   2  -1  -5   41.90    2.50
   1   2  -5   41.10    3.60
  -2   1  -5   42.50    2.60
  -1  -2  -5   45.50    3.00
  -2   1  -5   43.30    2.60
  -1  -2  -5   40.40    2.80
  -2   1  -5   48.30    2.50
  -1  -2  -5   39.90    3.00
   2  -1  -5   42.90    2.40
   2  -1  -5   42.00    2.30
  -2   1   5   41.90    2.60
  -2   1   5   44.50    3.00
  -1  -2   5   44.20    3.10
   2  -1   5   46.30    2.80
  -2   1   5   47.70    2.90
   2  -1   5   46.70    2.50
  -2  -2  -5 1465.25   67.29
  -2   2  -5 1476.95   66.89
  -2  -2  -5 1382.66   66.99
   2  -2  -5 1467.15   66.99
  -2  -2  -5 1460.15   67.49
  -2   2  -5 1432.56   66.89
   2   2  -5 1439.76   67.39
  -2   2  -5 1440.06   66.89
  -2   2   5 1494.75   67.39
   2  -2   5 1609.14   67.09
  -2   2   5 1493.35   67.09
  -2  -2   5 1479.95   67.59
  -2   2   5 1471.05   66.79
   2   2   5 1472.15   67.79
  -2   3  -5   17.10    1.50
   2  -3  -5   18.70    1.70
  -2   3  -5   17.50    1.70
  -2   3  -5   19.00    1.70
  -3  -2  -5   16.00    1.80
  -2   3   5   16.80    1.60
   2  -3   5   18.80    1.70
  -3  -2   5   16.30    2.00
  -1   3  -5  896.41   41.30
   1  -3  -5  857.41   41.40
  -1   3  -5  877.81   41.30
   3   1  -5  876.61   40.80
  -1   3  -5  924.91   42.20
  -3  -1  -5  880.51   41.50
   3   1  -5  878.21   40.90
  -3  -1   5  896.61   41.90
   3   1   5  963.80   41.70
  -3  -1   5  891.11   41.10
   1  -3   5  974.20   41.40
  -3  -1   5  875.91   41.50
   1  -3   5  922.81   41.60
   1  -3   5  907.31   41.50
  -3  -1   5  862.91   42.00
   3   1   5  882.01   41.10
   0   3  -5   18.20    1.50
   3   0  -5   14.70    1.20
  -3   0  -5   14.30    1.40
   0   3  -5   18.50    1.60
   0  -3  -5   17.30    1.60
   0  -3  -5   16.60    1.90
   0  -3  -5   15.40    1.70
   0  -3  -5   16.80    1.70
   0  -3  -5   16.00    1.80
   3   0  -5   17.40    1.20
   0   3  -5   15.10    1.70
  -3   0  -5   20.60    1.60
  -3   0   5   17.00    1.70
  -3   0   5   20.10    1.50
   3   0   5   17.30    1.40
  -3   0   5   18.10    2.00
   0  -3   5   15.60    1.50
   3   0   5   16.80    1.60
   0  -3   5   16.40    1.30
   0  -3   5   13.40    1.60
   0  -3   5   16.50    1.60
   1   3  -5  848.42   41.30
   3  -1  -5  903.91   39.80
  -1  -3  -5  833.22   41.00
  -3   1  -5  849.52   40.10
   1   3  -5  840.42   40.50
  -3   1  -5  931.41   40.20
  -3   1  -5  893.81   40.20
  -3   1  -5  824.72   40.30
  -1  -3  -5  883.21   40.80
  -1  -3  -5  889.11   40.60
   1   3  -5  897.61   40.30
  -1  -3   5  812.42   40.80
  -3   1   5  901.91   40.70
   3  -1   5  954.10   40.10
   3  -1   5  903.81   40.40
  -1  -3   5  835.72   40.70
  -3   1   5  844.72   40.20
  -3   1   5  893.11   40.40
  -3   1   5  905.41   41.00
   2   3  -5   18.00    2.60
  -3   2  -5   18.00    1.70
  -3   2  -5   14.60    1.40
  -2  -3  -5   16.60    1.70
  -2  -3  -5   16.00    2.00
   3  -2  -5   16.60    1.50
  -2  -3  -5   16.20    2.00
  -3   2  -5   16.70    1.60
  -3   2  -5   20.50    1.60
   3  -2  -5   18.80    1.20
  -3   2   5   19.70    1.70
  -2  -3   5   16.50    2.00
  -3   2   5   19.40    2.10
  -3   2   5   17.50    1.80
   3  -2   5   19.40    1.70
  -3   3  -5  549.25   25.00
   3  -3  -5  545.15   25.00
  -3   3  -5  518.65   25.00
  -3  -3  -5  513.85   25.40
  -3  -3  -5  518.45   25.70
  -3   3  -5  530.25   24.90
  -3   3   5  572.84   24.90
  -3   3   5  514.85   25.20
  -3  -3   5  534.65   25.80
   3  -3   5  488.75   25.00
  -3   4  -5   20.50    2.10
  -3   4  -5   21.00    2.00
   3  -4  -5   21.80    2.20
  -4  -3  -5   20.10    2.40
  -3   4  -5   21.30    2.20
   3  -4   5   18.30    2.00
  -4  -3   5   19.90    2.60
  -3   4   5   18.20    2.10
   2  -4  -5  665.13   30.90
  -2   4  -5  650.93   30.70
   4   2  -5  656.03   30.10
  -4  -2  -5  623.94   31.00
  -2   4  -5  649.74   30.60
  -2   4  -5  665.63   30.60
   2  -4   5  650.93   30.80
  -4  -2   5  658.93   31.40
  -4  -2   5  666.73   31.20
  -1   4  -5   37.00    2.70
   4   1  -5   42.70    2.50
  -1   4  -5   39.60    2.70
  -4  -1  -5   39.40    3.00
   1  -4  -5   38.80    2.90
   1  -4  -5   35.90    3.40
   1  -4   5   43.30    2.80
  -4  -1   5   38.30    3.10
  -4  -1   5   33.10    3.30
   4   1   5   36.90    2.50
  -4  -1   5   36.70    3.10
  -4  -1   5   40.10    2.80
   1  -4   5   41.70    3.10
   4   1   5   39.30    2.80
   1  -4   5   40.50    3.00
   4   0  -5  893.01   39.40
  -4   0  -5  869.01   40.10
   0  -4  -5  851.51   40.10
   0   4  -5  901.51   39.90
   0  -4  -5  845.32   40.80
  -4   0  -5  846.22   39.80
   0   4  -5  869.11   39.90
   0  -4  -5  900.61   40.60
   0  -4  -5  851.01   40.90
   4   0  -5  824.92   39.50
   0  -4  -5  845.62   40.30
   4   0   5  834.42   39.70
  -4   0   5  903.51   39.90
  -4   0   5  883.71   40.20
   4   0   5  883.41   40.00
   0  -4   5  876.71   40.40
   0  -4   5  888.21   40.20
  -4   0   5  818.52   40.70
   0  -4   5  814.12   40.40
  -4   1  -5   39.80    2.70
  -1  -4  -5   38.00    2.90
   1   4  -5   39.80    2.80
  -1  -4  -5   36.30    3.10
   4  -1  -5   38.50    2.30
  -1  -4  -5   37.50    3.20
  -4   1  -5   40.00    2.80
  -1  -4  -5   40.60    3.50
  -1  -4   5   38.80    3.10
  -4   1   5   35.60    2.60
  -1  -4   5   33.30    3.10
  -4   1   5   39.10    2.90
   4  -1   5   38.00    2.80
  -4   1   5   37.60    3.30
   4  -1   5   34.00    2.70
  -4   2  -5  704.63   31.20
   4  -2  -5  685.93   30.50
  -2  -4  -5  640.34   31.80
  -2  -4  -5  700.83   32.40
  -4   2  -5  683.83   31.30
  -4   2  -5  649.34   31.10
  -4   2   5  673.63   31.30
  -2  -4   5  652.43   32.10
  -4   2   5  638.54   31.20
   4  -2   5  659.83   31.30
  -4   2   5  628.64   31.60
  -4   2   5  683.03   32.10
  -3  -4  -5   22.30    2.80
   4  -3  -5   24.10    3.20
  -3  -4  -5   21.00    2.90
  -4   3  -5   20.60    2.00
  -4   3  -5   21.60    2.30
  -4   3  -5   22.80    2.40
  -3  -4   5   20.00    2.70
   4  -3   5   20.70    2.10
  -4   3   5   26.80    2.40
  -4   3   5   20.00    2.40
  -4   3   5   25.10    2.90
  -4   3   5   21.40    2.00
  -4   4  -5  352.26   17.80
  -4   4  -5  365.06   17.80
  -4   4  -5  355.46   18.00
  -4  -4  -5  378.16   19.00
   4  -4  -5  367.66   17.90
  -4  -4  -5  324.07   18.40
  -4   4   5  343.17   18.10
  -4   4   5  377.96   17.70
  -4  -4   5  361.76   18.90
  -5  -2  -5    4.80    1.40
   2  -5  -5    4.20    1.20
   2  -5  -5    5.30    1.90
   5   2  -5    5.30    1.00
  -2   5  -5    6.50    1.40
  -2   5  -5    4.00    1.20
  -2   5  -5    5.70    1.30
  -5  -2   5    4.80    1.70
   5   2   5    5.60    1.10
   2  -5   5    5.60    1.30
   1  -5  -5  387.76   19.60
   5   1  -5  366.76   17.80
   1  -5  -5  387.26   18.60
  -5  -1  -5  375.66   18.60
  -1   5  -5  378.76   18.20
  -1   5  -5  399.26   18.40
   1  -5  -5  359.76   19.40
   1  -5   5  387.86   18.80
  -5  -1   5  365.36   18.80
   5   1   5  348.57   17.90
   1  -5   5  397.56   18.50
  -5  -1   5  360.96   18.30
   0  -5  -5    1.60    0.90
  -5   0  -5    5.90    1.30
   5   0  -5    5.00    0.90
  -5   0  -5    4.30    1.30
   0  -5  -5    4.10    1.50
   0   5  -5    4.90    1.10
   0  -5  -5    4.10    1.10
   5   0  -5    3.60    0.90
   0  -5  -5    6.90    1.80
  -5   0   5    3.70    1.00
   0  -5   5    4.50    1.40
  -5   0   5    3.80    1.30
  -5   0   5    3.30    1.50
   0  -5   5    4.70    1.40
   5   0   5    3.20    0.90
  -5   1  -5  365.06   18.90
  -5   1  -5  365.96   18.40
   5  -1  -5  383.66   17.60
  -1  -5  -5  370.56   18.90
  -1  -5  -5  380.76   19.70
  -1  -5  -5  385.46   18.70
  -1  -5  -5  362.26   19.20
  -5   1  -5  384.16   18.40
  -5   1   5  358.06   19.20
  -5   1   5  374.06   18.40
  -1  -5   5  391.36   19.10
  -1  -5   5  422.96   19.60
   5  -1   5  358.16   18.30
  -5   1   5  359.86   18.60
  -2  -5  -5    4.80    1.70
  -5   2  -5    6.00    1.40
  -5   2  -5    6.70    1.60
  -2  -5  -5   12.70    2.40
  -2  -5  -5    3.10    1.20
   5  -2  -5    3.50    0.70
  -5   2   5    4.40    1.70
  -5   2   5    3.40    1.00
  -5   2   5    3.30    1.30
   5  -2   5    4.90    1.30
  -2  -5   5    4.50    1.50
  -2  -5   5    4.30    1.50
   0   0  -6 4205.68  198.78
   0   0  -6 4336.87  195.98
   0   0  -6 4228.48  195.88
   0   0  -6 4421.66  196.68
   0   0   6 4600.54  196.58
   0   0   6 4285.17  196.78
  -1   0  -6   75.39    4.00
   1   0  -6   77.59    4.00
   0   1  -6   79.39    4.40
  -1   0  -6   77.19    4.10
   0  -1  -6   82.09    5.30
  -1   0  -6   73.29    4.40
  -1   0  -6   73.29    5.00
  -1   0  -6   79.49    4.00
   0  -1  -6   80.39    4.30
   0   1  -6   73.69    4.20
   0   1  -6   80.39    4.10
   0   1  -6   75.99    5.30
   0  -1   6   76.09    4.60
   0  -1   6   84.79    4.10
  -1   0   6   80.09    4.40
   1   0   6   77.79    4.60
   0   1   6   83.89    4.30
   0   1   6   78.39    4.80
  -1   0   6   79.79    4.90
   1   0   6   73.69    4.20
   1  -1  -6  524.65   23.70
  -1  -1  -6  491.95   24.90
   1   1  -6  510.65   23.80
  -1   1  -6  521.25   24.10
  -1   1  -6  526.95   25.30
  -1   1  -6  500.65   24.20
  -1   1  -6  510.95   24.00
   1   1  -6  535.15   24.70
  -1  -1  -6  526.05   24.30
  -1   1   6  557.74   24.70
   1   1   6  491.55   25.40
   1  -1   6  552.04   24.40
  -1  -1   6  518.15   24.90
  -1   1   6  527.85   24.30
   1   1   6  521.25   24.20
   1   1   6  465.95   24.50
   1  -1   6  547.75   24.20
  -1   1   6  505.05   24.00
   1  -1   6  552.04   25.60
  -1   2  -6   51.49    3.20
  -2  -1  -6   56.19    3.30
   1  -2  -6   52.79    3.40
  -1   2  -6   55.79    3.20
   2   1  -6   60.29    2.90
  -1   2  -6   55.49    4.10
  -2  -1  -6   55.79    3.40
   1  -2  -6   53.69    3.30
  -1   2  -6   50.29    3.10
   1  -2   6   47.30    3.20
   1  -2   6   54.09    3.20
  -2  -1   6   55.69    2.90
  -2  -1   6   48.90    3.90
   2   1   6   51.79    3.20
  -1   2   6   53.89    3.50
  -2  -1   6   50.39    3.40
  -1   2   6   56.59    3.20
   2   1   6   48.40    3.30
   1  -2   6   55.79    3.10
   1  -2   6   53.49    3.00
   0  -2  -6 3096.49  136.89
   0   2  -6 2984.00  136.99
   0  -2  -6 3040.90  137.09
  -2   0  -6 2867.41  136.69
   0   2  -6 3039.70  138.29
   2   0  -6 2889.11  136.49
   2   0  -6 3000.10  136.59
   0   2  -6 2784.32  136.99
   0  -2  -6 3210.78  137.29
  -2   0  -6 3149.28  136.89
  -2   0  -6 2976.60  136.99
   0   2  -6 2931.31  136.69
   2   0   6 2928.31  137.19
   2   0   6 3140.29  137.09
  -2   0   6 3078.69  136.99
   0  -2   6 3138.09  137.99
  -2   0   6 3008.30  137.19
  -2   0   6 3105.99  137.59
   0  -2   6 2931.61  136.69
   0  -2   6 3110.79  137.69
   2   0   6 3160.38  136.89
  -1  -2  -6   51.89    3.50
  -2   1  -6   50.99    3.10
  -1  -2  -6   49.50    3.20
   2  -1  -6   50.09    3.00
  -2   1  -6   57.59    3.00
  -2   1  -6   49.20    3.10
  -1  -2  -6   54.19    3.60
   2  -1  -6   53.19    2.70
   1   2  -6   54.69    4.50
  -2   1  -6   50.59    3.10
   1   2  -6   51.89    3.40
   2  -1   6   53.99    3.30
  -2   1   6   52.69    3.60
  -2   1   6   52.89    3.40
  -2   1   6   55.69    3.20
  -1  -2   6   47.70    3.50
   2  -1   6   57.19    3.00
  -2  -2  -6 2214.18  103.59
  -2   2  -6 2244.28  103.19
   2  -2  -6 2320.07  103.29
  -2   2  -6 2257.97  103.29
   2   2  -6 2368.76  102.79
  -2   2  -6 2205.18  103.29
   2   2  -6 2305.17  103.89
  -2  -2  -6 2182.28  103.79
   2   2   6 2209.88  104.79
  -2   2   6 2287.47  103.39
  -2   2   6 2347.77  103.79
  -2  -2   6 2381.76  104.09
   2  -2   6 2210.08  103.29
  -2   2   6 2328.37  103.09
  -2   3  -6   29.80    2.30
   3   2  -6   31.80    1.90
   2  -3  -6   31.10    2.40
  -2   3  -6   31.80    2.40
  -3  -2  -6   28.40    2.50
  -2   3  -6   31.60    2.30
  -2   3   6   27.70    2.30
   2  -3   6   27.80    2.30
  -3  -2   6   32.50    2.90
  -1   3  -6  294.47   15.90
  -3  -1  -6  308.27   15.20
  -1   3  -6  304.17   15.00
   3   1  -6  302.67   14.50
  -1   3  -6  307.97   14.90
   1  -3  -6  329.27   15.30
   3   1  -6  348.57   14.70
  -1   3  -6  313.57   15.10
   1  -3  -6  316.47   15.30
   1  -3  -6  306.37   15.40
   1  -3   6  325.77   15.20
   1  -3   6  324.47   15.10
   3   1   6  314.77   15.50
  -3  -1   6  323.77   15.80
   3   1   6  304.17   14.90
  -3  -1   6  297.07   14.80
  -3  -1   6  310.77   15.30
  -3  -1   6  297.27   15.80
   1  -3   6  302.27   15.00
  -3   0  -6   47.30    2.90
   0  -3  -6   47.90    3.70
   0   3  -6   47.90    3.20
   3   0  -6   47.00    2.70
   0  -3  -6   51.19    3.20
   0   3  -6   46.20    3.00
   0  -3  -6   47.30    3.20
  -3   0  -6   46.50    3.10
   3   0  -6   47.40    2.70
   0   3  -6   50.69    3.80
   0  -3  -6   48.90    3.40
   0  -3   6   50.49    3.40
  -3   0   6   48.80    3.70
  -3   0   6   43.30    2.90
  -3   0   6   51.09    3.30
   3   0   6   49.60    3.20
   3   0   6   48.20    2.90
   0  -3   6   46.20    3.20
   0  -3   6   49.50    2.90
  -1  -3  -6  339.77   15.90
  -3   1  -6  289.67   15.20
   1   3  -6  326.97   15.50
  -1  -3  -6  315.67   16.10
  -1  -3  -6  289.07   15.60
   3  -1  -6  328.37   14.80
   1   3  -6  288.37   16.40
  -3   1  -6  323.37   15.30
  -3   1  -6  340.97   15.30
  -1  -3  -6  327.77   15.90
   1   3  -6  302.07   15.50
  -3   1   6  331.87   15.50
  -3   1   6  328.87   16.10
   3  -1   6  316.77   15.50
  -1  -3   6  321.07   15.80
   3  -1   6  324.77   15.10
  -1  -3   6  349.37   16.10
  -3   1   6  309.37   15.70
   3  -2  -6   28.80    2.20
  -3   2  -6   31.20    2.30
  -2  -3  -6   29.90    2.70
  -3   2  -6   28.00    2.20
  -2  -3  -6   31.70    2.90
   3  -2  -6   29.10    1.80
  -3   2  -6   30.40    2.40
  -3   2   6   28.10    2.30
   3  -2   6   26.30    2.30
  -3   2   6   32.40    2.90
  -3   2   6   29.90    2.60
  -2  -3   6   31.40    2.80
  -3   3  -6  190.38   10.00
  -3  -3  -6  186.98   10.40
  -3  -3  -6  199.28   10.80
   3  -3  -6  193.08   10.00
  -3   3  -6  201.88   10.00
  -3   3  -6  190.88    9.90
  -3   3   6  183.18   10.20
  -3  -3   6  203.68   10.90
  -3   3   6  211.78    9.90
   3  -3   6  177.68   10.00
  -3   4  -6    7.80    1.40
  -3   4  -6    7.90    1.50
   3  -4  -6    7.30    1.40
  -4  -3  -6    8.20    1.70
  -3   4  -6    6.40    1.40
   3  -4   6    8.10    1.50
  -3   4   6    8.00    1.60
  -4  -3   6    8.20    2.00
  -2   4  -6 1121.19   50.99
  -4  -2  -6 1055.59   51.39
   2  -4  -6 1201.18   51.29
  -2   4  -6 1120.79   50.99
  -2   4  -6 1112.09   50.99
   4   2  -6 1095.99   50.39
  -4  -2   6 1062.39   51.39
   2  -4   6 1100.39   51.09
  -4  -2   6 1069.59   51.69
   1  -4  -6   13.90    1.70
  -1   4  -6   15.80    1.70
  -1   4  -6   14.70    1.60
  -4  -1  -6   14.60    1.80
   4   1  -6   14.10    1.40
  -4  -1   6   14.20    1.50
   1  -4   6   15.70    1.70
   1  -4   6   14.90    1.80
  -4  -1   6   16.50    2.30
  -4  -1   6   13.60    2.40
   1  -4   6   15.70    1.60
  -4  -1   6   16.60    2.20
   4   1   6   14.00    1.50
   4   1   6   15.30    1.80
   4   0  -6 1472.85   65.09
   0   4  -6 1567.94   65.79
   0   4  -6 1472.25   65.79
   4   0  -6 1410.56   65.29
   0  -4  -6 1446.16   66.19
   0  -4  -6 1402.06   66.69
  -4   0  -6 1335.77   65.49
   0  -4  -6 1406.46   65.99
   0  -4  -6 1441.06   66.69
   0  -4  -6 1455.95   66.19
  -4   0  -6 1446.96   65.89
   4   0   6 1376.56   65.49
  -4   0   6 1352.26   65.59
   0  -4   6 1576.54   66.49
  -4   0   6 1335.87   66.59
  -4   0   6 1429.16   65.99
   4   0   6 1427.36   65.89
   0  -4   6 1471.45   66.19
  -1  -4  -6   17.00    2.10
  -1  -4  -6   14.30    2.10
  -1  -4  -6   18.30    2.20
  -4   1  -6   15.30    1.60
   1   4  -6   16.60    2.10
  -4   1  -6   15.60    1.80
  -1  -4  -6   15.40    1.80
   4  -1  -6   14.90    1.40
   4  -1   6   13.10    1.70
  -1  -4   6   14.50    1.80
  -4   1   6   13.80    2.00
  -4   1   6   13.00    2.30
  -1  -4   6   12.70    2.00
  -4   1   6   12.30    1.50
   4  -2  -6 1174.08   49.70
   2   4  -6  948.71   50.99
  -4   2  -6 1147.99   50.59
  -4   2  -6 1066.19   50.39
  -2  -4  -6 1189.58   51.89
  -2  -4  -6 1106.99   51.29
   4  -2   6 1057.59   50.59
  -4   2   6 1062.79   50.99
  -2  -4   6 1008.00   51.29
  -4   2   6 1140.69   50.59
  -4   2   6 1085.89   50.39
  -4   2   6 1127.59   51.39
  -3  -4  -6    9.60    2.20
  -4   3  -6    7.80    1.40
  -4   3  -6    6.70    1.50
  -4   3  -6    5.80    1.40
  -3  -4  -6    8.10    1.90
  -4   3   6    8.80    1.60
  -4   3   6    7.00    1.80
  -3  -4   6    6.90    1.80
   4  -3   6    6.70    1.40
  -4   3   6    6.60    1.20
  -4   3   6    4.00    1.20
  -2   5  -6   11.20    1.90
   2  -5  -6    7.70    1.60
  -5  -2  -6   10.00    1.90
   5   2  -6   11.20    1.30
   2  -5  -6   15.00    3.00
  -2   5  -6    9.70    1.70
  -2   5  -6   13.50    2.00
   2  -5   6   13.10    1.80
  -5  -2   6   16.40    2.80
   5   2   6   12.70    1.60
  -1   5  -6  148.39    7.50
   1  -5  -6  130.09    8.40
   1  -5  -6  134.49    7.60
  -5  -1  -6  126.59    7.60
  -1   5  -6  134.69    7.30
   5   1  -6  128.29    6.90
  -5  -1   6  115.79    8.30
  -5  -1   6  136.69    8.00
   1  -5   6  126.99    7.60
  -5  -1   6  154.88    7.60
   5   1   6  122.29    7.10
   0   5  -6   19.80    2.00
  -5   0  -6   17.40    2.20
   0  -5  -6   21.10    2.60
   5   0  -6   19.50    2.00
   0  -5  -6   17.20    2.10
  -5   0  -6   16.30    2.00
   0  -5  -6   17.50    2.60
   5   0  -6   18.60    1.70
  -5   0   6   18.30    1.90
  -5   0   6   16.30    2.40
   0  -5   6   17.80    2.10
  -5   0   6   13.20    2.50
   5   0   6   15.10    1.70
  -1  -5  -6  138.89    8.00
  -5   1  -6  123.29    7.40
   5  -1  -6  130.29    6.60
  -1  -5  -6  126.89    8.00
  -1  -5  -6  137.69    8.60
  -5   1  -6  135.99    7.40
   5  -1   6  125.59    7.30
  -5   1   6  112.39    8.10
  -5   1   6  128.89    7.40
  -1  -5   6  138.29    8.10
  -1  -5   6  147.59    8.50
  -5   1   6  131.39    7.60
  -2  -5  -6   14.50    2.50
  -5   2  -6   14.80    2.20
   5  -2  -6   11.00    1.20
  -2  -5  -6   12.00    2.60
  -5   2   6   12.20    1.80
  -5   2   6   11.50    2.10
  -5   2   6   11.80    2.60
  -2  -5   6   11.20    2.40
   5  -2   6   11.40    1.90
   0   0  -7  377.56   18.10
   0   0  -7  335.47   18.90
   0   0  -7  357.96   17.30
   0   0  -7  369.36   17.30
   0   0   7  404.16   17.60
   0   0   7  383.66   18.30
   1   0  -7  127.09    6.10
   0   1  -7  112.59    6.50
  -1   0  -7  124.29    6.20
   0  -1  -7  127.89    6.30
   0  -1  -7  119.49    5.70
   0   1  -7  120.99    6.30
   0   1  -7  124.49    6.10
  -1   0  -7  116.99    6.00
  -1   0  -7  117.39    6.00
   0   1  -7  114.09    7.50
  -1   0  -7  115.69    6.50
   1   0   7  117.49    6.70
   0   1   7  115.19    6.90
  -1   0   7  115.19    7.00
  -1   0   7  125.99    6.40
   0  -1   7  124.99    6.00
   0   1   7  126.79    6.40
   0  -1   7  109.79    6.70
   0  -1   7  132.09    6.20
   1   0   7  113.99    6.20
   1  -1  -7 1279.27   59.39
   1   1  -7 1282.37   59.69
   1   1  -7 1371.06   60.69
  -1   1  -7 1280.27   59.89
  -1   1  -7 1238.18   60.09
  -1   1  -7 1320.17   59.89
  -1  -1  -7 1284.67   60.09
   1   1   7 1231.28   60.49
   1   1   7 1349.16   60.09
  -1   1   7 1242.08   59.79
  -1  -1   7 1284.77   60.79
  -1  -1   7 1419.56   59.69
   1  -1   7 1374.86   60.39
  -1   1   7 1348.07   60.69
   1  -1   7 1307.37   59.69
  -1   1   7 1413.86   60.29
   1  -1   7 1321.97   60.09
  -2  -1  -7   98.89    5.30
   2   1  -7   90.69    4.50
  -1   2  -7   84.39    4.90
  -1   2  -7   90.39    4.80
   1  -2  -7   88.59    5.10
   1  -2  -7   94.09    5.00
  -2  -1  -7   85.79    5.00
  -1   2  -7   88.59    4.90
   2   1   7   82.29    4.90
  -1   2   7   86.99    4.90
   1  -2   7   79.79    5.00
   2   1   7   89.39    5.20
  -2  -1   7   84.29    5.70
  -1   2   7   91.29    5.40
   1  -2   7   91.59    4.90
   2   0  -7  261.97   12.50
  -2   0  -7  264.17   13.20
  -2   0  -7  256.57   12.70
   0   2  -7  257.37   13.10
   0  -2  -7  264.77   13.20
   0   2  -7  263.67   13.10
  -2   0  -7  274.27   13.00
   0  -2  -7  292.27   13.30
   0   2  -7  255.97   14.40
   0   2  -7  276.37   12.80
   0  -2  -7  259.57   12.80
   2   0  -7  265.67   12.70
  -2   0   7  264.97   13.10
   2   0   7  243.18   13.30
   0  -2   7  273.27   13.10
   2   0   7  280.47   13.30
  -2   0   7  263.47   13.20
   0  -2   7  289.57   13.60
   0  -2   7  290.77   12.90
  -2   0   7  265.07   13.80
   2   0   7  277.77   13.00
   2  -1  -7   89.19    4.40
   1   2  -7   86.99    4.50
  -2   1  -7   88.09    4.90
  -2   1  -7   91.19    4.70
  -2   1  -7   88.69    4.80
  -1  -2  -7   86.29    5.00
  -1  -2  -7   88.59    5.20
   1   2  -7   89.09    6.40
   1   2  -7   89.49    5.20
  -2   1  -7   87.99    4.80
   2  -1   7   82.79    5.00
  -2   1   7   86.89    5.10
  -2   1   7   92.29    5.50
  -1  -2   7   82.09    5.40
   2  -1   7   91.89    4.70
  -2   1   7   88.29    4.90
   2   2  -7  215.68   10.10
  -2   2  -7  206.78   10.60
  -2  -2  -7  202.68   10.90
   2  -2  -7  217.58   10.60
  -2   2  -7  206.18   10.50
   2   2  -7  218.68   11.20
  -2  -2  -7  210.78   11.20
  -2   2  -7  193.38   10.50
  -2  -2   7  220.98   11.50
  -2   2   7  215.78   10.40
  -2   2   7  221.58   10.80
  -2   2   7  221.28   11.20
   2  -2   7  203.98   10.60
  -3  -2  -7   76.79    5.00
   2  -3  -7   74.49    4.50
  -2   3  -7   70.89    4.40
  -3  -2  -7   73.49    4.70
   3   2  -7   77.79    4.00
  -2   3  -7   74.79    4.50
  -2   3  -7   67.49    4.30
  -3  -2   7   75.19    5.20
   2  -3   7   68.29    4.40
  -2   3   7   66.99    4.40
  -1   3  -7  722.73   33.60
  -1   3  -7  725.13   33.80
   1  -3  -7  690.23   34.00
  -3  -1  -7  734.83   34.00
   1  -3  -7  748.13   34.00
   3   1  -7  744.43   33.30
  -1   3  -7  724.93   33.80
   3   1  -7  721.03   33.20
   1  -3  -7  759.62   34.00
   1  -3   7  757.62   33.70
  -3  -1   7  778.12   34.80
  -3  -1   7  705.13   34.80
   3   1   7  661.73   34.10
  -3  -1   7  736.13   34.10
  -3  -1   7  704.53   33.40
   3   1   7  690.53   33.70
   0   3  -7   89.59    6.30
   0   3  -7   93.79    5.50
   3   0  -7  101.19    4.90
   0   3  -7   97.99    5.40
   0  -3  -7   97.19    5.60
   3   0  -7   94.09    5.00
   0  -3  -7   87.19    5.40
  -3   0  -7  102.19    5.10
  -3   0  -7   98.99    5.40
  -3   0   7   98.89    5.60
   0  -3   7   95.39    5.10
  -3   0   7   90.59    5.10
   3   0   7   88.39    5.50
   0  -3   7   96.29    5.50
  -3   0   7   94.79    6.10
   0  -3   7  103.89    5.80
   1   3  -7  745.43   34.60
  -3   1  -7  723.63   34.30
   1   3  -7  697.93   35.90
   3  -1  -7  759.62   33.80
  -3   1  -7  737.23   34.20
   1   3  -7  759.42   34.70
  -1  -3  -7  730.33   35.20
  -3   1  -7  774.92   34.30
  -1  -3  -7  735.63   34.80
  -1  -3  -7  764.22   34.90
  -3   1   7  745.03   34.80
  -3   1   7  763.12   34.50
   3  -1   7  676.33   34.50
  -3   1   7  810.42   35.40
   3  -1   7  754.22   34.10
  -1  -3   7  666.83   34.90
   3  -2  -7   72.69    4.40
  -2  -3  -7   67.09    4.70
  -3   2  -7   69.99    4.30
  -2  -3  -7   73.19    5.00
  -3   2  -7   67.49    4.30
  -3   2  -7   73.69    4.30
   3  -2  -7   75.19    3.70
  -2  -3   7   59.69    4.70
  -3   2   7   77.59    4.40
  -3   2   7   73.19    5.00
   3  -2   7   66.79    4.40
  -3   2   7   73.39    4.70
   3  -3  -7  463.25   21.20
  -3   3  -7  446.26   21.20
  -3  -3  -7  411.96   21.60
  -3  -3  -7  450.75   22.10
  -3   3  -7  462.45   21.20
  -3   3  -7  448.36   21.20
   3  -3   7  431.46   21.20
  -3   3   7  408.46   21.30
  -3  -3   7  425.46   22.00
   3  -4  -7   41.90    3.20
  -4  -3  -7   36.60    3.40
  -3   4  -7   35.60    3.10
   4   3  -7   36.40    2.50
  -3   4  -7   33.60    3.10
  -3   4  -7   36.70    3.00
  -4  -3   7   41.30    3.90
  -3   4   7   34.70    3.20
   3  -4   7   35.00    3.00
  -2   4  -7  110.09    6.40
   2  -4  -7  117.69    6.60
  -2   4  -7  106.29    6.30
  -4  -2  -7  117.89    6.80
   4   2  -7  110.59    5.80
  -2   4  -7  106.09    6.30
   4   2   7  103.89    6.10
   2  -4   7  113.19    6.40
  -2   4   7  100.89    6.20
  -4  -2   7  119.59    7.20
  -1   4  -7   41.60    3.00
  -1   4  -7   40.50    3.10
   1  -4  -7   41.40    3.20
  -4  -1  -7   44.80    3.30
   4   1  -7   39.80    2.60
  -4  -1   7   40.80    3.40
   4   1   7   39.20    2.80
  -4  -1   7   37.40    3.80
  -4  -1   7   46.70    3.90
   4   1   7   40.90    3.30
  -4  -1   7   35.70    3.40
   1  -4   7   39.10    2.90
   4   0  -7  131.29    7.10
   0  -4  -7  134.99    7.70
   4   0  -7  145.19    7.00
   0  -4  -7  146.59    8.40
   0   4  -7  142.29    7.70
   0  -4  -7  145.89    8.00
   0  -4  -7  136.39    8.50
  -4   0  -7  142.29    7.70
   0   4  -7  142.39    7.60
  -4   0   7  122.59    8.30
  -4   0   7  139.09    7.40
   0  -4   7  154.28    8.20
   4   0   7  134.69    7.70
   0  -4   7  132.99    7.70
  -4   0   7  142.99    7.80
   4   0   7  132.49    7.30
  -1  -4  -7   41.20    3.30
  -1  -4  -7   46.70    3.60
  -4   1  -7   43.20    3.10
  -1  -4  -7   34.00    3.30
  -1  -4  -7   42.00    3.80
   1   4  -7   38.90    3.20
  -4   1  -7   44.90    3.10
   4  -1  -7   42.40    2.60
  -4   1   7   41.70    3.00
  -1  -4   7   40.20    3.60
  -4   1   7   42.30    3.20
   4  -1   7   40.30    3.10
  -1  -4   7   41.70    3.40
  -4   1   7   36.80    3.70
  -2  -4  -7  111.69    6.90
  -4   2  -7  104.69    6.30
   2   4  -7   98.69    6.40
   4  -2  -7  115.89    5.60
  -4   2  -7  107.49    6.20
  -2  -4  -7  119.99    7.50
  -4   2   7  118.19    7.30
  -4   2   7  113.79    6.30
  -4   2   7  109.19    7.50
   4  -2   7  103.29    6.30
  -2  -4   7  109.59    7.20
  -4   2   7  110.79    6.40
  -4   3  -7   40.50    3.00
  -4   3  -7   48.10    4.50
  -3  -4  -7   37.20    3.80
  -4   3  -7   33.50    3.10
  -3  -4  -7   37.00    3.50
   4  -3   7   29.40    2.90
  -4   3   7   35.30    3.70
  -4   3   7   35.40    3.10
  -4   3   7   29.50    3.20
  -4   3   7   37.30    2.90
  -3  -4   7   38.30    3.80
  -2   5  -7   49.70    3.70
  -2   5  -7   52.29    3.80
   5   2  -7   49.20    3.20
  -5  -2  -7   45.90    4.00
  -2   5  -7   49.80    3.80
   5   2   7   48.70    3.50
   2  -5   7   56.09    3.90
  -1   5  -7  325.37   15.60
  -1   5  -7  319.57   15.50
  -5  -1  -7  304.07   15.80
   1  -5  -7  318.07   16.80
   5   1  -7  297.27   14.90
   1  -5  -7  323.97   15.90
   5   1   7  299.27   15.20
  -5  -1   7  298.57   16.00
  -5  -1   7  295.37   16.70
   0  -5  -7   53.99    4.90
   0   5  -7   65.19    4.40
   0  -5  -7   65.39    4.60
   0  -5  -7   66.29    4.90
   0  -5  -7   69.79    5.50
   0   5  -7   69.69    4.50
  -5   0  -7   67.09    4.60
   5   0  -7   67.79    3.80
   5   0   7   63.89    4.10
   0  -5   7   68.49    4.80
  -5   0   7   60.49    5.30
  -5   0   7   70.89    4.50
  -5   0   7   65.59    4.90
  -1  -5  -7  314.87   16.90
  -1  -5  -7  293.37   16.20
  -5   1  -7  328.67   15.60
   5  -1  -7  311.97   14.70
  -1  -5  -7  328.07   16.10
  -5   1  -7  312.67   15.50
  -1  -5   7  310.17   16.50
  -5   1   7  291.87   16.60
  -5   1   7  298.57   15.70
  -5   1   7  295.17   15.50
   5  -1   7  310.37   15.60
  -1  -5   7  316.37   16.30
  -5   2  -7   53.69    4.20
  -2  -5  -7   58.09    5.10
   5  -2   7   46.90    5.20
  -5   2   7   50.99    4.10
  -5   2   7   50.69    4.80
  -5   2   7   57.09    4.00
  -2  -5   7   56.29    4.80
   0   0  -8   53.99    3.20
   0   0  -8   59.89    3.30
   0   0  -8   51.39    3.20
   0   0  -8   59.09    4.00
   0   0   8   62.69    4.20
   0   0   8   54.69    3.40
   1   0  -8  328.87   15.50
   0   1  -8  303.27   16.00
   0   1  -8  343.17   15.70
   0   1  -8  355.66   15.60
   0  -1  -8  345.37   15.70
  -1   0  -8  324.17   15.40
  -1   0  -8  336.37   15.60
  -1   0  -8  327.47   16.10
   1   0   8  332.77   15.70
  -1   0   8  347.97   15.80
   1   0   8  308.47   16.30
   0  -1   8  281.87   15.50
   0  -1   8  312.97   16.30
  -1   0   8  309.27   16.50
   0   1   8  337.37   15.90
   0   1   8  340.17   16.60
   1   1  -8 3118.09  141.49
  -1   1  -8 3087.59  142.09
  -1  -1  -8 3058.69  141.99
   1   1  -8 3192.98  142.59
  -1   1  -8 3036.60  141.69
  -1   1  -8 3251.17  141.69
   1  -1  -8 3044.90  141.19
  -1   1   8 3033.30  141.99
  -1  -1   8 3231.98  142.79
   1   1   8 3095.39  141.89
   1  -1   8 3421.06  142.49
  -1  -1   8 2837.62  141.69
   1   1   8 3092.79  142.49
   1  -1   8 3215.28  141.59
  -1   1   8 3215.78  142.79
   1  -1   8 3184.88  141.99
  -2  -1  -8  276.47   13.60
  -1   2  -8  262.67   13.30
  -1   2  -8  262.17   13.20
   1  -2  -8  270.17   13.40
  -1   2  -8  279.07   13.10
  -2  -1  -8  273.27   13.40
   2   1  -8  266.97   12.80
   1  -2  -8  276.47   13.30
   1  -2   8  283.57   13.70
  -1   2   8  274.57   13.90
  -1   2   8  267.67   13.30
   2   1   8  252.87   13.20
   2   1   8  275.57   13.70
  -2  -1   8  257.17   14.10
   1  -2   8  272.87   13.30
   0   2  -8   41.00    2.60
   0  -2  -8   40.30    2.90
   2   0  -8   38.80    2.40
  -2   0  -8   38.10    2.90
  -2   0  -8   40.60    2.70
   0   2  -8   39.10    2.90
   2   0  -8   42.50    2.40
   0   2  -8   38.60    2.90
  -2   0  -8   44.40    2.60
  -2   0   8   40.60    2.90
   2   0   8   46.00    3.20
   0  -2   8   45.20    3.10
   2   0   8   33.40    2.90
   0   2   8   37.80    2.70
   2   0   8   39.40    2.80
  -2   0   8   41.10    3.60
   0  -2   8   36.30    2.50
   2  -1  -8  264.97   12.40
   1   2  -8  278.17   12.70
  -2   1  -8  268.07   13.20
   1   2  -8  280.07   13.20
  -2   1  -8  250.27   12.90
  -2   1  -8  260.97   12.80
   1   2  -8  263.57   13.50
  -1  -2  -8  278.27   13.40
  -2   1   8  273.97   13.00
   2  -1   8  262.07   12.80
  -2   1   8  275.87   13.40
  -1  -2   8  262.97   13.80
  -2   1   8  286.97   14.00
   2  -1   8  252.47   13.20
  -1  -2   8  238.88   13.40
  -2   2  -8   32.30    2.50
   2   2  -8   31.30    2.10
  -2   2  -8   32.80    2.50
  -2   2  -8   31.10    2.40
  -2  -2  -8   29.00    2.60
   2   2  -8   32.70    3.00
  -2   2   8   33.00    3.00
  -2  -2   8   31.70    3.10
   2  -2   8   31.10    2.50
  -2   2   8   31.90    2.30
  -2   2   8   30.00    2.60
   2  -3  -8  150.38    7.90
  -2   3  -8  142.49    7.80
  -3  -2  -8  150.38    8.20
  -2   3  -8  157.98    8.00
  -2   3  -8  146.39    7.80
   3   2  -8  154.18    7.30
   3   2   8  125.29    7.60
   2  -3   8  137.19    7.80
  -3  -2   8  145.69    8.80
  -2   3   8  139.69    7.90
  -1   3  -8 1893.71   83.59
  -3  -1  -8 1888.11   83.89
   3   1  -8 1934.11   83.29
   3   1  -8 1825.42   83.09
   1  -3  -8 1929.81   83.99
   1  -3  -8 1861.11   84.09
  -1   3  -8 1919.91   83.89
  -1   3  -8 1857.61   83.79
   3   1   8 1727.93   83.69
  -3  -1   8 1832.22   83.99
   1  -3   8 1733.13   83.59
   3   1   8 1700.03   84.19
  -3  -1   8 1737.03   84.79
   0  -3  -8  173.08    9.50
  -3   0  -8  191.78    9.30
   0   3  -8  176.78    8.90
   0   3  -8  182.78    9.40
   3   0  -8  176.98    8.80
   3   0  -8  179.98    8.70
   0   3  -8  168.28    9.40
   0  -3  -8  184.08    9.50
  -3   0  -8  176.98    8.90
  -3   0   8  173.28    8.90
  -3   0   8  187.08    9.50
  -3   0   8  169.68   10.10
   3   0   8  158.78    9.50
   0  -3   8  204.38   10.00
   1   3  -8 1929.31   87.79
  -1  -3  -8 1950.20   88.79
  -3   1  -8 1930.71   88.39
   3  -1  -8 1930.01   87.69
   1   3  -8 1946.11   88.59
  -3   1  -8 1962.70   88.19
  -3   1  -8 2049.40   89.19
   1   3  -8 1846.62   88.69
  -3   1   8 1991.50   88.39
  -3   1   8 1978.00   89.39
  -3   1   8 1884.41   88.79
  -1  -3   8 1988.70   89.29
   3  -1   8 1805.72   88.59
  -2  -3  -8  153.58    8.80
  -3   2  -8  143.09    7.90
  -2  -3  -8  137.99    8.20
  -3   2  -8  135.99    7.80
   3  -2  -8  156.08    7.10
   2   3  -8  141.59    7.90
  -3   2  -8  146.19    7.80
  -3   2   8  146.59    8.30
   3  -2   8  142.69    8.00
  -2  -3   8  145.39    8.70
  -3   2   8  144.79    7.80
  -3   2   8  160.08    8.80
  -3   3  -8 1187.68   54.19
   3  -3  -8 1134.69   53.99
  -3  -3  -8 1116.69   54.49
  -3   3  -8 1200.18   54.09
   3   3  -8 1249.57   53.39
  -3   3  -8 1194.98   54.19
   3  -3   8 1093.09   54.19
  -3  -3   8 1214.68   55.19
  -3   3   8 1127.49   54.29
   4   3  -8   85.79    4.80
  -3   4  -8   90.09    5.50
   3  -4  -8   90.29    5.60
  -3   4  -8   80.49    5.50
  -4  -3  -8   83.59    5.90
  -3   4  -8   87.89    5.50
   3  -4   8   84.49    5.50
  -3   4   8   83.49    5.60
  -4  -3   8   88.09    6.40
  -2   4  -8   19.40    2.10
  -2   4  -8   21.70    2.40
   4   2  -8   20.20    1.80
   2  -4  -8   22.60    2.40
  -2   4  -8   18.90    2.10
  -4  -2  -8   18.50    2.60
  -4  -2   8   23.10    2.90
   4   2   8   17.70    2.10
   2  -4   8   19.10    2.10
  -2   4   8   20.00    2.20
   4   2   8   19.60    2.60
  -4  -1  -8  154.68    8.80
  -1   4  -8  154.38    8.60
   4   1  -8  158.18    8.10
  -1   4  -8  162.48    8.40
  -1   4  -8  158.78    8.70
   1  -4  -8  160.58    8.90
  -4  -1   8  172.38    9.80
  -4  -1   8  159.98    9.00
   4   1   8  146.99    8.90
  -4  -1   8  154.88    9.80
   1  -4   8  175.38    8.70
   0  -4  -8   23.10    2.50
  -4   0  -8   27.10    2.50
   4   0  -8   24.60    2.00
   0  -4  -8   21.60    2.70
   0   4  -8   27.80    2.40
   4   0  -8   26.40    2.00
   0   4  -8   21.40    2.50
   0  -4  -8   26.30    2.70
   4   0   8   26.60    2.60
   0  -4   8   24.10    2.70
  -4   0   8   27.50    2.20
   4   0   8   26.20    2.20
   0  -4   8   24.70    2.50
  -4   0   8   23.80    3.10
  -4   0   8   26.50    2.70
   1   4  -8  145.49    8.70
   4  -1  -8  165.88    8.00
  -1  -4  -8  160.58    9.70
  -4   1  -8  156.98    8.50
  -4   1  -8  167.38    9.10
  -1  -4  -8  161.68    9.00
   4  -1   8  153.08    8.80
  -4   1   8  160.98    8.60
  -4   1   8  156.38    9.60
  -1  -4   8  175.98    9.60
  -4   1   8  163.68    8.80
   2   4  -8   28.70    2.80
   4  -2  -8   22.70    1.70
  -4   2  -8   21.00    2.10
  -2  -4  -8   18.50    2.80
  -4   2  -8   25.40    2.40
  -2  -4  -8   20.00    2.50
  -4   2   8   20.00    2.30
  -4   2   8   22.10    2.10
   4  -2   8   17.60    2.10
  -4   2   8   15.30    2.80
  -2  -4   8   16.70    2.60
  -4   3  -8   90.99    5.50
  -3  -4  -8   76.29    5.80
  -4   3  -8   86.79    5.40
  -3  -4  -8   86.29    6.40
   3   4  -8   72.49    5.60
  -4   3   8   88.29    6.30
  -4   3   8   85.89    5.50
  -3  -4   8   81.39    6.30
   4  -3   8   81.89    5.80
  -4   3   8   84.19    5.80
  -4   3   8   87.29    5.30
  -1   5  -8  848.92   38.90
   1  -5  -8  821.82   40.20
  -5  -1  -8  808.62   39.10
  -1   5  -8  857.11   38.80
   5   1  -8  801.62   38.10
  -5  -1   8  850.51   39.40
  -5  -1   8  792.52   40.20
   5   1   8  805.32   38.50
   0  -5  -8   51.59    4.60
   0   5  -8   60.99    4.10
   0   5  -8   55.49    4.00
   5   0  -8   52.29    3.30
  -5   0  -8   49.60    4.00
   0  -5  -8   52.69    4.30
  -5   0   8   48.90    4.20
   5   0   8   52.09    4.10
  -5   0   8   40.70    4.60
   5   0   8   53.09    3.70
  -5   0   8   54.49    3.80
  -5   1  -8  866.01   39.70
  -1  -5  -8  885.51   40.30
   5  -1  -8  840.52   38.90
   5  -1   8  798.32   39.80
  -5   1   8  799.22   39.90
  -5   1   8  884.51   39.80
  -1  -5   8  898.41   41.00
  -5   1   8  787.72   40.90
   0   0  -9  257.07   13.30
   0   0  -9  255.07   12.40
   0   0  -9  247.28   12.30
   0   0  -9  249.28   12.30
   0   0   9  273.37   12.70
   0   0   9  266.47   13.60
  -1   0  -9  166.08    8.30
   0   1  -9  165.28    8.20
   0   1  -9  145.69    8.70
  -1   0  -9  165.38    8.10
   0   1  -9  173.38    8.40
   0  -1  -9  165.58    7.70
  -1   0  -9  168.38    8.90
   1   0  -9  165.08    8.10
   0  -1  -9  172.18    8.40
   0  -1   9  134.49    8.20
   0   1   9  172.78    9.30
  -1   0   9  167.48    8.40
   1   0   9  156.08    9.10
   0  -1   9  171.58    9.20
  -1   0   9  170.88    9.40
   0   1   9  154.18    8.40
   1   0   9  154.58    8.30
  -1   1  -9   77.19    4.10
  -1   1  -9   63.99    4.40
   1   1  -9   71.49    4.00
  -1   1  -9   69.29    4.10
  -1  -1  -9   75.49    4.30
   1  -1  -9   70.69    3.60
   1   1  -9   79.59    4.90
   1  -1   9   74.99    4.80
   1   1   9   70.49    4.90
   1   1   9   63.19    4.20
  -1  -1   9   75.99    5.10
  -1   1   9   69.59    5.10
   1  -1   9   57.59    4.20
  -1   2  -9  133.49    7.50
   1  -2  -9  143.29    7.50
  -2  -1  -9  137.89    7.40
   2   1  -9  140.19    6.90
  -2  -1  -9  145.09    7.80
  -1   2  -9  127.49    7.30
   1  -2  -9  141.19    7.50
  -1   2  -9  139.09    7.10
   2   1   9  127.09    7.70
   1  -2   9  142.79    7.60
  -1   2   9  123.09    7.30
   1  -2   9  127.79    7.20
  -1   2   9  142.39    8.20
   2   1   9  132.89    7.30
  -2  -1   9  134.89    8.30
   0   2  -9  199.78    9.80
   0   2  -9  185.18   10.00
   0  -2  -9  199.68    9.80
  -2   0  -9  180.48    9.90
  -2   0  -9  194.78    9.60
   2   0  -9  181.08    9.00
   0   2  -9  190.88    9.40
  -2   0  -9  195.18    9.30
   2   0  -9  187.68    9.30
   2   0   9  191.58   10.20
   2   0   9  183.38    9.60
   2   0   9  172.68   10.00
  -2   0   9  179.38   10.60
   0  -2   9  185.48    9.40
   0  -2   9  199.08   10.10
   0   2   9  185.48    9.70
   1   2  -9  147.09    7.50
  -2   1  -9  138.19    7.20
  -2   1  -9  135.69    7.60
   1   2  -9  135.19    7.10
  -1  -2  -9  144.99    7.70
   1   2  -9  131.69    7.80
   2  -1  -9  133.19    6.70
  -2   1   9  139.39    7.40
  -2   1   9  141.09    7.70
  -1  -2   9  132.29    7.90
   2  -1   9  155.58    7.90
   1   2   9  137.59    7.40
   2  -1   9  132.49    7.60
  -1  -2   9  136.29    8.30
  -2   1   9  146.49    8.40
  -2   2  -9  143.69    7.90
   2   2  -9  146.99    7.50
  -2   2  -9  145.59    7.80
  -2  -2  -9  151.88    8.30
  -2   2  -9  140.29    8.00
   2   2  -9  160.68    8.80
  -2   2   9  157.28    8.90
  -2  -2   9  150.18    8.60
   2  -2   9  157.08    8.20
  -2  -2   9  152.58    9.00
   2   2   9  150.08    7.90
  -2   2   9  132.79    8.10
  -2   3  -9   91.29    5.70
   3   2  -9  104.89    5.30
  -3  -2  -9   99.99    6.10
   2  -3  -9   94.89    5.80
  -2   3  -9  100.49    5.70
  -2   3  -9   93.59    5.80
   2  -3   9   85.39    5.60
  -2   3   9   88.19    5.80
   3   2   9   89.09    5.50
  -3  -2   9  111.39    7.00
   1  -3  -9   45.50    3.40
  -1   3  -9   41.00    3.20
   1  -3  -9   41.10    3.30
   3   1  -9   42.00    2.70
   3   1  -9   40.20    2.80
  -1   3  -9   41.30    3.00
  -3  -1  -9   43.70    3.30
  -1   3  -9   45.40    3.30
   3   1   9   41.00    3.60
   3   1   9   38.80    3.10
  -3  -1   9   53.09    4.40
  -1   3   9   45.40    3.30
   3   0  -9  104.39    5.80
   3   0  -9  114.89    5.70
   0   3  -9  111.39    6.00
  -3   0  -9  124.89    6.40
   0  -3  -9  117.29    6.50
   0   3  -9  106.99    6.40
   0   3  -9  112.79    6.50
  -3   0   9  115.59    6.50
  -3   0   9  105.69    7.30
   3   0   9   92.19    6.50
   0  -3   9  115.39    6.90
  -3   0   9  112.89    6.00
  -3   1  -9   42.00    3.10
   3  -1  -9   43.80    2.60
  -1  -3  -9   43.60    3.40
   1   3  -9   50.69    3.70
  -3   1  -9   41.90    3.20
  -1  -3   9   40.90    3.80
  -3   1   9   42.70    3.30
   3  -1   9   43.20    3.40
  -3   1   9   40.20    3.90
   2   3  -9   90.69    5.80
   3  -2  -9  103.09    5.00
  -3   2  -9   98.59    5.90
   2   3  -9  101.99    5.40
  -3   2  -9   98.69    5.80
  -2  -3  -9   93.19    6.10
  -3   2   9  108.89    6.90
   3  -2   9   92.89    6.00
  -3   2   9   99.39    5.80
  -3   2   9  103.19    6.30
  -2  -3   9  103.39    6.80
  -3   3  -9   27.80    2.60
  -3   3  -9   28.40    2.70
  -3   3  -9   27.70    2.80
  -3  -3  -9   29.90    3.00
   3   3  -9   27.60    2.10
  -3   3   9   25.40    2.80
  -3  -3   9   29.10    3.40
   3  -3   9   25.50    2.60
  -2   4  -9   77.89    5.00
  -2   4  -9   82.49    5.30
   4   2  -9   79.29    4.50
  -4  -2  -9   75.69    5.40
  -2   4  -9   79.39    5.20
   2  -4  -9   83.09    5.30
   2  -4   9   81.39    5.10
  -4  -2   9   80.49    6.10
   4   2   9   78.79    5.60
  -2   4   9   68.89    5.00
   4   2   9   73.19    4.90
  -4  -1  -9   89.39    5.60
  -1   4  -9   83.59    5.60
   1  -4  -9   92.29    5.70
   4   1  -9   82.69    4.90
  -1   4  -9   87.79    5.20
  -1   4  -9   91.39    5.60
  -4  -1   9   92.39    5.90
   1  -4   9   92.79    6.50
  -4  -1   9   80.69    6.50
   4   1   9   75.99    5.70
  -4  -1   9   95.49    6.60
   0   4  -9   99.89    5.70
   0   4  -9   99.09    6.20
   4   0  -9   96.79    5.30
   0   4  -9  118.59    6.50
   0  -4  -9  102.99    6.80
   0  -4  -9  109.69    6.30
  -4   0  -9  102.09    6.10
  -4   0   9   95.59    7.00
   4   0   9   96.29    6.30
   4   0   9   97.79    5.80
  -4   0   9   96.19    5.70
   0  -4   9   98.59    6.50
  -4   0   9  102.89    6.30
   4  -1  -9   86.49    4.70
   1   4  -9   84.19    5.60
   1   4  -9   90.49    7.60
  -1  -4  -9   87.29    5.70
  -4   1  -9   95.19    5.40
  -4   1   9   88.59    5.60
  -4   1   9   89.69    5.30
   4  -1   9   84.69    5.70
  -1  -4   9   85.29    6.10
  -4   1   9   82.59    6.30
   2   4  -9   76.89    5.30
  -4   2  -9   82.19    5.20
   4  -2  -9   85.09    4.30
  -4   2  -9   85.99    5.30
  -2  -4  -9   82.09    5.60
  -4   2   9   80.09    5.00
  -4   2   9   82.69    6.30
   4  -2   9   77.19    5.30
  -2  -4   9   66.19    5.80
  -4   2   9   83.89    5.30
   0   0 -10 3284.27  168.48
   0   0 -10 3709.33  169.68
   0   0 -10 3853.11  168.68
   0   0  10 3922.41  169.98
   0   0  10 3887.71  168.88
   0   1 -10  108.09    5.70
   0  -1 -10  105.59    5.20
   1   0 -10  101.99    6.20
  -1   0 -10  101.19    5.60
   0   1 -10  118.69    6.00
  -1   0 -10  102.59    6.40
   0  -1 -10  105.19    5.80
   0   1 -10   96.59    6.30
  -1   0 -10  108.49    5.80
   1   0  10  100.89    6.70
   0   1  10  124.59    7.00
  -1   0  10  105.29    6.90
   0  -1  10  103.59    5.90
   0  -1  10  104.19    6.70
  -1   0  10  110.89    5.90
   1   0  10  108.09    5.90
   1   0  10  105.09    6.20
   0   1  10  102.89    6.00
  -1   1 -10    0.80    0.60
  -1   1 -10    2.10    0.80
   1   1 -10    1.70    0.70
   1   1 -10    3.10    1.10
  -1  -1 -10    7.60    1.40
  -1   1 -10    1.30    0.80
  -1   1 -10    2.10    0.90
   1  -1 -10    3.30    0.60
   1   1  10    2.40    1.20
  -1  -1  10    1.30    1.10
   1   1  10    2.20    0.80
  -1   1  10    3.40    1.50
  -1   1  10    2.90    0.90
   1  -1  10    1.80    1.20
   1  -1  10    2.50    0.90
  -2  -1 -10   69.49    4.40
  -1   2 -10   72.69    4.40
   2   1 -10   68.59    3.90
  -1   2 -10   67.59    4.10
  -1   2 -10   63.69    4.50
  -1   2  10   58.79    4.30
  -2  -1  10   67.09    5.10
  -1   2  10   71.69    5.30
   2   1  10   64.89    4.20
   1  -2  10   70.29    4.30
   2   1  10   61.29    4.80
   1  -2  10   72.69    4.70
   0  -2 -10 2735.53  119.19
  -2   0 -10 2761.12  119.09
   0   2 -10 2688.23  118.89
   0   2 -10 2759.02  119.19
  -2   0 -10 2555.04  119.59
   0   2 -10 2497.35  119.59
   2   0 -10 2600.24  118.89
   2   0 -10 2809.02  118.49
   2   0  10 2597.34  119.19
   2   0  10 2680.23  119.89
   0  -2  10 2429.26  119.59
  -2   0  10 2598.44  120.39
   0   2  10 2514.05  119.19
   0  -2  10 2655.83  119.19
   2   0  10 2425.06  119.59
  -2   1 -10   63.09    4.10
  -1  -2 -10   67.39    4.40
   1   2 -10   70.79    4.10
   1   2 -10   75.69    4.50
  -2   1 -10   66.49    4.50
   1   2 -10   69.79    4.80
   2  -1 -10   68.19    3.60
   1   2  10   70.99    4.30
   2  -1  10   55.59    4.30
   2  -1  10   66.39    4.70
  -2   1  10   68.99    4.60
  -2   1  10   78.69    5.50
  -1  -2  10   63.39    4.80
  -2  -2 -10 2036.80   96.49
   2   2 -10 2299.87   97.29
  -2   2 -10 2076.69   96.49
  -2   2 -10 2048.59   96.09
   2   2 -10 2110.29   95.69
  -2   2 -10 2094.19   96.09
  -2  -2  10 2156.98   97.69
  -2   2  10 2307.77   97.59
   2   2  10 2110.09   96.09
   2  -2  10 1930.81   96.29
  -2   2  10 2021.60   96.49
  -2   3 -10   44.60    3.60
   2  -3 -10   53.09    3.80
  -3  -2 -10   48.00    3.80
   3   2 -10   52.49    3.20
  -2   3 -10   45.80    3.60
  -2   3 -10   48.90    3.50
  -3  -2  10   44.70    4.50
  -2   3  10   46.70    3.70
   2  -3  10   45.90    3.50
   3   2  10   46.10    3.50
  -1   3 -10    3.60    1.20
   3   1 -10    2.50    0.70
  -1   3 -10    1.60    0.80
   1  -3 -10    3.90    1.20
  -1   3 -10    1.80    0.90
  -3  -1 -10    2.20    1.00
   3   1 -10    2.40    0.80
  -1   3  10    1.20    0.80
   1  -3  10    1.30    0.70
  -3  -1  10    3.70    1.70
   3   1  10    2.80    1.10
   3   1  10    4.00    1.10
  -3   0 -10   75.09    4.60
   0   3 -10   70.79    4.70
   0   3 -10   68.89    4.20
   3   0 -10   71.89    4.00
   0  -3 -10   75.39    4.70
   0   3 -10   71.69    4.90
   0  -3  10   79.69    5.40
  -3   0  10   73.79    4.80
  -3   0  10   65.49    4.80
  -3   0  10   73.99    5.80
   0   3  10   65.19    4.50
   3   0  10   63.49    4.90
   3  -1 -10    2.00    0.70
  -3   1 -10    4.30    1.20
   1   3 -10    2.90    0.80
  -3   1 -10    3.00    1.10
   1   3 -10    1.70    1.00
   1   3 -10    4.00    1.30
  -1  -3 -10    8.00    1.60
  -3   1  10    1.10    1.00
  -1  -3  10    2.60    1.30
  -3   1  10    7.10    2.00
   3  -1  10    3.70    1.20
  -3   2 -10   50.19    3.80
   2   3 -10   51.69    3.30
  -2  -3 -10   48.30    3.90
  -3   2 -10   55.19    3.80
   2   3 -10   48.90    3.80
   3  -2  10   45.90    3.80
  -2  -3  10   52.39    4.70
  -3   2  10   58.99    3.90
  -3   2  10   50.09    4.10
  -3   2  10   50.89    4.70
  -3   3 -10    3.80    1.40
  -3   3 -10    2.40    1.00
  -3  -3 -10    1.60    1.10
   3   3 -10    1.70    0.70
  -3   3 -10    0.30    0.80
  -3  -3  10    2.80    1.50
   3  -3  10    1.80    0.90
  -3   3  10    0.00    0.80
   4   2 -10 1190.58   52.99
  -4  -2 -10 1157.58   54.09
  -2   4 -10 1078.19   53.29
  -2   4 -10 1165.58   53.69
   2  -4 -10 1233.98   53.89
  -2   4 -10 1202.38   53.89
   4   2  10 1043.30   53.29
   4   2  10 1147.59   54.19
  -2   4  10 1128.19   53.69
  -4  -2  10 1148.39   55.09
   2  -4  10 1161.38   53.69
  -4  -1 -10   19.20    2.80
  -1   4 -10   22.30    2.50
   1  -4 -10   22.20    2.60
  -1   4 -10   20.40    2.20
  -1   4 -10   23.60    2.90
   4   1 -10   20.80    2.00
   4   1 -10   21.20    2.50
  -4  -1  10   22.20    3.30
  -4  -1  10   29.80    3.70
   4   1  10   21.00    2.80
  -1   4  10   20.90    2.50
   0   4 -10 1424.26   64.49
  -4   0 -10 1503.65   65.19
   0  -4 -10 1504.95   65.19
   0   4 -10 1313.07   64.99
   0   4 -10 1509.45   65.49
   4   0 -10 1410.46   64.09
   4   0  10 1368.46   64.79
   4   0  10 1302.07   65.39
  -4   0  10 1319.97   66.39
  -4   0  10 1409.26   65.29
  -1  -4 -10   22.00    2.90
   4  -1 -10   21.30    2.00
   1   4 -10   21.20    2.80
   1   4 -10   24.70    3.70
  -4   1 -10   21.60    2.40
  -4   1  10   19.20    3.50
  -1  -4  10   22.80    3.00
  -4   1  10   24.00    2.30
  -4   1  10   24.30    2.70
   4  -1  10   19.50    2.60
   2   4 -10 1102.69   53.49
  -2  -4 -10 1157.28   53.89
  -4   2 -10 1136.99   53.39
   4  -2 -10 1202.58   52.39
   2   4 -10 1158.28   52.89
  -2  -4  10 1174.98   54.99
  -4   2  10 1160.68   53.39
   4  -2  10 1093.69   55.09
  -4   2  10 1195.28   53.59
  -4   2  10 1111.29   54.89
   0   0 -11  306.87   16.60
   0   0 -11  327.57   15.60
   0   0  11  326.67   16.90
   0   0  11  336.07   15.80
  -1   0 -11    5.30    1.50
   0  -1 -11    8.30    1.40
   0   1 -11    9.70    1.60
  -1   0 -11    8.80    1.40
   0  -1 -11    7.20    0.90
   0   1 -11    7.90    1.60
   0   1 -11    7.50    1.30
   1   0  11   10.40    1.80
   0   1  11    7.50    1.30
   0  -1  11   14.10    2.50
  -1   0  11    7.90    2.00
   1   0  11    8.90    2.10
   0  -1  11    9.00    1.50
   1   0  11   14.30    1.60
   0   1  11   11.90    2.40
  -1  -1 -11  172.68    8.80
  -1   1 -11  148.19    9.10
  -1   1 -11  168.68    8.70
   1   1 -11  158.68    8.50
   1  -1 -11  162.48    8.00
   1   1 -11  169.48    9.50
   1  -1  11  153.78    9.50
   1   1  11  174.98    9.70
  -1   1  11  167.78    9.90
  -1   1  11  164.88    8.90
   1  -1  11  182.58    9.10
   1   1  11  161.98    8.70
  -1  -1  11  164.78    9.70
   2   1 -11    6.60    1.30
  -1   2 -11    9.70    1.60
  -1   2 -11    5.90    1.50
  -1   2 -11    8.00    1.70
  -2  -1 -11    8.20    1.60
  -1   2  11    8.40    1.60
   1  -2  11   10.60    2.10
   2   1  11    6.60    1.90
  -1   2  11    7.90    2.20
  -2  -1  11    6.50    1.90
   2   1  11    8.10    1.40
  -2   0 -11  239.48   12.50
   0   2 -11  251.27   11.80
   0   2 -11  211.68   12.40
   0  -2 -11  249.58   12.00
   0   2 -11  247.88   12.00
   2   0 -11  245.18   11.30
   0   2  11  220.38   12.00
  -2   0  11  273.27   13.60
   0  -2  11  215.48   12.50
   2   0  11  202.68   12.50
   2   0  11  239.58   12.00
   2   0  11  235.18   12.50
   1   2 -11    8.70    1.40
  -2   1 -11   10.30    1.70
   1   2 -11    9.90    1.90
  -1  -2 -11    8.10    1.60
  -2   1 -11    9.80    1.80
   2  -1 -11    8.00    1.10
   1   2 -11   11.70    1.90
  -2   1  11    7.80    1.60
   1   2  11    6.60    1.30
   2  -1  11    6.40    1.50
  -1  -2  11    8.20    1.90
   2  -1  11    7.30    1.80
  -2   1  11    8.10    2.30
  -2  -2 -11  178.58   10.10
  -2   2 -11  177.78   10.30
  -2   2 -11  175.48    9.80
   2   2 -11  196.78   10.80
   2   2 -11  220.18    9.70
  -2   2 -11  185.78    9.80
  -2  -2  11  193.88   10.70
  -2   2  11  189.88   11.30
   2  -2  11  175.48   10.10
  -2   2  11  215.08   10.60
  -2  -2  11  164.58   11.10
   2   2  11  188.68    9.90
   3   2 -11    5.30    1.10
  -3  -2 -11    5.20    1.50
  -2   3 -11    5.00    1.50
  -2   3 -11    5.60    1.30
  -2   3 -11    5.00    1.40
   2  -3 -11    5.40    1.50
  -3  -2  11    4.80    2.00
  -2   3  11    5.40    1.50
   2  -3  11    3.70    1.20
   3   2  11    6.90    1.40
  -1   3 -11  106.59    6.40
   3   1 -11  103.19    5.90
  -3  -1 -11  109.99    6.60
  -1   3 -11  109.29    6.10
  -1   3 -11  105.19    6.70
   3   1 -11  116.19    5.70
   3   1  11  110.29    7.00
  -3  -1  11  112.99    7.60
   3   1  11  108.69    6.40
  -1   3  11  100.79    6.50
   1  -3  11   98.89    6.20
   0  -3 -11    3.90    1.20
   0   3 -11    4.10    1.30
   0   3 -11    4.60    1.10
   0   3 -11    5.50    1.50
   3   0 -11    4.20    0.90
   3   0  11    6.80    1.70
   0   3  11    3.70    1.20
   0  -3  11    5.40    1.70
  -3   0  11    7.40    2.20
   1   3 -11  106.59    6.10
   1   3 -11  119.59    6.70
  -3   1 -11  112.49    6.80
   3  -1 -11  110.59    5.60
  -1  -3 -11  109.49    6.50
  -3   1 -11  112.19    6.30
   1   3 -11  111.99    7.00
  -3   1  11  105.49    7.70
   3  -1  11   91.29    6.60
  -3   1  11  111.19    6.60
  -1  -3  11  114.69    7.60
   2   3 -11    5.90    1.60
  -3   2 -11    5.30    1.40
  -2  -3 -11    5.80    1.60
   2   3 -11    4.20    1.00
  -3   2 -11    4.60    1.30
   2   3  11    3.50    1.20
   3  -2  11    3.80    1.30
  -2  -3  11    4.70    1.90
  -3   2  11    4.60    1.40
  -3   2  11    5.90    2.00
  -3   3 -11   75.69    5.30
   3   3 -11   75.49    4.60
  -3  -3 -11   78.89    5.60
  -3   3 -11   74.59    5.10
  -3   3  11   78.79    5.60
   3   3  11   78.79    5.00
  -3  -3  11   70.69    6.10
   4   1 -11    8.50    1.40
   4   1 -11    8.50    1.40
  -1   4 -11   11.50    1.80
   1  -4 -11    8.20    2.00
  -1   4 -11    9.40    2.10
  -1   4 -11    8.80    1.90
  -4  -1 -11   11.50    2.20
  -1   4  11    9.50    1.80
   4   1  11   12.00    2.30
   4   1  11    6.20    1.40
  -4  -1  11    8.10    2.50
  -4  -1  11   10.10    2.50
   0  -4 -11  121.09    7.10
   0   4 -11  120.99    7.30
   4   0 -11  123.59    6.20
   0   4 -11  113.09    7.30
   0   4 -11  126.19    6.60
   4   0  11  109.59    6.90
   4   0  11  102.99    7.30
  -4   0  11  128.69    7.50
  -4   0  11  102.29    8.20
   1   4 -11    7.40    1.40
   1   4 -11   11.30    2.50
  -1  -4 -11    9.60    2.00
   1   4 -11   10.70    2.10
   4  -1 -11    8.70    1.30
  -4   1  11    7.00    2.30
   4  -1  11   10.10    2.30
  -4   1  11   12.60    1.80
  -1  -4  11    6.90    2.10
  -4   1  11   11.20    2.20
   0   0 -12  111.99    6.10
   0   0 -12   97.39    6.80
   0   0  12  112.99    7.30
   0   0  12  118.39    7.70
   0   1 -12   60.29    3.80
   0  -1 -12   52.59    3.00
   0  -1 -12   50.39    3.50
  -1   0 -12   50.09    4.10
   0   1 -12   59.09    3.90
   0   1 -12   43.80    4.00
   1   0  12   57.99    4.10
   1   0  12   56.39    4.60
   0  -1  12   58.39    4.70
   0  -1  12   59.69    3.80
  -1   0  12   53.69    4.60
   0   1  12   53.99    4.50
   0   1  12   49.30    3.60
   1   0  12   55.29    3.70
  -1  -1 -12 1501.15   68.69
  -1   1 -12 1364.46   69.39
   1  -1 -12 1545.85   67.89
  -1   1 -12 1558.64   68.69
   1   1 -12 1425.16   68.39
   1   1 -12 1490.15   69.79
   1   1 -12 1578.94   68.69
  -1   1  12 1474.85   68.89
  -1  -1  12 1622.84   70.09
  -1   1  12 1496.45   70.09
   1   1  12 1449.65   68.69
   1  -1  12 1416.36   69.79
   1   1  12 1636.14   70.09
   1  -1  12 1415.76   68.99
   2   1 -12   35.10    2.90
  -1   2 -12   41.50    3.00
  -1   2 -12   43.90    3.10
  -1   2 -12   37.30    3.50
  -1   2 -12   41.80    3.30
  -2  -1 -12   42.70    3.40
  -2  -1  12   45.60    4.10
   1  -2  12   38.30    3.80
  -1   2  12   38.10    4.20
  -1   2  12   43.40    3.50
   2   1  12   42.00    3.20
   2   1  12   42.90    4.10
   1  -2  12   39.40    3.20
  -2   0 -12   79.69    5.40
   0   2 -12   85.99    5.00
   0   2 -12   76.99    4.70
   0   2 -12   77.89    5.50
   2   0 -12   85.69    4.30
   0  -2 -12   75.09    4.80
   0   2  12   74.99    5.00
   2   0  12   88.69    5.10
   0  -2  12   68.59    5.50
   2   0  12   76.79    5.30
   2   0  12   72.29    5.60
  -2   0  12   75.19    6.00
  -2   1 -12   42.00    3.30
   2  -1 -12   47.40    2.70
   1   2 -12   39.60    3.70
   1   2 -12   47.10    3.50
  -1  -2 -12   44.00    3.30
  -2   1 -12   40.30    3.60
   1   2 -12   40.00    3.00
  -2   1  12   45.10    4.50
   1   2  12   44.30    3.30
   2  -1  12   39.80    3.90
   2  -1  12   40.80    3.50
  -1  -2  12   47.30    4.00
  -2  -2 -12   59.39    4.30
   2   2 -12   62.29    4.00
  -2   2 -12   64.19    4.30
  -2   2 -12   60.59    4.60
  -2   2  12   63.79    4.60
  -2  -2  12   52.49    5.20
  -2  -2  12   67.09    5.00
   2  -2  12   51.29    4.20
   2   2  12   58.99    4.10
  -2   2  12   66.29    5.70
  -3  -2 -12   20.00    2.80
   3   2 -12   20.30    2.10
  -2   3 -12   18.10    2.70
  -2   3 -12   21.00    2.30
  -2   3 -12   23.60    2.70
  -2   3  12   18.40    2.70
   2  -3  12   19.70    2.40
   3   2  12   23.30    2.80
   3   2  12   18.20    2.30
  -3  -2  12   16.50    3.40
   3   1 -12  919.31   45.50
  -1   3 -12 1027.30   46.90
  -1   3 -12 1012.20   46.10
  -1   3 -12  981.60   45.70
   3   1 -12 1029.70   45.10
  -3  -1 -12  999.00   46.30
  -1   3  12  931.01   46.20
   3   1  12  989.70   46.10
  -3  -1  12  970.60   47.30
   3   1  12  996.20   46.80
   0  -3 -12   22.20    2.40
   0   3 -12   24.40    2.90
   0   3 -12   27.10    2.80
   0   3 -12   23.20    2.30
   3   0 -12   27.00    2.10
   0  -3  12   21.40    3.20
  -3   0  12   27.50    3.70
   3   0  12   22.40    2.80
   0   3  12   21.60    2.60
   1   3 -12 1039.80   44.90
   1   3 -12  975.30   44.40
   3  -1 -12  989.20   43.70
  -3   1 -12  973.70   44.50
  -1  -3 -12  992.60   44.90
   1   3 -12  978.40   45.60
  -3   1 -12  956.80   45.40
  -3   1  12  921.11   46.50
  -1  -3  12  880.41   46.10
   1   3  12  953.10   44.70
   3  -1  12  865.81   45.20
  -3   2 -12   20.60    2.60
  -3   2 -12   21.00    2.50
   2   3 -12   21.40    2.20
   2   3 -12   22.00    2.60
  -3   2  12   24.30    4.10
  -2  -3  12   19.70    3.20
   3  -2  12   18.00    2.50
   2   3  12   19.60    2.30
   0   0 -13  227.18   11.50
   0   0  13  230.98   12.00
   0   0  13  232.28   12.90
  -1   0 -13   66.79    5.00
   0   1 -13   66.19    4.30
   1   0 -13   73.19    3.70
   1   0 -13   66.79    4.20
   0  -1 -13   61.29    4.20
   0   1 -13   66.89    5.00
  -1   0  13   64.29    5.30
   1   0  13   66.29    4.70
   0   1  13   74.19    5.50
   1   0  13   63.59    5.20
   0  -1  13   72.69    5.50
   0   1  13   60.09    4.30
  -1   1 -13  737.93   38.40
   1   1 -13  780.02   38.70
   1  -1 -13  831.82   36.70
   1   1 -13  830.92   37.60
  -1  -1 -13  728.53   37.40
  -1   1 -13  840.72   37.50
   1   1  13  847.82   38.90
  -1   1  13  796.92   39.00
   1   1  13  857.01   37.70
   1  -1  13  816.12   38.90
  -1  -1  13  782.92   38.70
  -1   1  13  771.22   37.70
   1  -1  13  820.02   38.00
   2   1 -13   50.49    3.10
  -2  -1 -13   54.29    3.90
  -1   2 -13   48.50    4.20
  -1   2 -13   49.80    3.80
  -1   2  13   48.90    3.90
   2   1  13   47.20    4.00
   2   1  13   52.29    3.70
   2   1  13   52.39    4.70
   1  -2  13   46.90    3.80
  -1   2  13   45.50    4.70
  -2  -1  13   50.39    4.60
   1  -2  13   47.10    4.40
   0  -2 -13  153.98    8.90
   0   2 -13  181.08    9.20
   0   2 -13  167.08    9.90
  -2   0 -13  164.68    9.70
   0   2 -13  171.98    8.90
   2   0 -13  174.58    8.30
   0   2  13  168.58    9.20
  -2   0  13  158.48   10.30
   2   0  13  177.68    9.70
   2   0  13  157.48   10.00
   0  -2  13  168.98    9.90
  -1  -2 -13   46.80    3.60
   1   2 -13   48.60    4.20
   2  -1 -13   55.79    3.00
   1   2 -13   51.79    3.50
   1   2 -13   63.69    4.10
  -2   1 -13   48.10    4.20
  -2   1 -13   49.10    3.70
   2  -1  13   42.80    4.40
   2  -1  13   46.80    4.00
   1   2  13   49.30    3.70
  -1  -2  13   51.39    4.40
  -2   1  13   47.60    5.00
   2   2 -13  131.19    7.50
  -2   2 -13  143.09    7.80
  -2  -2 -13  132.89    7.90
  -2   2 -13  132.99    8.50
   2   2 -13  141.89    7.80
   2   2  13  140.69    7.70
  -2   2  13  140.49    8.20
  -2   2  13  142.19    9.40
  -2  -2  13  117.29    9.00
  -2  -2  13  145.29    8.60
   2  -2  13  135.99    8.20
  -3  -1 -13  521.05   25.90
  -1   3 -13  525.85   25.10
  -1   3 -13  552.54   25.60
   3   1 -13  580.74   24.60
  -1   3 -13  526.25   26.40
  -1   3 -13  520.35   25.20
   3   1  13  488.85   27.30
   3   1  13  547.65   25.60
  -3  -1  13  515.95   26.70
  -1   3  13  479.35   25.70
   0   3 -13   53.49    4.60
   0  -3 -13   53.89    4.00
   0   3 -13   54.89    3.80
   3   0 -13   62.59    3.40
   0   3 -13   59.79    4.40
   0  -3  13   38.10    5.80
  -3   0  13   51.09    5.30
   3   0  13   54.09    4.50
   0   3  13   56.09    4.20
   1   3 -13  548.65   24.60
  -3   1 -13  503.95   25.30
  -1  -3 -13  494.45   24.40
   3  -1 -13  563.34   23.50
   1   3 -13  491.75   24.10
   1   3 -13  524.65   25.50
  -1  -3  13  432.86   25.80
   1   3  13  510.15   24.40
   3  -1  13  494.05   26.50
  -3   1  13  486.35   26.30
   0   0  14  235.08   13.30
   0   0  14  236.88   12.40
   1   0 -14  145.89    7.20
  -1   0 -14  141.89    8.80
   1   0 -14  143.29    7.80
   0   1 -14  135.69    8.80
   0   1 -14  143.39    7.90
   0   1  14  152.68    9.20
   0   1  14  142.19    8.00
   1   0  14  154.08    8.50
  -1   0  14  135.59    9.00
   1   0  14  148.49    9.20
   0  -1  14  146.59    9.10
   1  -1 -14  244.88   11.30
   1   1 -14  233.08   12.10
  -1   1 -14  243.98   12.20
  -1   1 -14  222.18   13.00
   1   1  14  245.08   12.30
  -1  -1  14  224.28   13.20
   1  -1  14  250.57   12.70
  -1   1  14  231.68   13.50
   1   1  14  237.88   13.40
   1  -1  14  235.78   13.40
  -1   2 -14  115.39    6.80
   2   1 -14  113.59    6.00
  -1   2 -14  111.59    7.60
   1  -2  14  101.99    7.50
  -1   2  14  133.09    9.80
  -1   2  14  117.29    7.10
   2   1  14  117.19    7.30
  -2  -1  14  113.69    7.80
   2   1  14  115.79    7.90
   2   1  14  121.39    6.90
   0  -2 -14  173.48    9.70
   0   2 -14  190.88   10.00
   0   2 -14  168.28   10.60
  -2   0 -14  190.78   10.70
   2   0 -14  190.58    9.00
   2   0  14  198.78   10.50
   0   2  14  181.98   10.00
   0  -2  14  188.38   10.90
   2   0  14  177.08   10.90
  -2   0  14  177.68   11.10
   2  -1 -14  116.79    5.60
   1   2 -14  109.29    7.30
  -2   1 -14  108.39    8.00
  -2   1 -14  106.49    7.20
  -1  -2 -14  101.69    6.30
   1   2 -14   97.89    6.10
   1   2 -14  122.99    6.70
   2  -1  14   97.79    7.30
  -1  -2  14  113.89    7.30
   2  -1  14  105.39    6.90
   1   2  14  110.59    6.40
  -2   1  14  102.89    7.80
   0   0  15  573.14   28.70
   0   1 -15   33.10    3.60
   0   1 -15   33.30    3.00
   1   0 -15   37.70    3.40
   1   0 -15   36.60    2.40
   0   1  15   34.70    4.00
   1   0  15   38.10    4.10
   1   0  15   36.90    3.40
  -1   0  15   37.90    4.10
   0  -1  15   36.70    4.00
  -1   1 -15  133.29    7.50
  -1   1 -15  125.79    8.40
   1   1 -15  131.89    7.60
   1   1  15  152.08    7.80
  -1   1  15  121.89    8.70
   1  -1  15  137.09    8.90
   1  -1  15  134.39    8.00
  -1  -1  15  129.69    8.60
   1   1  15  138.99    8.80
   0   0   0    0.00    0.00

_computing_structure_solution     'SHELXT 2014/5 (Sheldrick, 2014)'
;
_shelx_hkl_checksum              22399
_olex2_submission_special_instructions 'No special instructions were received'
loop_
_space_group_symop_operation_xyz
'x, y, z'
'-x, -y, z'
'-y, x, z'
'y, -x, z'
'-x, y, -z'
'x, -y, -z'
'y, x, -z'
'-y, -x, -z'
'-x, -y, -z'
'x, y, -z'
'y, -x, -z'
'-y, x, -z'
'x, -y, z'
'-x, y, z'
'-y, -x, z'
'y, x, z'
loop_
_atom_site_label
_atom_site_type_symbol
_atom_site_fract_x
_atom_site_fract_y
_atom_site_fract_z
_atom_site_U_iso_or_equiv
_atom_site_adp_type
_atom_site_occupancy
_atom_site_site_symmetry_order
_atom_site_calc_flag
_atom_site_refinement_flags_posn
_atom_site_refinement_flags_adp
_atom_site_refinement_flags_occupancy
Cs1 Cs 0.5000 0.5000 0.5000 0.01120(18) Uani 1 16 d S T P
Te1 Te 0.5000 0.5000 0.0000 0.01385(18) Uani 1 16 d S T P
Ag1 Ag 0.0000 0.0000 0.0000 0.01060(18) Uani 1 16 d S T P
Ag2 Ag 0.0000 0.5000 0.19620(3) 0.01227(16) Uani 1 4 d S T P
S1 S 0.0000 0.0000 0.32073(14) 0.0071(3) Uani 1 8 d S T P
loop_
_atom_site_aniso_label
_atom_site_aniso_U_11
_atom_site_aniso_U_22
_atom_site_aniso_U_33
_atom_site_aniso_U_23
_atom_site_aniso_U_13
_atom_site_aniso_U_12
Cs1 0.0114(2) 0.0114(2) 0.0108(3) 0.000 0.000 0.000
Te1 0.0163(2) 0.0163(2) 0.0089(3) 0.000 0.000 0.000
Ag1 0.0096(2) 0.0096(2) 0.0126(3) 0.000 0.000 0.000
Ag2 0.0159(2) 0.0080(2) 0.0130(2) 0.000 0.000 0.000
S1 0.0061(4) 0.0061(4) 0.0092(7) 0.000 0.000 0.000
loop_
_atom_type_symbol
_atom_type_description
_atom_type_scat_dispersion_real
_atom_type_scat_dispersion_imag
_atom_type_scat_source
Ag Ag -0.8971 1.1015 'International Tables Vol C Tables 4.2.6.8 and 6.1.1.4'
Cs Cs -0.3680 2.1192 'International Tables Vol C Tables 4.2.6.8 and 6.1.1.4'
S S 0.1246 0.1234 'International Tables Vol C Tables 4.2.6.8 and 6.1.1.4'
Te Te -0.5308 1.6751 'International Tables Vol C Tables 4.2.6.8 and 6.1.1.4'
loop_
_geom_angle_atom_site_label_1
_geom_angle_atom_site_label_2
_geom_angle_atom_site_label_3
_geom_angle
_geom_angle_site_symmetry_1
_geom_angle_site_symmetry_3
Ag2 Cs1 Ag2 180.0 . 9_666
Ag2 Cs1 Ag2 135.82(3) 9_666 3_655
Ag2 Cs1 Ag2 44.18(3) . 3_655
Ag2 Cs1 Ag2 135.82(3) . 11_566
Ag2 Cs1 Ag2 180.0 3_655 11_566
Ag2 Cs1 Ag2 44.18(3) 9_666 11_566
S1 Cs1 Ag2 81.06(4) 1_655 .
S1 Cs1 Ag2 81.06(4) 1_565 3_655
S1 Cs1 Ag2 81.06(4) 9_656 11_566
S1 Cs1 Ag2 38.57(2) . .
S1 Cs1 Ag2 38.57(2) 9_666 11_566
S1 Cs1 Ag2 38.57(2) 9_666 9_666
S1 Cs1 Ag2 38.57(2) 1_565 .
S1 Cs1 Ag2 81.06(4) 9_556 9_666
S1 Cs1 Ag2 98.94(4) 9_566 .
S1 Cs1 Ag2 98.94(4) 1_665 9_666
S1 Cs1 Ag2 98.94(4) 1_665 11_566
S1 Cs1 Ag2 81.06(4) 9_566 9_666
S1 Cs1 Ag2 141.43(2) 1_655 11_566
S1 Cs1 Ag2 38.57(2) 9_656 9_666
S1 Cs1 Ag2 98.94(4) 9_656 3_655
S1 Cs1 Ag2 141.43(2) 1_565 9_666
S1 Cs1 Ag2 38.57(2) . 3_655
S1 Cs1 Ag2 98.94(4) 1_655 9_666
S1 Cs1 Ag2 141.43(2) 9_656 .
S1 Cs1 Ag2 141.43(2) . 9_666
S1 Cs1 Ag2 81.06(4) 9_556 11_566
S1 Cs1 Ag2 141.43(2) 9_666 .
S1 Cs1 Ag2 38.57(2) 9_566 11_566
S1 Cs1 Ag2 98.94(4) 9_556 .
S1 Cs1 Ag2 98.94(4) 1_565 11_566
S1 Cs1 Ag2 81.06(4) 1_665 .
S1 Cs1 Ag2 141.43(2) . 11_566
S1 Cs1 Ag2 81.06(4) 1_665 3_655
S1 Cs1 Ag2 141.43(2) 9_566 3_655
S1 Cs1 Ag2 141.43(2) 9_666 3_655
S1 Cs1 Ag2 98.94(4) 9_556 3_655
S1 Cs1 Ag2 38.57(2) 1_655 3_655
S1 Cs1 S1 107.83(3) 9_666 1_565
S1 Cs1 S1 72.17(3) 1_655 .
S1 Cs1 S1 72.17(3) 9_556 9_656
S1 Cs1 S1 107.83(3) 9_556 1_565
S1 Cs1 S1 72.17(3) 9_666 9_566
S1 Cs1 S1 72.17(3) 1_665 1_565
S1 Cs1 S1 107.83(3) 9_566 .
S1 Cs1 S1 67.20(6) 9_566 1_565
S1 Cs1 S1 67.20(6) 9_666 1_665
S1 Cs1 S1 180.0 9_656 1_565
S1 Cs1 S1 107.83(3) 1_665 9_566
S1 Cs1 S1 107.83(3) 9_666 1_655
S1 Cs1 S1 112.80(6) 9_566 9_656
S1 Cs1 S1 107.83(3) 9_556 1_655
S1 Cs1 S1 107.83(3) 9_656 .
S1 Cs1 S1 72.17(3) 1_665 1_655
S1 Cs1 S1 112.80(6) 9_666 9_556
S1 Cs1 S1 180.0 9_566 1_655
S1 Cs1 S1 180.0 9_556 1_665
S1 Cs1 S1 67.20(6) 9_656 1_655
S1 Cs1 S1 72.17(3) 9_556 9_566
S1 Cs1 S1 112.80(6) 1_565 1_655
S1 Cs1 S1 72.17(3) 9_666 9_656
S1 Cs1 S1 180.0 9_666 .
S1 Cs1 S1 107.83(3) 1_665 9_656
S1 Cs1 S1 67.20(6) 9_556 .
S1 Cs1 S1 112.80(6) 1_665 .
S1 Cs1 S1 72.17(3) 1_565 .
Ag1 Te1 Ag1 90.0 1_665 1_565
Ag1 Te1 Ag1 180.0 1_665 .
Ag1 Te1 Ag1 180.0 1_565 1_655
Ag1 Te1 Ag1 90.0 . 1_565
Ag1 Te1 Ag1 90.0 1_665 1_655
Ag1 Te1 Ag1 90.0 . 1_655
Ag1 Te1 Ag2 119.538(14) 1_665 11
Ag1 Te1 Ag2 119.538(14) . 11_565
Ag1 Te1 Ag2 119.538(14) . 9_665
Ag1 Te1 Ag2 60.462(14) . 11
Ag1 Te1 Ag2 60.462(14) . 3_655
Ag1 Te1 Ag2 119.538(14) 1_565 11
Ag1 Te1 Ag2 60.463(14) . .
Ag1 Te1 Ag2 60.462(14) 1_655 11
Ag1 Te1 Ag2 119.538(14) 1_655 11_565
Ag1 Te1 Ag2 60.462(14) 1_665 3_665
Ag1 Te1 Ag2 60.462(14) 1_655 3_655
Ag1 Te1 Ag2 119.538(14) . 3_665
Ag1 Te1 Ag2 60.462(14) 1_655 9_665
Ag1 Te1 Ag2 60.462(14) 1_565 3_665
Ag1 Te1 Ag2 119.537(14) 1_655 .
Ag1 Te1 Ag2 119.538(14) 1_655 3_665
Ag1 Te1 Ag2 60.462(14) 1_565 11_565
Ag1 Te1 Ag2 60.462(14) 1_665 1_655
Ag1 Te1 Ag2 119.538(14) 1_665 3_655
Ag1 Te1 Ag2 119.538(14) . 1_655
Ag1 Te1 Ag2 119.538(14) 1_565 3_655
Ag1 Te1 Ag2 119.538(14) 1_565 1_655
Ag1 Te1 Ag2 60.462(14) 1_665 9_665
Ag1 Te1 Ag2 119.538(14) 1_665 9_565
Ag1 Te1 Ag2 119.538(14) 1_565 9_665
Ag1 Te1 Ag2 60.462(14) . 9_565
Ag1 Te1 Ag2 119.537(14) 1_665 .
Ag1 Te1 Ag2 60.462(14) 1_565 9_565
Ag1 Te1 Ag2 60.463(14) 1_565 .
Ag1 Te1 Ag2 119.538(14) 1_655 9_565
Ag1 Te1 Ag2 60.462(14) 1_665 11_565
Ag1 Te1 Ag2 60.462(14) 1_655 1_655
Ag2 Te1 Ag2 180.0 1_655 9_565
Ag2 Te1 Ag2 120.92(3) 1_655 11_565
Ag2 Te1 Ag2 59.08(3) 3_655 .
Ag2 Te1 Ag2 180.000(10) 11 3_665
Ag2 Te1 Ag2 59.08(3) 3_665 .
Ag2 Te1 Ag2 91.59(5) 11 3_655
Ag2 Te1 Ag2 59.08(3) 11_565 9_665
Ag2 Te1 Ag2 88.41(5) 3_665 3_655
Ag2 Te1 Ag2 59.08(3) 11 9_565
Ag2 Te1 Ag2 59.08(3) 1_655 3_655
Ag2 Te1 Ag2 91.59(5) 9_565 .
Ag2 Te1 Ag2 120.92(3) 9_565 3_655
Ag2 Te1 Ag2 120.92(3) 3_665 9_565
Ag2 Te1 Ag2 180.000(10) 11_565 3_655
Ag2 Te1 Ag2 120.92(3) 3_655 9_665
Ag2 Te1 Ag2 120.92(3) 11 1_655
Ag2 Te1 Ag2 59.08(3) 9_565 11_565
Ag2 Te1 Ag2 59.08(3) 3_665 1_655
Ag2 Te1 Ag2 120.92(3) 11 .
Ag2 Te1 Ag2 88.41(5) 11 11_565
Ag2 Te1 Ag2 88.41(5) 1_655 .
Ag2 Te1 Ag2 59.08(3) 11 9_665
Ag2 Te1 Ag2 120.92(3) 11_565 .
Ag2 Te1 Ag2 120.92(3) 3_665 9_665
Ag2 Te1 Ag2 180.0 9_665 .
Ag2 Te1 Ag2 91.59(5) 1_655 9_665
Ag2 Te1 Ag2 88.41(5) 9_565 9_665
Ag2 Te1 Ag2 91.59(5) 3_665 11_565
Te1 Ag1 Te1 90.0 1_445 1_455
Te1 Ag1 Te1 180.0 1_445 .
Te1 Ag1 Te1 180.0 1_455 1_545
Te1 Ag1 Te1 90.0 . 1_455
Te1 Ag1 Te1 90.0 1_445 1_545
Te1 Ag1 Te1 90.0 . 1_545
Te1 Ag1 Ag2 60.462(14) 1_445 11_455
Te1 Ag1 Ag2 60.462(14) . 9_565
Te1 Ag1 Ag2 119.538(14) . 1_545
Te1 Ag1 Ag2 119.538(14) . 11_455
Te1 Ag1 Ag2 119.538(14) . 3
Te1 Ag1 Ag2 60.462(14) 1_455 11_455
Te1 Ag1 Ag2 60.463(14) . .
Te1 Ag1 Ag2 119.538(14) 1_545 11_455
Te1 Ag1 Ag2 119.538(14) 1_545 9_565
Te1 Ag1 Ag2 119.538(14) 1_445 3_655
Te1 Ag1 Ag2 119.538(14) 1_545 3
Te1 Ag1 Ag2 60.462(14) . 3_655
Te1 Ag1 Ag2 60.462(14) 1_545 1_545
Te1 Ag1 Ag2 119.538(14) 1_455 3_655
Te1 Ag1 Ag2 119.537(14) 1_545 .
Te1 Ag1 Ag2 60.462(14) 1_445 9
Te1 Ag1 Ag2 60.462(14) 1_455 9_565
Te1 Ag1 Ag2 119.538(14) . 9
Te1 Ag1 Ag2 60.462(14) 1_445 3
Te1 Ag1 Ag2 119.538(14) 1_455 9
Te1 Ag1 Ag2 60.462(14) 1_455 3
Te1 Ag1 Ag2 60.462(14) 1_545 9
Te1 Ag1 Ag2 60.462(14) 1_445 1_545
Te1 Ag1 Ag2 119.538(14) 1_445 11
Te1 Ag1 Ag2 119.538(14) 1_455 1_545
Te1 Ag1 Ag2 60.462(14) . 11
Te1 Ag1 Ag2 119.537(14) 1_445 .
Te1 Ag1 Ag2 119.538(14) 1_455 11
Te1 Ag1 Ag2 60.463(14) 1_455 .
Te1 Ag1 Ag2 60.462(14) 1_545 11
Te1 Ag1 Ag2 119.538(14) 1_445 9_565
Te1 Ag1 Ag2 60.462(14) 1_545 3_655
Ag2 Ag1 Ag2 59.08(3) 9 11
Ag2 Ag1 Ag2 120.92(3) 3_655 9_565
Ag2 Ag1 Ag2 91.59(5) 9_565 .
Ag2 Ag1 Ag2 91.59(5) 11_455 3
Ag2 Ag1 Ag2 120.92(3) 11_455 .
Ag2 Ag1 Ag2 88.41(5) 3_655 3
Ag2 Ag1 Ag2 180.000(10) 9_565 1_545
Ag2 Ag1 Ag2 120.92(3) 9 3
Ag2 Ag1 Ag2 59.08(3) 11 9_565
Ag2 Ag1 Ag2 180.000(10) 11 3
Ag2 Ag1 Ag2 180.0 9 .
Ag2 Ag1 Ag2 120.92(3) 9_565 3
Ag2 Ag1 Ag2 88.41(5) 1_545 .
Ag2 Ag1 Ag2 180.000(10) 11_455 3_655
Ag2 Ag1 Ag2 59.08(3) 3 1_545
Ag2 Ag1 Ag2 59.08(3) 11_455 9
Ag2 Ag1 Ag2 88.41(5) 9 9_565
Ag2 Ag1 Ag2 120.92(3) 3_655 9
Ag2 Ag1 Ag2 88.41(5) 11_455 11
Ag2 Ag1 Ag2 59.08(3) 11_455 9_565
Ag2 Ag1 Ag2 59.08(3) 3_655 .
Ag2 Ag1 Ag2 120.92(3) 11_455 1_545
Ag2 Ag1 Ag2 120.92(3) 11 .
Ag2 Ag1 Ag2 59.08(3) 3_655 1_545
Ag2 Ag1 Ag2 59.08(3) 3 .
Ag2 Ag1 Ag2 91.59(5) 9 1_545
Ag2 Ag1 Ag2 91.59(5) 3_655 11
Ag2 Ag1 Ag2 120.92(3) 11 1_545
Cs1 Ag2 Cs1 64.26(4) . 1_455
Te1 Ag2 Cs1 103.67(5) 1_455 1_455
Te1 Ag2 Cs1 103.67(5) . .
Te1 Ag2 Cs1 167.929(9) 1_455 .
Te1 Ag2 Cs1 167.929(8) . 1_455
Te1 Ag2 Te1 88.40(5) 1_455 .
Te1 Ag2 Ag1 59.07(3) 1_455 1_565
Te1 Ag2 Ag1 59.07(3) . 1_565
Ag1 Ag2 Cs1 127.38(3) 1_565 .
Ag1 Ag2 Cs1 127.38(3) 1_565 1_455
Ag1 Ag2 Cs1 127.38(3) . 1_455
Ag1 Ag2 Cs1 127.38(3) . .
Ag1 Ag2 Te1 59.07(3) . 1_455
Ag1 Ag2 Te1 59.07(3) . .
Ag1 Ag2 Ag1 88.40(5) . 1_565
Ag2 Ag2 Cs1 67.909(14) 3_655 .
Ag2 Ag2 Cs1 67.909(14) 3_565 1_455
Ag2 Ag2 Cs1 112.092(14) 3_665 1_455
Ag2 Ag2 Cs1 67.909(14) 3_665 .
Ag2 Ag2 Cs1 112.092(14) 3_565 .
Ag2 Ag2 Cs1 112.092(14) 3_655 1_455
Ag2 Ag2 Cs1 67.909(14) 3 1_455
Ag2 Ag2 Cs1 112.092(14) 3 .
Ag2 Ag2 Te1 119.537(14) 3 .
Ag2 Ag2 Te1 60.462(14) 3_565 1_455
Ag2 Ag2 Te1 119.537(14) 3_655 1_455
Ag2 Ag2 Te1 119.537(14) 3_665 1_455
Ag2 Ag2 Te1 60.462(14) 3_665 .
Ag2 Ag2 Te1 60.462(14) 3_655 .
Ag2 Ag2 Te1 60.462(14) 3 1_455
Ag2 Ag2 Te1 119.537(14) 3_565 .
Ag2 Ag2 Ag1 60.462(14) 3_665 1_565
Ag2 Ag2 Ag1 119.537(14) 3_665 .
Ag2 Ag2 Ag1 119.537(14) 3_565 .
Ag2 Ag2 Ag1 119.537(14) 3 1_565
Ag2 Ag2 Ag1 60.462(14) 3 .
Ag2 Ag2 Ag1 60.462(14) 3_565 1_565
Ag2 Ag2 Ag1 60.462(14) 3_655 .
Ag2 Ag2 Ag1 119.537(14) 3_655 1_565
Ag2 Ag2 Ag2 180.0 3_565 3_655
Ag2 Ag2 Ag2 90.0 3_665 3_655
Ag2 Ag2 Ag2 180.0 3_665 3
Ag2 Ag2 Ag2 90.0 3_665 3_565
Ag2 Ag2 Ag2 90.0 3 3_565
Ag2 Ag2 Ag2 90.0 3 3_655
S1 Ag2 Cs1 62.43(4) . .
S1 Ag2 Cs1 62.43(4) 1_565 1_455
S1 Ag2 Cs1 62.43(4) 1_565 .
S1 Ag2 Cs1 62.43(4) . 1_455
S1 Ag2 Te1 113.07(3) 1_565 .
S1 Ag2 Te1 113.07(3) 1_565 1_455
S1 Ag2 Te1 113.07(3) . .
S1 Ag2 Te1 113.07(3) . 1_455
S1 Ag2 Ag1 78.93(5) . .
S1 Ag2 Ag1 167.33(3) . 1_565
S1 Ag2 Ag1 78.93(5) 1_565 1_565
S1 Ag2 Ag1 167.33(3) 1_565 .
S1 Ag2 Ag2 126.310(18) . 3_565
S1 Ag2 Ag2 53.690(18) . 3
S1 Ag2 Ag2 126.310(18) 1_565 3
S1 Ag2 Ag2 53.691(18) 1_565 3_565
S1 Ag2 Ag2 53.690(18) . 3_655
S1 Ag2 Ag2 126.310(18) . 3_665
S1 Ag2 Ag2 126.310(18) 1_565 3_655
S1 Ag2 Ag2 53.691(18) 1_565 3_665
S1 Ag2 S1 113.74(8) . 1_565
Cs1 S1 Cs1 72.17(3) . 1_455
Cs1 S1 Cs1 112.80(6) 1_545 1_455
Cs1 S1 Cs1 72.17(3) . 1_545
Cs1 S1 Cs1 72.17(3) 1_445 1_545
Cs1 S1 Cs1 112.80(6) . 1_445
Cs1 S1 Cs1 72.17(3) 1_445 1_455
Ag2 S1 Cs1 79.00(4) 1_545 1_445
Ag2 S1 Cs1 142.718(10) . 1_445
Ag2 S1 Cs1 142.718(10) 3_655 1_455
Ag2 S1 Cs1 79.00(4) . .
Ag2 S1 Cs1 79.00(4) 3 1_455
Ag2 S1 Cs1 142.718(10) 3 .
Ag2 S1 Cs1 79.00(4) 3_655 .
Ag2 S1 Cs1 142.718(10) 1_545 .
Ag2 S1 Cs1 79.00(4) . 1_455
Ag2 S1 Cs1 142.718(10) 3 1_545
Ag2 S1 Cs1 142.718(10) 1_545 1_455
Ag2 S1 Cs1 79.00(4) 1_545 1_545
Ag2 S1 Cs1 79.00(4) 3 1_445
Ag2 S1 Cs1 79.00(4) 3_655 1_545
Ag2 S1 Cs1 142.718(10) . 1_545
Ag2 S1 Cs1 142.718(10) 3_655 1_445
Ag2 S1 Ag2 113.74(8) 3 3_655
Ag2 S1 Ag2 72.62(4) 3 1_545
Ag2 S1 Ag2 113.74(8) . 1_545
Ag2 S1 Ag2 72.62(4) 1_545 3_655
Ag2 S1 Ag2 72.62(4) . 3_655
Ag2 S1 Ag2 72.62(4) . 3
loop_
_geom_bond_atom_site_label_1
_geom_bond_atom_site_label_2
_geom_bond_distance
_geom_bond_site_symmetry_2
Cs1 Ag2 4.0256(16) 9_666
Cs1 Ag2 4.0256(16) 11_566
Cs1 Ag2 4.0256(16) .
Cs1 Ag2 4.0256(16) 3_655
Cs1 S1 3.635(2) 9_556
Cs1 S1 3.635(2) 1_655
Cs1 S1 3.635(2) 9_566
Cs1 S1 3.635(2) 9_666
Cs1 S1 3.635(2) 1_665
Cs1 S1 3.635(2) 9_656
Cs1 S1 3.635(2) 1_565
Cs1 S1 3.635(2) .
Te1 Ag1 3.028(2) .
Te1 Ag1 3.028(2) 1_655
Te1 Ag1 3.028(2) 1_565
Te1 Ag1 3.028(2) 1_665
Te1 Ag2 3.0710(13) 11
Te1 Ag2 3.0710(13) 3_655
Te1 Ag2 3.0710(13) .
Te1 Ag2 3.0710(13) 3_665
Te1 Ag2 3.0710(13) 9_665
Te1 Ag2 3.0710(13) 1_655
Te1 Ag2 3.0710(13) 9_565
Te1 Ag2 3.0710(13) 11_565
Ag1 Te1 3.028(2) 1_455
Ag1 Te1 3.028(2) 1_545
Ag1 Te1 3.028(2) 1_445
Ag1 Ag2 3.0710(13) 11_455
Ag1 Ag2 3.0710(13) 9_565
Ag1 Ag2 3.0710(13) .
Ag1 Ag2 3.0710(13) 3_655
Ag1 Ag2 3.0710(13) 3
Ag1 Ag2 3.0710(13) 9
Ag1 Ag2 3.0710(13) 11
Ag1 Ag2 3.0710(13) 1_545
Ag2 Cs1 4.0256(16) 1_455
Ag2 Te1 3.0710(13) 1_455
Ag2 Ag1 3.0710(13) 1_565
Ag2 Ag2 3.028(2) 3_665
Ag2 Ag2 3.028(2) 3_565
Ag2 Ag2 3.028(2) 3_655
Ag2 Ag2 3.028(2) 3
Ag2 S1 2.5568(16) 1_565
Ag2 S1 2.5567(16) .
S1 Cs1 3.635(2) 1_445
S1 Cs1 3.635(2) 1_455
S1 Cs1 3.635(2) 1_545
S1 Ag2 2.5568(16) 3_655
S1 Ag2 2.5568(16) 3
S1 Ag2 2.5568(16) 1_545
