#------------------------------------------------------------------------------
#$Date: 2021-06-26 02:06:36 +0300 (Sat, 26 Jun 2021) $
#$Revision: 266692 $
#$URL: file:///home/coder/svn-repositories/cod/cif/4/00/39/4003957.cif $
#------------------------------------------------------------------------------
#
# This file is available in the Crystallography Open Database (COD),
# http://www.crystallography.net/
#
# All data on this site have been placed in the public domain by the
# contributors.
#
data_4003957
loop_
_publ_author_name
'Hu, Yilei'
'Jiang, Xingxing'
'Wu, Chao'
'Huang, Zhipeng'
'Lin, Zheshuai'
'Humphrey, Mark G.'
'Zhang, Chi'
_publ_section_title
;
 A2MoO2F3(IO2F2) (A = Rb, Cs): Strong Nonlinear Optical Responses and
 Enlarged Band Gaps through Fluorine Incorporation
;
_journal_name_full               'Chemistry of Materials'
_journal_paper_doi               10.1021/acs.chemmater.1c01434
_journal_year                    2021
_chemical_formula_sum            'Cs2 F5 I Mo O4'
_chemical_formula_weight         647.66
_space_group_crystal_system      orthorhombic
_space_group_IT_number           36
_space_group_name_Hall           'C 2c -2'
_space_group_name_H-M_alt        'C m c 21'
_atom_sites_solution_hydrogens   none
_audit_creation_method           SHELXL-2017/1
_cell_angle_alpha                90
_cell_angle_beta                 90
_cell_angle_gamma                90
_cell_formula_units_Z            4
_cell_length_a                   12.2153(6)
_cell_length_b                   10.4656(4)
_cell_length_c                   7.8560(4)
_cell_measurement_reflns_used    2640
_cell_measurement_temperature    290(2)
_cell_measurement_theta_max      27.0818
_cell_measurement_theta_min      3.3357
_cell_volume                     1004.31(8)
_computing_structure_refinement  'SHELXL-2017/1 (Sheldrick, 2017)'
_diffrn_ambient_temperature      290(2)
_diffrn_measured_fraction_theta_full 0.998
_diffrn_measured_fraction_theta_max 0.998
_diffrn_measurement_device_type  'CCD area detector'
_diffrn_measurement_method       'phi and omega scans'
_diffrn_radiation_type           MoK\a
_diffrn_radiation_wavelength     0.71073
_diffrn_reflns_av_R_equivalents  0.0257
_diffrn_reflns_av_unetI/netI     0.0323
_diffrn_reflns_Laue_measured_fraction_full 0.998
_diffrn_reflns_Laue_measured_fraction_max 0.998
_diffrn_reflns_limit_h_max       15
_diffrn_reflns_limit_h_min       -15
_diffrn_reflns_limit_k_max       13
_diffrn_reflns_limit_k_min       -13
_diffrn_reflns_limit_l_max       10
_diffrn_reflns_limit_l_min       -7
_diffrn_reflns_number            3023
_diffrn_reflns_point_group_measured_fraction_full 0.998
_diffrn_reflns_point_group_measured_fraction_max 0.998
_diffrn_reflns_theta_full        25.242
_diffrn_reflns_theta_max         27.091
_diffrn_reflns_theta_min         2.563
_diffrn_source                   'sealed tube'
_exptl_absorpt_coefficient_mu    11.581
_exptl_crystal_colour            colorless
_exptl_crystal_density_diffrn    4.283
_exptl_crystal_description       rob-like
_exptl_crystal_F_000             1128
_refine_diff_density_max         1.529
_refine_diff_density_min         -1.580
_refine_diff_density_rms         0.289
_refine_ls_abs_structure_details
;
 Refined as an inversion twin.
;
_refine_ls_abs_structure_Flack   0.06(7)
_refine_ls_extinction_coef       0.0034(5)
_refine_ls_extinction_expression Fc^*^=kFc[1+0.001xFc^2^\l^3^/sin(2\q)]^-1/4^
_refine_ls_extinction_method     'SHELXL-2017/1 (Sheldrick 2017)'
_refine_ls_goodness_of_fit_ref   0.807
_refine_ls_hydrogen_treatment    none
_refine_ls_matrix_type           full
_refine_ls_number_parameters     69
_refine_ls_number_reflns         1050
_refine_ls_number_restraints     1
_refine_ls_restrained_S_all      0.807
_refine_ls_R_factor_all          0.0265
_refine_ls_R_factor_gt           0.0254
_refine_ls_shift/su_max          0.000
_refine_ls_shift/su_mean         0.000
_refine_ls_structure_factor_coef Fsqd
_refine_ls_weighting_details
'w=1/[\s^2^(Fo^2^)+(0.1000P)^2^] where P=(Fo^2^+2Fc^2^)/3'
_refine_ls_weighting_scheme      calc
_refine_ls_wR_factor_gt          0.0720
_refine_ls_wR_factor_ref         0.0907
_reflns_Friedel_coverage         0.856
_reflns_Friedel_fraction_full    0.998
_reflns_Friedel_fraction_max     0.998
_reflns_number_gt                1035
_reflns_number_total             1050
_reflns_threshold_expression     'I > 2\s(I)'
_cod_data_source_file            cm1c01434_si_003.cif
_cod_data_source_block           2
_cod_database_code               4003957
_shelx_shelxl_version_number     2017/1
_shelx_space_group_comment
;
The symmetry employed for this shelxl refinement is uniquely defined
by the following loop, which should always be used as a source of
symmetry information in preference to the above space-group names.
They are only intended as comments.
;
_shelx_res_file
;
TITL 2 in Cmc2(1)                           New:Cmc21
    2.res
    created by SHELXL-2017/1 at 10:49:56 on 24-May-2021
CELL  0.71073   12.2153   10.4656    7.8560    90.000    90.000    90.000
ZERR        4    0.0006    0.0004    0.0004     0.000     0.000     0.000
LATT  -7
SYMM             - X ,            - Y ,    0.50000 + Z
SYMM             - X ,              Y ,              Z
SYMM               X ,            - Y ,    0.50000 + Z
SFAC Cs  I Mo  O  F
UNIT     8    4   4  16 20
TEMP    17
L.S. 5
FMAP 2
PLAN -20
ACTA
CONF
TWIN
WGHT    0.100000
EXTI    0.003396
BASF   0.06328
FVAR       0.07593
RESI 0
I3    2    0.500000   -0.031076    0.658563    10.50000    0.02087    0.01747 =
         0.01652   -0.00380    0.00000    0.00000
MO1   3    0.500000   -0.326555    0.365904    10.50000    0.02583    0.01811 =
         0.01925   -0.00153    0.00000    0.00000
F1    5    0.337338   -0.035284    0.660182    11.00000    0.02486    0.05276 =
         0.07103   -0.01928   -0.01624    0.00127
F2    5    0.395810   -0.243754    0.211561    11.00000    0.02850    0.04406 =
         0.02525    0.00310   -0.00782   -0.00192
O3    4    0.386284   -0.351942    0.511334    11.00000    0.02508    0.03852 =
         0.02363    0.00995    0.00494   -0.00656
O4    4    0.500000   -0.148081    0.821489    10.50000    0.04634    0.03233 =
         0.03345    0.00351    0.00000    0.00000
O5    4    0.500000   -0.120312    0.466379    10.50000    0.07993    0.01405 =
         0.02063   -0.00683    0.00000    0.00000
F6    5    0.500000   -0.467607    0.266851    10.50000    0.05420    0.04126 =
         0.07031   -0.01597    0.00000    0.00000
CS1   1    0.191159   -0.154229    0.385542    11.00000    0.02492    0.03884 =
         0.02612    0.00256   -0.00239   -0.00200
HKLF 4




REM  2 in Cmc2(1)                           New:Cmc21
REM R1 =  0.0254 for    1035 Fo > 4sig(Fo)  and  0.0265 for all    1050 data
REM     69 parameters refined using      1 restraints

END

WGHT      0.0273      8.8047

REM Highest difference peak  1.529,  deepest hole -1.580,  1-sigma level  0.289
Q1    1   0.6973 -0.2727  0.8841  11.00000  0.05    1.53
Q2    1   0.2298  0.1083  0.8887  11.00000  0.05    1.01
Q3    1   0.6527 -0.4216  0.8591  11.00000  0.05    0.95
Q4    1   0.5000 -0.4033  0.3778  10.50000  0.05    0.93
Q5    1   0.5307 -0.2764  0.3779  11.00000  0.05    0.87
Q6    1   0.4484  0.0914  0.1621  11.00000  0.05    0.74
Q7    1   0.5498 -0.4301  0.5726  11.00000  0.05    0.67
Q8    1   0.5625 -0.4363  0.6311  11.00000  0.05    0.66
Q9    1   0.5877 -0.4128  0.1857  11.00000  0.05    0.64
Q10   1   0.5742 -0.4559 -0.0880  11.00000  0.05    0.63
Q11   1   0.5836 -0.2897  0.5019  11.00000  0.05    0.61
Q12   1   0.3997  0.2135  0.7036  11.00000  0.05    0.60
Q13   1   0.5933 -0.4750  0.6465  11.00000  0.05    0.59
Q14   1   0.5000 -0.4350 -0.1158  10.50000  0.05    0.59
Q15   1   0.5599 -0.4529  0.3842  11.00000  0.05    0.57
Q16   1   0.5873 -0.2520  0.3389  11.00000  0.05    0.57
Q17   1   0.2047  0.0414  0.8971  11.00000  0.05    0.57
Q18   1   0.4165  0.2313  0.5164  11.00000  0.05    0.56
Q19   1   0.4019  0.2226  0.3960  11.00000  0.05    0.55
Q20   1   0.6495 -0.2434  0.5403  11.00000  0.05    0.54
;
_shelx_res_checksum              37441
_shelx_hkl_file
;
   0   2   0   13.80    0.79
   0  -2   0   16.28    0.82
   0   4   0   98.87    3.60
   0  -4   0   95.26    3.56
   0  -6   0  512.93   15.88
   0   6   0  522.73   15.93
   0   8   0    0.41    0.32
   0  -8   0    0.54    0.31
   0 -10   0  175.31    6.35
   0  10   0  178.61    6.43
   0 -12   0    7.39    0.87
   0  12   0    7.42    0.95
  -1  -1   0    0.02    0.08
  -1  -3   0  450.58   15.05
   1   3   0  431.86   15.03
  -1   3   0  561.95   14.51
   1  -3   0  533.29   14.50
   1   5   0    0.84    0.40
   1  -5   0    1.57    0.32
  -1  -5   0    0.52    0.30
  -1   5   0    1.27    0.29
  -1  -7   0   24.47    1.70
  -1   7   0   25.02    1.37
   1   7   0   24.21    1.72
   1  -7   0   25.16    1.36
  -1  -9   0   51.26    2.75
  -1   9   0   52.44    2.36
   1  -9   0   51.30    2.34
   1   9   0   54.37    2.85
   1  11   0   33.61    2.23
  -1 -11   0   32.40    2.08
   1 -11   0   34.73    1.80
  -1  11   0   31.67    1.80
  -1 -13   0   24.28    1.77
   1  13   0   21.79    1.89
  -1  13   0   24.48    1.59
   1 -13   0   23.06    1.45
  -2   0   0   72.30    2.62
   2   0   0   73.72    2.62
  -2  -2   0  128.35    4.67
   2   4   0  201.93    7.57
   2  -4   0  222.09    6.38
  -2   4   0  246.04    6.64
  -2  -4   0  196.13    7.50
  -2   6   0    0.77    0.19
   2   6   0    1.05    0.46
   2  -6   0    0.84    0.18
  -2  -6   0    0.14    0.26
  -2   8   0   14.52    0.83
   2   8   0   13.19    1.41
  -2  -8   0   12.84    1.32
   2  -8   0   13.09    0.81
  -2  10   0    8.61    0.71
  -2 -10   0    9.75    1.11
   2  10   0    9.99    1.30
   2 -10   0    8.55    0.69
   2  12   0    8.31    1.33
   2 -12   0    8.53    0.80
  -2 -12   0   11.27    1.28
  -2  12   0   10.33    0.77
   3   1   0  280.12    9.21
   3  -1   0  296.09    8.74
  -3  -1   0  260.91    9.17
  -3   1   0  305.81    8.76
   3   3   0  105.20    4.31
  -3  -3   0   96.95    4.21
   3   5   0    0.43    0.37
  -3  -5   0    0.25    0.26
  -3  -7   0  185.88    7.24
   3   7   0  180.74    7.24
  -3  -9   0   10.55    1.35
   3   9   0   11.24    1.45
  -3 -11   0   66.84    3.70
   3  11   0   65.94    3.84
  -3 -13   0    1.16    0.57
  -4   0   0  253.03    8.65
   4   0   0  280.09    8.72
   4  -2   0   75.58    2.50
  -4  -2   0   59.79    3.18
  -4   2   0   76.20    2.52
   4   4   0   -0.12    0.23
  -4  -4   0    0.94    0.44
   4   6   0  144.54    6.13
  -4  -6   0  138.33    6.05
  -4  -8   0   20.21    1.89
   4   8   0   18.93    1.91
  -4 -10   0    6.80    1.10
   4  10   0    4.82    1.26
  -4 -12   0    1.50    0.65
   5  -1   0    6.30    0.66
  -5   1   0    5.10    0.63
   5   1   0    4.71    0.72
  -5  -1   0    3.34    0.69
   5  -3   0  863.78   22.38
  -5  -3   0  663.33   23.84
  -5   3   0  873.82   22.39
   5   3   0  680.46   23.83
   5   5   0   10.66    1.36
  -5  -5   0    8.44    1.22
   5   7   0   68.86    3.97
  -5  -7   0   67.11    3.92
  -5  -9   0   85.78    4.71
   5   9   0   90.40    4.83
  -5 -11   0   14.46    1.81
   6   0   0  774.26   22.88
  -6   0   0  723.30   22.92
   6   2   0   43.12    2.62
  -6  -2   0   41.96    2.65
  -6   2   0   43.80    2.03
   6  -2   0   45.91    2.00
  -6  -4   0   16.65    1.69
   6   4   0   15.99    1.65
   6   6   0  291.77   11.00
  -6  -6   0  297.23   11.12
   6   8   0   10.90    1.57
  -6  -8   0    6.52    1.31
  -6 -10   0   49.54    3.52
  -6 -12   0    0.00    0.57
   7   1   0  171.55    6.65
  -7  -1   0  167.43    6.76
   7  -1   0  178.21    6.24
  -7   1   0  175.26    6.35
   7   3   0   23.22    1.97
  -7   3   0   21.99    1.22
   7  -3   0   25.10    1.24
  -7  -3   0   22.31    1.98
   7   5   0    2.61    0.86
  -7  -5   0    3.23    0.99
  -7  -7   0   31.72    2.75
   7   7   0   36.97    2.90
  -7  -9   0   -0.25    0.41
  -7 -11   0   40.11    3.20
  -8   0   0    5.10    0.83
   8   0   0    3.84    0.80
   8  -2   0   83.24    3.40
  -8  -2   0   77.30    4.18
   8   2   0   81.78    4.12
  -8   2   0   83.46    3.51
  -8   4   0  175.31    5.51
   8   4   0  178.73    7.38
   8  -4   0  173.78    5.47
  -8  -4   0  164.02    7.38
  -8  -6   0    5.32    1.14
   8   6   0    8.97    1.45
  -8  -8   0   10.16    1.64
  -8 -10   0   14.76    2.05
  -9   1   0   20.06    1.64
   9   1   0   20.66    1.79
   9  -1   0   21.22    1.75
  -9  -1   0   20.32    1.86
  -9  -3   0   60.38    3.67
  -9   3   0   57.57    2.58
   9   3   0   52.28    3.36
   9  -3   0   56.93    2.50
   9   5   0    0.32    0.56
  -9  -5   0   -0.42    0.35
  -9  -7   0    2.73    1.03
  -9  -9   0    3.63    1.17
 -10   0   0  613.21   19.89
  10   0   0  622.20   19.69
  10  -2   0   10.22    2.02
 -10  -2   0    7.49    1.23
 -10   2   0    7.04    0.93
  10   2   0    8.98    1.29
  10   4   0   24.35    2.36
 -10   4   0   23.87    1.34
  10  -4   0   21.61    1.24
 -10  -4   0   23.90    2.33
 -10  -6   0  180.27    8.20
 -10  -8   0    0.48    0.72
 -10 -10   0   46.87    3.86
 -11  -1   0    1.92    0.55
  11  -1   0    2.18    0.64
  11   1   0    1.13    0.66
 -11   1   0    1.61    0.63
 -11   3   0  297.32    9.71
  11  -3   0  275.73    9.86
 -11  -3   0  292.95   12.45
  11   3   0  290.53   10.93
 -11   5   0    0.48    0.23
  11  -5   0    0.28    0.20
 -11  -5   0    0.06    0.48
 -11  -7   0   29.93    2.95
 -11  -9   0   26.69    2.87
  12   0   0   54.85    3.24
 -12   0   0   59.28    3.50
 -12  -2   0   33.34    2.72
  12   2   0   32.46    2.54
 -12   2   0   32.27    2.19
  12  -2   0   30.84    2.08
 -12   4   0   22.79    1.53
  12  -4   0   27.83    1.44
 -12  -4   0   24.75    2.49
 -12  -6   0    4.92    1.26
 -12  -8   0    4.14    1.36
 -13   1   0   93.45    4.62
  13   1   0   94.17    4.75
 -13  -1   0   99.66    5.07
  13  -1   0   93.34    4.46
 -13   3   0    4.11    0.86
 -13  -3   0    4.63    1.14
  13  -3   0    4.91    0.77
 -13   5   0    3.32    0.53
 -13  -5   0    2.59    0.97
  13  -5   0    4.72    0.48
 -13  -7   0   42.35    3.59
 -14   0   0    8.05    1.27
  14   0   0    5.47    1.27
 -14  -2   0   19.15    2.16
  14  -2   0   18.31    1.68
 -14   2   0   20.70    1.80
 -14   4   0   18.61    1.39
 -14  -4   0   15.83    1.95
  14  -4   0   21.93    1.28
 -14  -6   0    2.87    1.03
 -15  -1   0    0.06    0.61
 -15   1   0    0.89    0.64
  15  -1   0   -1.20    0.82
 -15  -3   0   87.83    5.04
 -15   3   0   83.49    3.93
  15  -3   0   76.50    3.71
   0   0   1    0.09    0.04
   0  -2   1  220.43    6.53
   0  -2  -1  213.34    6.49
   0   2  -1  211.21    6.49
   0   2   1  216.80    6.52
   0   4  -1  209.44    6.09
   0  -4  -1  201.57    6.06
   0   4   1  173.21    6.24
   0  -4   1  178.59    6.22
   0  -6   1  201.10    7.50
   0   6  -1  234.36    7.13
   0   6   1  200.68    7.56
   0  -6  -1  235.91    7.14
   0  -8   1  124.22    4.93
   0  -8  -1  112.99    4.35
   0   8   1  128.04    5.06
   0   8  -1  113.40    4.38
   0  10   1   37.95    2.36
   0 -10  -1   39.94    2.07
   0 -10   1   34.20    2.19
   0  10  -1   40.58    2.11
   0 -12   1   62.87    3.08
   0 -12  -1   61.37    2.89
   0  12   1   60.10    3.13
   0  12  -1   64.24    2.97
  -1  -1   1   20.43    0.93
  -1   1  -1   23.44    0.85
   1   1   1   20.22    0.93
   1  -1  -1   24.21    0.85
   1  -1   1   20.69    0.83
  -1  -1  -1   23.41    0.97
  -1   1   1   20.80    0.82
  -1   3  -1  166.69    4.89
   1   3   1  152.35    5.33
   1  -3  -1  170.79    4.89
  -1  -3   1  156.81    5.34
   1  -3   1  159.41    4.95
  -1   3   1  158.18    4.95
   1   3  -1  159.84    5.25
  -1  -3  -1  154.81    5.22
  -1   5  -1   32.74    1.40
   1   5   1   34.40    2.02
  -1  -5   1   35.15    2.02
   1  -5  -1   33.20    1.40
  -1   5   1   36.19    1.76
   1  -5   1   35.25    1.71
   1   5  -1   31.89    1.73
  -1  -7   1   82.66    3.96
   1  -7  -1   91.64    3.18
   1   7   1   85.87    4.09
  -1   7  -1   93.18    3.20
   1  -7   1   82.61    3.56
   1   7  -1   85.91    3.62
  -1   7   1   82.75    3.63
  -1  -7  -1   89.46    3.61
  -1  -9   1   72.88    3.64
   1   9   1   70.52    3.62
  -1   9  -1   69.29    2.82
   1  -9  -1   72.15    3.30
   1   9  -1   69.98    3.21
  -1   9   1   70.07    3.17
  -1  -9  -1   66.95    3.17
   1  -9   1   74.70    3.28
   1 -11  -1   23.71    1.44
  -1 -11   1   30.01    2.01
  -1  11  -1   27.03    1.88
   1  11   1   23.85    2.03
  -1 -11  -1   26.14    1.71
   1  11  -1   24.40    1.80
   1 -11   1   24.19    1.58
  -1 -13   1   12.90    1.36
   1 -13  -1   10.93    0.95
   1  13   1    9.06    1.48
  -1  13  -1    9.81    1.09
   1  13  -1   11.74    1.37
  -1 -13  -1   14.81    1.32
  -1  13   1    9.75    1.16
   1 -13   1   10.81    0.99
   2   0   1    0.21    0.09
   2   0  -1    0.23    0.10
  -2   0  -1    0.09    0.06
  -2  -2   1  649.42   19.30
   2   2   1  648.31   19.30
   2   4   1  327.99   11.08
  -2  -4   1  321.79   11.07
  -2   4  -1  369.79   10.03
   2  -4   1  334.51   10.14
  -2  -4  -1  350.80   10.93
  -2   4   1  333.66   10.16
   2   4  -1  350.50   10.94
   2  -6  -1   64.71    2.28
  -2   6  -1   67.87    2.31
   2   6   1   68.18    3.46
  -2  -6   1   69.17    3.46
  -2   6   1   65.45    2.70
   2   6  -1   66.31    3.12
  -2  -6  -1   67.03    3.12
   2  -6   1   64.26    2.64
   2  -8  -1  283.09    8.35
   2   8   1  268.02   10.01
  -2  -8   1  271.15    9.90
  -2   8  -1  277.97    8.36
   2  -8   1  268.69    8.70
  -2  -8  -1  262.48    9.33
   2   8  -1  270.02    9.46
  -2   8   1  271.86    8.71
   2  10   1   53.45    3.29
   2 -10  -1   54.50    2.17
  -2 -10   1   56.49    3.27
  -2  10  -1   56.32    2.22
   2  10  -1   53.42    2.95
  -2  10   1   51.37    2.32
   2 -10   1   50.90    2.31
  -2 -10  -1   56.04    2.96
  -2 -12   1   18.55    1.79
  -2  12  -1   17.65    1.04
   2  12   1   13.22    2.13
   2 -12   1   17.06    1.33
  -2 -12  -1   16.68    1.55
   2  12  -1   13.86    1.90
  -2  12   1   18.08    1.08
   3   1   1  588.29   17.77
  -3  -1   1  600.58   17.79
   3   1  -1  586.86   17.77
  -3  -1  -1  603.20   17.78
   3   3   1   31.94    1.86
  -3  -3   1   29.11    1.81
  -3  -3  -1   33.48    1.86
  -3   3   1   30.96    1.09
   3   3  -1   30.94    1.80
   3  -3   1   30.55    1.09
   3  -3   1   30.35    1.10
   3   5   1  407.86   14.29
  -3  -5   1  408.77   14.28
  -3   5  -1  476.66   12.68
  -3  -5  -1  454.45   14.17
   3  -5   1  424.47   12.87
  -3   5   1  405.28   12.88
   3   5  -1  425.40   14.07
  -3   5   1  486.28   12.66
  -3   7  -1  139.09    4.09
  -3  -7   1  124.68    5.73
   3   7   1  128.76    5.84
  -3   7   1  129.37    4.26
   3  -7   1  129.65    4.29
   3   7  -1  139.18    5.59
  -3   7   1  127.23    4.06
  -3  -7  -1  138.24    5.53
  -3   9  -1   45.95    1.72
  -3  -9   1   50.00    3.19
   3   9   1   51.80    3.30
  -3   9   1   48.02    1.81
   3   9  -1   43.04    2.81
  -3  -9  -1   42.81    2.72
   3  -9   1   48.92    1.84
   3  11   1   72.93    5.55
  -3  11  -1   68.51    2.39
  -3 -11   1   73.49    4.00
  -3 -11  -1   72.34    3.72
   3  11  -1   59.69    4.78
  -3 -13   1    9.23    1.40
  -3 -13  -1   10.33    1.35
   4   0  -1    1.28    0.31
  -4   0  -1    0.57    0.21
  -4   0   1    0.51    0.24
  -4   2  -1   90.00    2.95
  -4  -2   1   89.26    3.76
   4   2   1   91.97    3.75
   4  -2  -1   89.49    2.93
   4  -2   1   89.26    3.02
  -4  -2  -1   87.56    3.71
  -4   2   1   89.06    3.03
  -4  -4   1   32.24    2.20
   4   4   1   30.98    2.14
   4   4  -1   37.12    2.25
   4  -4   1   33.11    1.16
   4  -4   1   34.34    1.14
  -4   4   1   31.90    1.28
   4   6   1   69.90    3.82
  -4  -6   1   69.92    3.81
   4   6  -1   66.12    3.55
  -4  -6  -1   65.40    3.52
  -4  -8   1   73.61    4.10
   4   8   1   69.43    4.10
  -4  -8  -1   67.55    3.71
   4   8  -1   65.81    3.76
   4  10   1   31.55    3.34
  -4 -10   1   38.51    2.83
   4  10  -1   41.83    3.85
  -4 -10  -1   41.85    2.72
  -4 -12   1   13.20    1.74
  -4 -12  -1   11.60    1.56
   5   1   1  221.11    7.64
  -5  -1   1  209.10    7.64
   5  -1  -1  223.35    7.07
  -5   1  -1  225.85    7.12
   5   1  -1  224.60    7.59
  -5  -1  -1  227.28    7.67
   5  -1   1  220.36    7.23
  -5   1   1  219.24    7.26
  -5  -3   1   37.01    2.35
   5   3   1   33.31    2.24
   5  -3  -1   36.41    1.35
  -5  -3  -1   36.23    2.31
  -5   3   1   35.09    1.54
   5  -3   1   35.16    1.51
   5   3  -1   35.59    2.25
   5   5   1  219.89    8.46
  -5  -5   1  226.96    8.55
  -5  -5  -1  216.89    8.30
   5   5  -1  205.70    8.19
   5   7   1   30.84    2.59
  -5  -7   1   28.27    2.46
  -5  -7  -1   32.06    2.44
   5   7  -1   31.03    2.45
  -5  -9   1  124.53    6.18
   5   9   1  125.76    6.92
  -5  -9  -1  135.01    6.05
   5   9  -1  126.37    6.88
  -5 -11   1   39.13    3.06
  -5 -11  -1   32.34    2.67
  -6   0  -1    0.12    0.20
   6   0  -1    0.24    0.22
   6   0   1    0.39    0.23
  -6   0   1    0.06    0.22
   6  -2  -1   81.90    3.07
   6   2   1   88.54    4.02
  -6   2  -1   82.38    3.11
  -6  -2   1   87.01    4.08
   6  -2   1   91.40    3.41
   6   2  -1   80.82    3.87
  -6   2   1   89.61    3.46
  -6  -2  -1   81.87    3.95
   6   4   1   44.76    2.94
   6  -4  -1   53.85    1.70
  -6  -4   1   45.51    3.00
   6  -4   1   48.83    1.69
   6   4  -1   54.42    3.11
  -6  -4  -1   51.94    3.10
  -6   4   1   48.02    1.93
   6  -4   1   44.86    1.88
   6   6   1  136.47    6.34
  -6  -6   1  129.90    6.28
   6   6  -1  138.01    6.21
  -6  -6  -1  143.90    6.30
  -6  -8   1   74.68    4.41
   6   8   1   72.60    4.72
   6   8  -1   62.91    4.40
  -6  -8  -1   68.49    4.11
  -6 -10   1   36.58    3.03
  -6 -10  -1   35.63    2.85
  -6 -12   1   28.53    2.68
  -6 -12  -1   29.38    2.59
  -7  -1   1  206.16    7.72
   7  -1  -1  208.29    6.99
  -7   1  -1  207.61    7.08
   7   1   1  209.33    7.65
   7   1  -1  209.09    7.49
  -7  -1  -1  194.93    7.54
   7  -1   1  204.26    7.25
  -7   1   1  201.76    7.32
  -7   3  -1   33.07    1.51
  -7  -3   1   35.57    2.54
   7  -3  -1   35.04    1.51
   7   3   1   32.30    2.38
   7   3  -1   34.71    2.40
   7  -3   1   34.44    1.76
  -7  -3  -1   30.51    2.35
  -7   3   1   32.81    1.79
  -7  -5   1  204.33    8.40
   7   5   1  200.68    8.30
   7   5  -1  204.91    8.23
  -7  -5  -1  197.20    8.25
   7   7   1   76.56    5.16
  -7  -7   1   79.71    4.71
   7   7  -1   84.07    5.19
  -7  -7  -1   87.18    4.77
  -7  -9   1   39.70    3.27
  -7  -9  -1   41.61    3.25
  -7 -11   1   38.24    3.17
  -7 -11  -1   34.11    2.90
   8   0   1    0.12    0.43
  -8   0  -1   -0.16    0.20
  -8   0   1    0.24    0.29
   8   0  -1    0.10    0.29
   8  -2  -1  448.89   13.50
   8   2   1  440.46   14.75
  -8  -2   1  443.88   14.89
  -8   2  -1  442.19   13.59
   8  -2   1  444.76   13.92
  -8  -2  -1  426.39   14.72
   8   2  -1  425.00   14.52
  -8   2   1  414.64   13.93
   8  -4  -1  235.07    7.08
  -8  -4   1  227.53    9.17
   8   4   1  222.50    9.04
  -8   4  -1  231.16    7.11
   8  -4   1  225.83    7.33
  -8   4   1  223.96    7.40
   8   4  -1  232.14    9.01
  -8  -4  -1  232.89    9.16
  -8  -6   1   53.84    3.69
  -8  -6  -1   48.64    3.47
  -8  -8   1  207.42    9.29
  -8  -8  -1  223.86    9.36
  -8 -10   1   29.77    2.93
  -8 -10  -1   35.74    3.08
  -9  -1   1   75.36    3.96
   9  -1  -1   77.76    3.63
   9   1   1   70.48    3.79
  -9   1  -1   70.84    3.41
  -9   1   1   69.67    3.59
   9  -1   1   70.76    3.66
   9   1  -1   73.89    3.70
  -9  -1  -1   68.60    3.75
   9  -3  -1   21.68    1.30
  -9   3  -1   23.14    1.37
  -9  -3   1   23.70    2.19
   9   3   1   23.89    2.17
   9  -3   1   21.44    1.49
  -9  -3  -1   22.71    2.16
  -9   3   1   22.59    1.56
   9   3  -1   24.46    2.12
  -9  -5   1   46.29    3.37
   9  -5  -1   39.93    1.56
   9   5   1   44.93    3.58
  -9  -5  -1   48.86    3.43
   9  -5   1   41.07    1.60
   9   5  -1   47.79    3.51
  -9   5   1   44.37    1.70
   9  -5   1   45.12    1.69
  -9  -7   1   37.40    3.19
  -9  -7  -1   39.62    3.23
  -9  -9   1   20.59    2.40
  -9  -9  -1   17.18    2.19
 -10   0  -1    3.32    0.92
  10   0   1    1.40    0.63
 -10   0   1    0.36    0.43
  10   0  -1    0.53    0.37
 -10   2  -1   42.37    2.28
  10  -2  -1   37.87    2.12
 -10  -2   1   44.17    3.02
  10   2   1   37.93    2.78
 -10   2   1   41.05    2.46
 -10  -2  -1   39.13    2.84
  10   2  -1   33.42    2.55
  10  -2   1   37.87    2.30
 -10  -4   1   29.72    2.86
  10   4   1   28.46    2.51
 -10   4  -1   26.15    1.43
  10  -4  -1   26.79    1.39
 -10   4   1   26.90    1.61
  10   4  -1   30.71    2.56
  10  -4   1   25.38    1.51
 -10  -4  -1   30.71    2.83
 -10  -6   1   49.84    3.73
 -10  -6  -1   50.64    3.68
 -10  -8   1   35.36    3.23
 -10  -8  -1   33.58    3.13
 -10 -10   1    7.84    1.81
 -10 -10  -1    7.18    1.59
  11  -1  -1   19.18    1.61
 -11   1  -1   21.34    1.75
 -11  -1   1   17.22    1.85
  11   1   1   21.08    1.86
 -11  -1  -1   18.81    1.89
  11  -1   1   20.28    1.77
  11   1  -1   19.43    1.75
 -11   1   1   21.15    1.84
 -11   3  -1   26.55    1.69
 -11  -3   1   26.63    3.09
  11   3   1   27.52    2.41
  11  -3  -1   28.24    1.76
  11   3  -1   27.85    2.36
 -11   3   1   24.13    1.78
 -11  -3  -1   26.87    2.87
  11  -3   1   26.87    1.80
 -11  -5   1   39.09    3.21
  11  -5  -1   36.58    1.60
 -11   5   1   39.12    1.74
  11  -5   1   38.97    1.68
 -11  -5  -1   36.61    3.11
 -11  -7   1   19.41    2.37
 -11  -7  -1   20.76    2.43
 -11  -9   1   34.69    3.26
 -11  -9  -1   41.48    3.49
  12   0   1    0.24    0.44
  12   0  -1    0.93    0.55
 -12   0  -1    0.71    0.57
 -12   0   1   -0.19    0.33
 -12  -2   1   43.97    3.22
 -12   2  -1   49.69    2.72
  12   2   1   47.13    3.13
  12  -2  -1   48.31    2.59
  12   2  -1   41.32    2.97
 -12   2   1   47.26    2.81
 -12  -2  -1   48.56    3.31
  12  -2   1   45.39    2.69
  12  -4  -1   35.00    1.66
 -12   4  -1   30.46    1.77
 -12  -4   1   32.08    2.86
 -12   4   1   33.32    1.94
  12  -4   1   33.26    1.79
 -12  -4  -1   32.54    2.89
 -12  -6   1   23.59    2.61
 -12  -6  -1   24.33    2.68
 -12  -8   1   39.60    3.56
 -12  -8  -1   44.82    3.72
  13   1   1   97.49    4.89
 -13  -1   1   91.23    4.95
  13  -1  -1   92.34    4.37
 -13   1  -1   97.30    4.65
 -13  -1  -1   98.02    5.02
  13  -1   1   99.25    4.66
  13   1  -1   95.73    4.78
 -13   1   1   95.95    4.75
 -13  -3   1    6.75    1.39
 -13   3  -1    7.76    1.03
  13  -3  -1    9.45    0.93
 -13  -3  -1    5.93    1.31
 -13   3   1    7.54    1.11
  13  -3   1    8.05    0.94
 -13  -5   1  118.64    6.27
  13  -5  -1  118.13    3.99
 -13   5   1   94.03    4.80
  13  -5   1  114.61    4.01
 -13  -5  -1  124.81    6.38
 -13  -7   1   32.47    3.17
 -13  -7  -1   39.11    3.41
 -14   0   1   -0.38    0.42
  14   0  -1    1.00    0.63
 -14   0  -1    1.04    0.65
  14   0   1   -0.11    0.50
  14  -2  -1   35.26    2.33
 -14  -2   1   36.89    3.02
 -14   2  -1   37.71    2.48
  14  -2   1   36.77    2.52
 -14   2   1   34.63    2.46
 -14  -2  -1   38.95    3.04
 -14  -4   1   22.28    2.32
 -14   4  -1   19.06    1.50
  14  -4  -1   24.48    1.33
 -14  -4  -1   25.70    2.40
  14  -4   1   24.89    1.42
 -14   4   1   19.76    1.57
 -15  -1   1    5.26    1.27
 -15   1  -1    6.87    1.30
 -15  -1  -1    5.50    1.38
 -15   1   1    6.41    1.34
  15  -3  -1    3.07    0.79
 -15   3  -1    1.84    0.67
 -15  -3   1    2.58    0.96
 -15  -3  -1    4.63    1.19
 -15   3   1    3.58    0.87
   0   2   2  606.03   17.82
   0  -4   2  786.90   23.10
   0   4   2  776.72   23.09
   0   6  -2  323.58    9.92
   0  -6   2  303.85   10.29
   0  -6  -2  318.98    9.90
   0   6   2  318.69   10.37
   0  -8  -2   10.68    0.88
   0   8  -2   10.05    0.88
   0   8   2   11.19    1.25
   0  -8   2   10.20    1.16
   0 -10   2   33.89    2.37
   0  10   2   39.92    2.66
   0 -10  -2   36.57    1.99
   0  10  -2   35.95    2.00
   0 -12  -2   74.70    3.25
   0  12  -2   68.26    3.25
   0 -12   2   76.79    3.70
   0  12   2   71.94    3.78
   1   1   2  471.65   14.45
   1   1  -2  501.74   14.47
   1  -1   2  490.50   14.38
   1   3   2   23.10    1.24
  -1   3  -2   20.43    1.01
  -1  -3   2   23.62    1.24
  -1   3   2   22.68    1.08
   1   3  -2   20.79    1.15
   1  -3   2   22.06    1.06
  -1  -3  -2   20.43    1.15
  -1   3   2   23.92    1.09
  -1   5  -2  172.58    5.37
   1  -5  -2  167.14    5.34
  -1  -5   2  168.07    6.07
   1   5   2  156.90    5.86
  -1   5   2  162.86    5.55
   1   5  -2  163.61    5.64
  -1  -5  -2  165.09    5.64
   1  -5   2  167.88    5.56
  -1   7  -2   48.93    2.04
   1  -7  -2   45.51    1.98
  -1  -7   2   46.68    2.69
   1   7   2   49.12    3.02
  -1  -7  -2   46.58    2.28
   1   7  -2   44.89    2.41
  -1   7   2   45.42    2.43
   1  -7   2   49.05    2.43
  -1  -9   2   63.97    3.59
   1  -9  -2   67.61    2.73
  -1   9  -2   66.21    2.75
   1   9   2   67.82    3.74
  -1   9   2   65.74    3.37
   1   9  -2   67.53    3.10
  -1  -9  -2   65.40    3.05
   1  -9   2   70.52    3.35
  -1 -11   2    5.42    1.26
  -1  11  -2    4.06    0.65
   1  11   2    5.95    1.28
   1 -11  -2    5.77    0.65
  -1  11   2    6.80    1.06
  -1 -11  -2    5.00    0.79
   1 -11   2    7.23    0.94
   1  11  -2    4.28    0.91
  -1 -13   2    1.68    1.23
   1  13   2    1.68    1.07
  -1  13  -2    2.23    0.72
  -1  13   2    2.06    0.77
   1 -13   2    2.15    0.63
   1  13  -2    4.30    0.94
   2   0   2  427.91   12.65
   2   0  -2  416.30   12.64
  -2   0   2  427.85   12.64
  -2   2  -2   63.38    2.18
   2  -2  -2   61.52    2.16
  -2  -2   2   56.49    2.35
  -2  -2  -2   59.32    2.39
   2   2  -2   61.01    2.40
   2  -2   2   57.30    2.13
  -2   2   2   60.08    2.13
  -2   4  -2   13.31    0.71
   2   4   2   10.32    0.95
  -2  -4   2   11.68    1.19
  -2   4   2   11.73    0.72
   2   4  -2   13.53    1.00
  -2  -4  -2   13.45    1.06
  -2   4   2   10.49    0.65
   2  -4   2   11.47    0.72
  -2  -6   2   59.96    3.09
   2   6   2   61.45    3.76
  -2   6  -2   56.65    2.21
   2   6  -2   60.37    3.76
  -2  -6  -2   60.47    2.79
  -2   6   2   61.70    2.27
   2  -6   2   58.11    2.46
  -2   6   2   60.02    2.52
  -2   8  -2   23.23    1.19
   2   8   2   19.99    1.93
  -2  -8   2   22.74    1.94
  -2   8   2   20.86    1.53
   2  -8   2   20.57    1.48
   2   8  -2   22.67    1.65
  -2  -8  -2   20.88    1.56
  -2 -10   2   55.51    3.45
  -2  10  -2   56.59    2.34
   2  10   2   55.45    3.59
  -2 -10  -2   52.95    2.90
  -2  10   2   56.26    2.78
   2  10  -2   55.30    2.98
   2 -10   2   55.38    2.71
  -2 -12   2    9.37    1.72
   2  12   2   10.63    1.64
   2 -12   2    9.16    0.92
  -2 -12  -2    8.93    2.04
  -2  12   2    8.87    0.80
   2  12  -2    7.57    1.20
  -3  -1   2    7.42    0.64
   3  -1  -2    7.01    0.55
   3   1   2    8.41    0.68
  -3   1   2    8.72    0.59
   3  -1   2    7.61    0.56
   3  -3  -2  389.88   11.63
   3   3   2  390.29   12.33
   3   3  -2  374.27   12.23
  -3   3   2  402.45   11.61
   3  -3   2  397.85   11.63
  -3   5  -2   55.20    1.98
  -3  -5   2   54.22    2.86
  -3   5   2   52.58    1.95
   3  -5   2   54.66    2.08
  -3   5   2   55.72    2.08
  -3  -5  -2   55.56    2.71
  -3   7  -2   65.59    2.42
  -3  -7   2   67.88    3.74
   3   7   2   71.89    3.83
   3   7  -2   68.96    3.38
  -3   7   2   67.30    2.83
  -3   7   2   67.20    2.41
  -3  -7  -2   72.07    3.39
   3  -7   2   69.20    2.77
  -3  -9   2    3.85    1.13
   3   9   2    1.59    0.78
  -3   9  -2    1.93    0.35
  -3  -9  -2    2.01    0.66
   3  -9   2    2.78    0.57
  -3   9   2    1.98    0.30
   3   9  -2    2.62    0.77
  -3   9   2    2.62    0.56
   3  11   2   10.68    1.71
  -3  11  -2   10.19    0.74
  -3 -11   2   11.51    1.70
  -3 -11  -2   12.62    2.04
   3 -11   2   10.30    0.83
  -3  11   2   11.50    0.73
  -3  11   2   11.03    0.86
   3  11  -2    9.42    1.34
  -4   0   2   81.86    2.95
   4   0   2   79.58    2.93
   4   0  -2   74.73    2.90
  -4   0  -2   67.24    2.84
   4   2   2  249.20    8.14
   4  -2  -2  255.32    7.54
  -4  -2   2  242.28    8.32
  -4  -2  -2  215.33    8.51
   4   2  -2  244.47    8.11
   4  -2   2  247.09    7.54
  -4   2   2  251.74    7.54
  -4  -4   2   89.65    4.00
   4   4   2   88.62    4.49
   4   4  -2   96.52    4.49
   4  -4   2   87.40    3.03
   4  -4   2   91.30    3.02
  -4  -4  -2   92.91    3.96
  -4   4   2   90.33    3.01
   4   6   2   44.43    2.86
  -4  -6   2   45.14    2.89
   4  -6   2   44.54    1.77
  -4  -6  -2   43.33    2.60
  -4   6   2   43.45    1.79
  -4   6   2   44.74    1.63
   4   6  -2   47.37    2.71
   4   8   2   12.99    1.66
  -4  -8   2   10.53    1.51
   4   8  -2   10.93    1.35
  -4   8   2   12.46    0.85
  -4   8   2   11.73    0.62
   4  -8   2   11.59    0.83
  -4  -8  -2   11.91    1.36
   4  10   2    1.85    0.88
  -4 -10   2    2.38    1.10
   4  10  -2    3.26    0.87
  -4 -12   2   35.79    2.92
  -4 -12  -2   33.24    2.53
  -5  -1   2  586.65   18.34
   5  -1  -2  631.21   18.01
   5   1   2  591.33   18.36
  -5   1  -2  619.05   18.03
   5  -1   2  587.87   18.00
   5   1  -2  606.17   18.38
  -5  -1  -2  598.89   18.38
  -5   1   2  594.94   18.02
   5   3   2  251.51    8.97
   5  -3  -2  274.65    7.93
  -5  -3   2  262.32    8.99
  -5  -3  -2  244.55    8.88
   5   3  -2  258.10    8.99
  -5   3   2  256.34    7.96
   5  -3   2  250.90    7.93
   5  -3   2  263.85    7.94
   5   5   2  137.31    5.84
  -5  -5   2  139.85    5.92
   5  -5   2  135.45    4.28
   5  -5   2  133.51    4.26
  -5  -5  -2  129.36    5.60
  -5   5   2  135.92    4.27
  -5   5   2  132.88    4.25
   5   5  -2  132.90    5.65
   5   7   2  153.07    6.89
  -5  -7   2  156.32    6.93
   5   7  -2  157.19    6.61
  -5  -7  -2  155.53    6.52
   5   9   2  135.72    6.58
   5   9  -2  126.56    5.95
  -5  -9  -2  130.51    7.35
  -5 -11   2    4.76    1.20
  -5 -11  -2    4.06    0.96
   6   0  -2  126.36    4.63
  -6   0   2  117.54    4.63
   6   0   2  123.63    4.68
  -6   0  -2  128.12    4.70
   6   2   2  397.40   12.85
   6  -2  -2  406.84   11.94
  -6  -2   2  380.89   12.77
  -6   2  -2  390.32   11.94
   6   2  -2  368.87   12.66
  -6  -2  -2  377.70   12.76
  -6   2   2  392.15   12.06
   6  -2   2  405.73   12.08
   6   4   2  271.80    9.82
  -6  -4   2  275.77    9.94
   6  -4  -2  274.02    8.19
  -6  -4  -2  258.56    9.69
   6  -4   2  263.65    8.19
  -6   4   2  271.02    8.34
   6  -4   2  272.73    8.33
   6   4  -2  262.77    9.68
   6   6   2   88.35    4.67
  -6  -6   2   87.39    4.68
   6  -6   2   84.66    2.84
  -6  -6  -2   84.71    4.42
   6   6  -2   86.02    4.49
   6   8   2    8.18    1.72
  -6  -8   2    7.48    2.51
  -6  -8  -2    6.30    1.68
   6   8  -2    8.82    1.39
  -6 -10   2    7.70    1.70
  -6 -10  -2   10.26    1.50
  -6 -12   2   52.60    3.62
  -6 -12  -2   50.87    3.32
   7   1   2   54.88    2.88
  -7   1  -2   56.75    2.57
  -7  -1   2   51.24    2.84
   7  -1  -2   54.83    2.49
  -7   1   2   50.38    2.58
   7   1  -2   56.96    2.84
   7  -1   2   58.72    2.69
  -7  -1  -2   53.98    2.84
   7   3   2  136.64    5.77
  -7  -3   2  133.62    5.79
   7  -3  -2  132.33    4.50
  -7  -3  -2  130.46    5.69
   7  -3   2  133.12    4.75
   7   3  -2  134.08    5.67
  -7   3   2  129.04    4.74
   7   5   2   49.65    3.27
  -7  -5   2   48.50    3.28
   7   5  -2   47.96    3.16
   7  -5   2   49.69    1.84
  -7  -5  -2   47.06    3.15
   7  -5   2   51.11    2.06
  -7   5   2   50.58    2.08
   7   7   2   10.27    1.61
  -7  -7   2    9.84    2.82
   7   7  -2    7.37    1.42
  -7  -7  -2   11.30    2.36
  -7  -9   2    2.31    0.97
  -7  -9  -2    2.65    0.90
  -7 -11   2    3.07    1.13
  -7 -11  -2    3.31    1.08
  -8   0  -2  309.52   10.66
   8   0  -2  317.01   10.59
  -8   0   2  319.29   10.91
   8   0   2  324.88   10.86
   8  -2  -2   17.62    1.20
  -8   2  -2   17.95    1.24
   8   2   2   16.01    1.59
  -8  -2   2   16.66    1.66
  -8   2   2   17.02    1.39
   8   2  -2   17.64    1.60
  -8  -2  -2   18.64    1.71
   8  -2   2   15.66    1.30
  -8  -4   2   13.55    1.65
   8  -4  -2   15.49    0.91
   8   4   2   13.08    1.59
  -8  -4  -2   16.97    1.80
   8  -4   2   13.44    1.06
   8   4  -2   18.78    1.83
   8  -4   2   11.90    0.85
  -8   4   2   13.69    1.10
  -8  -6   2   60.48    5.11
  -8  -8   2   13.45    1.98
  -8  -8  -2   12.77    1.84
  -8 -10   2   52.41    4.03
  -8 -10  -2   50.99    3.77
  -9  -1   2   37.40    2.61
  -9   1  -2   39.16    2.26
   9   1   2   37.90    2.56
   9  -1  -2   37.41    2.15
  -9  -1  -2   38.16    2.54
  -9   1   2   40.68    2.50
   9  -1   2   37.74    2.37
   9   1  -2   40.77    2.49
   9   3   2    8.68    1.27
   9  -3  -2    9.40    0.82
  -9  -3   2    6.08    1.30
  -9   3  -2    8.40    0.79
   9  -3   2    7.38    0.92
  -9  -3  -2   10.35    1.42
  -9   3   2    8.74    1.00
   9   3  -2    8.12    1.22
  -9  -5   2   38.68    3.49
   9  -5  -2   35.73    1.53
   9  -5   2   33.50    1.78
  -9  -5  -2   36.49    3.31
   9  -5   2   36.51    1.55
  -9   5   2   36.44    1.82
  -9  -7   2    1.89    0.89
  -9  -7  -2    1.29    0.75
  -9  -9   2    6.76    1.65
  -9  -9  -2    6.34    1.56
  10   0  -2  118.59    5.00
 -10   0   2  112.17    5.27
 -10   0  -2  118.86    5.14
  10   0   2  115.05    5.25
 -10   2  -2  113.52    4.64
  10  -2  -2  112.71    4.52
  10   2   2  114.30    5.50
 -10  -2   2  119.31    5.66
  10  -2   2  114.78    4.96
  10   2  -2  122.88    5.42
 -10  -2  -2  116.64    5.51
 -10   2   2  115.45    5.03
 -10  -4   2  171.57    7.67
  10   4   2  174.39    7.64
  10  -4  -2  165.53    5.72
 -10  -4  -2  167.42    7.55
 -10   4   2  173.37    6.30
  10  -4   2  166.53    6.19
  10   4  -2  172.77    7.49
 -10  -6   2   89.05    5.21
 -10  -6  -2   83.56    5.00
 -10  -8   2    5.88    1.72
 -10  -8  -2    5.51    1.57
 -11  -1   2  163.19    7.07
  11   1   2  156.99    6.91
  11  -1  -2  165.95    6.29
 -11   1  -2  158.44    6.39
  11  -1   2  159.69    6.65
  11   1  -2  163.31    6.68
 -11  -1  -2  165.02    6.90
 -11   1   2  164.66    6.79
 -11   3  -2   52.21    2.62
  11  -3  -2   54.95    2.58
  11   3   2   53.26    3.59
 -11  -3   2   51.27    3.59
  11  -3   2   53.65    2.95
 -11   3   2   53.02    2.94
 -11  -3  -2   55.17    3.63
  11   3  -2   55.86    3.52
 -11  -5   2   38.02    3.19
  11  -5  -2   38.78    1.73
 -11  -5  -2   41.86    3.29
  11  -5   2   38.73    1.90
  11  -5   2   39.72    1.79
 -11   5   2   40.54    2.03
 -11  -7   2   42.98    3.56
 -11  -7  -2   43.22    3.57
 -11  -9   2   42.44    3.73
 -11  -9  -2   38.72    3.46
  12   0   2   37.70    2.76
 -12   0   2   43.81    2.95
 -12   0  -2   38.05    2.66
  12   0  -2   41.78    2.65
 -12  -2   2   40.46    3.10
  12  -2  -2   40.55    2.36
 -12   2  -2   41.79    2.50
  12   2   2   41.57    3.04
  12  -2   2   37.79    2.57
 -12   2   2   39.56    2.67
 -12  -2  -2   38.98    3.00
  12   2  -2   42.94    2.92
  12  -4  -2   13.42    1.01
 -12  -4   2   14.49    1.93
 -12   4   2   12.46    1.26
  12  -4   2   14.42    1.14
 -12  -4  -2   14.51    1.90
 -12  -6   2    3.36    1.21
 -12  -6  -2    3.91    1.22
 -12  -8   2    3.63    1.38
 -12  -8  -2    5.73    1.57
 -13  -1   2    2.39    0.89
 -13   1  -2    2.91    0.81
  13  -1  -2    1.21    0.70
  13   1   2    2.41    0.82
 -13   1   2    3.64    1.06
 -13  -1  -2    1.55    0.77
  13   1  -2    1.35    0.81
 -13   3  -2   96.84    4.19
  13  -3  -2   91.04    3.98
 -13  -3   2  100.33    5.44
 -13   3   2   94.54    4.44
  13  -3   2   95.37    4.37
 -13  -3  -2   98.17    5.36
 -13  -5   2    7.97    1.65
 -13  -5  -2    7.47    1.52
  13  -5   2    9.71    0.84
 -13   5   2    9.90    1.02
 -14   0  -2   24.09    2.10
 -14   0   2   24.16    2.20
  14  -2  -2   18.84    1.95
 -14  -2   2   19.60    2.13
 -14   2  -2   18.63    1.71
 -14  -2  -2   20.06    2.13
  14  -2   2   18.78    1.98
 -14   2   2   19.84    1.85
 -14  -4   2    1.49    0.84
 -14  -4  -2    3.69    1.20
 -14   4   2    1.20    0.57
  14  -4   2    0.46    0.52
 -15   1  -2   44.53    3.05
 -15  -1   2   42.95    3.26
 -15  -1  -2   43.99    3.25
 -15   1   2   42.04    3.10
   0   0   3    0.74    0.23
   0   0  -3    0.42    0.15
   0   2   3  364.05   11.07
   0   2   3  360.04   11.07
   0   2  -3  359.99   11.02
   0  -2   3  360.11   11.05
   0  -4   3  111.46    4.23
   0   4  -3   88.20    3.59
   0   4   3  104.51    3.79
   0  -6  -3   94.51    3.55
   0   6  -3   94.72    3.56
   0  -6   3   86.83    3.71
   0   6   3   92.45    3.80
   0  -8   3  186.73    7.23
   0  -8  -3  203.75    6.75
   0   8   3  192.10    7.38
   0   8  -3  201.07    6.77
   0  10  -3   47.37    2.46
   0  10   3   51.58    3.24
   0 -10   3   51.22    3.09
   0 -10  -3   47.28    2.42
   0  12   3   24.78    2.35
   0 -12   3   27.00    2.07
   0  12  -3   25.98    1.79
   1   1   3   14.67    0.96
  -1  -1   3   14.24    0.92
  -1   1  -3   17.58    0.98
   1  -1  -3   16.22    0.95
   1   1   3   15.58    0.96
   1   1  -3   15.35    0.95
   1  -1   3   15.01    0.92
  -1   1   3   13.87    0.89
  -1   3  -3   25.09    1.30
  -1  -3   3   25.49    1.66
   1   3   3   27.89    1.48
   1  -3   3   28.20    1.37
   1   3  -3   26.09    1.41
  -1   3   3   26.40    1.33
  -1   3   3   27.87    1.37
   1   5   3   98.71    4.01
  -1  -5   3   95.35    3.97
  -1   5  -3  107.02    3.69
  -1   5   3   97.20    3.76
  -1  -5  -3  105.63    3.88
   1  -5   3   96.42    4.38
   1   5  -3  109.80    3.93
  -1   5   3  102.97    4.47
  -1   7  -3  155.08    5.33
   1   7   3  159.12    6.11
  -1  -7   3  152.55    5.98
   1  -7   3  151.87    5.65
  -1  -7  -3  155.86    5.59
  -1   7   3  153.36    5.73
   1   7  -3  154.92    5.61
  -1   9  -3   29.64    1.67
  -1  -9   3   27.35    2.22
   1   9   3   26.68    2.21
  -1   9   3   31.32    2.23
   1   9  -3   28.10    1.79
   1  -9   3   27.41    1.97
  -1  -9  -3   30.48    1.84
  -1  11  -3   22.66    1.44
   1  11   3   21.86    2.23
  -1 -11   3   21.18    2.02
  -1  11   3   21.96    1.96
   1 -11   3   20.57    1.79
   1  11  -3   18.83    1.60
  -1 -11  -3   23.57    1.66
   2   0  -3   -0.04    0.11
  -2   0   3    0.16    0.09
   2   0   3    0.58    0.18
   2   0   3    0.18    0.10
   2   2   3  381.27   11.89
  -2  -2   3  368.09   11.99
  -2   2  -3  410.37   11.73
   2  -2  -3  393.94   11.70
   2   2  -3  398.69   11.91
  -2   2   3  372.68   11.62
  -2  -2  -3  373.51   12.38
   2  -2   3  375.14   11.66
   2   4   3  408.05   13.06
  -2   4  -3  424.96   12.57
  -2  -4   3  410.49   13.05
  -2   4   3  426.05   12.57
   2  -4   3  412.33   12.61
  -2   4   3  416.39   12.63
  -2  -4  -3  416.70   12.96
   2   4  -3  408.39   12.95
   2   6   3   96.98    4.09
  -2  -6   3   84.42    3.88
  -2   6  -3   90.11    3.25
  -2  -6  -3   87.13    3.68
   2   6  -3   88.26    3.71
  -2   6   3   85.92    3.26
  -2   6   3   86.78    3.42
   2  -6   3   88.27    4.25
  -2  -8   3   80.49    4.14
   2   8   3   80.17    4.17
  -2   8  -3   84.11    3.13
  -2   8   3   77.07    3.09
  -2   8   3   81.36    3.58
   2   8  -3   84.93    3.72
  -2  -8  -3   84.77    3.69
   2  -8   3   76.92    3.47
  -2  10  -3   77.25    3.16
   2  10   3   83.28    4.64
  -2 -10   3   82.06    4.45
   2 -10   3   77.85    3.73
  -2  10   3   81.54    3.20
  -2  10   3   80.55    4.03
   2  10  -3   79.05    3.80
  -2 -10  -3   78.15    3.72
  -2 -12   3   12.13    1.72
  -2  12  -3   12.91    1.08
   2 -12   3   13.80    1.27
  -2  12   3   13.37    1.48
  -2  12   3   17.15    1.01
  -3  -1   3  595.41   18.53
   3   1   3  630.28   18.56
   3  -1  -3  632.88   18.39
   3   1  -3  619.69   18.55
  -3   1   3  610.32   18.34
  -3  -1  -3  569.66   18.56
   3  -1   3  630.52   18.44
   3  -1   3  648.84   18.39
  -3  -3   3   23.91    1.47
   3  -3  -3   22.27    1.18
  -3   3   3   20.84    1.12
   3   3  -3   20.60    1.37
   3  -3   3   20.72    1.13
   3   5   3  293.57    9.99
  -3  -5   3  295.24    9.97
  -3   5  -3  298.64    9.07
  -3  -5  -3  290.43    9.77
   3   5  -3  288.88    9.77
  -3   5   3  292.98    9.15
  -3   5   3  288.45    9.01
   3  -5   3  296.19    9.15
   3   7   3  217.11    8.35
  -3   7  -3  220.49    6.95
  -3  -7   3  221.86    8.32
   3  -7   3  214.97    7.21
  -3   7   3  214.34    7.26
  -3   7   3  218.62    6.91
   3   7  -3  216.68    7.86
  -3  -7  -3  217.28    7.83
  -3  -9   3   56.03    3.60
  -3   9  -3   56.41    2.31
   3   9   3   57.27    3.68
  -3   9   3   57.00    2.33
   3   9  -3   57.55    3.15
  -3  -9  -3   56.51    3.07
  -3   9   3   54.56    2.85
   3  -9   3   53.35    2.68
  -3  11  -3   38.92    1.81
  -3 -11   3   40.55    3.18
  -3  11   3   37.22    2.21
   3 -11   3   42.34    2.19
  -3 -11  -3   39.76    2.61
  -3  11   3   40.95    1.75
   4   0   3    0.10    0.14
  -4   0   3    0.10    0.14
  -4   0  -3    0.03    0.16
   4   0  -3    0.38    0.21
  -4  -2   3   25.10    1.57
   4  -2  -3   28.29    1.39
   4   2   3   25.78    1.61
  -4   2   3   27.65    1.38
   4   2  -3   29.92    1.69
   4  -2   3   27.93    1.39
   4  -2   3   26.41    1.39
  -4  -4   3  133.78    5.18
   4   4   3  127.69    5.14
   4   4  -3  126.40    5.06
   4  -4   3  133.44    4.36
   4  -4   3  129.46    4.39
  -4  -4  -3  123.80    5.05
  -4   4   3  129.48    4.34
  -4  -6   3   49.02    2.95
   4   6   3   54.50    3.11
  -4   6   3   51.42    2.15
  -4   6   3   49.84    2.01
   4  -6   3   51.04    2.13
  -4  -6  -3   50.60    2.81
   4   6  -3   49.60    2.82
  -4  -8   3   10.54    1.47
   4   8   3   13.95    1.68
   4   8  -3   12.14    1.41
  -4   8   3   10.31    0.71
   4  -8   3    9.85    0.89
  -4  -8  -3   14.69    1.44
  -4   8   3   11.94    1.00
  -4 -10   3   59.24    3.87
   4 -10   3   56.66    2.56
  -4  10   3   59.86    2.66
  -4 -10  -3   52.83    3.23
  -4  10   3   56.43    2.18
  -4 -12   3    6.25    1.48
  -4 -12  -3    4.75    1.15
  -5  -1   3   51.77    2.39
   5   1   3   52.85    2.92
   5  -1  -3   41.54    2.06
   5   1  -3   41.16    2.34
   5  -1   3   50.44    2.17
  -5  -1  -3   43.07    2.27
  -5   1   3   49.95    2.16
   5  -3  -3   39.24    1.74
   5   3   3   35.86    2.19
   5  -3   3   36.85    1.71
  -5  -3  -3   41.12    2.30
   5  -3   3   37.13    1.72
  -5   3   3   36.45    1.70
   5   3  -3   40.12    2.27
  -5  -5   3  211.48    8.18
   5   5   3  215.54    8.25
   5  -5   3  221.31    6.99
   5  -5   3  213.04    6.92
   5   5  -3  225.06    8.19
  -5  -5  -3  225.13    8.18
  -5   5   3  223.46    6.95
  -5   5   3  224.04    6.99
  -5  -7   3   75.43    4.24
   5   7   3   76.24    4.23
   5  -7   3   71.05    2.78
  -5  -7  -3   71.26    3.83
  -5   7   3   74.28    2.65
  -5   7   3   74.66    2.84
   5   7  -3   69.92    3.84
   5  -7   3   74.08    2.65
  -5  -9   3   40.97    3.18
   5   9   3   43.03    3.80
  -5   9   3   38.17    1.85
  -5  -9  -3   37.72    2.69
   5  -9   3   39.42    1.58
   5   9  -3   42.80    3.75
  -5   9   3   41.25    1.57
   5  -9   3   38.54    1.82
  -5 -11   3   29.35    2.83
  -5 -11  -3   30.23    2.49
  -6   0   3    0.52    0.28
  -6   0  -3   -0.03    0.15
   6   0   3    0.11    0.17
   6  -2  -3   40.95    1.98
  -6  -2   3   44.42    2.45
   6   2   3   43.14    2.44
   6  -2   3   46.06    2.07
   6   2  -3   43.43    2.44
  -6  -2  -3   40.24    2.39
  -6   2   3   45.12    2.08
   6  -4  -3   73.49    2.89
   6   4   3   80.30    3.94
  -6  -4   3   81.90    3.96
   6   4  -3   76.01    3.85
  -6  -4  -3   75.39    3.83
  -6   4   3   76.63    2.93
   6  -4   3   78.11    2.94
   6  -4   3   80.48    2.94
  -6  -6   3   54.06    3.46
   6   6   3   57.25    3.50
   6  -6   3   53.34    2.11
  -6   6   3   53.10    2.14
  -6  -6  -3   53.67    3.26
  -6   6   3   54.10    2.12
   6  -6   3   52.51    2.13
   6   6  -3   53.14    3.27
   6   8   3   52.55    4.10
  -6  -8   3   48.06    3.53
  -6  -8  -3   48.65    3.24
   6   8  -3   53.47    3.78
   6  -8   3   46.58    1.81
   6  -8   3   46.78    1.93
  -6 -10   3   46.90    3.67
  -6 -10  -3   41.30    3.06
   7   1   3  176.40    6.55
  -7  -1   3  171.55    6.51
  -7   1  -3  169.94    6.17
   7  -1  -3  178.16    6.22
  -7   1   3  166.94    6.20
   7  -1   3  178.94    6.26
  -7  -1  -3  174.27    6.56
   7   1  -3  183.46    6.57
  -7  -3   3   21.73    1.80
   7   3   3   20.17    1.75
   7  -3  -3   21.97    1.26
   7   3  -3   19.53    1.73
   7  -3   3   19.74    1.25
  -7   3   3   20.52    1.30
   7  -3   3   19.67    1.27
  -7  -3  -3   21.13    1.80
  -7  -5   3   82.97    4.52
   7   5   3   89.17    4.60
   7  -5  -3   82.72    3.14
   7   5  -3   82.52    4.39
   7  -5   3   86.43    3.23
  -7   5   3   89.27    3.26
  -7  -5  -3   88.58    4.51
   7  -5   3   84.92    3.13
  -7  -7   3  142.42    6.77
   7   7   3  144.16    7.44
  -7   7   3  134.95    4.51
   7  -7   3  141.91    4.57
   7  -7   3  133.67    4.49
   7   7  -3  132.05    6.71
  -7  -7  -3  140.03    6.44
  -7   7   3  142.65    4.55
  -7  -9   3   31.77    2.95
  -7  -9  -3   23.29    2.36
  -7 -11  -3   13.29    1.80
  -8   0  -3    0.23    0.24
   8   0  -3    0.28    0.25
  -8   0   3    0.53    0.37
   8   0   3   -0.06    0.24
   8   2   3  245.00    9.04
  -8  -2   3  236.58    8.98
  -8   2  -3  252.90    8.27
   8  -2  -3  251.93    8.20
   8  -2   3  239.47    8.32
   8   2  -3  249.24    8.99
  -8  -2  -3  246.16    9.07
  -8   2   3  241.23    8.35
  -8  -4   3  251.83    9.61
   8   4   3  246.72    9.52
   8  -4  -3  247.64    7.90
   8  -4   3  245.13    7.93
  -8  -4  -3  248.74    9.51
   8   4  -3  243.85    9.42
   8  -4   3  244.93    8.13
  -8   4   3  239.43    8.12
  -8  -6   3   52.48    3.67
  -8  -6  -3   52.83    3.59
  -8   6   3   52.11    2.26
  -8   6   3   51.90    2.08
   8  -6   3   52.59    2.10
   8  -6   3   53.53    2.28
  -8  -8   3   66.47    4.50
  -8  -8  -3   68.53    4.32
  -8 -10   3   51.55    4.10
  -8 -10  -3   48.51    3.66
   9  -1  -3   19.66    1.50
  -9  -1   3   19.41    1.77
   9   1   3   19.39    1.74
  -9   1  -3   20.33    1.56
   9   1  -3   18.81    1.66
  -9   1   3   21.76    1.70
   9  -1   3   19.31    1.61
  -9  -1  -3   18.88    1.73
  -9  -3   3   10.03    1.41
   9  -3  -3    8.66    0.86
   9   3   3   10.65    1.39
  -9   3   3    9.75    1.05
   9   3  -3   11.25    1.36
   9  -3   3    8.78    0.99
  -9  -3  -3    8.52    1.29
  -9  -5   3   28.91    2.63
   9  -5  -3   30.40    1.48
  -9  -5  -3   32.46    2.73
   9  -5   3   29.39    1.79
  -9   5   3   26.10    2.16
   9  -5   3   29.20    1.71
  -9  -7   3   64.13    4.39
  -9  -7  -3   64.82    4.27
  -9  -9   3    8.64    1.97
  -9  -9  -3    9.39    1.90
  10   0  -3   -0.10    0.28
 -10   0  -3    1.08    0.50
 -10   0   3    0.02    0.33
  10   0   3   -0.30    0.38
 -10   2  -3   54.03    2.80
 -10  -2   3   59.56    3.61
  10  -2  -3   51.22    2.69
  10   2   3   60.90    4.30
 -10   2   3   60.01    3.19
  10   2  -3   55.16    3.56
  10  -2   3   58.87    3.13
 -10  -2  -3   55.98    3.46
 -10  -4   3   24.68    2.37
  10   4   3   21.67    2.21
  10  -4  -3   17.43    1.26
  10   4  -3   16.89    1.97
  10  -4   3   20.78    1.60
 -10   4   3   19.17    1.54
  10  -4   3   18.69    1.31
 -10  -4  -3   18.62    2.05
 -10  -6   3   14.92    2.02
 -10   6   3   15.85    1.21
 -10  -6  -3   17.11    2.09
  10  -6   3   18.54    1.02
  10  -6   3   17.95    1.22
 -10  -8   3   47.95    3.90
 -10  -8  -3   49.34    3.84
 -11   1  -3   22.61    1.83
 -11  -1   3   20.97    2.06
  11  -1  -3   19.66    1.65
  11   1   3   20.72    2.02
 -11   1   3   20.42    1.92
  11   1  -3   20.16    1.96
  11  -1   3   21.01    1.93
 -11  -1  -3   22.20    2.00
 -11  -3   3    8.67    1.76
  11   3   3    9.58    2.50
  11  -3  -3    8.08    0.83
  11   3  -3    6.32    1.57
 -11   3   3    6.77    1.28
 -11  -3  -3    6.16    1.37
  11  -3   3    9.76    1.14
  11  -5  -3   47.48    2.12
 -11  -5   3   45.83    3.64
  11  -5   3   47.73    2.15
  11  -5   3   45.67    3.07
 -11   5   3   48.74    2.55
 -11  -5  -3   55.18    3.88
 -11  -7   3   33.45    3.24
 -11  -7  -3   29.01    2.99
  12   0  -3   -0.10    0.42
 -12   0   3   -0.70    0.72
  12   0   3   -1.09    0.50
  12  -2  -3   18.95    1.55
 -12   2  -3   17.28    1.61
 -12  -2   3   19.47    2.06
  12  -2   3   18.82    1.87
 -12  -2  -3   22.30    2.15
 -12   2   3   16.39    1.79
  12  -4  -3   63.35    2.85
 -12  -4   3   66.22    4.41
  12  -4   3   61.07    2.95
 -12  -4  -3   67.65    4.40
  12  -4   3   67.34    3.35
 -12   4   3   67.71    3.41
 -12  -6   3   20.32    2.45
  12  -6   3   22.51    1.19
 -12  -6  -3   18.84    2.36
  12  -6   3   19.07    1.28
 -12   6   3   19.75    1.30
 -13   1  -3  119.23    5.35
 -13  -1   3  118.82    5.96
  13  -1  -3  111.01    5.04
  13  -1   3  112.38    5.53
 -13   1   3  112.41    5.58
 -13  -1  -3  117.64    5.75
 -13  -3   3   12.38    1.75
  13  -3  -3    9.34    1.13
 -13   3   3    8.12    1.44
 -13  -3  -3   11.69    1.80
  13  -3   3    6.72    1.30
 -13  -5   3   54.98    4.21
  13  -5  -3   54.55    2.45
  13  -5   3   58.20    2.70
 -13  -5  -3   58.44    4.35
  13  -5   3   54.52    2.55
 -13   5   3   58.30    2.83
 -14   0   3    0.32    0.63
 -14   0  -3    1.12    0.74
 -14  -2   3   16.76    2.15
  14  -2  -3   17.47    1.72
 -14   2  -3   23.38    1.93
 -14   2   3   22.41    2.08
  14  -2   3   20.77    2.07
 -14  -2  -3   21.71    2.37
 -14  -4   3   38.57    3.73
  14  -4  -3   29.97    1.94
  14  -4   3   33.95    2.31
  14  -4   3   35.08    2.16
 -14   4   3   36.40    2.42
 -14  -4  -3   34.12    3.64
   0   0   4 1000.00   29.48
   0   2   4   37.78    1.88
   0   2   4   38.60    1.89
   0  -2   4   38.76    1.90
   0   2  -4   39.00    1.87
   0   4   4   90.49    3.64
   0   4   4   92.69    3.69
   0   4  -4   99.95    3.68
   0  -4   4   90.91    3.66
   0   6   4  370.21   11.69
   0   6   4  350.90   11.79
   0   6  -4  379.82   11.63
   0  -6   4  358.35   11.80
   0   8   4   17.56    1.54
   0   8  -4   14.68    1.20
   0  -8   4   15.61    1.43
   0 -10   4   67.34    3.82
   0  10   4   67.85    3.93
   0  10  -4   65.69    3.16
   0  12   4   20.25    2.20
   0  12   4   23.66    2.31
   0 -12   4   22.48    2.10
   0  12  -4   22.14    1.59
   1   1   4   87.54    3.41
  -1  -1   4   88.55    3.43
   1  -1  -4   93.52    3.45
  -1   1   4   83.82    3.34
   1   1  -4   91.16    3.44
   1  -1   4   83.43    3.35
   1   3   4  404.50   12.49
  -1   3  -4  396.71   12.25
   1   3   4  391.62   12.42
  -1  -3   4  394.17   12.41
  -1   3   4  388.81   12.25
   1   3  -4  403.18   12.38
   1  -3   4  393.16   12.29
  -1   3   4  394.36   12.29
   1   5   4   23.22    1.54
  -1   5  -4   22.95    1.37
  -1  -5   4   23.36    1.55
  -1   5   4   23.21    1.40
  -1   5   4   22.98    1.44
   1   5  -4   22.48    1.45
   1  -5   4   22.92    1.44
  -1   7  -4    5.76    0.69
   1   7   4    6.69    0.96
  -1  -7   4    7.40    0.94
   1   7  -4    8.79    0.93
  -1   7   4    5.41    0.77
  -1   7   4    6.03    0.72
   1  -7   4    8.15    0.89
   1   9   4   28.26    2.29
  -1  -9   4   24.94    2.10
  -1   9  -4   24.85    1.59
  -1   9   4   23.57    1.57
   1  -9   4   24.89    1.89
   1   9  -4   23.41    1.73
  -1   9   4   24.50    1.97
  -1 -11   4   15.81    1.92
   1  11   4   10.74    1.95
  -1  11  -4   15.55    1.32
   1  11  -4   13.39    1.40
  -1  11   4   13.74    1.25
   1 -11   4   17.76    1.69
  -1  11   4   11.49    1.70
   2   0   4   13.07    0.96
   2   0   4   12.37    0.96
  -2   0   4   11.87    0.92
   2   0  -4   11.37    0.91
   2   2   4  106.61    4.04
   2   2   4  107.13    4.11
   2  -2  -4  106.91    3.93
  -2   2  -4  101.21    3.87
  -2  -2   4  104.97    4.02
  -2   2   4  102.56    3.84
   2   2  -4  102.33    3.98
   2  -2   4  109.45    3.93
  -2  -4   4  163.64    6.03
   2   4   4  172.10    6.11
  -2   4  -4  169.27    5.72
   2  -4   4  173.96    5.80
   2   4  -4  166.70    6.00
  -2   4   4  168.05    5.70
  -2   4   4  163.90    5.75
  -2  -6   4    9.10    1.05
   2   6   4    9.62    1.10
  -2   6  -4    6.30    0.67
  -2  -6  -4    7.08    0.87
  -2   6   4    8.64    0.85
  -2   6   4    9.03    0.79
   2   6  -4    6.85    0.86
   2  -6   4   10.24    0.89
  -2  -8   4   18.56    1.68
   2   8   4   15.88    1.67
  -2   8  -4   18.28    1.22
  -2   8   4   16.76    1.15
  -2  -8  -4   18.23    1.45
  -2   8   4   17.77    1.46
   2  -8   4   16.67    1.36
   2   8  -4   16.57    1.45
   2  10   4   16.51    1.89
  -2  10  -4   13.21    1.10
  -2 -10   4   15.47    1.93
   2  10  -4   11.09    1.27
  -2  10   4   12.97    1.57
  -2  10   4   13.07    1.10
  -2 -10  -4   12.71    1.78
   2 -10   4   13.16    1.42
  -2  12  -4   11.18    1.16
  -2  12   4   15.03    1.05
   2 -12   4   10.75    1.44
  -2  12   4   11.24    1.78
   3   1   4  216.86    7.24
   3  -1  -4  209.72    7.08
  -3  -1   4  211.45    7.19
   3   1   4  220.50    7.34
  -3   1   4  213.22    7.07
   3  -1   4  215.56    7.16
   3  -1   4  212.99    7.07
   3   1  -4  216.04    7.22
   3   3   4    5.10    0.69
   3  -3  -4    5.79    0.64
  -3  -3   4    5.68    0.72
  -3   3   4    5.49    0.60
   3   3  -4    6.03    0.74
   3  -3   4    6.78    0.66
  -3  -3  -4    6.71    0.78
   3   5   4   16.80    1.45
  -3   5  -4   15.45    1.07
  -3   5   4   17.18    1.15
   3   5  -4   15.64    1.33
   3  -5   4   16.83    1.14
  -3  -5  -4   17.06    1.36
  -3   5   4   16.43    1.08
   3   7   4   82.97    4.05
  -3  -7   4   75.95    3.87
  -3   7  -4   72.17    3.07
  -3  -7  -4   74.31    3.57
   3   7  -4   72.83    3.57
  -3   7   4   77.46    3.00
   3  -7   4   71.05    3.14
  -3  -9   4   16.50    2.25
   3   9   4   12.06    1.49
  -3   9  -4    9.31    0.86
   3   9  -4    9.22    1.13
  -3   9   4    9.66    0.83
  -3   9   4   10.01    1.19
  -3  11  -4   36.12    1.85
  -3 -11   4   32.84    2.97
  -3 -11  -4   35.10    2.42
  -3  11   4   35.70    2.45
   3 -11   4   36.63    2.19
  -3  11   4   36.35    1.81
  -4   0   4  260.30    8.64
   4   0   4  256.17    8.62
   4   0  -4  273.76    8.71
   4   0   4  268.42    8.80
  -4  -2   4   72.42    3.12
   4  -2  -4   65.50    2.82
   4   2   4   71.90    3.14
   4  -2   4   74.70    3.05
  -4   2   4   70.08    2.84
   4  -2   4   68.05    2.87
   4   2  -4   62.62    3.03
   4   4   4    7.96    0.97
  -4  -4   4    8.64    1.00
  -4   4   4    7.31    0.69
   4  -4   4    6.97    0.72
   4  -4   4    7.45    0.70
  -4  -4  -4    8.28    0.97
   4   4  -4    7.10    0.90
  -4  -6   4   66.67    3.54
   4   6   4   65.23    3.55
  -4  -6  -4   66.91    3.38
  -4   6   4   62.84    2.65
   4  -6   4   69.88    2.84
  -4   6   4   67.12    2.83
   4   6  -4   67.78    3.43
   4   8   4    6.76    1.45
   4  -8   4    6.71    0.81
  -4   8   4    6.71    0.83
  -4  -8  -4    6.98    1.46
   4   8  -4    6.83    1.26
  -4   8   4    6.96    0.67
  -4 -10   4    6.09    1.44
   4 -10   4    9.25    0.92
  -4  10   4    7.46    0.70
  -4  10   4    6.54    1.03
  -4 -10  -4    8.08    1.19
   5   1   4   67.77    3.07
   5  -1  -4   71.18    2.96
  -5  -1   4   66.28    3.02
  -5  -1  -4   68.27    3.12
  -5   1   4   64.46    2.87
   5   1  -4   67.66    3.09
   5  -1   4   69.25    3.01
   5  -1   4   67.95    2.91
   5   3   4  749.55   23.46
   5  -3  -4  773.06   22.84
  -5  -3   4  741.02   23.41
   5  -3   4  783.41   22.84
   5   3  -4  757.31   23.45
  -5  -3  -4  752.80   23.47
  -5   3   4  781.43   22.78
   5   5   4   11.77    1.37
  -5  -5   4   14.78    1.46
   5   5  -4   14.42    1.43
   5  -5   4   13.67    0.96
   5  -5   4   13.05    0.96
  -5  -5  -4   13.92    1.39
  -5   5   4   13.01    0.97
  -5   5   4   12.74    0.93
  -5  -7   4   91.13    5.58
   5   7   4   83.19    4.58
   5  -7   4   86.33    3.44
  -5   7   4   87.13    3.28
  -5   7   4   86.90    3.46
   5   7  -4   90.55    4.45
   5  -7   4   85.41    3.28
  -5  -7  -4   93.05    4.88
  -5  -9   4   71.01    4.52
  -5   9   4   73.04    2.88
   5  -9   4   77.65    3.18
   5  -9   4   79.94    2.91
  -5  -9  -4   73.00    4.07
  -5   9   4   74.33    3.30
  -5 -11   4    5.39    1.50
  -5 -11  -4    4.95    1.12
  -5  11   4    4.53    0.52
  -5  11   4    4.62    0.81
  -6   0   4  530.05   16.76
   6   0  -4  555.41   16.83
   6   0   4  532.37   16.75
   6  -2  -4   58.39    2.66
   6   2   4   59.61    3.04
  -6  -2   4   58.45    3.00
  -6   2   4   61.34    2.70
  -6  -2  -4   58.67    3.05
   6   2  -4   61.35    3.07
   6  -2   4   60.52    2.73
   6  -2   4   60.16    2.67
  -6  -4   4   14.94    1.46
   6   4   4   14.08    1.47
   6  -4  -4   13.19    1.04
   6   4  -4   14.65    1.48
   6  -4   4   13.25    1.33
  -6   4   4   16.15    1.09
   6  -4   4   14.02    1.04
  -6  -6   4  159.06    8.09
   6   6   4  152.40    6.72
   6  -6   4  149.50    5.21
  -6   6   4  155.66    5.24
  -6   6   4  146.25    5.26
  -6  -6  -4  160.33    7.33
   6  -6   4  149.71    5.28
   6   6  -4  152.26    6.56
  -6  -8   4    3.57    1.06
  -6  -8  -4    1.82    0.63
  -6   8   4    3.07    0.60
   6  -8   4    2.70    0.60
  -6   8   4    2.97    0.59
  -6 -10   4   30.20    2.95
   6 -10   4   30.42    1.32
   6 -10   4   29.22    1.55
  -6 -10  -4   28.37    2.52
   7  -1  -4  132.73    5.02
   7   1   4  131.29    5.26
  -7  -1   4  129.26    5.23
  -7  -1  -4  125.63    5.24
   7   1  -4  133.57    5.27
   7  -1   4  124.65    4.94
  -7   1   4  131.49    5.03
   7   3   4   15.35    1.53
   7  -3  -4   17.06    1.20
  -7  -3   4   14.50    1.48
  -7  -3  -4   14.78    1.50
   7   3  -4   18.13    1.64
   7  -3   4   14.44    1.12
  -7   3   4   14.20    1.13
   7  -3   4   14.13    1.12
  -7  -5  -4   15.22    2.18
  -7   5   4   14.63    1.06
   7  -5   4   13.23    1.01
  -7  -7   4   22.05    2.31
  -7   7   4   21.85    1.30
  -7  -7  -4   20.89    2.09
  -7   7   4   20.65    1.75
   7  -7   4   21.65    1.25
   7  -7   4   19.17    1.23
  -7  -9   4    2.52    1.08
  -7   9   4    5.76    0.61
   7  -9   4    5.42    0.58
   7  -9   4    4.35    0.48
   8   0   4   32.26    2.09
  -8   0   4   32.80    2.13
   8   0  -4   32.85    2.09
  -8   0  -4   33.34    2.15
  -8  -2   4   73.61    3.80
   8  -2  -4   75.58    3.31
   8   2   4   77.43    3.88
  -8   2   4   72.24    3.35
   8   2  -4   72.87    3.78
  -8  -2  -4   77.53    3.91
   8  -2   4   74.52    3.37
  -8  -4   4  122.80    6.63
   8  -4  -4  130.86    4.84
   8  -4   4  138.64    4.90
  -8  -4  -4  133.07    7.43
  -8   4   4  136.79    5.00
   8   4  -4  127.36    5.93
   8  -4   4  134.08    4.96
  -8  -6   4   15.84    1.94
   8  -6   4   15.02    1.05
   8  -6   4   15.09    1.12
  -8  -6  -4   16.14    1.90
  -8   6   4   15.09    1.12
  -8  -8   4   11.93    1.80
   8  -8   4   11.92    0.82
  -8   8   4   12.00    0.88
  -8  -8  -4   11.78    1.71
   8  -8   4   12.78    0.86
  -8   8   4   11.82    0.86
  -8 -10   4   21.97    2.57
  -8 -10  -4   17.17    2.34
   9  -1  -4   39.16    2.35
   9   1   4   40.82    2.62
  -9   1  -4   41.18    2.43
  -9  -1   4   40.66    2.64
   9   1  -4   40.66    2.53
   9  -1   4   40.72    2.44
  -9   1   4   41.69    2.49
  -9  -1  -4   38.28    2.58
  -9  -3   4   25.00    2.22
   9   3   4   22.47    2.14
   9  -3  -4   26.09    1.67
   9   3  -4   28.23    2.32
  -9   3   4   25.12    1.73
  -9  -3  -4   27.64    2.33
   9  -3   4   24.88    1.73
   9  -3   4   24.97    1.65
   9  -5  -4    8.07    0.82
  -9  -5   4    7.46    1.51
   9  -5   4   10.23    0.81
  -9  -5  -4    8.40    1.75
   9  -5   4    7.67    0.89
  -9   5   4    8.57    0.93
  -9  -7   4    6.40    1.70
   9  -7   4    6.52    0.76
  -9   7   4    6.85    0.72
  -9   7   4    5.08    0.65
  -9  -7  -4    4.76    1.21
  -9  -9   4    2.61    1.32
  -9  -9  -4    2.59    1.33
 -10   0  -4  270.26    9.59
  10   0   4  266.98    9.66
 -10   0   4  255.08    9.60
  10   0  -4  250.79    9.31
  10  -2  -4   11.09    1.16
  10   2   4   11.76    1.52
 -10  -2   4   12.09    1.55
 -10   2   4   12.97    1.32
  10  -2   4   12.47    1.30
  10   2  -4    9.69    1.36
 -10  -2  -4   13.30    1.60
 -10  -4   4   24.88    2.47
  10  -4  -4   27.48    1.69
 -10  -4  -4   32.80    2.75
  10  -4   4   26.15    1.88
 -10   4   4   25.81    1.86
  10  -4   4   26.61    1.69
 -10  -6   4  101.68    5.89
 -10  -6  -4  111.25    6.04
 -10   6   4  108.01    4.42
  10  -6   4  112.36    4.78
  10  -6   4  107.36    4.03
 -10  -8   4    5.09    1.79
 -10  -8  -4    2.74    1.28
  11  -1  -4   16.18    1.56
 -11  -1   4   15.09    1.78
  11   1   4   17.72    1.88
 -11   1  -4   17.37    1.64
  11  -1   4   12.37    1.91
 -11  -1  -4   18.40    1.88
  11   1  -4   18.27    1.73
 -11   1   4   15.86    1.72
  11  -3  -4  179.25    6.85
 -11  -3   4  200.62    8.50
  11  -3   4  193.64    7.42
  11  -3   4  181.07    6.98
 -11   3   4  195.66    7.52
 -11  -3  -4  199.47    8.42
 -11  -5   4    6.56    1.71
  11  -5  -4    5.96    0.80
  11  -5   4    7.94    1.08
 -11   5   4    8.13    1.09
 -11  -5  -4    6.02    1.41
  11  -5   4    9.14    0.78
 -11  -7   4   17.27    2.57
 -11   7   4   14.31    1.07
 -11   7   4   19.98    1.32
  11  -7   4   19.07    1.25
 -11  -7  -4   19.04    2.68
  11  -7   4   18.60    1.23
 -12   0  -4   27.88    2.32
  12   0   4   26.78    2.51
 -12   0   4   27.68    2.42
  12   0  -4   30.16    2.28
 -12  -2   4   24.98    2.46
  12  -2  -4   23.21    2.29
  12  -2   4   25.68    2.07
 -12   2   4   21.98    2.08
 -12  -2  -4   20.77    2.21
  12  -4  -4   10.77    1.17
 -12  -4   4   14.90    2.06
  12  -4   4   15.28    1.63
 -12  -4  -4   14.25    1.95
  12  -4   4   12.94    1.23
 -12  -6   4    5.93    1.72
 -12   6   4    3.99    0.92
  12  -6   4    5.10    0.98
 -12  -6  -4    4.99    1.56
  12  -6   4    5.80    0.64
 -13  -1   4   53.65    3.79
 -13   1  -4   55.68    3.38
 -13   1   4   61.96    3.79
 -13  -1  -4   58.70    3.77
 -13  -3   4    1.41    1.02
  13  -3  -4    1.62    0.70
 -13  -3  -4    1.61    0.87
 -13   3   4    2.01    0.79
  13  -3   4    2.18    0.89
 -13  -5   4    4.96    1.64
  13  -5  -4    7.72    0.84
  13  -5   4    6.35    0.86
 -13  -5  -4    4.64    1.34
 -13   5   4    7.67    1.06
 -14   0   4    6.03    1.55
 -14   0  -4    8.98    1.72
 -14  -2   4   17.40    1.96
 -14  -2  -4   19.99    1.98
 -14   2   4   13.80    1.86
   0   0  -5   -0.09    0.08
   0   0   5    0.03    0.16
   0   2  -5  168.70    6.19
   0  -2   5  179.58    6.29
   0   2   5  183.29    6.31
   0   2   5  179.58    6.28
   0   4   5  129.86    4.81
   0  -4   5  124.09    4.78
   0   4   5  122.04    4.78
   0   4  -5  120.09    4.69
   0   6   5  146.17    5.65
   0   6  -5  143.79    5.44
   0   6   5  149.43    5.52
   0  -6   5  143.87    5.59
   0  -8   5   58.29    3.13
   0   8  -5   51.48    2.73
   0   8   5   54.43    2.82
   0   8   5   58.09    3.21
   0  10   5    8.03    1.32
   0  10  -5    8.99    1.06
   0  10   5    7.67    1.44
   0 -10   5   10.30    1.65
   1  -1  -5    2.46    0.54
   1   1   5    3.84    0.58
  -1   1  -5    3.60    0.56
   1   1   5    4.20    0.57
  -1  -1   5    3.69    0.56
   1   1  -5    3.76    0.55
  -1   1   5    3.78    0.57
   1  -1   5    2.49    0.55
   1   3   5   78.08    3.35
  -1   3  -5   73.20    3.19
  -1  -3   5   73.80    3.30
   1   3   5   78.96    3.37
   1   3  -5   76.48    3.28
   1  -3   5   75.08    3.24
  -1   3   5   74.90    3.23
  -1   3   5   73.13    3.18
  -1  -5   5   76.65    3.48
  -1   5  -5   75.27    3.24
   1   5   5   76.46    3.45
   1   5   5   74.77    3.47
  -1   5   5   73.77    3.24
  -1   5   5   76.18    3.36
   1  -5   5   77.09    3.36
   1   5  -5   76.04    3.38
   1   7   5   14.01    1.31
  -1   7  -5   14.69    1.20
  -1  -7   5   16.10    1.45
   1   7   5   13.02    1.39
  -1   7   5   14.36    1.18
   1   7  -5   12.99    1.25
   1  -7   5   14.17    1.29
  -1   7   5   12.58    1.24
   1   9   5   78.51    4.21
  -1   9  -5   77.31    3.49
   1   9   5   76.17    4.03
  -1   9   5   77.37    3.98
   1  -9   5   76.59    3.87
   1   9  -5   76.91    3.69
  -1   9   5   80.68    3.54
   1  11   5   22.04    1.89
  -1  11  -5   21.19    1.61
  -1 -11   5   25.46    2.39
  -1  11   5   22.90    2.34
  -1  11   5   22.41    1.81
   1 -11   5   30.41    2.86
  -2   0   5    0.14    0.16
   2   0  -5    0.31    0.22
   2   0   5    0.38    0.22
   2   2   5  349.03   11.39
   2  -2  -5  370.12   11.38
   2   2   5  350.33   11.45
  -2  -2   5  340.21   11.36
  -2   2   5  346.81   11.22
   2   2  -5  359.73   11.39
   2  -2   5  347.04   11.26
  -2  -4   5   64.38    3.10
   2   4   5   60.69    3.06
   2   4   5   64.62    3.14
  -2   4  -5   69.47    2.95
   2  -4   5   63.59    2.90
   2   4  -5   70.19    3.14
  -2   4   5   63.73    2.89
  -2   4   5   64.99    2.87
   2   6   5   21.83    1.74
  -2   6  -5   22.18    1.48
  -2  -6   5   22.16    1.76
  -2   6   5   24.10    1.49
  -2   6   5   22.79    1.57
   2  -6   5   21.65    1.52
  -2   8  -5  174.00    6.27
   2   8   5  183.27    7.31
  -2  -8   5  182.66    7.93
   2  -8   5  170.35    6.55
  -2   8   5  170.55    6.20
  -2   8   5  170.55    6.61
   2   8  -5  173.06    6.72
  -2 -10   5    3.44    0.94
  -2  10  -5    3.17    0.70
  -2  10   5    2.81    0.70
   2 -10   5    4.32    0.97
  -2  10   5    1.62    0.85
   3   1   5  251.74    8.61
   3   1   5  253.22    8.56
   3  -1  -5  251.44    8.45
  -3  -1   5  240.97    8.50
   3  -1   5  257.52    8.52
   3  -1   5  261.28    8.45
   3   1  -5  248.75    8.53
  -3   1   5  258.69    8.45
  -3  -3   5   26.06    1.76
   3   3   5   24.22    1.71
   3   3   5   27.24    1.84
   3  -3   5   26.28    1.60
  -3   3   5   25.73    1.56
   3   3  -5   25.75    1.73
  -3   5  -5  371.20   11.94
  -3  -5   5  362.87   12.48
   3   5   5  376.90   12.57
  -3   5   5  378.67   11.88
   3  -5   5  381.60   12.02
  -3   5   5  375.26   12.00
   3   5  -5  383.23   12.48
  -3  -7   5   18.64    1.82
  -3   7  -5   22.53    1.49
   3   7   5   23.10    2.10
   3  -7   5   22.86    1.59
  -3   7   5   21.78    1.43
  -3   7   5   22.70    1.60
   3   7  -5   25.75    1.98
  -3   9  -5   25.58    1.69
  -3  -9   5   29.44    2.42
  -3   9   5   27.90    2.06
  -3   9   5   28.23    1.68
   3  -9   5   28.48    1.97
  -3  11  -5   72.09    3.39
  -3 -11   5   82.32    4.86
  -3  11   5   77.54    4.25
   3 -11   5   77.49    3.98
  -3  11   5   78.04    3.33
   4   0  -5    0.92    0.38
  -4   0   5    0.57    0.33
   4   0   5    0.31    0.20
   4   0   5    2.01    0.54
  -4  -2   5   54.38    2.74
   4   2   5   56.51    2.78
   4  -2  -5   50.00    2.51
   4  -2   5   54.93    2.54
  -4   2   5   52.09    2.49
   4   2  -5   51.60    2.70
   4  -2   5   54.16    2.58
  -4  -4   5    0.93    0.44
   4   4   5    1.74    0.58
  -4   4   5    1.83    0.46
   4  -4   5    1.11    0.37
   4   4  -5    2.72    0.72
   4  -4   5    1.30    0.38
   4   6   5   33.21    2.66
  -4  -6   5   34.28    2.40
   4   6  -5   34.04    2.58
  -4  -6  -5   33.98    2.30
   4  -6   5   35.02    1.95
  -4   6   5   34.09    1.84
  -4   6   5   34.32    1.95
  -4  -8   5   45.40    3.14
  -4   8   5   47.93    2.27
   4  -8   5   46.72    2.46
  -4  -8  -5   45.13    2.86
  -4   8   5   45.47    2.51
  -4 -10   5    2.10    0.97
  -4  10   5    3.25    0.52
  -4 -10  -5    1.23    0.63
  -4  10   5    1.73    0.73
   4 -10   5    2.47    0.69
   5   1   5   99.40    4.28
  -5  -1   5  100.62    4.18
   5   1   5   93.67    4.10
   5  -1  -5  100.51    4.06
   5   1  -5   96.21    4.15
   5  -1   5  101.36    4.03
   5  -1   5   98.09    4.09
  -5   1   5   97.67    4.00
  -5  -3   5   57.66    3.07
   5   3   5   60.31    3.14
   5  -3  -5   62.51    2.82
   5  -3   5   58.73    2.73
   5   3  -5   63.36    3.21
   5  -3   5   60.78    2.80
  -5   3   5   58.20    2.72
   5   5   5   23.31    2.13
  -5  -5   5   28.62    2.14
   5   5  -5   23.24    2.13
  -5   5   5   27.43    1.62
  -5  -5  -5   21.58    1.87
   5  -5   5   25.02    1.59
  -5   5   5   27.21    1.57
   5  -5   5   25.98    1.56
  -5  -7   5   27.50    2.36
   5  -7   5   28.77    1.67
  -5   7   5   28.71    1.78
  -5  -7  -5   32.95    2.39
  -5   7   5   29.19    1.65
   5  -7   5   28.78    1.76
  -5  -9   5   98.43    5.37
   5  -9   5   94.35    3.98
   5  -9   5   97.71    3.78
  -5   9   5   97.21    4.18
  -5   9   5   93.46    3.68
  -5  -9  -5   94.68    4.82
   6   0   5    0.88    0.48
  -6   0   5    0.76    0.38
   6   0  -5    1.04    0.33
   6   0   5    0.29    0.27
   6  -2  -5   25.36    1.72
   6   2   5   31.62    2.09
   6  -2   5   30.72    1.81
   6   2  -5   27.96    2.01
  -6   2   5   29.07    1.78
   6  -2   5   31.66    1.89
   6  -4  -5   24.84    1.61
  -6  -4   5   25.66    2.05
  -6  -4  -5   22.56    1.92
  -6   4   5   26.42    1.59
   6  -4   5   24.43    1.53
   6  -4   5   23.58    1.53
  -6  -6   5   75.47    4.12
   6  -6   5   69.54    3.10
  -6  -6  -5   71.73    3.95
  -6   6   5   71.18    3.04
   6  -6   5   71.32    3.06
  -6   6   5   70.09    3.12
  -6  -8   5   33.44    2.86
  -6   8   5   29.98    1.70
  -6  -8  -5   31.39    2.54
  -6   8   5   29.55    1.81
   6  -8   5   30.39    1.83
   6  -8   5   33.90    1.74
  -6 -10   5    3.32    0.93
  -6 -10  -5    7.71    1.19
   6 -10   5    6.74    0.75
  -6  10   5    4.41    0.60
   7   1   5   56.08    3.07
   7  -1  -5   64.04    3.05
  -7  -1   5   59.86    3.15
   7  -1   5   60.74    3.06
   7  -1   5   60.52    2.96
  -7   1   5   60.41    2.99
   7   1  -5   57.81    3.13
   7   3   5   18.19    1.74
   7  -3  -5   20.33    1.45
  -7  -3   5   19.82    1.92
   7  -3   5   19.07    1.40
   7  -3   5   19.29    1.40
  -7   3   5   20.15    1.45
   7   3  -5   19.35    1.75
  -7  -3  -5   17.03    1.85
  -7  -5   5  161.69    6.97
   7  -5   5  164.33    5.88
   7  -5   5  161.95    5.83
  -7   5   5  163.05    5.85
  -7  -5  -5  160.32    6.94
  -7  -7   5    5.10    1.09
  -7  -7  -5    6.04    1.21
  -7   7   5    5.27    0.77
   7  -7   5    5.88    0.76
   7  -7   5    6.69    0.70
  -7   7   5    6.08    0.75
  -7  -9   5   25.21    2.77
  -7  -9  -5   25.66    2.47
  -7   9   5   26.43    1.48
   7  -9   5   26.97    1.42
  -7   9   5   28.18    1.89
   7  -9   5   25.80    1.58
   8   0  -5   -0.05    0.21
   8   0   5    0.84    0.42
  -8   0   5    0.45    0.31
   8   2   5  223.44    8.55
  -8  -2   5  225.31   10.55
   8  -2  -5  224.36    7.97
   8  -2   5  217.72    7.95
   8   2  -5  231.28    8.63
   8  -2   5  228.50    8.04
  -8  -2  -5  228.53   10.11
  -8   2   5  230.02    8.07
   8  -4  -5   51.50    2.55
  -8  -4   5   49.49    3.20
  -8  -4  -5   49.07    3.25
   8  -4   5   48.47    2.48
   8  -4   5   43.84    2.41
  -8   4   5   49.56    2.52
  -8  -6   5   18.23    2.07
  -8   6   5   13.12    1.14
  -8   6   5   12.29    1.14
   8  -6   5   14.35    1.16
  -8  -6  -5   14.46    1.79
   8  -6   5   15.01    1.17
  -8  -8   5  121.55    6.68
  -8   8   5  131.81    4.69
  -8  -8  -5  127.29    6.43
   8  -8   5  122.39    4.66
   8  -8   5  127.06    4.65
   9   1   5   15.37    1.60
  -9  -1   5   15.70    1.61
   9  -1  -5   16.67    1.49
   9  -1   5   14.52    1.46
   9   1  -5   17.10    1.67
  -9   1   5   18.49    1.52
  -9  -1  -5   16.14    1.64
  -9  -3   5   10.88    1.47
   9  -3  -5    8.33    1.00
  -9   3   5   11.72    1.16
   9  -3   5   10.98    1.16
  -9  -3  -5    9.41    1.36
   9  -3   5   11.64    1.14
  -9  -5   5   53.12    3.67
   9  -5  -5   56.47    2.69
   9  -5   5   48.60    2.64
   9  -5   5   52.02    2.61
  -9   5   5   51.49    2.68
  -9  -5  -5   52.56    3.64
  -9  -7   5    0.82    0.83
  -9  -7  -5    0.60    0.66
  -9   7   5    1.32    0.46
   9  -7   5    1.62    0.44
  10   0   5   -0.18    0.36
 -10   0   5    0.15    0.36
  10   0  -5    0.61    0.57
 -10  -2   5   33.69    2.59
  10  -2  -5   26.47    2.04
  10  -2   5   30.13    3.07
 -10   2   5   31.64    2.24
  10  -2   5   31.23    2.14
 -10  -2  -5   31.59    2.53
  10  -4  -5   21.16    1.62
 -10  -4   5   25.11    2.43
  10  -4   5   25.99    1.87
 -10  -4  -5   23.30    2.38
  10  -4   5   22.70    1.64
 -10   4   5   23.78    1.85
 -10  -6   5   38.64    3.34
  10  -6   5   36.89    2.07
 -10   6   5   39.52    2.24
 -10  -6  -5   33.91    3.11
  10  -6   5   37.62    2.22
  11  -1  -5   12.97    1.48
 -11  -1   5   14.98    1.81
  11  -1   5   12.88    1.53
 -11  -1  -5   13.37    1.67
 -11   1   5   15.45    1.60
 -11  -3   5   19.46    2.24
  11  -3   5   19.52    1.86
  11  -3   5   21.31    1.68
 -11  -3  -5   23.53    2.38
 -11   3   5   23.04    1.91
 -11  -5   5   21.09    2.48
  11  -5  -5   17.76    1.48
  11  -5   5   18.52    1.68
 -11  -5  -5   19.49    2.30
  11  -5   5   19.16    1.46
 -11   5   5   19.45    1.72
 -12   0   5    1.25    0.66
 -12  -2   5   36.64    3.07
  12  -2  -5   38.36    2.49
  12  -2   5   36.15    3.47
 -12   2   5   40.09    2.84
 -12  -2  -5   43.64    3.25
  12  -2   5   34.46    2.45
  12  -4  -5    2.97    0.88
 -12  -4   5    1.49    0.78
 -12   4   5    2.58    0.92
  12  -4   5    1.48    0.79
 -12  -4  -5    2.39    0.93
 -13  -1   5   48.67    3.64
 -13  -1  -5   47.51    3.45
 -13   1   5   51.16    3.51
 -13  -3   5    5.91    1.96
 -13  -3  -5    6.00    1.64
 -13   3   5    9.44    1.29
  13  -3   5    8.39    1.07
   0   0   6  349.37   11.47
   0   2   6  215.84    7.71
   0   2  -6  228.46    7.77
   0  -2   6  214.32    7.74
   0   2   6  220.28    7.74
   0  -4   6  153.22    5.96
   0   4   6  157.16    5.99
   0   4   6  158.20    5.95
   0   4  -6  156.70    5.91
   0   6  -6  108.57    4.54
   0   6   6  109.76    4.57
   0   6   6  106.44    4.67
   0  -6   6  107.16    4.66
   0  -8   6    9.06    1.21
   0   8   6    9.66    1.35
   0   8  -6    6.52    1.06
   0   8   6    9.14    1.10
   0  10   6   34.68    2.30
   0 -10   6   37.99    2.74
  -1  -1   6  142.75    5.59
   1   1   6  142.21    5.58
   1   1   6  149.84    5.61
   1   1  -6  148.71    5.63
   1  -1   6  145.87    5.60
  -1   1   6  151.51    5.62
  -1  -3   6  117.56    4.79
   1   3   6  117.20    4.78
  -1   3  -6  114.98    4.67
   1   3   6  117.11    4.78
  -1   3   6  113.51    4.66
   1  -3   6  118.20    4.73
  -1   3   6  116.06    4.67
   1   3  -6  117.31    4.74
   1   5   6   25.66    1.83
   1   5   6   25.37    1.87
  -1   5  -6   27.13    1.78
  -1  -5   6   26.23    1.88
   1   5  -6   25.75    1.82
   1  -5   6   25.98    1.80
  -1   5   6   23.53    1.66
  -1   5   6   27.96    1.87
   1   7   6   30.36    2.08
   1   7   6   30.13    2.22
  -1  -7   6   28.52    2.13
  -1   7  -6   29.01    1.95
  -1   7   6   28.94    1.91
   1  -7   6   29.62    2.02
   1   7  -6   26.54    1.96
  -1   7   6   27.83    2.04
  -1   9  -6   21.68    1.68
   1   9   6   21.35    1.74
  -1  -9   6   20.07    1.96
  -1   9   6   20.83    1.61
  -1   9   6   20.04    2.02
   1  -9   6   23.27    1.92
   2   0  -6  233.06    8.46
   2   0   6  248.12    8.58
  -2   0   6  254.30    8.56
   2   0   6  251.35    8.53
   2   2   6   16.50    1.41
  -2  -2   6   15.68    1.36
   2   2   6   15.92    1.38
  -2   2   6   16.62    1.35
   2  -2   6   16.91    1.37
   2   2  -6   18.45    1.45
  -2  -4   6   15.02    1.35
   2   4   6   15.30    1.39
   2   4   6   13.73    1.34
  -2   4  -6   13.24    1.22
  -2   4   6   13.96    1.21
  -2   4   6   13.94    1.25
   2  -4   6   14.36    1.26
   2   4  -6   14.01    1.33
   2   6   6   53.62    3.08
   2   6   6   51.79    3.24
  -2   6  -6   49.52    2.67
  -2  -6   6   53.77    3.11
  -2   6   6   55.50    2.72
  -2   6   6   55.16    2.84
   2   6  -6   50.15    2.87
   2  -6   6   56.29    2.83
  -2   8  -6   14.81    1.60
   2   8   6   14.33    1.51
  -2  -8   6   14.22    1.52
  -2   8   6   12.71    1.40
   2  -8   6   13.84    1.41
  -2   8   6   14.31    1.25
  -2 -10   6   23.15    2.14
   2  10   6   19.81    1.89
  -2  10  -6   17.29    1.61
  -2  10   6   23.72    2.15
   2 -10   6   22.57    1.97
  -2  10   6   24.89    1.65
   3   1   6   18.12    1.46
   3   1   6   16.55    1.43
   3  -1  -6   20.12    1.51
  -3  -1   6   16.09    1.39
   3  -1   6   17.74    1.39
   3   1  -6   20.06    1.53
   3  -1   6   17.09    1.40
  -3   1   6   16.88    1.36
  -3  -3   6  148.67    5.91
   3   3   6  153.49    5.98
   3   3   6  152.74    6.01
   3   3  -6  139.83    5.81
  -3   3   6  154.48    5.68
   3  -3   6  159.27    5.84
  -3  -5   6    5.02    0.97
   3   5   6   10.77    1.24
   3   5   6    6.04    1.36
   3  -5   6    8.41    0.93
  -3   5   6    7.95    0.89
  -3   5   6    6.56    0.89
  -3  -7   6   23.95    2.03
  -3   7  -6   22.56    1.65
   3   7   6   23.19    1.97
  -3   7   6   22.72    1.75
   3  -7   6   24.38    1.75
  -3   7   6   24.21    1.62
  -3   9  -6    4.94    1.17
  -3  -9   6    5.53    1.21
  -3   9   6    3.87    1.03
  -3   9   6    6.36    0.82
   3  -9   6    6.87    1.03
   4   0   6   56.40    2.88
   4   0  -6   57.74    2.94
   4   0   6   56.97    2.95
  -4   0   6   57.58    2.91
   4  -2  -6   35.66    2.15
  -4  -2   6   35.85    2.25
   4   2   6   34.99    2.23
   4   2   6   36.05    2.30
   4  -2   6   37.58    2.19
  -4   2   6   32.38    2.01
   4   2  -6   36.08    2.25
   4  -2   6   37.85    2.13
   4   4   6   33.49    2.31
  -4  -4   6   33.67    2.57
   4   4   6   33.55    2.72
   4  -4   6   35.87    2.12
   4   4  -6   35.32    2.33
   4  -4   6   35.27    2.06
  -4   4   6   34.22    2.01
  -4  -6   6   23.74    2.04
  -4   6   6   24.75    1.63
   4  -6   6   23.20    1.68
  -4   6   6   23.79    1.74
  -4  -8   6   13.80    1.72
   4  -8   6   15.78    1.43
  -4   8   6   16.82    1.29
  -4   8   6   15.12    1.50
  -4 -10   6    1.80    1.00
  -4  10   6    1.14    0.89
   4 -10   6    0.42    0.65
  -4  10   6    1.84    0.53
   5   1   6  215.81    7.99
   5  -1  -6  217.66    7.80
  -5  -1   6  216.35    7.89
   5   1   6  217.20    7.89
   5  -1   6  212.87    7.72
  -5   1   6  215.95    7.73
   5  -1   6  222.64    7.87
   5   1  -6  221.48    7.95
  -5  -3   6  178.62    7.29
   5  -3  -6  178.08    6.63
   5   3   6  176.12    7.29
   5  -3   6  180.08    6.53
   5  -3   6  177.45    6.59
  -5   3   6  181.14    6.51
   5  -5   6   30.80    1.90
  -5   5   6   31.49    1.89
  -5   5   6   29.88    1.93
   5  -5   6   31.31    1.94
  -5  -7   6   74.96    4.24
  -5   7   6   73.56    3.26
  -5   7   6   73.92    3.49
   5  -7   6   72.59    3.30
   5  -7   6   70.84    3.39
  -5  -9   6   42.82    3.31
  -5   9   6   40.36    2.17
   5  -9   6   39.93    2.40
   5  -9   6   38.09    2.20
  -5   9   6   38.87    2.47
   6   0   6   73.29    3.64
   6   0  -6   79.85    3.69
  -6   0   6   70.39    3.51
   6   0   6   76.02    3.96
   6   2   6   71.80    3.70
  -6  -2   6   71.35    3.70
   6  -2  -6   76.23    3.50
   6   2   6   74.21    3.84
   6  -2   6   75.66    3.53
  -6   2   6   72.71    3.42
   6  -2   6   75.30    3.44
   6   2  -6   75.29    3.79
   6  -4  -6   88.77    3.91
  -6  -4   6   83.93    4.31
   6  -4   6   88.87    3.79
   6  -4   6   87.64    3.84
  -6   4   6   83.37    3.72
  -6  -6   6   40.99    3.00
   6  -6   6   42.85    2.42
   6  -6   6   45.92    2.42
  -6   6   6   44.52    2.45
  -6   6   6   44.79    2.37
  -6  -8   6   11.49    1.70
  -6   8   6   10.11    1.07
   6  -8   6   13.92    1.25
  -6   8   6   11.50    1.22
   6  -8   6   12.76    1.17
   7   1   6   22.24    1.81
  -7  -1   6   23.18    1.80
   7   1   6   21.01    1.83
   7  -1   6   20.93    1.83
   7  -1   6   19.84    1.67
   7   1  -6   22.45    1.83
  -7   1   6   20.17    1.61
   7  -3  -6   65.21    3.32
  -7  -3   6   74.63    3.89
  -7   3   6   72.40    3.39
   7  -3   6   67.42    3.32
   7  -3   6   72.91    3.38
  -7  -5   6   10.50    1.45
  -7   5   6    9.63    1.04
   7  -5   6    9.70    1.06
   7  -5   6    8.33    1.01
  -7  -7   6    3.86    0.97
  -7  -7  -6    3.53    0.99
   7  -7   6    3.31    0.71
   7  -7   6    3.00    0.60
  -7   7   6    2.04    0.67
  -7   7   6    2.31    0.63
  -8   0   6  179.30    7.04
   8   0  -6  181.61    7.05
   8   0   6  173.18    6.95
   8   0   6  181.88    7.16
   8  -2  -6    8.36    1.11
  -8   2   6    6.73    0.97
   8  -2   6    6.34    1.05
   8  -2   6    4.07    0.87
   8  -4  -6   18.66    1.55
  -8  -4   6   15.89    1.77
   8  -4   6   18.31    1.47
   8  -4   6   17.00    1.49
  -8   4   6   16.94    1.46
  -8  -6   6   46.57    3.50
   8  -6   6   50.01    2.65
   8  -6   6   52.15    2.69
  -8   6   6   51.01    2.64
  -8  -6  -6   49.35    3.55
  -8   6   6   50.91    2.72
  -8  -8   6    9.90    1.62
  -8   8   6   10.16    0.94
   8  -8   6    8.27    1.03
  -8   8   6    7.15    1.19
   8  -8   6    6.36    0.97
  -8  -8  -6    6.38    1.45
   9  -1  -6   16.83    1.57
  -9  -1   6   13.35    1.56
   9  -1   6   16.45    1.59
   9  -1   6   15.88    1.56
  -9   1   6   14.80    1.46
  -9  -3   6   37.04    2.83
   9  -3  -6   36.21    2.36
   9  -3   6   38.29    2.51
   9  -3   6   38.44    2.39
  -9  -5   6    9.67    1.49
   9  -5   6    7.74    0.99
  -9   5   6    8.07    1.03
   9  -5   6    6.95    1.45
  -9  -5  -6   10.84    1.62
  -9  -7   6   -0.07    0.79
  -9  -7  -6    0.47    0.59
   9  -7   6    0.52    0.51
  -9   7   6   -0.62    0.55
  -9   7   6    1.87    0.53
   9  -7   6    1.66    0.45
  10   0   6   84.97    4.47
 -10   0   6   90.44    4.52
 -10  -2   6   55.87    3.51
  10  -2  -6   52.76    3.07
 -10   2   6   51.59    3.09
  10  -2   6   52.77    4.57
  10  -2   6   49.33    2.96
  10  -4  -6   44.34    2.67
 -10  -4   6   45.52    3.36
 -10  -4  -6   45.94    3.49
  10  -4   6   39.97    2.65
 -10   4   6   45.80    2.82
  10  -4   6   49.69    2.71
 -10  -6   6   31.68    3.04
 -10  -6  -6   31.51    3.01
  10  -6   6   32.67    2.73
 -10   6   6   33.71    2.24
  10  -6   6   33.08    2.12
 -11  -1   6   60.72    3.78
 -11   1   6   62.51    3.63
  11  -1   6   59.33    3.52
 -11  -3   6   51.81    3.65
 -11  -3  -6   50.67    3.71
  11  -3   6   47.41    2.84
 -11   3   6   48.21    3.04
 -11  -5   6   10.54    2.10
  11  -5  -6    9.66    1.23
  11  -5   6    9.47    1.14
 -11  -5  -6   12.45    1.99
 -11   5   6    8.64    1.32
  11  -5   6    8.57    1.41
 -12   0   6   30.42    2.61
 -12  -2   6   11.64    2.13
  12  -2   6   13.34    1.41
 -12   2   6   10.08    1.53
   0   0   7   -0.45    0.24
   0   2   7  113.84    4.86
   0   2  -7  107.42    4.83
   0   2   7  120.34    5.74
   0  -2   7  121.17    6.07
   0   4   7   28.93    2.03
   0  -4   7   30.48    2.12
   0   4  -7   27.86    2.01
   0   4   7   32.74    2.18
   0   6   7    8.69    1.09
   0  -6   7    8.64    1.14
   0  -8   7   81.72    4.30
   0   8   7   86.31    4.09
  -1  -1   7   33.52    3.04
   1   1   7   33.97    2.82
   1  -1   7   32.19    2.24
  -1   1   7   35.36    2.26
   1   3   7    5.63    0.89
  -1   3  -7    3.27    0.77
   1   3   7    5.79    0.95
  -1  -3   7    4.13    0.87
   1   3  -7    5.09    1.02
  -1   3   7    3.84    0.80
   1  -3   7    4.92    1.23
  -1   5  -7   30.80    2.10
   1   5   7   34.07    2.25
  -1  -5   7   30.14    2.18
  -1   5   7   34.21    2.25
   1  -5   7   34.78    2.26
  -1   5   7   31.16    2.08
   1   7   7   59.16    3.22
  -1  -7   7   54.82    3.30
   1  -7   7   52.60    3.12
  -1   7   7   56.69    3.04
   1   9   7    9.14    1.22
  -1  -9   7    8.52    1.35
  -1   9   7    7.99    1.04
   1  -9   7    6.75    1.29
   2   0   7    0.84    0.39
   2   0  -7    0.09    0.29
   2   0   7   -0.43    0.34
  -2   0   7    0.76    0.43
  -2  -2   7   78.01    3.81
   2   2   7   78.83    3.85
  -2   2   7   78.78    4.10
   2  -2   7   86.83    4.65
   2   4   7  149.96    6.08
  -2  -4   7  149.07    6.08
   2  -4   7  143.43    5.93
  -2   4   7  153.20    6.25
  -2   4   7  145.20    5.88
   2   6   7   48.13    2.87
  -2   6  -7   45.90    3.33
  -2  -6   7   43.11    2.82
   2  -6   7   43.18    2.61
  -2   6   7   41.87    2.50
  -2   6   7   45.70    3.03
  -2  -8   7    6.17    0.96
   2   8   7    5.00    1.06
   2  -8   7    4.85    1.01
  -2   8   7    6.19    0.90
   3  -1  -7  157.69    6.15
  -3  -1   7  154.04    6.10
   3   1   7  149.40    6.11
  -3   1   7  154.89    7.23
   3  -1   7  147.15    6.80
   3  -1   7  150.10    5.96
   3   3   7   21.76    1.82
  -3  -3   7   21.34    1.80
   3  -3   7   23.20    1.73
   3  -3   7   21.75    2.01
  -3  -5   7   33.72    2.47
   3   5   7   40.44    2.65
  -3   5   7   39.53    2.41
   3  -5   7   38.73    2.39
  -3   5   7   38.98    2.35
  -3  -7   7  121.89    5.64
   3   7   7  119.25    5.45
   3  -7   7  116.32    5.10
  -3   7   7  116.17    4.89
   3   9   7   36.30    2.64
  -3  -9   7   34.22    2.77
   3  -9   7   38.89    2.56
  -3   9   7   36.39    2.30
   4   0  -7   -0.06    0.21
   4   0   7    0.19    0.25
  -4   0   7    0.77    0.39
   4   0   7   -0.01    0.31
   4   2   7    1.12    0.52
  -4  -2   7    1.94    0.65
  -4   2   7    3.28    0.79
   4  -2   7    2.27    0.66
   4  -2   7    1.90    0.63
   4   4   7   41.25    2.72
  -4  -4   7   43.65    2.76
  -4   4   7   39.33    2.45
   4  -4   7   39.39    2.45
   4  -4   7   40.77    2.44
  -4   4   7   42.98    2.53
  -4  -6   7    9.95    1.39
   4   6   7    8.10    1.29
   4  -6   7   10.70    1.15
  -4   6   7    9.00    1.05
  -4   6   7   10.42    1.27
   4  -6   7   12.02    1.29
  -4  -8   7   13.83    1.72
   4   8   7   12.55    1.59
   4  -8   7   15.04    1.55
  -4   8   7   14.23    1.31
   5   1   7   37.27    2.48
   5   1   7   32.32    2.32
  -5  -1   7   35.36    2.33
   5  -1  -7   34.94    2.30
   5  -1   7   35.17    2.33
   5   1  -7   33.66    2.33
  -5   1   7   32.72    2.20
   5  -1   7   33.14    2.22
   5   3   7    4.70    1.06
   5  -3  -7    3.52    0.88
  -5  -3   7    4.31    0.89
   5  -3   7    3.55    0.82
  -5   3   7    3.99    0.86
   5   5   7  109.99    5.32
  -5  -5   7  109.93    5.32
  -5   5   7  104.85    4.73
   5  -5   7  113.38    4.83
  -5   5   7  114.87    4.69
   5  -5   7  112.45    4.74
  -5  -7   7   29.33    2.61
   5   7   7   30.28    2.53
   5  -7   7   28.75    2.03
   5  -7   7   32.29    2.19
  -5   7   7   28.21    1.94
  -5   7   7   33.08    2.24
   6   0  -7   -0.65    0.32
  -6   0   7   -0.45    0.27
   6   0   7   -0.01    0.35
  -6  -2   7   35.06    2.40
   6  -2  -7   31.75    2.24
   6   2   7   37.54    2.58
   6  -2   7   33.41    2.17
   6  -2   7   31.74    2.21
  -6   2   7   33.98    2.22
   6   4   7   24.84    2.20
  -6  -4   7   25.64    2.18
   6  -4   7   24.32    1.89
  -6   4   7   24.75    1.78
   6  -4   7   24.67    1.86
   6   6   7    3.96    1.03
  -6  -6   7    4.16    0.94
  -6   6   7    6.83    1.19
  -6   6   7    6.14    0.87
   6  -6   7    6.43    0.86
   6  -6   7    5.23    0.90
  -6  -8   7   41.67    3.35
   6  -8   7   40.74    2.48
  -6   8   7   40.97    2.29
   6  -8   7   38.66    2.42
  -6   8   7   35.05    2.62
   7   1   7   66.34    3.70
  -7  -1   7   64.93    3.58
  -7   1   7   64.07    3.40
   7  -1   7   66.68    3.53
   7   3   7   13.19    1.60
  -7  -3   7   11.86    1.48
   7  -3  -7   11.32    1.33
  -7   3   7   11.60    1.24
   7  -3   7   10.88    1.29
   7  -3   7   10.43    1.24
  -7  -5   7    1.76    0.74
   7  -5   7    3.65    0.77
  -7   5   7    3.80    0.86
   7  -5   7    4.32    0.87
  -7  -7   7   69.54    4.46
  -7   7   7   71.76    3.44
   7  -7   7   71.67    3.46
  -7   7   7   67.50    3.59
   7  -7   7   72.01    3.56
  -8   0   7   -0.03    0.28
   8   0   7   -0.21    0.34
   8   2   7   69.16    4.00
  -8  -2   7   69.85    3.94
  -8   2   7   70.07    3.59
   8  -2   7   67.75    3.64
  -8  -4   7  100.24    5.30
   8  -4  -7  106.85    5.95
   8  -4   7  103.05    4.63
  -8   4   7  103.83    4.58
  -8  -6   7   33.87    2.94
  -8   6   7   34.91    2.21
   8  -6   7   35.52    2.52
   8  -6   7   36.08    2.25
  -9  -1   7   26.90    2.28
   9   1   7   25.66    2.30
  -9   1   7   24.83    2.11
   9  -1   7   27.90    2.17
   9   3   7    2.75    0.98
  -9  -3   7    3.40    1.01
  -9   3   7    4.51    0.97
   9  -3   7    3.81    1.08
  -9  -5   7    1.64    0.71
   9  -5   7    1.52    0.50
 -10   0   7    0.27    0.48
  10   0   7    0.70    0.45
 -10  -2   7   29.45    2.46
  10   2   7   23.20    2.36
  10  -2   7   26.02    2.11
 -10   2   7   24.06    2.13
 -10  -4   7    4.93    1.30
 -10   4   7    8.95    1.26
  10  -4   7    8.46    1.16
 -11  -1   7   14.15    1.87
  11   1   7   13.92    2.24
  11  -1   7   15.67    1.40
 -11   1   7   12.22    1.49
   0   0   8  213.21    8.13
   0  -2   8   65.95    3.56
   0   2   8   65.95    3.52
   0  -4   8   51.86    3.14
   0   4   8   54.70    3.12
   0  -6   8  100.72    4.88
   0   6   8  103.68    4.78
   0   8   8    2.77    0.79
   0  -8   8    3.74    0.95
  -1  -1   8   47.69    2.93
   1   1   8   50.67    2.98
   1  -1   8   51.27    3.02
  -1   1   8   48.66    2.91
   1   3   8   69.80    3.75
  -1  -3   8   69.91    3.77
  -1   3   8   74.68    3.76
   1  -3   8   73.45    3.80
   1   5   8   21.96    1.88
  -1  -5   8   21.74    1.95
  -1   5   8   20.87    1.80
   1  -5   8   22.42    1.92
   1   7   8    7.24    1.02
  -1  -7   8    5.60    1.23
   1  -7   8    6.59    1.32
  -1   7   8    6.73    1.03
   2   0   8   14.89    1.51
  -2   0   8   15.92    1.55
  -2  -2   8   57.55    3.33
   2   2   8   61.83    3.42
  -2   2   8   57.84    3.25
   2  -2   8   60.09    3.35
   2   4   8   55.02    3.28
  -2  -4   8   54.94    3.26
  -2   4   8   58.57    3.17
   2  -4   8   53.14    3.14
  -2  -6   8    2.46    0.77
   2   6   8    4.64    0.99
  -2   6   8    4.18    0.85
   2  -6   8    3.37    0.92
   3   1   8   64.89    3.63
  -3  -1   8   67.12    3.64
   3  -1   8   73.94    3.76
  -3   1   8   65.18    3.52
  -3  -3   8   17.80    1.74
   3   3   8   17.80    1.73
  -3   3   8   17.30    1.62
   3  -3   8   16.38    1.64
   3   5   8   18.94    1.86
  -3  -5   8   19.84    1.90
  -3   5   8   20.64    1.74
   3  -5   8   19.86    1.71
  -3  -7   8   24.87    2.35
   3   7   8   26.87    2.25
  -3   7   8   27.43    2.06
   3  -7   8   27.31    2.06
   4   0   8   23.81    1.95
  -4   0   8   23.19    1.93
   4   2   8   32.35    2.44
  -4  -2   8   34.30    2.47
   4  -2   8   32.61    2.38
  -4   2   8   34.36    2.33
   4   4   8   25.81    2.17
  -4  -4   8   24.42    2.13
  -4   4   8   26.62    1.98
   4  -4   8   27.04    2.11
  -4  -6   8    9.71    1.39
   4   6   8    8.43    1.27
   4  -6   8    5.54    1.13
  -4   6   8    7.52    1.08
  -5  -1   8   50.76    3.09
   5   1   8   47.51    3.09
   5  -1   8   49.62    3.05
  -5   1   8   49.91    2.95
  -5  -3   8  125.60    5.64
   5   3   8  115.18    5.55
  -5   3   8  114.49    5.15
   5  -3   8  123.50    5.41
   5   5   8   22.29    2.14
  -5  -5   8   22.17    2.15
  -5   5   8   20.15    1.73
   5  -5   8   22.62    1.88
   6   0   8   78.41    4.22
  -6   0   8   84.78    4.24
  -6  -2   8   32.71    2.49
   6   2   8   32.91    2.52
  -6   2   8   33.51    2.34
   6  -2   8   32.00    2.37
  -6  -4   8   16.25    1.84
   6   4   8   16.89    1.90
   6  -4   8   17.32    1.67
  -6   4   8   19.80    1.55
  -6  -6   8   27.72    2.52
   6   6   8   26.28    2.48
  -6   6   8   27.33    2.06
   6  -6   8   28.51    2.08
   7   1   8   34.33    2.66
  -7  -1   8   35.48    2.60
  -7   1   8   36.27    2.53
   7  -1   8   35.45    2.50
  -7  -3   8    1.49    0.63
   7   3   8    2.00    0.85
  -7   3   8    1.58    0.61
   7  -3   8    1.64    0.64
  -7  -5   8   13.59    1.83
   7   5   8   12.78    1.74
   7  -5   8   12.16    1.42
  -7   5   8   14.75    1.48
  -8   0   8   16.32    1.75
   8   0   8   20.03    1.79
   8   2   8   32.58    3.08
  -8  -2   8   32.76    2.74
  -8   2   8   38.30    2.58
   8  -2   8   33.16    2.51
   8   4   8   37.82    3.10
  -8  -4   8   38.46    3.02
  -8   4   8   36.09    2.51
   8  -4   8   38.85    2.62
   9   1   8   23.41    2.56
  -9  -1   8   24.50    2.74
   9  -1   8   21.33    1.97
  -9   1   8   19.71    1.92
   0   0   9    0.49    0.37
   0  -2   9   21.10    1.92
   0   2   9   18.26    1.87
   0   4   9   50.74    3.18
   0  -4   9   50.80    3.26
   0   6   9   47.97    3.79
   0  -6   9   45.68    3.35
  -1  -1   9   11.47    1.46
   1   1   9   12.52    1.43
  -1   1   9   12.67    1.52
   1  -1   9   11.96    1.51
  -1  -3   9    7.36    1.38
   1   3   9    7.41    1.21
  -1   3   9    8.75    1.25
   1  -3   9    7.52    1.43
  -1  -5   9   17.82    2.28
   1   5   9   20.08    2.18
  -1   5   9   18.05    1.81
   1  -5   9   17.45    1.82
  -2   0   9    1.11    0.67
   2   0   9    0.20    0.52
  -2  -2   9   75.10    4.11
   2   2   9   74.31    4.02
  -2   2   9   68.98    3.89
   2  -2   9   75.56    4.10
  -2  -4   9    5.85    1.28
   2   4   9    5.71    1.19
  -2   4   9    6.65    1.10
   2  -4   9    8.29    1.15
  -3  -1   9   50.95    3.22
   3   1   9   49.69    3.21
   3  -1   9   51.59    3.26
  -3   1   9   47.30    3.09
  -3  -3   9    5.30    1.18
   3   3   9    1.79    0.76
   3  -3   9    2.56    0.87
  -3   3   9    2.63    0.73
   3   5   9   88.02    4.79
  -3  -5   9   97.44    5.02
  -3   5   9   94.97    4.57
   3  -5   9   94.87    4.72
  -4   0   9    0.39    0.56
   4   0   9   -0.42    0.39
   4   2   9    7.33    1.45
  -4  -2   9    8.97    1.35
  -4   2   9    9.30    1.26
   4  -2   9    8.85    1.35
  -4  -4   9   11.46    1.47
   4   4   9    8.88    1.40
  -4   4   9   10.59    1.32
   4  -4   9   10.97    1.36
   5   1   9   30.80    2.92
  -5  -1   9   37.84    2.96
   5  -1   9   35.24    2.67
  -5   1   9   36.13    2.61
   5   3   9   20.87    2.12
  -5  -3   9   17.83    1.97
   5  -3   9   21.96    1.92
  -5   3   9   21.45    1.92
  -6   0   9    0.71    0.86
   6   0   9    1.62    0.86
  -6  -2   9    5.59    1.23
   6   2   9    9.05    1.34
  -6   2   9    6.77    1.12
   6  -2   9    9.55    1.34
   0   0  10   82.95    4.59
  -1  -1  10   13.74    1.81
   1   1  10   15.98    1.82
  -1   1  10   16.07    1.87
   1  -1  10   14.92    1.76
   0   0   0    0.00    0.00
;
_shelx_hkl_checksum              6819
loop_
_space_group_symop_operation_xyz
'x, y, z'
'-x, -y, z+1/2'
'-x, y, z'
'x, -y, z+1/2'
'x+1/2, y+1/2, z'
'-x+1/2, -y+1/2, z+1/2'
'-x+1/2, y+1/2, z'
'x+1/2, -y+1/2, z+1/2'
loop_
_atom_site_label
_atom_site_type_symbol
_atom_site_fract_x
_atom_site_fract_y
_atom_site_fract_z
_atom_site_U_iso_or_equiv
_atom_site_adp_type
_atom_site_occupancy
_atom_site_site_symmetry_order
_atom_site_calc_flag
_atom_site_refinement_flags_posn
_atom_site_refinement_flags_adp
_atom_site_refinement_flags_occupancy
_atom_site_disorder_assembly
_atom_site_disorder_group
I3 I 0.500000 -0.03108(8) 0.65856(13) 0.0183(3) Uani 1 2 d S T P . .
Mo1 Mo 0.500000 -0.32656(12) 0.36590(19) 0.0211(4) Uani 1 2 d S T P . .
F1 F 0.3373(6) -0.0353(9) 0.6602(17) 0.050(2) Uani 1 1 d . . . . .
F2 F 0.3958(7) -0.2438(8) 0.2116(10) 0.0326(18) Uani 1 1 d . . . . .
O3 O 0.3863(8) -0.3519(9) 0.5113(13) 0.029(2) Uani 1 1 d . . . . .
O4 O 0.500000 -0.1481(14) 0.821(2) 0.037(4) Uani 1 2 d S T P . .
O5 O 0.500000 -0.1203(13) 0.4664(18) 0.038(4) Uani 1 2 d S T P . .
F6 F 0.500000 -0.4676(12) 0.267(2) 0.055(4) Uani 1 2 d S T P . .
Cs1 Cs 0.19116(6) -0.15423(7) 0.38554(12) 0.0300(3) Uani 1 1 d . . . . .
loop_
_atom_site_aniso_label
_atom_site_aniso_U_11
_atom_site_aniso_U_22
_atom_site_aniso_U_33
_atom_site_aniso_U_23
_atom_site_aniso_U_13
_atom_site_aniso_U_12
I3 0.0209(5) 0.0175(5) 0.0165(5) -0.0038(3) 0.000 0.000
Mo1 0.0258(7) 0.0181(6) 0.0193(8) -0.0015(6) 0.000 0.000
F1 0.025(3) 0.053(5) 0.071(7) -0.019(5) -0.016(5) 0.001(4)
F2 0.028(3) 0.044(5) 0.025(4) 0.003(3) -0.008(3) -0.002(3)
O3 0.025(4) 0.039(5) 0.024(5) 0.010(3) 0.005(4) -0.007(4)
O4 0.046(9) 0.032(8) 0.033(8) 0.004(6) 0.000 0.000
O5 0.080(11) 0.014(5) 0.021(7) -0.007(5) 0.000 0.000
F6 0.054(8) 0.041(8) 0.070(12) -0.016(7) 0.000 0.000
Cs1 0.0249(4) 0.0388(5) 0.0261(5) 0.0026(3) -0.0024(4) -0.0020(3)
loop_
_atom_type_symbol
_atom_type_description
_atom_type_scat_dispersion_real
_atom_type_scat_dispersion_imag
_atom_type_scat_source
Cs Cs -0.3680 2.1192 'International Tables Vol C Tables 4.2.6.8 and 6.1.1.4'
I I -0.4742 1.8119 'International Tables Vol C Tables 4.2.6.8 and 6.1.1.4'
Mo Mo -1.6832 0.6857 'International Tables Vol C Tables 4.2.6.8 and 6.1.1.4'
O O 0.0106 0.0060 'International Tables Vol C Tables 4.2.6.8 and 6.1.1.4'
F F 0.0171 0.0103 'International Tables Vol C Tables 4.2.6.8 and 6.1.1.4'
loop_
_geom_angle_atom_site_label_1
_geom_angle_atom_site_label_2
_geom_angle_atom_site_label_3
_geom_angle
_geom_angle_site_symmetry_1
_geom_angle_site_symmetry_3
_geom_angle_publ_flag
O4 I3 O5 104.5(6) . . ?
O4 I3 F1 88.9(3) . 3_655 ?
O5 I3 F1 89.6(3) . 3_655 ?
O4 I3 F1 88.9(4) . . ?
O5 I3 F1 89.6(3) . . ?
F1 I3 F1 177.4(6) 3_655 . ?
O4 I3 Cs1 36.1(2) . 6_545 ?
O5 I3 Cs1 87.2(4) . 6_545 ?
F1 I3 Cs1 120.7(3) 3_655 6_545 ?
F1 I3 Cs1 56.8(3) . 6_545 ?
O4 I3 Cs1 36.1(2) . 8_545 ?
O5 I3 Cs1 87.2(4) . 8_545 ?
F1 I3 Cs1 56.8(3) 3_655 8_545 ?
F1 I3 Cs1 120.7(3) . 8_545 ?
Cs1 I3 Cs1 63.89(2) 6_545 8_545 ?
F6 Mo1 O3 99.4(5) . . ?
F6 Mo1 O3 99.4(5) . 3_655 ?
O3 Mo1 O3 99.6(6) . 3_655 ?
F6 Mo1 F2 95.9(5) . 3_655 ?
O3 Mo1 F2 161.7(4) . 3_655 ?
O3 Mo1 F2 87.6(4) 3_655 3_655 ?
F6 Mo1 F2 95.9(5) . . ?
O3 Mo1 F2 87.5(4) . . ?
O3 Mo1 F2 161.7(4) 3_655 . ?
F2 Mo1 F2 81.0(5) 3_655 . ?
F6 Mo1 O5 172.3(8) . . ?
O3 Mo1 O5 85.5(4) . . ?
O3 Mo1 O5 85.5(4) 3_655 . ?
F2 Mo1 O5 78.3(4) 3_655 . ?
F2 Mo1 O5 78.3(4) . . ?
F6 Mo1 Cs1 44.5(4) . 7_545 ?
O3 Mo1 Cs1 55.0(3) . 7_545 ?
O3 Mo1 Cs1 106.6(3) 3_655 7_545 ?
F2 Mo1 Cs1 138.9(3) 3_655 7_545 ?
F2 Mo1 Cs1 91.3(2) . 7_545 ?
O5 Mo1 Cs1 139.73(18) . 7_545 ?
F6 Mo1 Cs1 44.5(4) . 5_545 ?
O3 Mo1 Cs1 106.6(3) . 5_545 ?
O3 Mo1 Cs1 55.0(3) 3_655 5_545 ?
F2 Mo1 Cs1 91.3(2) 3_655 5_545 ?
F2 Mo1 Cs1 138.9(3) . 5_545 ?
O5 Mo1 Cs1 139.73(18) . 5_545 ?
Cs1 Mo1 Cs1 68.45(3) 7_545 5_545 ?
F6 Mo1 Cs1 113.48(11) . 3_655 ?
O3 Mo1 Cs1 136.8(3) . 3_655 ?
O3 Mo1 Cs1 49.5(3) 3_655 3_655 ?
F2 Mo1 Cs1 41.1(3) 3_655 3_655 ?
F2 Mo1 Cs1 114.7(2) . 3_655 ?
O5 Mo1 Cs1 65.33(5) . 3_655 ?
Cs1 Mo1 Cs1 149.51(3) 7_545 3_655 ?
Cs1 Mo1 Cs1 81.231(8) 5_545 3_655 ?
F6 Mo1 Cs1 113.48(11) . . ?
O3 Mo1 Cs1 49.5(3) . . ?
O3 Mo1 Cs1 136.8(3) 3_655 . ?
F2 Mo1 Cs1 114.7(2) 3_655 . ?
F2 Mo1 Cs1 41.1(3) . . ?
O5 Mo1 Cs1 65.33(5) . . ?
Cs1 Mo1 Cs1 81.231(8) 7_545 . ?
Cs1 Mo1 Cs1 149.51(3) 5_545 . ?
Cs1 Mo1 Cs1 128.74(4) 3_655 . ?
F6 Mo1 Cs1 64.1(5) . 6_544 ?
O3 Mo1 Cs1 97.2(3) . 6_544 ?
O3 Mo1 Cs1 158.3(3) 3_655 6_544 ?
F2 Mo1 Cs1 80.5(3) 3_655 6_544 ?
F2 Mo1 Cs1 32.1(2) . 6_544 ?
O5 Mo1 Cs1 109.5(3) . 6_544 ?
Cs1 Mo1 Cs1 72.45(2) 7_545 6_544 ?
Cs1 Mo1 Cs1 106.85(4) 5_545 6_544 ?
Cs1 Mo1 Cs1 121.65(4) 3_655 6_544 ?
Cs1 Mo1 Cs1 64.970(18) . 6_544 ?
F6 Mo1 Cs1 64.1(5) . 8_544 ?
O3 Mo1 Cs1 158.3(3) . 8_544 ?
O3 Mo1 Cs1 97.2(3) 3_655 8_544 ?
F2 Mo1 Cs1 32.1(2) 3_655 8_544 ?
F2 Mo1 Cs1 80.5(3) . 8_544 ?
O5 Mo1 Cs1 109.5(3) . 8_544 ?
Cs1 Mo1 Cs1 106.85(4) 7_545 8_544 ?
Cs1 Mo1 Cs1 72.45(2) 5_545 8_544 ?
Cs1 Mo1 Cs1 64.970(18) 3_655 8_544 ?
Cs1 Mo1 Cs1 121.65(4) . 8_544 ?
Cs1 Mo1 Cs1 63.42(3) 6_544 8_544 ?
I3 F1 Cs1 125.9(5) . . ?
I3 F1 Cs1 123.2(4) . 4 ?
Cs1 F1 Cs1 108.4(2) . 4 ?
I3 F1 Cs1 96.7(3) . 6_545 ?
Cs1 F1 Cs1 85.7(2) . 6_545 ?
Cs1 F1 Cs1 103.1(3) 4 6_545 ?
Mo1 F2 Cs1 127.3(4) . 6_544 ?
Mo1 F2 Cs1 113.4(3) . . ?
Cs1 F2 Cs1 101.9(2) 6_544 . ?
Mo1 O3 Cs1 146.0(5) . 6_545 ?
Mo1 O3 Cs1 105.7(4) . . ?
Cs1 O3 Cs1 92.9(3) 6_545 . ?
Mo1 O3 Cs1 99.4(4) . 7_545 ?
Cs1 O3 Cs1 102.0(2) 6_545 7_545 ?
Cs1 O3 Cs1 106.9(3) . 7_545 ?
I3 O4 Cs1 124.6(4) . 6_545 ?
I3 O4 Cs1 124.6(4) . 8_545 ?
Cs1 O4 Cs1 95.3(4) 6_545 8_545 ?
I3 O5 Mo1 141.8(8) . . ?
Mo1 F6 Cs1 114.0(5) . 7_545 ?
Mo1 F6 Cs1 114.0(5) . 5_545 ?
Cs1 F6 Cs1 94.3(4) 7_545 5_545 ?
F2 Cs1 F2 125.35(17) 6_545 . ?
F2 Cs1 F1 75.4(3) 6_545 . ?
F2 Cs1 F1 87.8(2) . . ?
F2 Cs1 O3 135.9(2) 6_545 6_544 ?
F2 Cs1 O3 80.1(2) . 6_544 ?
F1 Cs1 O3 147.1(3) . 6_544 ?
F2 Cs1 O4 68.8(3) 6_545 6_544 ?
F2 Cs1 O4 109.8(3) . 6_544 ?
F1 Cs1 O4 144.0(4) . 6_544 ?
O3 Cs1 O4 68.6(3) 6_544 6_544 ?
F2 Cs1 F6 102.2(3) 6_545 5_455 ?
F2 Cs1 F6 132.0(3) . 5_455 ?
F1 Cs1 F6 112.6(3) . 5_455 ?
O3 Cs1 F6 58.9(3) 6_544 5_455 ?
O4 Cs1 F6 79.2(3) 6_544 5_455 ?
F2 Cs1 F1 154.0(3) 6_545 4_554 ?
F2 Cs1 F1 58.5(2) . 4_554 ?
F1 Cs1 F1 79.21(14) . 4_554 ?
O3 Cs1 F1 68.4(3) 6_544 4_554 ?
O4 Cs1 F1 136.8(4) 6_544 4_554 ?
F6 Cs1 F1 82.4(3) 5_455 4_554 ?
F2 Cs1 O3 77.0(2) 6_545 . ?
F2 Cs1 O3 48.7(2) . . ?
F1 Cs1 O3 67.9(2) . . ?
O3 Cs1 O3 121.2(2) 6_544 . ?
O4 Cs1 O3 99.8(3) 6_544 . ?
F6 Cs1 O3 178.9(3) 5_455 . ?
F1 Cs1 O3 98.7(2) 4_554 . ?
F2 Cs1 O3 89.1(2) 6_545 7 ?
F2 Cs1 O3 130.3(2) . 7 ?
F1 Cs1 O3 65.5(2) . 7 ?
O3 Cs1 O3 99.8(2) 6_544 7 ?
O4 Cs1 O3 116.3(2) 6_544 7 ?
F6 Cs1 O3 47.1(3) 5_455 7 ?
F1 Cs1 O3 75.1(2) 4_554 7 ?
O3 Cs1 O3 133.3(3) . 7 ?
F2 Cs1 F1 93.6(2) 6_545 6_544 ?
F2 Cs1 F1 65.7(2) . 6_544 ?
F1 Cs1 F1 138.16(17) . 6_544 ?
O3 Cs1 F1 62.4(2) 6_544 6_544 ?
O4 Cs1 F1 44.2(2) 6_544 6_544 ?
F6 Cs1 F1 109.2(3) 5_455 6_544 ?
F1 Cs1 F1 109.3(3) 4_554 6_544 ?
O3 Cs1 F1 70.3(2) . 6_544 ?
O3 Cs1 F1 156.0(2) 7 6_544 ?
F2 Cs1 Mo1 97.34(16) 6_545 5_455 ?
F2 Cs1 Mo1 135.23(16) . 5_455 ?
F1 Cs1 Mo1 91.05(16) . 5_455 ?
O3 Cs1 Mo1 77.00(18) 6_544 5_455 ?
O4 Cs1 Mo1 96.9(2) 6_544 5_455 ?
F6 Cs1 Mo1 21.5(2) 5_455 5_455 ?
F1 Cs1 Mo1 77.38(16) 4_554 5_455 ?
O3 Cs1 Mo1 158.94(18) . 5_455 ?
O3 Cs1 Mo1 25.60(16) 7 5_455 ?
F1 Cs1 Mo1 130.67(15) 6_544 5_455 ?
F2 Cs1 Mo1 101.49(16) 6_545 . ?
F2 Cs1 Mo1 25.45(15) . . ?
F1 Cs1 Mo1 71.08(16) . . ?
O3 Cs1 Mo1 104.48(18) 6_544 . ?
O4 Cs1 Mo1 112.22(19) 6_544 . ?
F6 Cs1 Mo1 156.2(3) 5_455 . ?
F1 Cs1 Mo1 75.16(15) 4_554 . ?
O3 Cs1 Mo1 24.72(16) . . ?
O3 Cs1 Mo1 130.82(16) 7 . ?
F1 Cs1 Mo1 71.95(12) 6_544 . ?
Mo1 Cs1 Mo1 149.51(3) 5_455 . ?
loop_
_geom_bond_atom_site_label_1
_geom_bond_atom_site_label_2
_geom_bond_distance
_geom_bond_site_symmetry_2
_geom_bond_publ_flag
I3 O4 1.771(14) . ?
I3 O5 1.775(14) . ?
I3 F1 1.987(8) 3_655 ?
I3 F1 1.987(8) . ?
I3 Cs1 4.4135(11) 6_545 ?
I3 Cs1 4.4135(11) 8_545 ?
Mo1 F6 1.669(13) . ?
Mo1 O3 1.818(9) . ?
Mo1 O3 1.818(9) 3_655 ?
Mo1 F2 1.960(8) 3_655 ?
Mo1 F2 1.960(8) . ?
Mo1 O5 2.298(13) . ?
Mo1 Cs1 4.1517(13) 7_545 ?
Mo1 Cs1 4.1517(13) 5_545 ?
Mo1 Cs1 4.1843(9) 3_655 ?
Mo1 Cs1 4.1843(9) . ?
Mo1 Cs1 4.4423(16) 6_544 ?
Mo1 Cs1 4.4423(16) 8_544 ?
F1 Cs1 3.065(10) . ?
F1 Cs1 3.203(10) 4 ?
F1 Cs1 3.717(11) 6_545 ?
F2 Cs1 2.971(8) 6_544 ?
F2 Cs1 2.999(9) . ?
O3 Cs1 3.089(10) 6_545 ?
O3 Cs1 3.307(10) . ?
O3 Cs1 3.447(10) 7_545 ?
O4 Cs1 3.160(9) 6_545 ?
O4 Cs1 3.160(9) 8_545 ?
F6 Cs1 3.184(10) 7_545 ?
F6 Cs1 3.184(10) 5_545 ?
loop_
_geom_torsion_atom_site_label_1
_geom_torsion_atom_site_label_2
_geom_torsion_atom_site_label_3
_geom_torsion_atom_site_label_4
_geom_torsion
_geom_torsion_site_symmetry_1
_geom_torsion_site_symmetry_2
_geom_torsion_site_symmetry_3
_geom_torsion_site_symmetry_4
_geom_torsion_publ_flag
F6 Mo1 O3 Cs1 126.3(8) . . . 6_545 ?
O3 Mo1 O3 Cs1 25.0(11) 3_655 . . 6_545 ?
F2 Mo1 O3 Cs1 -87.1(15) 3_655 . . 6_545 ?
F2 Mo1 O3 Cs1 -138.1(8) . . . 6_545 ?
O5 Mo1 O3 Cs1 -59.7(8) . . . 6_545 ?
Cs1 Mo1 O3 Cs1 128.5(9) 7_545 . . 6_545 ?
Cs1 Mo1 O3 Cs1 81.1(8) 5_545 . . 6_545 ?
Cs1 Mo1 O3 Cs1 -13.7(11) 3_655 . . 6_545 ?
Cs1 Mo1 O3 Cs1 -120.8(9) . . . 6_545 ?
Cs1 Mo1 O3 Cs1 -168.8(7) 6_544 . . 6_545 ?
Cs1 Mo1 O3 Cs1 165.3(2) 8_544 . . 6_545 ?
F6 Mo1 O3 Cs1 -112.9(6) . . . . ?
O3 Mo1 O3 Cs1 145.8(2) 3_655 . . . ?
F2 Mo1 O3 Cs1 33.7(15) 3_655 . . . ?
F2 Mo1 O3 Cs1 -17.3(4) . . . . ?
O5 Mo1 O3 Cs1 61.1(4) . . . . ?
Cs1 Mo1 O3 Cs1 -110.7(4) 7_545 . . . ?
Cs1 Mo1 O3 Cs1 -158.08(19) 5_545 . . . ?
Cs1 Mo1 O3 Cs1 107.1(4) 3_655 . . . ?
Cs1 Mo1 O3 Cs1 -48.0(3) 6_544 . . . ?
Cs1 Mo1 O3 Cs1 -73.9(9) 8_544 . . . ?
F6 Mo1 O3 Cs1 -2.2(5) . . . 7_545 ?
O3 Mo1 O3 Cs1 -103.6(4) 3_655 . . 7_545 ?
F2 Mo1 O3 Cs1 144.3(12) 3_655 . . 7_545 ?
F2 Mo1 O3 Cs1 93.3(3) . . . 7_545 ?
O5 Mo1 O3 Cs1 171.8(4) . . . 7_545 ?
Cs1 Mo1 O3 Cs1 -47.4(3) 5_545 . . 7_545 ?
Cs1 Mo1 O3 Cs1 -142.3(2) 3_655 . . 7_545 ?
Cs1 Mo1 O3 Cs1 110.7(4) . . . 7_545 ?
Cs1 Mo1 O3 Cs1 62.6(2) 6_544 . . 7_545 ?
Cs1 Mo1 O3 Cs1 36.8(9) 8_544 . . 7_545 ?
O5 I3 O4 Cs1 -63.8(6) . . . 6_545 ?
F1 I3 O4 Cs1 -153.2(7) 3_655 . . 6_545 ?
F1 I3 O4 Cs1 25.5(7) . . . 6_545 ?
Cs1 I3 O4 Cs1 -127.7(13) 8_545 . . 6_545 ?
O5 I3 O4 Cs1 63.8(6) . . . 8_545 ?
F1 I3 O4 Cs1 -25.5(7) 3_655 . . 8_545 ?
F1 I3 O4 Cs1 153.2(7) . . . 8_545 ?
Cs1 I3 O4 Cs1 127.7(13) 6_545 . . 8_545 ?
O4 I3 O5 Mo1 0.000(2) . . . . ?
F1 I3 O5 Mo1 88.7(3) 3_655 . . . ?
F1 I3 O5 Mo1 -88.7(3) . . . . ?
Cs1 I3 O5 Mo1 -31.986(18) 6_545 . . . ?
Cs1 I3 O5 Mo1 31.986(18) 8_545 . . . ?
O3 Mo1 F6 Cs1 2.6(6) . . . 7_545 ?
O3 Mo1 F6 Cs1 104.1(5) 3_655 . . 7_545 ?
F2 Mo1 F6 Cs1 -167.4(5) 3_655 . . 7_545 ?
F2 Mo1 F6 Cs1 -85.9(6) . . . 7_545 ?
Cs1 Mo1 F6 Cs1 106.8(10) 5_545 . . 7_545 ?
Cs1 Mo1 F6 Cs1 154.0(2) 3_655 . . 7_545 ?
Cs1 Mo1 F6 Cs1 -47.2(8) . . . 7_545 ?
Cs1 Mo1 F6 Cs1 -90.9(3) 6_544 . . 7_545 ?
Cs1 Mo1 F6 Cs1 -162.4(7) 8_544 . . 7_545 ?
O3 Mo1 F6 Cs1 -104.1(5) . . . 5_545 ?
O3 Mo1 F6 Cs1 -2.6(6) 3_655 . . 5_545 ?
F2 Mo1 F6 Cs1 85.9(6) 3_655 . . 5_545 ?
F2 Mo1 F6 Cs1 167.4(5) . . . 5_545 ?
Cs1 Mo1 F6 Cs1 -106.8(10) 7_545 . . 5_545 ?
Cs1 Mo1 F6 Cs1 47.2(8) 3_655 . . 5_545 ?
Cs1 Mo1 F6 Cs1 -154.0(2) . . . 5_545 ?
Cs1 Mo1 F6 Cs1 162.4(7) 6_544 . . 5_545 ?
Cs1 Mo1 F6 Cs1 90.9(3) 8_544 . . 5_545 ?
