#------------------------------------------------------------------------------
#$Date: 2021-01-04 05:07:15 +0200 (Mon, 04 Jan 2021) $
#$Revision: 260416 $
#$URL: file:///home/coder/svn-repositories/cod/cif/4/00/38/4003830.cif $
#------------------------------------------------------------------------------
#
# This file is available in the Crystallography Open Database (COD),
# http://www.crystallography.net/
#
# All data on this site have been placed in the public domain by the
# contributors.
#
data_4003830
loop_
_publ_author_name
'Artem&#x2019;ev, Alexander V.'
'Davydova, Maria P.'
'Hei, Xiuze'
'Rakhmanova, Mariana I.'
'Samsonenko, Denis G.'
'Bagryanskaya, Irina Yu.'
'Brylev, Konstantin A.'
'Fedin, Vladimir P.'
'Chen, Jia-Shiang'
'Cotlet, Mircea'
'Li, Jing'
_publ_section_title
;
 Family of Robust and Strongly Luminescent CuI-Based Hybrid Networks Made
 of Ionic and Dative Bonds
;
_journal_issue                   24
_journal_name_full               'Chemistry of Materials'
_journal_page_first              10708
_journal_page_last               10718
_journal_paper_doi               10.1021/acs.chemmater.0c03984
_journal_volume                  32
_journal_year                    2020
_chemical_formula_sum            'C7 H15 Cu2 I3 N4'
_chemical_formula_weight         663.01
_space_group_crystal_system      triclinic
_space_group_IT_number           2
_space_group_name_Hall           '-P 1'
_space_group_name_H-M_alt        'P -1'
_atom_sites_solution_hydrogens   geom
_atom_sites_solution_primary     dual
_atom_sites_solution_secondary   difmap
_audit_creation_method           SHELXL-2018/3
_cell_angle_alpha                101.614(4)
_cell_angle_beta                 96.329(3)
_cell_angle_gamma                103.651(4)
_cell_formula_units_Z            2
_cell_length_a                   7.5340(3)
_cell_length_b                   8.0865(4)
_cell_length_c                   13.0150(5)
_cell_measurement_reflns_used    4680
_cell_measurement_temperature    130(2)
_cell_measurement_theta_max      28.67
_cell_measurement_theta_min      3.68
_cell_volume                     744.31(6)
_computing_cell_refinement       'CrysAlisPro 1.171.38.46 (Rigaku OD, 2015)'
_computing_data_collection       'CrysAlisPro 1.171.38.46 (Rigaku OD, 2015)'
_computing_data_reduction        'CrysAlisPro 1.171.38.46 (Rigaku OD, 2015)'
_computing_molecular_graphics    'ShelXle (H\"ubschle, 2011)'
_computing_publication_material  'CIFTAB (Sheldrick, 2015)'
_computing_structure_refinement  'SHELXL-2018 (Sheldrick, 2015)'
_computing_structure_solution    'SHELXT-2018 (Sheldrick, 2015)'
_diffrn_ambient_temperature      130(2)
_diffrn_detector                 'CCD plate'
_diffrn_detector_area_resol_mean 10.6168
_diffrn_detector_type            AtlasS2
_diffrn_measured_fraction_theta_full 0.997
_diffrn_measured_fraction_theta_max 0.875
_diffrn_measurement_device       'four-circle diffractometer'
_diffrn_measurement_device_type  'New Xcalibur, AtlasS2'
_diffrn_measurement_method       '\w scans'
_diffrn_radiation_monochromator  graphite
_diffrn_radiation_probe          x-ray
_diffrn_radiation_source         'fine-focus sealed tube'
_diffrn_radiation_type           MoK\a
_diffrn_radiation_wavelength     0.71073
_diffrn_reflns_av_unetI/netI     0.0317
_diffrn_reflns_Laue_measured_fraction_full 0.997
_diffrn_reflns_Laue_measured_fraction_max 0.875
_diffrn_reflns_limit_h_max       10
_diffrn_reflns_limit_h_min       -10
_diffrn_reflns_limit_k_max       10
_diffrn_reflns_limit_k_min       -10
_diffrn_reflns_limit_l_max       17
_diffrn_reflns_limit_l_min       -17
_diffrn_reflns_number            6200
_diffrn_reflns_point_group_measured_fraction_full 0.997
_diffrn_reflns_point_group_measured_fraction_max 0.875
_diffrn_reflns_theta_full        25.500
_diffrn_reflns_theta_max         28.991
_diffrn_reflns_theta_min         3.241
_diffrn_source                   'sealed X-ray tube'
_exptl_absorpt_coefficient_mu    9.060
_exptl_absorpt_correction_T_max  1.00000
_exptl_absorpt_correction_T_min  0.95535
_exptl_absorpt_correction_type   multi-scan
_exptl_absorpt_process_details
;
CrysAlisPro 1.171.38.46 (Rigaku Oxford Diffraction, 2015)
Empirical absorption correction using spherical harmonics,
implemented in SCALE3 ABSPACK scaling algorithm.
;
_exptl_crystal_colour            colorless
_exptl_crystal_density_diffrn    2.958
_exptl_crystal_description       plate
_exptl_crystal_F_000             604
_exptl_crystal_size_max          0.17
_exptl_crystal_size_mid          0.12
_exptl_crystal_size_min          0.04
_refine_diff_density_max         0.866
_refine_diff_density_min         -0.779
_refine_diff_density_rms         0.152
_refine_ls_extinction_method     none
_refine_ls_goodness_of_fit_ref   0.953
_refine_ls_hydrogen_treatment    constr
_refine_ls_matrix_type           full
_refine_ls_number_parameters     147
_refine_ls_number_reflns         6200
_refine_ls_number_restraints     0
_refine_ls_restrained_S_all      0.953
_refine_ls_R_factor_all          0.0286
_refine_ls_R_factor_gt           0.0218
_refine_ls_shift/su_max          0.001
_refine_ls_shift/su_mean         0.000
_refine_ls_structure_factor_coef Fsqd
_refine_ls_weighting_details
'w=1/[\s^2^(Fo^2^)+(0.0281P)^2^] where P=(Fo^2^+2Fc^2^)/3'
_refine_ls_weighting_scheme      calc
_refine_ls_wR_factor_gt          0.0484
_refine_ls_wR_factor_ref         0.0491
_reflns_Friedel_coverage         0.000
_reflns_number_gt                5130
_reflns_number_total             6200
_reflns_threshold_expression     'I > 2\s(I)'
_twin_special_details
;
Component 2 rotated by -179.9943\% 
 around [-0.00 1.00 -0.00] (reciprocal) or [0.27 0.95 0.14] (direct)
;
_cod_data_source_file            1.cif
_cod_data_source_block           MP24
_cod_depositor_comments
'Adding full bibliography for 4003830--4003832.cif.'
_cod_database_code               4003830
_shelx_shelxl_version_number     2018/3
_shelx_space_group_comment
;
The symmetry employed for this shelxl refinement is uniquely defined
by the following loop, which should always be used as a source of
symmetry information in preference to the above space-group names.
They are only intended as comments.
;
_shelx_estimated_absorpt_t_min   0.308
_shelx_estimated_absorpt_t_max   0.713
_shelx_res_file
;
TITL MP24 in P-1; 130K; Xcalibur
    MP24.res
    created by SHELXL-2018/3 at 10:27:20 on 05-Oct-2018
CELL  0.71073   7.5340   8.0865  13.0150  101.614   96.329  103.651
ZERR    2.000   0.0003   0.0004   0.0005    0.004    0.003    0.004
LATT  1
SFAC C  H  N CU I
UNIT 14 30 8 4  6
 
LIST 4 ! automatically inserted. Change 6 to 4 for CHECKCIF!!
TEMP -143
 
L.S. 6
BOND $H
FMAP 2
PLAN 5
 
OMIT   0
OMIT  -3  -2  -6
OMIT   1   4   2
OMIT  -3  -2  -5
 
ACTA 51
SIZE 0.17 0.12 0.04
 
WGHT    0.028100
BASF   0.44820
FVAR       1.80086
CU1   4    0.535356    0.506684    0.113935    11.00000    0.01501    0.01713 =
         0.01689    0.00668    0.00403    0.00544
CU2   4   -0.042461    0.507424    0.399128    11.00000    0.01361    0.01778 =
         0.01204    0.00332    0.00208    0.00314
I1    5    0.389137    0.725849    0.034756    11.00000    0.02179    0.02212 =
         0.01270    0.00696    0.00473    0.01401
I2    5   -0.255459    0.276956    0.478359    11.00000    0.01344    0.02013 =
         0.01109    0.00423   -0.00044   -0.00207
I3    5   -0.233776    0.665484    0.290700    11.00000    0.01287    0.01584 =
         0.02031    0.00653   -0.00211    0.00146
N1    3    0.307685    0.342956    0.168659    11.00000    0.00915    0.01271 =
         0.00809    0.00237    0.00417    0.00338
N2    3    0.076871    0.343339    0.287052    11.00000    0.00940    0.01530 =
         0.00703    0.00106    0.00143    0.00334
N3    3    0.003937    0.134087    0.115732    11.00000    0.00913    0.01564 =
         0.00887    0.00162    0.00072    0.00340
N4    3    0.223304    0.103037    0.257419    11.00000    0.01144    0.01274 =
         0.01058    0.00410   -0.00067    0.00262
C1    1    0.230836    0.452500    0.248053    11.00000    0.01032    0.01131 =
         0.01178    0.00266    0.00606    0.00288
AFIX  23
H1A   2    0.184845    0.538224    0.215444    11.00000   -1.20000
H1AB  2    0.330011    0.518452    0.308826    11.00000   -1.20000
AFIX   0
C2    1   -0.069090    0.244024    0.194251    11.00000    0.00898    0.01355 =
         0.01409   -0.00058    0.00245    0.00310
AFIX  23
H2A   2   -0.172330    0.169718    0.218835    11.00000   -1.20000
H2AB  2   -0.118499    0.327216    0.160871    11.00000   -1.20000
AFIX   0
C3    1    0.156193    0.244643    0.078491    11.00000    0.01293    0.01578 =
         0.00633    0.00181    0.00130    0.00310
AFIX  23
H3A   2    0.108943    0.328247    0.044407    11.00000   -1.20000
H3AB  2    0.205164    0.170326    0.024669    11.00000   -1.20000
AFIX   0
C4    1    0.377791    0.219457    0.217325    11.00000    0.00948    0.01266 =
         0.01248    0.00345    0.00137    0.00351
AFIX  23
H4A   2    0.478654    0.284111    0.277470    11.00000   -1.20000
H4AB  2    0.429367    0.145866    0.164564    11.00000   -1.20000
AFIX   0
C5    1    0.147081    0.220606    0.337054    11.00000    0.01298    0.01527 =
         0.00879    0.00557    0.00309    0.00357
AFIX  23
H5A   2    0.045995    0.148309    0.364280    11.00000   -1.20000
H5AB  2    0.246093    0.286032    0.398017    11.00000   -1.20000
AFIX   0
C6    1    0.069732    0.008431    0.161661    11.00000    0.01175    0.01369 =
         0.01205    0.00171   -0.00234    0.00027
AFIX  23
H6A   2    0.118549   -0.066074    0.107859    11.00000   -1.20000
H6AB  2   -0.033755   -0.067977    0.184834    11.00000   -1.20000
AFIX   0
C7    1    0.292471   -0.024545    0.308407    11.00000    0.01616    0.01276 =
         0.01753    0.00812   -0.00143    0.00179
AFIX  37
H7A   2    0.188520   -0.103061    0.328357    11.00000   -1.50000
H7B   2    0.383675    0.039041    0.372138    11.00000   -1.50000
H7C   2    0.350615   -0.093352    0.258189    11.00000   -1.50000
AFIX   0
HKLF 5
 
 
 
 
REM  MP24 in P-1; 130K; Xcalibur
REM wR2 = 0.0491, GooF = S = 0.953, Restrained GooF = 0.953 for all data
REM R1 = 0.0218 for 5130 Fo > 4sig(Fo) and 0.0286 for all 6200 data
REM 147 parameters refined using 0 restraints
 
END
 
WGHT      0.0281      0.0000
 
REM Highest difference peak  0.866,  deepest hole -0.779,  1-sigma level  0.152
Q1    1   0.2153  0.6847  0.0172  11.00000  0.05    0.87
Q2    1  -0.1627  0.3929  0.4536  11.00000  0.05    0.84
Q3    1  -0.0581  0.7243  0.3174  11.00000  0.05    0.83
Q4    1  -0.1820  0.6542  0.2402  11.00000  0.05    0.82
Q5    1   0.1976  0.2953  0.2533  11.00000  0.05    0.69
;
_shelx_res_checksum              25299
_shelx_hkl_file
;
   0   0   2 3914.34 114.807   1
   0   0  -3 1642.83 42.4212   1
   0   0   4 15501.1 97.7900   1
   0   0   5 20742.5 122.582   1
   0   0  -6 804.510 51.2572   1
   0   2  -7 6762.82 123.940  -2
   0   0   7 6762.82 123.940   1
   0   0  -8 1390.64 63.9600   1
   0   0  -9 13082.1 137.227   1
   0   0  10 8551.63 124.546   1
   0   0 -11 3309.57 131.372   1
   0   3 -11 3573.35 346.405  -2
   0   0  11 3573.35 346.405   1
   0   0  12 12678.7 182.656   1
   0   0  13 2367.05 108.619   1
   0   4 -14 28614.4 496.380  -2
   0   0  14 28614.4 496.380   1
   0   0 -15 855.431 174.653   1
   0   0 -16 8335.63 299.168   1
   0   1 -17 314.423 317.572   1
   0   4 -17 942.365 308.669  -2
   0  -1  17 942.365 308.669   1
   0   1 -16 1149.02 170.845   1
   0   1 -15 666.487 148.499   1
   0   3 -14 11090.9 328.855  -2
   0  -1  14 11090.9 328.855   1
   0  -1  13 10065.1 167.378   1
   0   1 -12 1779.39 93.8116   1
   0  -1  11 23.3603 119.394   1
   0  -2  11 2898.25 141.104  -2
   0   1 -11 2898.25 141.104   1
   0   1 -10 39765.9 221.668   1
   0  -1   9 6428.82 94.7172   1
   0  -1   8 74959.4 264.210   1
   0  -1   7 15570.4 159.846  -2
   0   1  -7 15570.4 159.846   1
   0   1  -6 396.161 47.4775   1
   0  -1   5 112.664 43.7200   1
   0  -1   4 37521.7 150.770   1
   0   1  -3 103.306 36.6452   1
   0  -1   2 488.490 42.3939   1
   0   1   1 3234.03 46.0116   1
   0  -1  -2 394.380 30.0484   1
   0   1   3 3125.65 49.4579   1
   0  -1  -4 67020.3 184.152   1
   0  -1  -5 7605.17 79.8732   1
   0  -1  -6 17524.0 121.657   1
   0   3  -7 4606.57 112.355  -2
   0   1   7 4606.57 112.355   1
   0  -1  -8 32471.3 199.192   1
   0  -1  -9 15.0171 60.7977   1
   0  -1 -10 388.397 75.7121   1
   0  -4  10 2041.39 213.850  -2
   0  -1 -10 2041.39 213.850   1
   0  -1 -11 2608.42 143.182   1
   0  -4  11 12040.9 278.541  -2
   0  -1 -11 12040.9 278.541   1
   0   1  12 15751.4 291.617   1
   0  -1 -13 3666.00 185.153   1
   0   5 -14 11594.4 391.705  -2
   0   1  14 11594.4 391.705   1
   0  -1 -15 624.432 170.970   1
   0   1  16 425.137 320.756   1
   0   3 -17 1191.98 329.425  -2
   0  -2  17 1191.98 329.425   1
   0   2 -16 3846.99 240.682   1
   0   2 -15 2660.83 205.670   1
   0   2 -14 706.999 175.089  -2
   0  -2  14 706.999 175.089   1
   0   2 -13 630.300 86.3141   1
   0   2 -12 12967.3 181.068   1
   0  -2  11 3544.56 183.292   1
   0  -1  11 3439.89 134.133  -2
   0   2 -11 3439.89 134.133   1
   0   2 -10 6112.42 101.426   1
   0  -2   9 1910.50 69.8546   1
   0   2  -8 26672.4 183.980   1
   0   0   7 6183.04 136.512  -2
   0   2  -7 6183.04 136.512   1
   0  -2   6 32960.3 190.597   1
   0  -2   5 11905.5 115.726   1
   0  -2   4 27306.1 181.954   1
   0   2  -3 6480.15 101.414   1
   0  -2   2 23997.4 168.241   1
   0   2  -1 11726.8 127.941   1
   0  -2   0 54093.8 341.920  -2
   0  -2   0 54093.8 341.920   1
   0   2   1 10961.4 112.406   1
   0   2   2 12320.8 88.8230   1
   0  -2  -3 50.9330 38.6775   1
   0  -2  -4 141601. 277.835   1
   0  -2  -5 1712.34 50.0477   1
   0  -2  -6 12503.2 112.418   1
   0   4  -7 12335.2 146.438  -2
   0   2   7 12335.2 146.438   1
   0  -2  -8 1083.66 64.6277   1
   0  -2  -9 10510.3 146.165   1
   0   2  10 516.429 110.507   1
   0  -5  10 24278.6 406.258  -2
   0  -2 -10 24278.6 406.258   1
   0   2  11 1009.69 147.157   1
   0   5 -11 5713.28 218.674  -2
   0   2  11 5713.28 218.674   1
   0  -2 -12 988.940 137.819   1
   0   2  13 4823.80 207.913   1
   0  -6  14 4327.30 380.888  -2
   0  -2 -14 4327.30 380.888   1
   0   2  15 1166.61 250.035   1
   0   2 -17 781.778 423.895  -2
   0  -3  17 781.778 423.895   1
   0  -3  16 1371.79 198.134   1
   0   3 -15 13940.0 331.681   1
   0  -1  14 13219.1 412.161  -2
   0   3 -14 13219.1 412.161   1
   0  -3  13 248.789 97.5228   1
   0   3 -12 435.836 94.9124   1
   0  -3  11-36.6117 180.855   1
   0   0 -11 2593.18 133.589  -2
   0  -3  11 2593.18 133.589   1
   0  -3  10 9551.35 176.910   1
   0   0  10 15927.5 293.981  -2
   0   3 -10 15927.5 293.981   1
   0  -3   9 7669.79 130.177   1
   0   3  -8 2726.50 78.4697   1
   0  -1  -7 5221.17 136.294  -2
   0  -3   7 5221.17 136.294   1
   0   3  -6 62829.8 290.466   1
   0  -3   5 6593.16 121.773   1
   0  -3   4 111678. 422.607   1
   0  -3   3 5514.29 115.541   1
   0  -3   2 1054.53 83.3259   1
   0  -3   1 2091.56 95.8606   1
   0  -3   0 15875.7 246.198  -2
   0  -3   0 15875.7 246.198   1
   0  -3  -1 396.041 66.7373   1
   0  -3  -2 8768.92 94.7569   1
   0   3   3 4066.81 68.4653   1
   0  -3  -4 8609.01 122.596   1
   0  -4   4 25855.1 228.224  -2
   0  -3  -4 25855.1 228.224   1
   0  -3  -5 16791.7 130.474   1
   0  -3  -6 28.1385 47.0260   1
   0   5  -7 2050.88 99.2087  -2
   0   3   7 2050.88 99.2087   1
   0   3   8 40229.1 241.592   1
   0  -3  -9 11155.2 153.740   1
   0   3  10 9975.10 245.939   1
   0  -6  10 42075.6 458.441  -2
   0  -3 -10 42075.6 458.441   1
   0  -3 -11 2706.44 230.462   1
   0   6 -11 2877.71 260.192  -2
   0   3  11 2877.71 260.192   1
   0   3  12 14756.2 294.745   1
   0  -3 -13 1341.40 225.081   1
   0   7 -14 578.942 426.339  -2
   0   3  14 578.942 426.339   1
   0   3  15 0.68227 322.065   1
   0   1 -17 1028.27 423.826  -2
   0  -4  17 1028.27 423.826   1
   0  -4  16 2073.70 251.218   1
   0  -4  15 60.8619 162.402   1
   0   0 -14 31754.0 604.798  -2
   0  -4  14 31754.0 604.798   1
   0  -4  13 588.807 110.142   1
   0   4 -12 6538.20 171.792   1
   0  -4  11 11882.2 441.407   1
   0   1  11 13749.1 222.292  -2
   0   4 -11 13749.1 222.292   1
   0  -4  10 1955.00 124.111   1
   0   1  10 1996.57 229.707  -2
   0   4 -10 1996.57 229.707   1
   0  -4   9 1440.47 94.5089   1
   0  -4   8 3109.78 99.5781   1
   0  -2  -7 13473.6 221.238  -2
   0  -4   7 13473.6 221.238   1
   0   4  -6 30.3398 73.7540   1
   0   4  -5 14.6236 76.5590   1
   0  -4   4 23413.6 275.212   1
   0  -3  -4 31742.4 519.325  -2
   0  -4   4 31742.4 519.325   1
   0  -4   3 218.296 117.908   1
   0  -3  -3 3842.16 183.050  -2
   0  -4   3 3842.16 183.050   1
   0  -4   2 41739.4 308.918   1
   0  -4   1 3822.95 120.513   1
   0   4   0 77430.0 550.442  -2
   0   4   0 77430.0 550.442   1
   0   4   1 6359.44 126.282   1
   0  -4  -2 32192.9 244.732   1
   0   4   3 10998.9 170.282   1
   0  -5   3 17292.1 173.613  -2
   0  -4  -3 17292.1 173.613   1
   0   4   4 14287.8 209.249   1
   0  -5   4 14643.1 146.262  -2
   0  -4  -4 14643.1 146.262   1
   0   4   5 3818.77 77.5813   1
   0   4   6 1219.80 62.9637   1
   0  -6   7 14015.0 228.923  -2
   0  -4  -7 14015.0 228.923   1
   0  -4  -8 19687.7 207.768   1
   0   4   9 1358.95 104.639   1
   0   7 -10 2761.86 193.384  -2
   0   4  10 2761.86 193.384   1
   0  -7  11 7447.20 356.873  -2
   0  -4 -11 7447.20 356.873   1
   0  -4 -12 675.445 211.826   1
   0   4  13 5859.86 447.397   1
   0   8 -14 7313.59 671.015  -2
   0   4  14 7313.59 671.015   1
   0  -5  16 640.157 306.254   1
   0   5 -15 5892.20 257.789   1
   0  -1 -14 10388.1 391.006  -2
   0  -5  14 10388.1 391.006   1
   0  -5  13 633.448 122.478   1
   0   5 -12 304.994 108.080   1
   0  -5  11 6207.61 368.177   1
   0  -2 -11 7213.24 269.630  -2
   0  -5  11 7213.24 269.630   1
   0  -5  10 28856.8 429.919   1
   0   2  10 30069.4 420.467  -2
   0   5 -10 30069.4 420.467   1
   0  -5   9 372.874 93.3499   1
   0  -5   8 13965.4 210.735   1
   0   3   7 1874.96 173.951  -2
   0   5  -7 1874.96 173.951   1
   0  -5   6 14957.9 219.606   1
   0   5  -5 6238.47 154.759   1
   0  -5   4 2257.95 233.453   1
   0  -4  -4 13124.9 247.792  -2
   0  -5   4 13124.9 247.792   1
   0  -5   3 8238.09 347.887   1
   0   4   3 18020.8 275.521  -2
   0   5  -3 18020.8 275.521   1
   0   5  -2 28845.9 293.088   1
   0   5  -1 4314.28 140.213   1
   0   5   0 99682.4 695.857  -2
   0   5   0 99682.4 695.857   1
   0   5   1 901.093 85.3090   1
   0   5   2 260.406 84.7009   1
   0   5   3 4768.72 285.030   1
   0  -6   3 8696.09 157.025  -2
   0  -5  -3 8696.09 157.025   1
   0   6  -4 1232.21 92.0442  -2
   0   5   4 1232.21 92.0442   1
   0   5   5 985.197 62.0807   1
   0   5   6 11925.8 146.461   1
   0  -7   7 3043.16 156.142  -2
   0  -5  -7 3043.16 156.142   1
   0  -5  -8-10.0995 116.322   1
   0   5   9 4341.35 191.389   1
   0  -8  10 5761.30 355.620  -2
   0  -5 -10 5761.30 355.620   1
   0  -8  11 1038.24 294.713  -2
   0  -5 -11 1038.24 294.713   1
   0   5  12 6457.33 465.232   1
   0   5  13 1242.42 365.924   1
   0  -6  15 1602.12 338.719   1
   0  -2 -14 5525.14 323.211  -2
   0  -6  14 5525.14 323.211   1
   0   6 -13 34.9173 119.869   1
   0   6 -12 637.781 125.888   1
   0  -3 -11 2356.77 255.861  -2
   0  -6  11 2356.77 255.861   1
   0  -6  10 40571.8 847.360   1
   0   3  10 48088.1 564.891  -2
   0   6 -10 48088.1 564.891   1
   0  -6   9 1374.83 138.011   1
   0  -6   8 8410.58 289.668   1
   0  -4  -7 16266.8 501.306  -2
   0  -6   7 16266.8 501.306   1
   0  -6   6 1775.64 183.726   1
   0   6  -5 4064.90 220.686   1
   0   5   4 1367.55 215.113  -2
   0   6  -4 1367.55 215.113   1
   0  -6   3 5051.08 324.901   1
   0   5   3 9392.08 440.544  -2
   0   6  -3 9392.08 440.544   1
   0  -6   2 6936.95 259.469   1
   0  -6   1 193.543 125.926   1
   0  -6   0 8549.46 345.992  -2
   0  -6   0 8549.46 345.992   1
   0   6   1 1012.33 121.826   1
   0  -6  -2 19805.7 361.808   1
   0  -7   3 42.0105 94.8272  -2
   0  -6  -3 42.0105 94.8272   1
   0   7  -4 21781.2 237.198  -2
   0   6   4 21781.2 237.198   1
   0   6   5 1473.58 140.120   1
   0  -6  -6 14339.6 286.857   1
   0  -8   7 7601.87 310.308  -2
   0  -6  -7 7601.87 310.308   1
   0  -6  -8 4093.07 279.935   1
   0   6   9-101.959 200.108   1
   0   9 -10-159.857 403.468  -2
   0   6  10-159.857 403.468   1
   0   9 -11 1377.51 459.452  -2
   0   6  11 1377.51 459.452   1
   0  -3 -14 898.803 337.229  -2
   0  -7  14 898.803 337.229   1
   0   7 -13 46.1494 131.811   1
   0   7 -12 371.631 167.020   1
   0  -4 -11 9017.58 386.500  -2
   0  -7  11 9017.58 386.500   1
   0  -4 -10 2745.97 285.842  -2
   0  -7  10 2745.97 285.842   1
   0  -7   9 974.549 197.128   1
   0   7  -8 241.865 180.650   1
   0  -5  -7 3448.78 328.277  -2
   0  -7   7 3448.78 328.277   1
   0  -7   6 32340.2 548.730   1
   0   7  -5 43.3402 169.117   1
   0   6   4 22407.3 474.702  -2
   0   7  -4 22407.3 474.702   1
   0  -7   3 37.2185 226.835   1
   0   6   3 156.814 320.564  -2
   0   7  -3 156.814 320.564   1
   0  -7   2 26892.4 470.941   1
   0   7  -1 3403.39 213.530   1
   0   7   0 95.2655 147.830  -2
   0   7   0 95.2655 147.830   1
   0   7   1 4580.20 193.988   1
   0  -7  -2 4975.82 232.852   1
   0  -8   3 3542.55 242.672  -2
   0  -7  -3 3542.55 242.672   1
   0   8  -4 13609.8 312.962  -2
   0   7   4 13609.8 312.962   1
   0   7   5 35.1057 130.300   1
   0  -7  -6 77.8432 128.008   1
   0   9  -7 6211.54 449.937  -2
   0   7   7 6211.54 449.937   1
   0   7   8-40.1690 288.566   1
   0   7   9 1216.11 324.472   1
   0   8 -12 3357.98 244.815   1
   0   5  11 1429.54 310.212  -2
   0   8 -11 1429.54 310.212   1
   0  -5 -10 7749.47 393.347  -2
   0  -8  10 7749.47 393.347   1
   0   8  -9 194.442 212.300   1
   0  -8   8 30.1378 206.938   1
   0  -6  -7 7324.32 458.588  -2
   0  -8   7 7324.32 458.588   1
   0   8  -6 21911.5 506.709   1
   0   8  -5 268.945 202.762   1
   0  -7  -4 14733.8 454.554  -2
   0  -8   4 14733.8 454.554   1
   0   7   3 3488.02 291.391  -2
   0   8  -3 3488.02 291.391   1
   0   8  -2-55.4132 171.237   1
   0   8  -1 2681.88 190.031   1
   0   8   0 7144.97 339.741  -2
   0   8   0 7144.97 339.741   1
   0  -8  -1 286.855 164.765   1
   0   8   2 9178.81 318.582   1
   0   9  -3 666.069 228.423  -2
   0   8   3 666.069 228.423   1
   0   9  -4 265.696 190.655  -2
   0   8   4 265.696 190.655   1
   0   8   5 271.656 209.269   1
   0   8   6 5791.79 462.061   1
   0   9 -12 219.158 348.942   1
   0   6  11 2072.65 489.245  -2
   0   9 -11 2072.65 489.245   1
   0   6  10-133.432 438.258  -2
   0   9 -10-133.432 438.258   1
   0   9  -9 109.350 231.576   1
   0  -9   8 4945.98 329.281   1
   0   7   7 7273.42 489.888  -2
   0   9  -7 7273.42 489.888   1
   0  -9   6 489.192 218.326   1
   0   9  -5 1108.25 236.992   1
   0   8   4 221.268 283.370  -2
   0   9  -4 221.268 283.370   1
   0   8   3 801.808 286.198  -2
   0   9  -3 801.808 286.198   1
   0   9  -2 17349.3 384.471   1
   0   9  -1 379.821 197.507   1
   0   9   0 4547.76 382.428  -2
   0   9   0 4547.76 382.428   1
   0  -9  -1-46.6900 189.928   1
   0  -9  -2 16726.8 438.191   1
   0 -10   6 5716.22 490.990   1
   0 -10   5 82.5614 285.515   1
   0  -9  -4 1137.91 427.722  -2
   0 -10   4 1137.91 427.722   1
   0  -9  -3 2052.01 463.171  -2
   0 -10   3 2052.01 463.171   1
   0 -10   2 5741.77 460.170   1
   0 -10   1 282.963 326.382   1
   1 -10  -1 280.331 364.908   1
   1 -10   0 6207.22 493.170   1
  -1  -9  -1 6908.07 507.599  -2
   1 -10   1 6908.07 507.599   1
  -1  -9  -2 135.306 408.360  -2
   1 -10   2 135.306 408.360   1
   1 -10   3 1430.05 339.336   1
   1 -10   4 405.670 309.414   1
  -1   9   4 4513.68 323.624   1
   1  -9  -3 882.054 234.829   1
   1   9  -2 1820.84 341.172  -2
  -1   9   2 1820.84 341.172   1
   1  -9  -1 631.266 142.521   1
  -1   9   0 2180.06 191.020   1
  -1  -8  -1 17028.4 378.433  -2
   1  -9   1 17028.4 378.433   1
   1   8   2 1609.75 280.614  -2
  -1   9  -2 1609.75 280.614   1
   1  -9   3 473.343 203.944   1
   1  -9   4 12104.5 429.630   1
   1   7   5 733.587 318.367  -2
  -1   9  -5 733.587 318.367   1
  -1   9  -6 64.6417 216.357   1
   1  -9   7 1194.67 243.525   1
  -1  -6  -8 14149.3 492.513  -2
   1  -9   8 14149.3 492.513   1
   1   6   9 1426.04 489.999  -2
  -1   9  -9 1426.04 489.999   1
  -1   9 -10 800.903 363.795   1
  -1   9 -11 739.816 364.382   1
   1   5  12 2546.21 558.543  -2
  -1   9 -12 2546.21 558.543   1
  -1   8   8 62.8848 303.751   1
  -1   8   7 612.200 317.825   1
   1   9  -6 5024.63 365.316  -2
  -1   8   6 5024.63 365.316   1
   1   9  -5 5997.43 375.614  -2
  -1   8   5 5997.43 375.614   1
  -1   8   4 3777.61 306.566   1
   1  -8  -3 2362.93 170.230   1
   1   8  -2 1063.37 180.673  -2
  -1   8   2 1063.37 180.673   1
   1  -8  -1 123.322 130.642   1
   1  -8   0 23765.2 383.366   1
  -1  -7  -1 704.457 222.025  -2
   1  -8   1 704.457 222.025   1
   1   7   2 1602.03 251.596  -2
  -1   8  -2 1602.03 251.596   1
   1  -8   3 810.837 214.194   1
   1  -8   4 16327.3 441.296   1
   1   6   5 31673.2 791.646  -2
  -1   8  -5 31673.2 791.646   1
  -1   8  -6 150.343 202.103   1
   1  -8   7 85.2344 207.444   1
   1  -8   8 45.9805 277.029   1
   1   5   8 22.6169 414.082  -2
  -1   8  -8 22.6169 414.082   1
  -1  -5  -9 5459.14 371.307  -2
   1  -8   9 5459.14 371.307   1
   1  -8  10 114.309 212.026   1
  -1   8 -11 527.355 222.867   1
   1   4  12 6026.90 467.603  -2
  -1   8 -12 6026.90 467.603   1
  -1   8 -13 6506.67 520.744   1
  -1   7  10 4317.84 435.144   1
   1   9  -9 3483.24 531.710  -2
  -1   7   9 3483.24 531.710   1
  -1   7   8 9555.72 378.517   1
  -1   7   7 330.457 203.498   1
  -1  -8   6 7052.89 358.329  -2
   1  -7  -6 7052.89 358.329   1
   1   8  -5 4106.71 205.682  -2
  -1   7   5 4106.71 205.682   1
  -1   7   4 6985.44 208.396   1
  -1   7   3 1251.90 100.596   1
   1   7  -2 1603.22 186.655  -2
  -1   7   2 1603.22 186.655   1
  -1   7   1 2263.55 148.712   1
   1  -7   0 2752.06 186.755   1
   1  -7   1 2623.89 236.348   1
   1   6   1 7696.48 462.603  -2
  -1   7  -1 7696.48 462.603   1
  -1  -6  -2 3693.02 278.446  -2
   1  -7   2 3693.02 278.446   1
  -1   7  -3 2604.82 215.230   1
   1  -7   4 6918.04 289.370   1
  -1  -5  -5 40042.7 801.559  -2
   1  -7   5 40042.7 801.559   1
  -1   7  -6 2676.04 224.141   1
   1  -7   7 1283.24 197.727   1
   1  -7   8 17195.0 600.328   1
   1   4   8 23850.0 695.874  -2
  -1   7  -8 23850.0 695.874   1
   1  -7   9 2000.94 250.257   1
  -1  -4  -9 2484.39 283.187  -2
   1  -7   9 2484.39 283.187   1
   1  -7  10 604.555 199.635   1
   1  -7  11 196.978 195.561   1
   1   3  12 9663.10 482.976  -2
  -1   7 -12 9663.10 482.976   1
   1  -7  13 1184.89 230.037   1
   1   9 -12 5591.06 582.419  -2
  -1   6  12 5591.06 582.419   1
  -1   6  11 1812.18 369.052   1
   1  -6 -10 59.5469 215.580   1
  -1  -8   9 5489.48 399.891  -2
   1  -6  -9 5489.48 399.891   1
   1  -6  -8 3268.43 250.607   1
   1  -6  -7 400.655 108.392   1
  -1  -7   6 5165.97 190.209  -2
   1  -6  -6 5165.97 190.209   1
  -1  -7   5 1980.49 125.158  -2
   1  -6  -5 1980.49 125.158   1
  -1   6   4 857.104 81.8084   1
   1  -6  -3 6266.32 133.213   1
   1   6  -2 33570.9 491.087  -2
  -1   6   2 33570.9 491.087   1
   1  -6  -1 11694.8 229.839   1
  -1   6   0 16372.0 181.738   1
   1  -6   1 382.441 71.3235   1
   1   5   2 6179.68 275.231  -2
  -1   6  -2 6179.68 275.231   1
  -1   6  -3 412.930 148.634   1
  -1   6  -4 30672.7 476.575   1
   1   4   5 4404.10 296.902  -2
  -1   6  -5 4404.10 296.902   1
  -1   6  -6 183.154 145.798   1
  -1   6  -7 4449.95 229.799   1
  -1   6  -8 4880.63 175.732   1
  -1  -3  -9 43930.7 431.152  -2
   1  -6   9 43930.7 431.152   1
   1  -6  10 750.034 136.038   1
  -1   6 -11 2367.78 151.612   1
  -1  -2 -12 1744.65 197.557  -2
   1  -6  12 1744.65 197.557   1
   1  -6  13 3823.89 250.227   1
   1  -6  14 192.466 209.600   1
   1  -6  15-67.8094 308.777   1
   1   8 -13 582.796 446.095  -2
  -1   5  13 582.796 446.095   1
   1   8 -12 1578.84 433.907  -2
  -1   5  12 1578.84 433.907   1
   1  -5 -11 1439.54 221.614   1
   1  -5 -10 15595.2 416.018   1
   1   7  -9 6563.06 332.488  -2
  -1   5   9 6563.06 332.488   1
  -1   5   8 1531.26 108.385   1
  -1   5   7 4638.39 115.416   1
  -1   5   6 18862.1 421.470   1
  -1  -6   6 20348.6 206.773  -2
   1  -5  -6 20348.6 206.773   1
  -1   5   5 34.1231 124.121   1
  -1  -6   5 992.141 94.9401  -2
   1  -5  -5 992.141 94.9401   1
  -1   5   4 18343.0 164.285   1
   1  -5  -3 2604.66 75.2825   1
  -1  -5   2 4797.37 146.175  -2
   1  -5  -2 4797.37 146.175   1
   1  -5  -1 28394.3 201.163   1
  -1   5   0 13966.4 153.745   1
  -1   5  -1 11129.9 275.220   1
   1   4   1 31576.2 404.738  -2
  -1   5  -1 31576.2 404.738   1
  -1   5  -2 13720.3 299.396   1
  -1  -4  -2 20638.5 345.158  -2
   1  -5   2 20638.5 345.158   1
   1  -5   3 301.287 86.7067   1
  -1   5  -4 567.142 91.2007   1
  -1  -3  -5 5602.35 196.084  -2
   1  -5   5 5602.35 196.084   1
   1  -5   6 15132.6 218.825   1
   1  -5   7 26.8463 97.5354   1
   1  -5   8 13518.6 198.513   1
   1   2   9 38480.1 322.315  -2
  -1   5  -9 38480.1 322.315   1
  -1   5 -10 539.417 88.8956   1
   1  -5  11 1905.98 113.718   1
  -1  -1 -12 16662.0 379.680  -2
   1  -5  12 16662.0 379.680   1
   1  -5  13 3035.87 166.809   1
  -1   5 -14 179.694 208.606   1
  -1   0 -15 17856.5 512.004  -2
   1  -5  15 17856.5 512.004   1
   1   7 -13 1877.52 414.794  -2
  -1   4  13 1877.52 414.794   1
  -1  -7  12 16501.6 450.059  -2
   1  -4 -12 16501.6 450.059   1
   1  -4 -11 315.649 170.328   1
  -1   4  10 7769.16 290.916   1
   1   6  -9 14933.5 239.242  -2
  -1   4   9 14933.5 239.242   1
   1  -4  -8 48.9397 57.2378   1
   1  -4  -7 3953.70 85.5797   1
  -1   4   6 2818.37 126.353   1
  -1  -5   6 2679.08 99.8895  -2
   1  -4  -6 2679.08 99.8895   1
  -1   4   5 278.237 97.9474   1
   1   5  -5 9301.83 128.721  -2
  -1   4   5 9301.83 128.721   1
  -1   4   4 1275.22 52.3611   1
   1  -4  -3 141.353 45.6666   1
   1   4  -2 42032.5 316.810  -2
  -1   4   2 42032.5 316.810   1
   1  -4  -1 7623.60 106.350   1
  -1   4   0 7971.69 148.553   1
  -1   4  -1 24581.2 271.253   1
  -1  -3  -1 48619.2 620.190  -2
   1  -4   1 48619.2 620.190   1
   1  -4   2 45136.9 442.237   1
   1   3   2 89187.4 580.430  -2
  -1   4  -2 89187.4 580.430   1
  -1   4  -3 15137.7 189.833   1
  -1   4  -4 32605.1 268.192   1
   1   2   5 9693.01 215.787  -2
  -1   4  -5 9693.01 215.787   1
   1  -4   6 3322.48 92.5582   1
   1  -4   7 8815.45 134.990   1
  -1   4  -8 19510.2 197.208   1
   1  -4   9 170.819 178.021   1
  -1  -1  -9 1985.50 121.201  -2
   1  -4   9 1985.50 121.201   1
   1  -4  10 1228.65 94.4445   1
   1  -4  11 6780.17 157.198   1
  -1   0 -12 286.362 126.059  -2
   1  -4  12 286.362 126.059   1
   1  -4  13 27607.1 328.339   1
   1  -4  14 1345.88 169.906   1
   1  -4  15 2365.32 260.792   1
  -1   1 -16 2623.02 431.673  -2
   1  -4  16 2623.02 431.673   1
   1  -3 -14 64.8009 209.707   1
   1  -3 -13 158.151 218.762   1
  -1  -6  13 5027.54 315.781  -2
   1  -3 -13 5027.54 315.781   1
   1  -3 -12-69.1680 194.897   1
  -1  -6  12 1489.58 248.444  -2
   1  -3 -12 1489.58 248.444   1
   1  -3 -11 249.749 118.222   1
   1  -3 -10 7309.12 146.390   1
  -1  -5   9 3320.40 102.778  -2
   1  -3  -9 3320.40 102.778   1
  -1   3   8 11763.5 126.124   1
   1  -3  -7 335.098 51.4237   1
   1  -3  -6 65725.4 268.690   1
   1   4  -6 74438.2 437.390  -2
  -1   3   6 74438.2 437.390   1
  -1   3   5 17474.6 150.738   1
  -1  -4   5 41448.5 287.663  -2
   1  -3  -5 41448.5 287.663   1
  -1   3   4 10810.6 87.1697   1
  -1   3   3 1215.28 46.3805   1
   1   3  -2 34522.2 200.527  -2
  -1   3   2 34522.2 200.527   1
   1  -3  -1 1648.35 62.9547   1
   1  -3   0 17830.8 175.173   1
  -1   3  -1 7201.99 123.481   1
  -1   3  -2 1351.04 82.8556   1
   1  -3   3 75622.9 345.850   1
  -1   3  -4 13827.4 168.911   1
  -1  -1  -5 35140.3 276.995  -2
   1  -3   5 35140.3 276.995   1
   1  -3   6 24367.3 184.939   1
   1  -3   7 2323.42 75.8185   1
   1  -3   8 263.915 57.8691   1
  -1   3  -9 1797.50 115.740   1
  -1   0  -9 7325.46 194.294  -2
   1  -3   9 7325.46 194.294   1
   1  -3  10 16484.8 207.119   1
  -1   3 -11 2887.55 118.686   1
  -1   1 -12 10217.3 240.754  -2
   1  -3  12 10217.3 240.754   1
   1  -3  13 7789.66 188.898   1
   1  -3  14 929.719 162.010   1
  -1   3 -15 1052.87 351.416   1
  -1   2 -15 2092.10 281.514  -2
   1  -3  15 2092.10 281.514   1
   1  -2  16 2420.37 316.453  -2
  -1   3 -16 2420.37 316.453   1
   1  -2 -15 3520.18 281.909   1
   1  -2 -14 11217.6 290.526   1
   1  -2 -13 45.0743 211.380   1
   1   5 -13 1904.12 252.109  -2
  -1   2  13 1904.12 252.109   1
   1  -2 -12 1623.74 244.493   1
  -1  -5  12 19762.5 418.633  -2
   1  -2 -12 19762.5 418.633   1
   1  -2 -11 1056.62 80.9377   1
   1  -2 -10 29534.6 214.966   1
  -1  -4   9 2597.30 105.702  -2
   1  -2  -9 2597.30 105.702   1
   1  -2  -8 1742.06 62.1502   1
   1  -2  -7 558.392 46.3046   1
   1  -2  -6 13733.9 110.156   1
  -1  -3   6 13551.9 299.647  -2
   1  -2  -6 13551.9 299.647   1
   1  -2  -5 66742.0 200.930   1
  -1  -3   5 93648.3 687.671  -2
   1  -2  -5 93648.3 687.671   1
  -1   2   4 702.133 32.5671   1
  -1   2   3 4262.95 46.3584   1
   1   2  -2 49941.6 160.552  -2
  -1   2   2 49941.6 160.552   1
  -1   2   1 874.261 48.4173   1
   1  -2   0 456.071 53.0076   1
  -1   2  -1 1976.17 71.6072   1
  -1   2  -2 112967. 346.550   1
   1  -2   3 10921.1 96.6108   1
   1  -2   4 11757.8 109.934   1
  -1   0  -5 33108.8 236.929  -2
   1  -2   5 33108.8 236.929   1
   1  -2   6 31048.2 160.565   1
   1  -2   7 28149.7 167.451   1
  -1   2  -8 9666.34 112.581   1
  -1   2  -9 7129.39 129.746   1
  -1   1  -9 25307.0 327.096  -2
   1  -2   9 25307.0 327.096   1
  -1   2 -10 793.891 75.2703   1
  -1   2 -11 24572.5 221.290   1
   1  -2  12 16734.7 264.281  -2
  -1   2 -12 16734.7 264.281   1
  -1   2 -13 902.231 99.5188   1
  -1   2 -14 3880.54 174.922   1
  -1   2 -15 1876.28 228.923   1
  -1   3 -15 2216.52 421.682  -2
   1  -2  15 2216.52 421.682   1
   1  -3  16 1915.74 251.520  -2
  -1   2 -16 1915.74 251.520   1
  -1  -5  16 8967.32 699.269  -2
   1  -1 -16 8967.32 699.269   1
   1  -1 -15 342.099 160.369   1
  -1   1  14 4182.88 184.538   1
   1  -1 -13 821.606 234.620   1
   1   4 -13 971.690 196.077  -2
  -1   1  13 971.690 196.077   1
   1  -1 -12 5029.02 222.374   1
  -1  -4  12 25744.8 377.813  -2
   1  -1 -12 25744.8 377.813   1
   1  -1 -11 7996.44 121.022   1
  -1   1  10 2459.31 78.2930   1
   1   3  -9 8111.72 132.501  -2
  -1   1   9 8111.72 132.501   1
   1  -1  -8 4502.01 74.5028   1
   1  -1  -7 1897.97 52.1481   1
  -1   1   6 41313.6 173.442   1
  -1  -2   6 78203.7 473.854  -2
   1  -1  -6 78203.7 473.854   1
   1  -1  -5 36472.5 148.564   1
  -1  -2   5 40559.8 345.932  -2
   1  -1  -5 40559.8 345.932   1
  -1   1   4 24647.2 101.411   1
  -1   1   3 1106.35 31.3705   1
   1   1  -2 253675. 338.431  -2
  -1   1   2 253675. 338.431   1
  -1   1   1 50833.9 104.290   1
   1  -1   0 129.803 23.3307   1
   1  -1   1 14364.9 83.8937   1
   1  -1   2 34195.0 172.410   1
  -1   1  -3 18453.2 85.4952   1
   1  -1   4 4959.40 63.6135   1
  -1   1  -5 12608.4 134.720  -2
   1  -1   5 12608.4 134.720   1
   1  -1   6 7932.05 93.1103   1
  -1   1  -7 37778.2 200.671   1
   1  -1   8 19.0108 54.0916   1
  -1   1  -9 22023.8 216.554   1
  -1   2  -9 28898.9 380.467  -2
   1  -1   9 28898.9 380.467   1
   1  -1  10 11112.8 151.389   1
   1  -1  11 3185.51 104.757   1
   1  -3  12 8691.85 222.187  -2
  -1   1 -12 8691.85 222.187   1
  -1   1 -13 153.703 98.2305   1
  -1   1 -14 5692.11 225.887   1
  -1   1 -15 5236.43 291.353   1
  -1   4 -15 7145.30 527.183  -2
   1  -1  15 7145.30 527.183   1
   1  -4  16 3005.58 273.450  -2
  -1   1 -16 3005.58 273.450   1
   1   0 -17 10.7539 328.162   1
   1   4 -16 3322.37 267.652  -2
  -1   0  16 3322.37 267.652   1
   1   0 -15 36.9999 141.216   1
   1   0 -14 7955.24 218.962   1
   1   0 -13 4966.24 358.669   1
  -1  -3  13 6217.91 239.970  -2
   1   0 -13 6217.91 239.970   1
  -1   0  12 17574.2 144.709   1
   1   3 -12 21409.6 430.336  -2
  -1   0  12 21409.6 430.336   1
  -1   0  11 9106.73 84.2195   1
   1   0 -10 35476.3 187.842   1
   1   2  -9 18610.6 162.984  -2
  -1   0   9 18610.6 162.984   1
  -1   0   8 1608.76 38.0056   1
   1   0  -7 5.54862 20.6989   1
  -1   0   6 33902.5 176.363   1
  -1   0   5 774.120 49.4345   1
   1   0  -4 235.346 44.0975   1
  -1   0   3 332.406 34.5797   1
   1   0  -2 1511.89 66.4577  -2
  -1   0   2 1511.89 66.4577   1
  -1   0  -1 19396.8 135.843   1
  -1   0  -2 58999.1 229.050   1
   1   0   3 1483.08 58.9352   1
   1   0   4 11289.0 110.094   1
  -1   2  -5 29328.2 236.841  -2
   1   0   5 29328.2 236.841   1
   1   0   6 67595.7 284.893   1
   1   0   7 623.112 62.1615   1
  -1   0  -8 5011.95 104.951   1
  -1   0  -9 6560.99 123.637   1
  -1   0 -10 6484.52 142.942   1
  -1   0 -11 19514.6 302.247   1
  -1   4 -12 248.358 147.159  -2
   1   0  12 248.358 147.159   1
   1   0  13 3940.07 191.413   1
  -1   0 -14 101.885 147.853   1
  -1   0 -15 16092.6 424.007   1
  -1   5 -15 19503.6 712.658  -2
   1   0  15 19503.6 712.658   1
  -1   5 -16 6192.22 383.751  -2
   1   0  16 6192.22 383.751   1
   1   1 -17 739.398 239.441   1
   1   3 -16 10683.3 364.648  -2
  -1  -1  16 10683.3 364.648   1
   1   1 -15 335.410 139.136   1
   1   1 -14 10998.8 242.045   1
   1   1 -13 5536.71 259.531   1
   1   2 -13 6503.16 281.045  -2
  -1  -1  13 6503.16 281.045   1
   1   1 -12 183.502 96.0471   1
   1   2 -12 14719.0 517.049  -2
  -1  -1  12 14719.0 517.049   1
   1   1 -11 1784.12 55.2181   1
  -1  -1  10 3058.90 63.3843   1
   1   1  -9 22413.1 158.705  -2
  -1  -1   9 22413.1 158.705   1
   1   1  -8 26528.3 148.677   1
   1   1  -7 4290.60 65.4192   1
  -1  -1   6 13393.7 124.742   1
  -1   0   6 37842.0 275.684  -2
   1   1  -6 37842.0 275.684   1
  -1  -1   5 93.1546 37.7370   1
  -1   0   5 696.482 81.6488  -2
   1   1  -5 696.482 81.6488   1
   1   1  -4 34859.3 133.705   1
  -1  -1   3 19443.0 104.191   1
   1  -1  -2 234044. 455.591  -2
  -1  -1   2 234044. 455.591   1
   1   1  -1 58865.7 158.838   1
  -1  -1   0 4268.73 51.1708   1
  -1  -1  -1 427.217 60.0498   1
   1   1   2 89672.7 317.538   1
   1   1   3 58475.3 279.820   1
  -1  -1  -4 2328.15 61.8649   1
   1  -3   5 34274.3 242.081  -2
  -1  -1  -5 34274.3 242.081   1
   1   1   6 15414.7 136.676   1
  -1  -1  -7 27527.1 188.617   1
  -1  -1  -8 109.746 57.9546   1
  -1  -1  -9 2247.49 123.348   1
   1  -4   9 2488.06 199.686  -2
  -1  -1  -9 2488.06 199.686   1
  -1  -1 -10 7692.30 172.580   1
  -1  -1 -11 10767.6 237.985   1
   1  -5  12 14265.0 378.497  -2
  -1  -1 -12 14265.0 378.497   1
  -1  -1 -13 4927.46 207.912   1
  -1  -1 -14 5290.43 227.886   1
   1  -6  15 384.599 282.696  -2
  -1  -1 -15 384.599 282.696   1
  -1  -2  17 2577.65 414.917   1
   1   2 -16 19449.9 468.421  -2
  -1  -2  16 19449.9 468.421   1
   1   2 -15 259.286 173.951   1
  -1  -2  14 1073.32 156.186   1
  -1  -1  13 5865.12 231.633  -2
   1   2 -13 5865.12 231.633   1
  -1  -2  12 17035.9 474.176   1
  -1  -1  12 14395.1 190.385  -2
   1   2 -12 14395.1 190.385   1
   1   2 -11 34.1141 56.6344   1
   1   2 -10 12756.1 142.562   1
  -1   0   9 23239.4 196.687  -2
   1   2  -9 23239.4 196.687   1
  -1  -2   8 30308.2 195.814   1
  -1  -2   7 14426.3 123.558   1
  -1  -2   6 50831.2 242.908   1
  -1   1   6 78881.0 573.180  -2
   1   2  -6 78881.0 573.180   1
  -1  -2   5 8110.83 105.675   1
  -1   1   5 34421.8 379.312  -2
   1   2  -5 34421.8 379.312   1
   1   2  -4 299.097 55.6302   1
   1   2  -3 5437.97 91.2268   1
   1  -2  -2 44845.7 246.245  -2
  -1  -2   2 44845.7 246.245   1
   1   2  -1 965.355 53.3119   1
  -1  -2   0 13694.2 89.6300   1
  -1  -2  -1 5195.72 97.1732   1
   1   2   2 1536.99 73.5219   1
  -1  -2  -3 57114.6 308.905   1
  -1  -2  -4 13216.3 112.297   1
   1  -4   5 9498.21 135.955  -2
  -1  -2  -5 9498.21 135.955   1
   1   2   6 24398.8 169.380   1
   1   2   7 4353.64 90.7280   1
   1   2   8 635.737 74.4385   1
  -1  -2  -9 12583.7 250.798   1
   1  -5   9 33326.5 381.214  -2
  -1  -2  -9 33326.5 381.214   1
   1   2  10 20854.3 231.582   1
  -1  -2 -11 5381.28 186.065   1
   1  -6  12 2018.51 210.629  -2
  -1  -2 -12 2018.51 210.629   1
  -1  -2 -13 24.4574 198.986   1
  -1  -2 -14 1151.55 223.109   1
  -1   7 -15 5122.39 513.752  -2
   1   2  15 5122.39 513.752   1
  -1  -3  17 127.972 232.218   1
   1   1 -16 12385.4 393.699  -2
  -1  -3  16 12385.4 393.699   1
  -1  -3  15 4179.07 223.148   1
  -1  -3  14 8589.28 259.251   1
  -1  -3  13 1110.89 229.516   1
   1   0 -13 5259.23 294.095  -2
  -1  -3  13 5259.23 294.095   1
  -1  -3  12 748.758 208.702   1
   1   0 -12 16109.6 244.770  -2
  -1  -3  12 16109.6 244.770   1
   1   3 -11 130.401 73.8911   1
   1   3 -10 5422.70 114.049   1
  -1   1   9 9870.38 151.386  -2
   1   3  -9 9870.38 151.386   1
  -1  -3   8 5848.00 102.744   1
   1   3  -7 3344.43 83.4514   1
  -1  -3   6 29.3078 66.6683   1
  -1   2   6 9981.54 298.775  -2
   1   3  -6 9981.54 298.775   1
   1   3  -5 35900.8 369.895   1
   1  -2  -5 86710.9 503.172  -2
  -1  -3   5 86710.9 503.172   1
  -1  -3   4 49541.3 294.939   1
   1   3  -3 907.758 80.2781   1
  -1   3   2 32907.2 263.008  -2
   1   3  -2 32907.2 263.008   1
  -1  -3   1 24.9403 77.7907   1
  -1  -3   0 28833.1 241.459   1
   1   3   1 29097.6 284.662   1
   1  -4   1 47955.8 580.242  -2
  -1  -3  -1 47955.8 580.242   1
  -1  -3  -2 53784.2 465.051   1
  -1   4  -2 85523.0 551.330  -2
   1   3   2 85523.0 551.330   1
  -1  -3  -3 3930.56 103.349   1
  -1  -3  -4 1589.25 85.0049   1
   1  -5   5 4780.39 145.499  -2
  -1  -3  -5 4780.39 145.499   1
  -1  -3  -6 7430.01 132.642   1
  -1  -3  -7 13638.6 190.655   1
   1   3   8 317.077 80.4676   1
   1  -6   8 4126.99 191.142  -2
  -1  -3  -8 4126.99 191.142   1
  -1  -3  -9 10511.9 219.299   1
  -1   6  -9 38034.5 433.118  -2
   1   3   9 38034.5 433.118   1
  -1  -3 -10 825.617 100.090   1
  -1  -3 -11 12603.3 381.672   1
   1  -7  12 6836.88 433.321  -2
  -1  -3 -12 6836.88 433.321   1
   1   3  13-6.79416 201.389   1
   1   3  14 2852.71 378.967   1
  -1  -4  17 3843.50 311.707   1
   1   0 -16 2953.21 371.109  -2
  -1  -4  16 2953.21 371.109   1
   1   4 -15 4916.32 237.818   1
  -1  -4  14 942.460 163.111   1
   1  -1 -13 801.585 189.672  -2
  -1  -4  13 801.585 189.672   1
   1  -1 -12 28787.6 313.041  -2
  -1  -4  12 28787.6 313.041   1
   1   4 -11 925.791 103.113   1
  -1  -4  10 4209.80 120.224   1
  -1   2   9 2521.47 116.920  -2
   1   4  -9 2521.47 116.920   1
  -1  -4   8 31149.6 233.146   1
   1   4  -7 3523.72 106.148   1
  -1  -4   6 15768.4 294.241   1
  -1   3   6 66094.9 527.230  -2
   1   4  -6 66094.9 527.230   1
  -1  -4   5 29946.9 553.722   1
  -1   3   5 43871.5 359.249  -2
   1   4  -5 43871.5 359.249   1
   1   4  -4 17248.9 210.916   1
  -1  -4   3 11448.1 180.338   1
  -1   4   2 41285.3 290.872  -2
   1   4  -2 41285.3 290.872   1
   1   4  -1 8321.70 161.642   1
   1   4   0 1915.02 106.031   1
   1   4   1 25119.4 375.352   1
  -1   5  -1 33489.0 405.610  -2
   1   4   1 33489.0 405.610   1
   1   4   2 5555.55 84.6514   1
   1  -5   2 19426.1 273.873  -2
  -1  -4  -2 19426.1 273.873   1
   1   4   3 2742.52 113.416   1
  -1  -4  -4 15822.2 218.096   1
   1  -6   5 4687.91 191.351  -2
  -1  -4  -5 4687.91 191.351   1
   1   4   6 3510.05 135.849   1
  -1  -4  -7 14064.5 230.379   1
   1   4   8 8547.06 378.721   1
   1  -7   8 19937.4 338.974  -2
  -1  -4  -8 19937.4 338.974   1
  -1   7  -9 1366.74 185.902  -2
   1   4   9 1366.74 185.902   1
  -1  -4 -10 5710.02 221.133   1
   1   4  11 507.949 147.648   1
   1  -8  12 4864.96 404.577  -2
  -1  -4 -12 4864.96 404.577   1
   1   4  13 5740.26 467.753   1
  -1  -5  17 966.212 400.911   1
   1  -1 -16 10834.2 531.543  -2
  -1  -5  16 10834.2 531.543   1
   1   5 -15 1451.36 199.313   1
  -1  -5  14 2648.91 203.026   1
   1  -2 -13 2080.00 222.273  -2
  -1  -5  13 2080.00 222.273   1
   1  -2 -12 22043.7 356.874  -2
  -1  -5  12 22043.7 356.874   1
  -1  -5  11 5780.31 167.517   1
   1   5 -10 1732.52 121.789   1
  -1   3   9 2740.50 144.080  -2
   1   5  -9 2740.50 144.080   1
  -1  -5   8 853.383 103.189   1
  -1  -5   7 11808.8 232.344   1
  -1  -5   6 348.013 185.895   1
   1  -4  -6 2581.21 199.217  -2
  -1  -5   6 2581.21 199.217   1
  -1   4   5 11844.6 210.281  -2
   1   5  -5 11844.6 210.281   1
  -1  -5   4 17039.6 236.446   1
  -1  -5   3 1148.96 70.5869   1
   1  -5  -2 4640.66 177.805  -2
  -1  -5   2 4640.66 177.805   1
   1   5  -1 15798.5 231.841   1
   1   5   0 33825.5 330.490   1
   1  -6   1 253.812 164.259  -2
  -1  -5  -1 253.812 164.259   1
   1  -6   2 4972.15 98.4301  -2
  -1  -5  -2 4972.15 98.4301   1
  -1  -5  -3 27.8198 115.689   1
  -1  -5  -4 7034.26 119.980   1
  -1   7  -5 39426.6 387.843  -2
   1   5   5 39426.6 387.843   1
  -1  -5  -6 16264.1 202.504   1
  -1  -5  -7 239.223 125.742   1
   1  -8   8 48.7342 176.760  -2
  -1  -5  -8 48.7342 176.760   1
   1  -8   9 4501.42 249.749  -2
  -1  -5  -9 4501.42 249.749   1
  -1  -5 -10 1269.32 174.967   1
   1   5  11 2688.20 375.673   1
   1  -2 -16 7693.98 525.973  -2
  -1  -6  16 7693.98 525.973   1
  -1  -6  15 112.919 219.153   1
  -1  -6  14 454.873 176.419   1
   1  -3 -13 5821.91 368.087  -2
  -1  -6  13 5821.91 368.087   1
  -1   3  12 1960.69 209.477  -2
   1   6 -12 1960.69 209.477   1
   1   6 -11 6127.12 227.675   1
  -1  -6  10 3205.00 183.253   1
  -1   4   9 12112.4 325.609  -2
   1   6  -9 12112.4 325.609   1
   1   6  -8 20317.9 340.279   1
  -1  -6   7 1592.75 175.618   1
  -1  -6   6 5343.62 350.079   1
  -1   5   6 18522.4 555.507  -2
   1   6  -6 18522.4 555.507   1
  -1   5   5 1080.03 209.525  -2
   1   6  -5 1080.03 209.525   1
  -1  -6   4 29011.9 295.413   1
  -1  -6   3 8213.03 132.498   1
  -1   6   2 30266.4 535.874  -2
   1   6  -2 30266.4 535.874   1
  -1  -6   1 7326.94 260.664   1
  -1  -6   0 2233.10 181.422   1
  -1   7  -1 8234.13 290.731  -2
   1   6   1 8234.13 290.731   1
  -1   7  -2 2786.02 93.2422  -2
   1   6   2 2786.02 93.2422   1
   1   6   3 3558.21 203.834   1
   1   6   4 5435.00 239.687   1
   1  -8   5 28672.4 648.831  -2
  -1  -6  -5 28672.4 648.831   1
  -1  -6  -6 1505.90 159.131   1
  -1  -6  -7 1499.92 167.104   1
   1  -9   8 11016.5 317.785  -2
  -1  -6  -8 11016.5 317.785   1
  -1   9  -9 1683.38 426.231  -2
   1   6   9 1683.38 426.231   1
   1   6  10 1652.30 375.440   1
  -1  -7  14 3645.97 288.505   1
   1  -4 -13 2314.27 331.227  -2
  -1  -7  13 2314.27 331.227   1
  -1   4  12 16879.8 382.393  -2
   1   7 -12 16879.8 382.393   1
  -1  -7  11 818.369 168.570   1
  -1  -7  10 767.088 166.720   1
  -1   5   9 6777.01 291.809  -2
   1   7  -9 6777.01 291.809   1
  -1  -7   8 11402.5 292.899   1
   1   7  -7 6106.86 284.811   1
  -1  -7   6 404.518 152.282   1
  -1   6   6 4581.25 301.869  -2
   1   7  -6 4581.25 301.869   1
  -1  -7   5 1026.37 128.958   1
   1  -6  -5 2136.05 258.177  -2
  -1  -7   5 2136.05 258.177   1
  -1  -7   4 400.993 64.4657   1
   1   7  -3 12249.4 354.713   1
   1  -7  -2 1143.75 249.537  -2
  -1  -7   2 1143.75 249.537   1
   1   7  -1 3544.48 229.117   1
   1   7   0 14679.7 377.883   1
  -1   8  -1 673.181 222.415  -2
   1   7   1 673.181 222.415   1
  -1   8  -2 1803.59 242.649  -2
   1   7   2 1803.59 242.649   1
   1   7   3 2007.14 203.496   1
  -1  -7  -4 14178.8 377.796   1
   1  -9   5 607.925 211.562  -2
  -1  -7  -5 607.925 211.562   1
  -1  -7  -6 203.001 143.971   1
   1   7   7 94.1476 287.725   1
   1  -5 -12 924.705 253.765  -2
  -1  -8  12 924.705 253.765   1
   1   8 -11 112.412 174.465   1
  -1  -8  10 3577.38 234.819   1
   1  -6  -9 6868.02 371.178  -2
  -1  -8   9 6868.02 371.178   1
  -1  -8   8 4443.85 238.911   1
   1   8  -7 3996.05 224.836   1
   1  -7  -6 7537.08 295.024  -2
  -1  -8   6 7537.08 295.024   1
  -1   7   5 3908.84 324.570  -2
   1   8  -5 3908.84 324.570   1
   1   8  -4 16563.2 444.000   1
   1   8  -3 214.973 188.450   1
  -1   8   2 945.909 281.085  -2
   1   8  -2 945.909 281.085   1
   1   8  -1 2248.39 233.609   1
   1   8   0 17060.9 440.734   1
   1  -9   1 17165.7 460.340  -2
  -1  -8  -1 17165.7 460.340   1
  -1   9  -2 1247.43 261.296  -2
   1   8   2 1247.43 261.296   1
  -1  -8  -3 254.687 179.951   1
  -1  -8  -4 362.772 185.588   1
   1   9 -11 98.5315 321.276   1
   1   9 -10 1870.05 267.890   1
  -1   7   9 4635.85 432.226  -2
   1   9  -9 4635.85 432.226   1
   1   9  -8 9767.42 331.191   1
   1   9  -7-170.575 201.274   1
  -1   8   6 5198.89 357.440  -2
   1   9  -6 5198.89 357.440   1
   1  -8  -5 6107.05 342.264  -2
  -1  -9   5 6107.05 342.264   1
  -1  -9   4 1724.77 251.182   1
   1   9  -3 2623.43 273.614   1
  -1   9   2 2317.19 352.392  -2
   1   9  -2 2317.19 352.392   1
   1   9  -1 1376.75 236.251   1
  -1  -9   0 1088.47 237.649   1
   1 -10   1 7357.06 531.646  -2
  -1  -9  -1 7357.06 531.646   1
   1 -10   2 197.190 395.787  -2
  -1  -9  -2 197.190 395.787   1
  -1 -10   3 542.182 333.404   1
   1 -10  -2 3199.35 557.911  -2
  -1 -10   2 3199.35 557.911   1
  -1 -10   1 209.837 324.701   1
  -1 -10   0 6636.93 515.982   1
   2 -10  -2 227.278 341.055   1
  -2  -9   1 5481.96 554.825  -2
   2 -10  -1 5481.96 554.825   1
  -2  10   0 398.984 370.418   1
  -2  -9   0 2134.72 504.418  -2
   2 -10   0 2134.72 504.418   1
   2 -10   1 84.7997 321.056   1
   2 -10   2 8976.62 354.591   1
  -2  -8  -3-42.0586 417.219  -2
   2 -10   3-42.0586 417.219   1
  -2   9   6 6973.42 503.013   1
  -2   9   5 1340.87 413.031   1
  -2  -9   4 4324.70 407.011  -2
   2  -9  -4 4324.70 407.011   1
  -2   9   3 17.5647 174.455   1
  -2   9   2 4468.56 250.001   1
  -2  -8   1 3720.24 278.587  -2
   2  -9  -1 3720.24 278.587   1
  -2  -8   0 2205.43 199.384  -2
   2  -9   0 2205.43 199.384   1
   2  -9   1 1045.95 160.841   1
  -2   9  -2 6046.66 494.122   1
  -2  -7  -3 26442.7 779.566  -2
   2  -9   3 26442.7 779.566   1
  -2   9  -4 325.463 225.074   1
  -2   9  -5 528.922 229.884   1
   2  -9   6 377.193 304.056   1
   2   6   6 536.720 459.020  -2
  -2   9  -6 536.720 459.020   1
   2   6   7 19634.2 565.097  -2
  -2   9  -7 19634.2 565.097   1
   2  -9   8 2012.37 270.563   1
   2  -9   9 1500.88 268.175   1
   2   5  10 7207.66 717.544  -2
  -2   9 -10 7207.66 717.544   1
  -2   9 -11 406.617 339.766   1
  -2   9 -12 709.502 400.998   1
  -2   8   9 15.5647 348.984   1
   2   9  -8 3087.25 497.994  -2
  -2   8   8 3087.25 497.994   1
   2   9  -7 4889.79 528.793  -2
  -2   8   7 4889.79 528.793   1
   2  -8  -6 6831.13 365.829   1
  -2   8   5 1757.17 242.970   1
   2   8  -4 4045.31 308.938  -2
  -2   8   4 4045.31 308.938   1
  -2   8   3-4.69891 159.018   1
  -2   8   2 172.203 111.075   1
   2   7  -1 23531.4 321.633  -2
  -2   8   1 23531.4 321.633   1
  -2  -7   0 13490.1 308.564  -2
   2  -8   0 13490.1 308.564   1
   2  -8   1 1337.38 114.326   1
  -2   8  -2 3259.00 152.668   1
   2   6   3 11931.4 514.217  -2
  -2   8  -3 11931.4 514.217   1
   2  -8   4 1628.42 229.036   1
   2  -8   5 399.585 208.336   1
  -2   8  -6 10456.1 375.498   1
  -2  -5  -7 571.331 286.764  -2
   2  -8   7 571.331 286.764   1
   2  -8   8 997.454 226.203   1
   2  -8   9 265.506 212.635   1
   2   4  10 10362.3 526.376  -2
  -2   8 -10 10362.3 526.376   1
  -2   8 -11 12719.2 432.524   1
  -2   8 -12 1522.19 382.008   1
   2   3  13 5077.39 564.899  -2
  -2   8 -13 5077.39 564.899   1
  -2   7  10 180.861 322.788   1
  -2   7   9 1802.37 336.143   1
  -2  -8   8 6853.31 361.243  -2
   2  -7  -8 6853.31 361.243   1
   2   8  -7 1253.72 279.049  -2
  -2   7   7 1253.72 279.049   1
  -2   7   6 119.228 178.438   1
  -2   7   5 3306.38 192.795   1
   2   7  -4 7779.02 207.079  -2
  -2   7   4 7779.02 207.079   1
  -2   7   3 3701.83 122.992   1
   2  -7  -2 14002.5 230.324   1
   2  -7  -1 784.428 107.819   1
  -2  -6   1 1642.20 180.854  -2
   2  -7  -1 1642.20 180.854   1
  -2  -6   0 9756.41 208.785  -2
   2  -7   0 9756.41 208.785   1
  -2   7  -1 4056.46 134.036   1
  -2   7  -2 13395.6 363.642   1
   2   5   3 10481.4 437.663  -2
  -2   7  -3 10481.4 437.663   1
  -2   7  -4 15693.6 388.437   1
   2  -7   5 6436.00 278.335   1
  -2   7  -6 1105.14 187.536   1
  -2  -4  -7 38504.7 597.075  -2
   2  -7   7 38504.7 597.075   1
   2  -7   8 223.131 178.083   1
  -2   7  -9 907.072 196.813   1
  -2  -3 -10 2556.87 318.442  -2
   2  -7  10 2556.87 318.442   1
  -2   7 -11 12328.9 393.071   1
   2  -7  12 549.985 204.373   1
   2  -7  13-335.956 296.135   1
   2   2  13 1437.91 439.011  -2
  -2   7 -13 1437.91 439.011   1
   2   2  14 6730.23 579.295  -2
  -2   7 -14 6730.23 579.295   1
   2   8 -11 3383.21 502.554  -2
  -2   6  11 3383.21 502.554   1
  -2   6  10 6334.72 307.450   1
   2  -6  -9 1443.03 209.979   1
   2   7  -8 10643.9 361.677  -2
  -2   6   8 10643.9 361.677   1
   2   7  -7 2401.86 257.653  -2
  -2   6   7 2401.86 257.653   1
  -2   6   6 539.401 69.7585   1
  -2   6   5 860.877 73.2300   1
  -2  -6   4 2710.89 130.746  -2
   2  -6  -4 2710.89 130.746   1
  -2   6   3 12920.7 161.329   1
   2  -6  -2 13217.0 155.830   1
  -2   6   1 11229.2 187.188   1
  -2  -5   1 32728.9 357.992  -2
   2  -6  -1 32728.9 357.992   1
   2   5   0 1441.41 98.1356  -2
  -2   6   0 1441.41 98.1356   1
   2  -6   1 1325.20 129.067   1
  -2   6  -2 1211.51 129.109   1
   2   4   3 30305.8 609.739  -2
  -2   6  -3 30305.8 609.739   1
  -2   6  -4 27314.2 443.828   1
   2  -6   5 137.214 141.240   1
  -2   6  -6 10051.1 296.522   1
   2  -6   7 4097.30 313.162   1
   2   3   7 11848.2 479.690  -2
  -2   6  -7 11848.2 479.690   1
   2  -6   8 2836.27 132.015   1
   2  -6   9 4272.51 155.840   1
   2   2  10 4359.73 211.926  -2
  -2   6 -10 4359.73 211.926   1
  -2   6 -11 1720.50 130.226   1
   2  -6  12-39.1465 174.481   1
   2  -6  13 4653.24 421.892   1
   2   1  13 19826.0 624.385  -2
  -2   6 -13 19826.0 624.385   1
   2   1  14 4541.27 336.918  -2
  -2   6 -14 4541.27 336.918   1
  -2  -7  11 6888.49 403.118  -2
   2  -5 -11 6888.49 403.118   1
  -2   5  10 4477.91 250.481   1
   2  -5  -9 231.637 156.564   1
  -2   5   8 3387.42 290.103   1
   2   6  -8 5723.47 180.961  -2
  -2   5   8 5723.47 180.961   1
  -2   5   7 1715.52 231.073   1
  -2  -6   7 1568.86 122.598  -2
   2  -5  -7 1568.86 122.598   1
  -2   5   6 2571.89 65.3197   1
   2  -5  -5 3369.90 75.6641   1
   2   5  -4 49519.2 320.923  -2
  -2   5   4 49519.2 320.923   1
   2  -5  -3 1366.42 62.3540   1
  -2   5   2 39.7838 50.3879   1
   2  -5  -1 7564.71 164.190   1
  -2  -4   1 12972.1 194.342  -2
   2  -5  -1 12972.1 194.342   1
   2   4   0 3968.90 113.505  -2
  -2   5   0 3968.90 113.505   1
   2  -5   1 17639.3 222.978   1
   2  -5   2 16990.5 220.249   1
   2   3   3 1366.72 133.282  -2
  -2   5  -3 1366.72 133.282   1
   2  -5   4 5421.77 143.645   1
   2  -5   5 20881.1 251.819   1
   2  -5   6 14428.6 251.054   1
   2  -5   7 12599.2 434.317   1
  -2  -2  -7 15063.3 210.792  -2
   2  -5   7 15063.3 210.792   1
   2  -5   8 18763.2 190.817   1
   2  -5   9 12155.5 167.300   1
  -2  -1 -10 764.473 111.665  -2
   2  -5  10 764.473 111.665   1
   2  -5  11 14245.2 247.321   1
   2  -5  12 88.1642 107.484   1
   2  -5  13 89.9958 275.475   1
   2   0  13 807.481 288.200  -2
  -2   5 -13 807.481 288.200   1
  -2   0 -14 1444.95 253.490  -2
   2  -5  14 1444.95 253.490   1
   2  -5  15 5778.53 468.702   1
  -2   4  12 8148.78 306.804   1
   2   6 -11 4511.53 326.746  -2
  -2   4  11 4511.53 326.746   1
  -2   4  10 294.179 150.489   1
   2  -4  -9 43.6619 90.6424   1
  -2   4   8 24617.7 379.146   1
  -2  -5   8 24935.0 318.123  -2
   2  -4  -8 24935.0 318.123   1
  -2   4   7 7546.92 330.933   1
   2   5  -7 7104.03 146.487  -2
  -2   4   7 7104.03 146.487   1
  -2   4   6 13829.0 144.897   1
  -2   4   5 373.084 54.5434   1
  -2  -4   4 21638.5 164.648  -2
   2  -4  -4 21638.5 164.648   1
   2  -4  -3 20741.7 125.009   1
  -2   4   2 23.4599 44.1762   1
   2  -4  -1 895.531 58.6593   1
  -2   4   0 24216.7 320.848   1
  -2  -3   0 40297.6 265.019  -2
   2  -4   0 40297.6 265.019   1
  -2   4  -1 44849.2 227.325   1
  -2   4  -2 13587.7 178.954   1
  -2  -2  -3 29466.2 336.901  -2
   2  -4   3 29466.2 336.901   1
   2  -4   4 9329.74 160.147   1
  -2   4  -5 9305.28 117.720   1
   2  -4   6 123.082 51.2864   1
  -2   4  -7 14143.5 170.279   1
  -2  -1  -7 15762.5 219.923  -2
   2  -4   7 15762.5 219.923   1
  -2   4  -8 25421.5 208.358   1
   2  -4   9 7548.45 135.251   1
   2   0  10 10977.7 227.457  -2
  -2   4 -10 10977.7 227.457   1
   2  -4  11 364.319 85.9186   1
  -2   4 -12 2176.86 141.074   1
   2  -4  13 11878.5 534.872   1
  -2   1 -13 27771.9 421.580  -2
   2  -4  13 27771.9 421.580   1
  -2   1 -14 3700.86 272.873  -2
   2  -4  14 3700.86 272.873   1
  -2   4 -15 3663.06 293.835   1
   2  -3 -14 4897.37 403.815   1
   2  -3 -13 103.947 136.355   1
   2  -3 -12 8094.33 232.701   1
  -2  -5  11 1524.98 154.829  -2
   2  -3 -11 1524.98 154.829   1
   2  -3 -10 3009.86 86.9112   1
  -2   3   9 717.559 57.8986   1
  -2   3   8 372.955 52.6499   1
  -2  -4   8 574.101 128.392  -2
   2  -3  -8 574.101 128.392   1
  -2   3   7 32721.7 396.740   1
  -2  -4   7 32009.4 273.625  -2
   2  -3  -7 32009.4 273.625   1
  -2   3   6 1712.76 60.7316   1
   2  -3  -5 792.781 48.3953   1
   2   3  -4 5991.01 101.300  -2
  -2   3   4 5991.01 101.300   1
  -2   3   3 17540.7 113.094   1
   2  -3  -2 17056.1 118.323   1
  -2   3   1 1707.15 58.1628   1
  -2   3   0 115006. 309.595   1
  -2   3  -1 134.069 45.2214   1
   2  -3   2 3199.16 59.8366   1
   2   1   3 296.957 86.1721  -2
  -2   3  -3 296.957 86.1721   1
  -2   3  -4 1721.59 34.2161   1
   2  -3   5 33123.0 146.589   1
   2  -3   6 5134.80 77.1304   1
   2  -3   7 3584.33 119.779   1
  -2   0  -7 8131.60 142.985  -2
   2  -3   7 8131.60 142.985   1
  -2   3  -8 2337.20 80.2558   1
   2  -3   9 29187.1 250.243   1
  -2   1 -10 9399.39 220.697  -2
   2  -3  10 9399.39 220.697   1
   2  -3  11 17605.4 230.139   1
  -2   3 -12 8577.80 215.146   1
   2  -3  13 5330.78 401.573   1
   2  -2  13 13284.9 450.365  -2
  -2   3 -13 13284.9 450.365   1
   2  -2  14 3249.94 226.182  -2
  -2   3 -14 3249.94 226.182   1
  -2   3 -15 4805.01 306.515   1
  -2   3 -16 250.379 321.161   1
   2  -2 -15 1591.08 358.252   1
   2  -2 -14 530.042 279.590   1
   2   5 -14 11411.7 444.851  -2
  -2   2  14 11411.7 444.851   1
  -2   2  13 1377.17 141.471   1
   2  -2 -12 7002.03 192.765   1
  -2  -4  11 4375.92 156.300  -2
   2  -2 -11 4375.92 156.300   1
  -2   2  10 17200.7 146.449   1
  -2   2   9 69.0749 44.3503   1
  -2   2   8 40879.5 189.411   1
   2   3  -8 51189.0 716.513  -2
  -2   2   8 51189.0 716.513   1
   2  -2  -7 5113.50 78.1006   1
  -2  -3   7 5951.58 138.326  -2
   2  -2  -7 5951.58 138.326   1
  -2   2   6 176.125 30.7261   1
  -2   2   5 170.265 38.4113   1
  -2  -2   4 11330.2 109.603  -2
   2  -2  -4 11330.2 109.603   1
  -2   2   3 48165.0 145.040   1
   2  -2  -2 18112.7 92.8065   1
   2  -2  -1 981.293 37.8042   1
   2  -2   0 34498.2 113.380   1
   2  -2   1 70955.4 153.090   1
  -2   2  -2 41.3522 63.6862   1
  -2   0  -3 4831.68 135.357  -2
   2  -2   3 4831.68 135.357   1
   2  -2   4 51163.8 296.157   1
   2  -2   5 40060.2 207.693   1
  -2   2  -6 193.584 55.8661   1
   2  -2   7 6496.92 115.013   1
  -2   1  -7 8546.22 240.268  -2
   2  -2   7 8546.22 240.268   1
   2  -2   8 4785.79 97.4453   1
   2  -2   9 910.574 93.9167   1
   2  -2  10 2692.93 170.167  -2
  -2   2 -10 2692.93 170.167   1
  -2   2 -11 3475.55 147.770   1
   2  -2  12 5138.43 176.585   1
  -2   2 -13 9239.92 208.102   1
   2  -3  14 3805.70 193.265  -2
  -2   2 -14 3805.70 193.265   1
  -2   2 -15 1320.18 239.164   1
  -2   2 -16 140.226 328.071   1
   2  -1 -16 2974.43 402.297   1
   2  -1 -15 1686.75 345.454   1
  -2  -4  15 1880.91 312.649  -2
   2  -1 -15 1880.91 312.649   1
   2   4 -14 4078.26 212.147  -2
  -2   1  14 4078.26 212.147   1
   2  -1 -13 7465.57 202.897   1
   2  -1 -12 19441.8 212.976   1
   2   3 -11 123.920 90.5929  -2
  -2   1  11 123.920 90.5929   1
   2  -1 -10 11483.1 149.051   1
   2  -1  -9 2128.79 73.1538   1
  -2   1   8 15321.6 129.300   1
   2   2  -8 16163.8 465.786  -2
  -2   1   8 16163.8 465.786   1
  -2   1   7 10962.0 107.387   1
   2   2  -7 22030.6 341.685  -2
  -2   1   7 22030.6 341.685   1
  -2   1   6 23832.8 111.615   1
  -2   1   5 174.874 26.4141   1
   2   1  -4 21521.9 112.819  -2
  -2   1   4 21521.9 112.819   1
  -2   1   3 78612.3 187.639   1
   2  -1  -2 979.348 36.0877   1
   2  -1  -1 218.769 32.0920   1
  -2   1   0 15451.7 99.3499   1
   2  -1   1 18004.1 140.040   1
  -2   1  -2 4856.59 97.3915   1
   2  -1   3 194.764 71.9425  -2
  -2   1  -3 194.764 71.9425   1
   2  -1   4 109308. 296.609   1
   2  -1   5 16966.6 136.613   1
  -2   1  -6 61.5146 51.9467   1
  -2   1  -7 2932.90 92.1022   1
  -2   1  -8 67.3744 65.1389   1
  -2   1  -9 38611.8 353.687   1
   2  -3  10 7682.85 251.612  -2
  -2   1 -10 7682.85 251.612   1
  -2   1 -11 297.548 95.1606   1
   2  -1  12 204.503 99.7173   1
  -2   1 -13 20513.5 291.914   1
   2  -4  14 5072.43 254.665  -2
  -2   1 -14 5072.43 254.665   1
   2  -1  15 7908.56 273.427   1
   2   0 -16 795.703 185.235   1
   2   0 -15 70.8739 291.475   1
   2   3 -15 279.181 200.735  -2
  -2   0  15 279.181 200.735   1
   2   3 -14 10434.4 258.147  -2
  -2   0  14 10434.4 258.147   1
  -2   0  13 4128.10 163.122   1
  -2   0  12 74.0053 78.0950   1
   2   2 -11 11570.7 202.838  -2
  -2   0  11 11570.7 202.838   1
   2   0 -10 2974.93 92.6707   1
   2   0  -9 2127.09 79.6667   1
  -2   0   8 8417.37 108.918   1
  -2   0   7 8408.17 99.5994   1
  -2   0   6 57073.8 204.732   1
  -2   0   5 7456.63 74.2754   1
   2   0  -4 161385. 338.204  -2
  -2   0   4 161385. 338.204   1
   2   0  -3 932.423 58.5602   1
   2   0  -2 3748.95 52.9786   1
   2   0  -1 19004.4 99.7919   1
  -2   0   0 13800.8 109.178   1
  -2   0  -1 51828.7 242.848   1
   2   0   2 1676.29 81.6401   1
  -2   2  -3 4722.26 140.694  -2
   2   0   3 4722.26 140.694   1
  -2   0  -4 43110.5 282.551   1
  -2   0  -5 69047.8 292.056   1
  -2   0  -6 448.937 63.2672   1
  -2   0  -7 6247.96 115.218   1
  -2   0  -8 23695.0 211.958   1
  -2   0  -9 11440.3 190.154   1
   2  -4  10 9402.39 245.747  -2
  -2   0 -10 9402.39 245.747   1
  -2   0 -11 152.187 111.018   1
  -2   0 -12 699.623 131.185   1
  -2   0 -13 1199.47 182.106   1
  -2   5 -13 1430.29 383.544  -2
   2   0  13 1430.29 383.544   1
  -2   5 -14 1936.41 229.315  -2
   2   0  14 1936.41 229.315   1
  -2   0 -15 129.060 216.161   1
  -2  -1  16 4392.12 305.253   1
   2   1 -15 32.7814 297.955   1
   2   2 -15 462.974 236.183  -2
  -2  -1  15 462.974 236.183   1
   2   2 -14 27585.8 357.957  -2
  -2  -1  14 27585.8 357.957   1
   2   1 -13 432.313 102.014   1
   2   1 -12 8349.03 166.008   1
  -2  -1  11 7617.81 200.452  -2
   2   1 -11 7617.81 200.452   1
  -2  -1  10 836.230 77.6553   1
   2   1  -9 16427.9 166.125   1
  -2  -1   8 18295.3 175.426   1
  -2  -1   7 4706.26 89.1339   1
  -2  -1   6 3432.47 57.9700   1
  -2  -1   5 8642.10 85.7900   1
  -2   1   4 25204.0 175.600  -2
   2   1  -4 25204.0 175.600   1
  -2  -1   3 53189.6 212.321   1
   2   1  -2 47144.0 174.415   1
  -2  -1   1 219.410 45.0473   1
   2   1   0 30247.8 148.701   1
  -2  -1  -1 35369.9 180.412   1
   2   1   2 7122.13 125.541   1
   2  -3   3 385.469 100.800  -2
  -2  -1  -3 385.469 100.800   1
   2   1   4 4084.50 114.234   1
  -2  -1  -5 13.6211 67.5636   1
  -2  -1  -6 1313.17 78.4658   1
  -2  -1  -7 1508.61 102.743   1
  -2   4  -7 12571.4 203.813  -2
   2   1   7 12571.4 203.813   1
  -2  -1  -8 33702.8 248.855   1
  -2  -1  -9 16285.1 226.493   1
  -2   5 -10 656.841 135.597  -2
   2   1  10 656.841 135.597   1
  -2  -1 -11 5435.93 189.205   1
  -2  -1 -12 62.4692 123.422   1
  -2  -1 -13 18570.7 632.144   1
  -2   6 -13 22364.5 729.269  -2
   2   1  13 22364.5 729.269   1
   2  -6  14 3608.66 333.211  -2
  -2  -1 -14 3608.66 333.211   1
  -2  -1 -15 450.865 314.981   1
  -2  -2  17 3026.37 455.666   1
   2   2 -16 8456.57 370.650   1
  -2  -1  15 499.036 206.582  -2
   2   2 -15 499.036 206.582   1
   2   1 -14 23563.7 383.649  -2
  -2  -2  14 23563.7 383.649   1
   2   2 -13 3537.89 178.714   1
  -2  -2  12 570.456 100.888   1
  -2   0  11 8989.72 241.789  -2
   2   2 -11 8989.72 241.789   1
   2   2 -10 36357.1 313.466   1
  -2  -2   9 6150.29 125.940   1
   2   2  -8 1159.25 61.7911   1
  -2  -2   7 13364.6 146.335   1
  -2   1   7 21169.8 486.133  -2
   2   2  -7 21169.8 486.133   1
  -2  -2   6 13470.4 137.601   1
  -2  -2   5 4974.43 94.0989   1
   2  -2  -4 8650.50 152.363  -2
  -2  -2   4 8650.50 152.363   1
   2   2  -3 6600.95 94.4240   1
  -2  -2   2 67807.8 213.517   1
   2   2  -1 19560.8 124.650   1
  -2  -2   0 74179.2 253.684   1
   2  -3   0 165352. 1044.52  -2
  -2  -2   0 165352. 1044.52   1
  -2  -2  -1 4748.59 77.5667   1
  -2  -2  -2 5155.79 123.146   1
   2  -4   3 33120.0 361.935  -2
  -2  -2  -3 33120.0 361.935   1
  -2  -2  -4 3109.98 112.864   1
   2   2   5 19013.6 143.734   1
  -2  -2  -6 6357.05 96.1441   1
  -2  -2  -7 2537.90 110.306   1
   2  -5   7 12393.9 224.788  -2
  -2  -2  -7 12393.9 224.788   1
  -2  -2  -8 4579.50 123.868   1
   2   2   9 27483.7 277.430   1
   2  -6  10 3485.82 180.240  -2
  -2  -2 -10 3485.82 180.240   1
  -2  -2 -11 1353.92 162.236   1
  -2  -2 -12 4312.19 282.822   1
  -2  -2 -13 1860.05 350.838   1
  -2   7 -13 1996.41 417.950  -2
   2   2  13 1996.41 417.950   1
   2  -7  14 4787.76 603.649  -2
  -2  -2 -14 4787.76 603.649   1
  -2  -3  17 4766.69 469.949   1
  -2  -3  16 389.835 308.836   1
  -2   0  15 243.726 206.834  -2
   2   3 -15 243.726 206.834   1
   2   0 -14 10481.1 350.407  -2
  -2  -3  14 10481.1 350.407   1
  -2  -3  13 67.8409 127.622   1
  -2  -3  12 4362.00 185.742   1
   2  -1 -11 76.6152 106.108  -2
  -2  -3  11 76.6152 106.108   1
   2   3 -10 59688.1 351.866   1
  -2  -3   9 3477.00 100.919   1
  -2  -3   8 11224.3 163.503   1
  -2   2   8 40191.4 710.593  -2
   2   3  -8 40191.4 710.593   1
   2   3  -7 1044.02 123.432   1
   2  -2  -7 4960.61 151.386  -2
  -2  -3   7 4960.61 151.386   1
   2   3  -6 29.3296 68.4943   1
  -2  -3   5 25926.6 208.246   1
   2  -3  -4 5068.01 140.552  -2
  -2  -3   4 5068.01 140.552   1
  -2  -3   3 12060.2 141.679   1
   2   3  -2 1558.90 79.7929   1
   2   3  -1 15552.2 148.246   1
  -2   4   1 16148.1 288.563  -2
   2   3  -1 16148.1 288.563   1
  -2  -3   0 22045.3 204.045   1
  -2   4   0 39789.0 263.156  -2
   2   3   0 39789.0 263.156   1
  -2  -3  -1 27220.3 259.130   1
  -2  -3  -2 26623.6 235.903   1
   2  -5   3 1171.00 117.411  -2
  -2  -3  -3 1171.00 117.411   1
   2   3   4 13869.8 189.455   1
  -2  -3  -5 6698.67 161.010   1
   2   3   6 4390.63 208.730   1
   2  -6   6 11796.0 408.864  -2
  -2  -3  -6 11796.0 408.864   1
  -2   6  -7 13088.4 287.869  -2
   2   3   7 13088.4 287.869   1
  -2  -3  -8 717.791 130.310   1
   2   3   9 18.7879 127.426   1
   2  -7  10 2893.39 253.245  -2
  -2  -3 -10 2893.39 253.245   1
  -2  -3 -11 2874.56 202.461   1
  -2  -3 -12 7945.88 277.399   1
  -2  -4  17 105.331 358.393   1
  -2  -4  16 282.286 222.435   1
   2  -1 -15 1832.24 243.150  -2
  -2  -4  15 1832.24 243.150   1
   2  -1 -14 4131.23 251.089  -2
  -2  -4  14 4131.23 251.089   1
   2   4 -13 7203.93 241.996   1
  -2  -4  12 1731.94 162.366   1
   2  -2 -11 3564.71 183.895  -2
  -2  -4  11 3564.71 183.895   1
   2   4 -10 704.633 98.9636   1
  -2  -4   9 12455.7 171.931   1
  -2  -4   8 184.814 117.114   1
  -2   3   8 444.690 126.438  -2
   2   4  -8 444.690 126.438   1
   2  -3  -7 26210.3 267.196  -2
  -2  -4   7 26210.3 267.196   1
  -2  -4   6 49631.4 317.005   1
  -2  -4   5 1949.18 88.5682   1
   2  -4  -4 22071.1 272.676  -2
  -2  -4   4 22071.1 272.676   1
  -2  -4   3 3773.99 97.7126   1
  -2  -4   2 12981.6 167.871   1
  -2  -4   1 7459.70 154.340   1
  -2   5   1 13166.9 299.097  -2
   2   4  -1 13166.9 299.097   1
  -2   5   0 3218.30 97.9603  -2
   2   4   0 3218.30 97.9603   1
  -2  -4  -1 1038.62 42.7405   1
   2   4   2 6639.16 162.450   1
  -2   6  -3 30442.6 473.990  -2
   2   4   3 30442.6 473.990   1
   2   4   4 28891.7 355.524   1
   2   4   5 9708.98 281.332   1
  -2   7  -6 1947.86 212.277  -2
   2   4   6 1947.86 212.277   1
   2  -7   7 34788.4 464.903  -2
  -2  -4  -7 34788.4 464.903   1
  -2  -4  -8 170.186 135.729   1
   2   4   9 6647.22 246.085   1
   2  -8  10 8513.02 370.990  -2
  -2  -4 -10 8513.02 370.990   1
  -2  -4 -11 674.504 178.546   1
  -2  -5  16 3419.80 296.855   1
   2  -2 -15 1564.48 318.068  -2
  -2  -5  15 1564.48 318.068   1
   2  -2 -14 12929.1 358.688  -2
  -2  -5  14 12929.1 358.688   1
   2   5 -13 5038.45 229.238   1
   2   5 -12 1257.91 201.469   1
   2  -3 -11 1113.99 169.992  -2
  -2  -5  11 1113.99 169.992   1
   2   5 -10 7850.23 181.932   1
   2   5  -9 513.525 100.604   1
  -2   4   8 20571.5 240.378  -2
   2   5  -8 20571.5 240.378   1
   2  -4  -7 5918.94 173.345  -2
  -2  -5   7 5918.94 173.345   1
  -2  -5   6 43017.8 353.570   1
  -2  -5   5 16888.8 220.242   1
   2  -5  -4 45965.8 442.048  -2
  -2  -5   4 45965.8 442.048   1
  -2  -5   3 431.724 104.253   1
  -2  -5   2 1693.02 112.812   1
  -2   6   1 39929.2 344.519  -2
   2   5  -1 39929.2 344.519   1
  -2   6   0 1285.47 101.713  -2
   2   5   0 1285.47 101.713   1
   2   5   1 1178.65 48.6742   1
   2   5   2 5849.39 235.656   1
  -2   7  -3 9924.92 392.276  -2
   2   5   3 9924.92 392.276   1
  -2  -5  -4 9366.30 144.923   1
  -2  -5  -5 3533.61 218.673   1
  -2   8  -6 13418.7 376.909  -2
   2   5   6 13418.7 376.909   1
   2  -8   7 597.408 197.423  -2
  -2  -5  -7 597.408 197.423   1
   2   5   8 2286.44 190.665   1
  -2  -5  -9 397.110 160.874   1
   2  -9  10 5823.96 415.435  -2
  -2  -5 -10 5823.96 415.435   1
  -2  -6  16 4487.90 495.573   1
   2  -3 -15 1120.07 324.420  -2
  -2  -6  15 1120.07 324.420   1
   2  -3 -14 22386.2 549.853  -2
  -2  -6  14 22386.2 549.853   1
  -2  -6  13-22.3010 210.470   1
   2   6 -12 6.69665 198.405   1
   2  -4 -11 3492.26 355.594  -2
  -2  -6  11 3492.26 355.594   1
  -2  -6  10 383.567 184.895   1
   2   6  -9 10741.8 343.607   1
   2  -5  -8 5998.99 226.734  -2
  -2  -6   8 5998.99 226.734   1
   2  -5  -7 1010.25 161.957  -2
  -2  -6   7 1010.25 161.957   1
   2   6  -6 569.834 112.291   1
  -2  -6   5 16147.6 247.924   1
   2  -6  -4 2577.15 149.881  -2
  -2  -6   4 2577.15 149.881   1
  -2  -6   3 280.794 110.315   1
  -2  -6   2 27262.0 336.176   1
  -2   7   1 1722.74 138.726  -2
   2   6  -1 1722.74 138.726   1
  -2   7   0 8651.99 179.139  -2
   2   6   0 8651.99 179.139   1
   2   6   1 61.6983 153.092   1
  -2  -6  -2 8056.92 291.943   1
  -2   8  -3 10931.9 447.409  -2
   2   6   3 10931.9 447.409   1
   2   6   4 239.336 165.268   1
   2   6   5 17.5288 168.684   1
   2  -9   6 452.567 209.455  -2
  -2  -6  -6 452.567 209.455   1
   2  -9   7 17278.9 420.069  -2
  -2  -6  -7 17278.9 420.069   1
   2   6   8 4304.33 238.296   1
   2  -4 -14 3443.94 502.420  -2
  -2  -7  14 3443.94 502.420   1
  -2  -7  13 2366.36 391.148   1
   2   7 -12 4941.56 315.814   1
   2  -5 -11 6359.91 446.122  -2
  -2  -7  11 6359.91 446.122   1
   2   7 -10 18319.8 478.328   1
   2   7  -9 3158.24 258.138   1
  -2   6   8 9703.79 379.954  -2
   2   7  -8 9703.79 379.954   1
  -2   6   7 2831.90 277.561  -2
   2   7  -7 2831.90 277.561   1
   2   7  -6 5983.09 277.039   1
  -2  -7   5 656.456 168.380   1
   2  -7  -4 7291.62 357.744  -2
  -2  -7   4 7291.62 357.744   1
   2   7  -3 210.896 124.904   1
   2   7  -2 11890.9 250.631   1
  -2   8   1 24498.4 320.914  -2
   2   7  -1 24498.4 320.914   1
  -2   8   0 11952.6 403.851  -2
   2   7   0 11952.6 403.851   1
   2   7   1 1554.26 211.024   1
   2   7   2 255.402 183.017   1
  -2   9  -3 24103.8 674.123  -2
   2   7   3 24103.8 674.123   1
   2   7   4 327.695 189.416   1
   2   7   5-5.90780 185.263   1
   2   7   6 3677.35 434.340   1
   2 -10   6 7388.48 520.551  -2
  -2  -7  -6 7388.48 520.551   1
  -2  -8  12 1192.28 384.415   1
  -2   6  11 4157.79 414.583  -2
   2   8 -11 4157.79 414.583   1
   2   8 -10 12412.4 432.113   1
   2   8  -9 746.426 230.697   1
  -2   7   8 5677.84 364.764  -2
   2   8  -8 5677.84 364.764   1
   2  -7  -7 1712.38 290.727  -2
  -2  -8   7 1712.38 290.727   1
   2   8  -6 115.370 181.350   1
   2   8  -5 9746.77 284.994   1
  -2   8   4 5256.56 296.562  -2
   2   8  -4 5256.56 296.562   1
   2   8  -3 312.921 208.331   1
   2   8  -2 153.236 206.565   1
  -2   9   1 4490.88 341.571  -2
   2   8  -1 4490.88 341.571   1
   2  -9   0 2120.16 306.012  -2
  -2  -8   0 2120.16 306.012   1
  -2  -8  -1 78.8704 197.106   1
   2   8   2 9104.54 363.883   1
   2 -10   3-43.8168 393.593  -2
  -2  -8  -3-43.8168 393.593   1
  -2  -8  -4 1076.45 327.878   1
  -2  -8  -5 913.871 340.077   1
   2   9 -10 374.868 307.695   1
   2   9  -9 2337.07 399.956   1
  -2   8   8 3710.81 515.826  -2
   2   9  -8 3710.81 515.826   1
  -2   8   7 4433.27 493.318  -2
   2   9  -7 4433.27 493.318   1
  -2  -9   6 9228.61 581.474   1
  -2  -9   5 802.867 316.365   1
   2  -9  -4 4932.75 607.075  -2
  -2  -9   4 4932.75 607.075   1
  -2  -9   3 4386.40 437.277   1
  -2  -9   2 3542.57 412.946   1
   2 -10  -1 5800.45 530.682  -2
  -2  -9   1 5800.45 530.682   1
   2 -10   0 2529.33 470.536  -2
  -2  -9   0 2529.33 470.536   1
  -2  -9  -1 1116.67 329.485   1
  -2  -9  -2 3050.20 381.018   1
   3   9  -3 4671.11 380.238  -2
  -3  10   3 4671.11 380.238   1
   3   9  -2 1290.92 329.578  -2
  -3  10   2 1290.92 329.578   1
  -3  10   1 53.1474 219.345   1
   3 -10   0 855.947 234.275   1
  -3  -8  -1 14582.2 788.877  -2
   3 -10   1 14582.2 788.877   1
   3 -10   2 41.0097 273.878   1
   3 -10   3 4175.71 436.135   1
   3 -10   4 1674.28 389.701   1
   3   9  -6 2105.90 521.979  -2
  -3   9   6 2105.90 521.979   1
  -3   9   5 3024.36 230.294   1
   3  -9  -4 301.112 181.985   1
   3   8  -3 8734.20 334.525  -2
  -3   9   3 8734.20 334.525   1
  -3  -8   2 3223.83 281.799  -2
   3  -9  -2 3223.83 281.799   1
  -3   9   1 1517.13 197.334   1
   3  -9   0 975.222 220.145   1
   3   7   1 2285.39 316.993  -2
  -3   9  -1 2285.39 316.993   1
  -3   9  -2 799.640 165.605   1
  -3   9  -3 72.7195 150.062   1
  -3   9  -4 5767.86 334.941   1
  -3  -6  -4 7221.64 382.756  -2
   3  -9   4 7221.64 382.756   1
  -3  -6  -5 639.997 309.491  -2
   3  -9   5 639.997 309.491   1
   3  -9   6 1335.92 244.092   1
   3  -9   7 4957.76 324.972   1
  -3  -5  -8 1089.31 352.371  -2
   3  -9   8 1089.31 352.371   1
  -3   9  -9 25241.4 851.693   1
  -3   9 -10 405.841 338.489   1
   3  -8  -7 4562.06 298.053   1
  -3  -8   6 2142.23 273.551  -2
   3  -8  -6 2142.23 273.551   1
  -3   8   5 246.256 167.629   1
  -3   8   4 4661.60 233.791   1
  -3   8   3 571.125 319.925   1
  -3  -7   3 6813.96 326.125  -2
   3  -8  -3 6813.96 326.125   1
   3  -8  -2 32.8348 135.484   1
  -3  -7   2 203.999 199.147  -2
   3  -8  -2 203.999 199.147   1
   3  -8  -1 16475.8 234.536   1
   3  -8   0 2664.70 136.340   1
  -3  -6  -1 27353.4 421.409  -2
   3  -8   1 27353.4 421.409   1
  -3   8  -2 5990.29 184.646   1
   3  -8   3 629.409 114.372   1
  -3   8  -4 851.413 213.015   1
  -3  -5  -4 1723.59 250.777  -2
   3  -8   4 1723.59 250.777   1
   3   5   5 24391.0 552.700  -2
  -3   8  -5 24391.0 552.700   1
  -3   8  -6 111.903 197.209   1
  -3   8  -7 2654.51 256.723   1
   3   4   8 1042.89 305.920  -2
  -3   8  -8 1042.89 305.920   1
  -3   8  -9 15050.5 447.458   1
   3  -8  10 1300.34 244.134   1
   3   3  11 4340.94 510.554  -2
  -3   8 -11 4340.94 510.554   1
   3   3  12 535.536 435.130  -2
  -3   8 -12 535.536 435.130   1
  -3   8 -13 2581.23 400.059   1
   3  -7  -9 7182.42 525.026   1
  -3   7   8 79.3937 183.106   1
  -3   7   7 65.5477 176.552   1
   3   7  -6 2348.27 238.360  -2
  -3   7   6 2348.27 238.360   1
  -3   7   5 2026.48 168.975   1
   3  -7  -4 4459.91 200.736   1
  -3   7   3 14930.6 565.474   1
  -3  -6   3 42267.8 357.344  -2
   3  -7  -3 42267.8 357.344   1
  -3  -6   2 5471.95 158.859  -2
   3  -7  -2 5471.95 158.859   1
   3  -7  -1 8984.94 212.763   1
   3  -7   0 761.243 89.9400   1
   3   5   1 31241.6 426.812  -2
  -3   7  -1 31241.6 426.812   1
  -3   7  -2 2634.68 127.417   1
  -3   7  -3 8614.33 177.114   1
  -3   7  -4 1586.38 139.897   1
  -3  -4  -4 4234.38 249.092  -2
   3  -7   4 4234.38 249.092   1
  -3  -4  -5 330.982 142.613  -2
   3  -7   5 330.982 142.613   1
   3  -7   6 1642.57 201.616   1
  -3   7  -7 2682.51 227.620   1
  -3  -3  -8 2900.58 316.306  -2
   3  -7   8 2900.58 316.306   1
   3  -7   9 1699.30 219.338   1
  -3   7 -10 3101.79 258.332   1
  -3   7 -11 6870.43 327.792   1
  -3  -2 -12 670.922 287.058  -2
   3  -7  12 670.922 287.058   1
  -3   7 -13 26883.0 799.296   1
  -3   7 -14 30.7328 334.228   1
  -3  -7  10 5795.44 519.375  -2
   3  -6 -10 5795.44 519.375   1
  -3  -7   9 12638.3 394.566  -2
   3  -6  -9 12638.3 394.566   1
   3  -6  -8 1156.72 182.501   1
   3  -6  -7 170.503 123.895   1
   3   6  -6 14845.1 317.568  -2
  -3   6   6 14845.1 317.568   1
   3  -6  -5 2255.96 113.084   1
   3  -6  -4 101.962 33.8598   1
  -3   6   3 2246.40 131.501   1
  -3  -5   3 2356.11 100.810  -2
   3  -6  -3 2356.11 100.810   1
  -3  -5   2 3478.46 108.601  -2
   3  -6  -2 3478.46 108.601   1
   3  -6  -1 5485.68 118.437   1
   3  -6   0 1368.79 79.8345   1
  -3  -4  -1 3079.19 139.167  -2
   3  -6   1 3079.19 139.167   1
   3  -6   2 144.336 70.0510   1
  -3   6  -3 51123.5 333.530   1
  -3   6  -4 3548.72 104.111   1
   3   3   5 46707.7 361.332  -2
  -3   6  -5 46707.7 361.332   1
  -3   6  -6 7075.85 139.821   1
   3  -6   7 1375.19 180.159   1
  -3  -2  -8 2796.65 282.756  -2
   3  -6   8 2796.65 282.756   1
  -3   6  -9 6662.20 283.164   1
   3  -6  10 147.422 171.579   1
   3  -6  11 36.4592 177.213   1
  -3  -1 -12 3693.16 314.941  -2
   3  -6  12 3693.16 314.941   1
  -3   6 -13 8484.05 345.930   1
  -3   6 -14 2384.41 368.850   1
   3  -5 -11 38.8088 282.963   1
  -3   5  10 9602.87 375.436   1
  -3  -6  10 10093.0 566.487  -2
   3  -5 -10 10093.0 566.487   1
  -3  -6   9 7798.71 305.276  -2
   3  -5  -9 7798.71 305.276   1
   3  -5  -8 1865.22 117.838   1
   3  -5  -7 3608.16 117.616   1
   3   5  -6 1501.91 113.910  -2
  -3   5   6 1501.91 113.910   1
  -3   5   5 46658.6 290.657   1
  -3   5   4 65.6536 56.4071   1
  -3   5   3 2292.06 53.4891   1
   3   4  -3 26913.6 297.770  -2
  -3   5   3 26913.6 297.770   1
  -3  -4   2 8620.82 108.949  -2
   3  -5  -2 8620.82 108.949   1
   3  -5  -1 3022.80 71.7836   1
   3  -5   0 2715.49 83.7106   1
  -3  -3  -1 49437.2 343.938  -2
   3  -5   1 49437.2 343.938   1
   3  -5   2 12910.4 127.313   1
   3  -5   3 11669.9 115.499   1
   3  -5   4 270.692 38.7224   1
   3  -5   5 10741.7 91.2604   1
   3   2   5 33412.4 454.841  -2
  -3   5  -5 33412.4 454.841   1
   3  -5   6 447.252 137.777   1
   3  -5   7 25310.0 426.292   1
  -3  -1  -8 547.225 203.070  -2
   3  -5   8 547.225 203.070   1
   3  -5   9 4858.87 237.560   1
  -3   5 -10 2453.65 204.605   1
  -3   5 -11 11551.8 347.847   1
   3   0  12 2155.38 269.168  -2
  -3   5 -12 2155.38 269.168   1
   3  -5  13 2518.61 232.621   1
  -3   5 -14 2665.02 250.129   1
   3  -4 -12 889.601 309.668   1
   3  -4 -11 178.883 146.001   1
  -3   4  10 124.780 141.133   1
  -3  -5  10 276.094 342.882  -2
   3  -4 -10 276.094 342.882   1
   3   5  -9 10817.1 179.043  -2
  -3   4   9 10817.1 179.043   1
  -3   4   8 145.941 73.6869   1
  -3   4   7 5313.47 96.3857   1
  -3  -4   6 12937.5 174.322  -2
   3  -4  -6 12937.5 174.322   1
  -3   4   5 24477.3 170.694   1
   3  -4  -4 2385.38 66.0747   1
   3  -4  -3 125.796 49.8240   1
   3  -4  -2 24479.0 230.755   1
  -3  -3   2 25608.0 182.937  -2
   3  -4  -2 25608.0 182.937   1
   3  -4  -1 36959.3 176.877   1
  -3   4   0 1022.17 53.1801   1
  -3  -2  -1 1943.70 77.3432  -2
   3  -4   1 1943.70 77.3432   1
   3  -4   2 73.7905 37.4994   1
   3  -4   3 12848.7 83.7143   1
  -3   4  -4 4610.99 129.510   1
  -3   4  -5 1648.15 142.546   1
   3   1   5 3037.23 193.974  -2
  -3   4  -5 3037.23 193.974   1
  -3   4  -6 4313.87 137.306   1
  -3   4  -7 48908.8 544.841   1
  -3   0  -8 5438.78 293.742  -2
   3  -4   8 5438.78 293.742   1
   3  -4   9 36453.1 506.949   1
  -3   4 -10 1951.54 180.888   1
  -3   4 -11 1101.38 174.687   1
  -3   1 -12 3393.35 264.407  -2
   3  -4  12 3393.35 264.407   1
  -3   4 -13 950.806 186.574   1
   3  -4  14 0.96745 174.931   1
   3  -3 -15 1421.03 384.887   1
   3  -3 -14 4380.12 429.413   1
  -3  -5  13 7183.97 369.125  -2
   3  -3 -13 7183.97 369.125   1
  -3   3  12 6735.78 195.350   1
   3  -3 -11 5129.64 167.352   1
   3  -3 -10 12437.5 173.299   1
  -3  -4  10 12480.8 526.411  -2
   3  -3 -10 12480.8 526.411   1
  -3   3   9 733.590 89.7944   1
  -3  -4   9 786.353 126.637  -2
   3  -3  -9 786.353 126.637   1
  -3   3   8 262.017 64.7660   1
  -3   3   7 39.3021 50.1672   1
   3   3  -6 9294.44 121.852  -2
  -3   3   6 9294.44 121.852   1
  -3   3   5 13257.2 104.001   1
   3  -3  -4 654.617 42.8020   1
  -3   3   3 4857.10 75.9762   1
  -3  -2   3 13894.9 370.047  -2
   3  -3  -3 13894.9 370.047   1
   3  -3  -2 1719.81 48.3332   1
  -3  -2   2 6787.52 174.924  -2
   3  -3  -2 6787.52 174.924   1
  -3   3   1 147338. 286.978   1
  -3   3   0 183.867 35.4368   1
  -3  -1  -1 41055.4 246.611  -2
   3  -3   1 41055.4 246.611   1
   3  -3   2 13748.6 167.657   1
  -3   3  -3 11716.8 164.484   1
   3  -3   4 4008.44 116.868   1
   3  -3   5 46.0674 77.5385   1
  -3   3  -6 16705.0 220.152   1
   3  -3   7 1234.96 140.878   1
  -3   1  -8 12628.1 378.602  -2
   3  -3   8 12628.1 378.602   1
  -3   3  -9 3053.87 187.328   1
  -3   3 -10 38.7496 137.524   1
   3  -3  11 20009.9 405.832   1
   3  -2  12 1721.29 235.371  -2
  -3   3 -12 1721.29 235.371   1
  -3   3 -13 6896.73 291.544   1
   3  -3  14 760.313 188.255   1
   3  -3  15 22326.5 1006.41  -2
  -3   3 -15 22326.5 1006.41   1
  -3   3 -16 1812.46 412.712   1
  -3  -5  16 7861.90 597.015  -2
   3  -2 -16 7861.90 597.015   1
   3  -2 -15 357.053 325.654   1
   3  -2 -14 9351.43 306.564   1
  -3  -4  13 1831.28 255.806  -2
   3  -2 -13 1831.28 255.806   1
  -3   2  12 1023.87 121.054   1
   3  -2 -11 17925.9 177.688   1
   3  -2 -10 801.673 65.2909   1
  -3   2   9 31638.5 231.328   1
  -3  -3   9 37111.7 387.421  -2
   3  -2  -9 37111.7 387.421   1
  -3   2   8 10176.4 113.719   1
  -3   2   7 130.495 30.4150   1
   3   2  -6 3309.72 56.0414  -2
  -3   2   6 3309.72 56.0414   1
   3  -2  -5 16378.0 99.8106   1
  -3   2   4 3915.33 42.0580   1
  -3   2   3 274.962 32.3466   1
  -3  -1   3 35548.0 290.796  -2
   3  -2  -3 35548.0 290.796   1
  -3   2   2 13476.8 80.6832   1
  -3  -1   2 21025.7 455.100  -2
   3  -2  -2 21025.7 455.100   1
  -3   2   1 31769.4 128.396   1
  -3   2   0 1050.54 44.8802   1
  -3   0  -1 7780.45 86.5680  -2
   3  -2   1 7780.45 86.5680   1
  -3   2  -2 20664.8 123.262   1
   3  -2   3 77162.3 337.822   1
   3  -2   4 1852.11 40.1143   1
  -3   2  -5 18224.1 121.709   1
  -3   2  -6 896.637 54.7241   1
  -3   2  -7 22215.0 179.393   1
   3  -2   8 4224.95 151.499  -2
  -3   2  -8 4224.95 151.499   1
   3  -2   9 658.860 98.7360   1
  -3   2 -10 4511.56 158.681   1
  -3   2 -11 23977.6 323.431   1
   3  -3  12 2334.87 181.834  -2
  -3   2 -12 2334.87 181.834   1
  -3   2 -13 12325.9 271.654   1
   3  -2  14 55.7733 147.706   1
   3  -4  15 938.855 481.429  -2
  -3   2 -15 938.855 481.429   1
  -3  -4  16 9703.90 603.711  -2
   3  -1 -16 9703.90 603.711   1
  -3   1  15 201.046 170.936   1
   3  -1 -14-8.63481 166.247   1
  -3  -3  13 7388.27 261.183  -2
   3  -1 -13 7388.27 261.183   1
  -3   1  12 2915.44 137.867   1
  -3   1  11 169.734 66.0733   1
   3  -1 -10 8448.71 120.235   1
  -3   1   9 17015.4 185.244   1
  -3  -2   9 22070.9 393.747  -2
   3  -1  -9 22070.9 393.747   1
  -3   1   8 9730.80 103.810   1
  -3   1   7 22316.4 123.582   1
  -3  -1   6 29882.0 201.338  -2
   3  -1  -6 29882.0 201.338   1
  -3   1   5 27848.2 148.584   1
  -3   1   4 3933.38 61.8796   1
  -3   1   3 7989.56 88.2360   1
  -3   0   3 7401.59 298.496  -2
   3  -1  -3 7401.59 298.496   1
   3  -1  -2 12952.8 92.7582   1
  -3   0   2 14435.4 219.123  -2
   3  -1  -2 14435.4 219.123   1
  -3   1   1 19127.8 118.637   1
  -3   1   0 2389.40 74.2863   1
  -3   1  -1 14313.3 174.126  -2
   3  -1   1 14313.3 174.126   1
  -3   1  -2 128.548 67.2114   1
   3  -1   3 140726. 509.039   1
  -3   1  -4 57.3105 74.2187   1
  -3   1  -5 13490.8 136.759   1
  -3   1  -6 4989.10 98.4209   1
  -3   1  -7 1730.19 78.8973   1
   3  -3   8 12354.4 239.659  -2
  -3   1  -8 12354.4 239.659   1
  -3   1  -9 3496.71 140.222   1
  -3   1 -10 2821.32 143.801   1
  -3   1 -11 3419.62 163.818   1
  -3   4 -12 3248.51 209.122  -2
   3  -1  12 3248.51 209.122   1
   3  -1  13 545.865 124.941   1
   3  -1  14 259.902 151.003   1
  -3  -3  16 13144.1 652.910  -2
   3   0 -16 13144.1 652.910   1
  -3   0  15 7511.06 285.739   1
   3   0 -14 2207.52 202.031   1
  -3  -2  13 150.587 141.081  -2
   3   0 -13 150.587 141.081   1
   3   0 -12 754.376 83.7523   1
   3   0 -11 4795.11 119.582   1
   3   0 -10 6419.20 120.372   1
   3   0  -9 1436.83 93.4134   1
   3   1  -9 2236.58 136.413  -2
  -3   0   9 2236.58 136.413   1
   3   0  -8 1036.69 50.4738   1
  -3   0   7 42881.7 179.828   1
  -3   0   6 4034.57 60.1330  -2
   3   0  -6 4034.57 60.1330   1
  -3   0   5 72220.1 186.683   1
  -3   0   4 17981.6 92.5084   1
  -3   0   3 81.5314 40.2750   1
   3  -1  -3 6439.58 290.154  -2
  -3   0   3 6439.58 290.154   1
  -3   0   2 2119.07 61.3761   1
  -3   1   2 12208.8 223.191  -2
   3   0  -2 12208.8 223.191   1
  -3   0   1 3932.79 85.4563   1
  -3   0   0 1387.93 65.8871   1
   3  -2   1 9438.83 166.937  -2
  -3   0  -1 9438.83 166.937   1
  -3   0  -2 12728.7 163.524   1
  -3   0  -3 2564.87 101.376   1
   3   0   4 7806.83 150.742   1
  -3   0  -5 1564.41 113.609   1
   3  -3   5 1377.31 244.043  -2
  -3   0  -5 1377.31 244.043   1
  -3   0  -6 8415.13 132.151   1
  -3   0  -7 45626.3 348.650   1
   3  -4   8 5194.34 196.204  -2
  -3   0  -8 5194.34 196.204   1
  -3   0  -9 15784.0 237.573   1
   3   0  10 2547.41 159.918   1
  -3   0 -11 23978.4 348.931   1
   3  -5  12 2008.34 198.907  -2
  -3   0 -12 2008.34 198.907   1
  -3   0 -13-44.2972 183.674   1
  -3   0 -14 722.984 227.197   1
  -3  -2  16 6034.83 402.416  -2
   3   1 -16 6034.83 402.416   1
   3   1 -15 16485.1 469.073   1
   3   1 -14 73.1910 201.468   1
  -3  -1  13 6388.77 278.165  -2
   3   1 -13 6388.77 278.165   1
   3   1 -12 15934.4 226.093   1
  -3  -1  11 58.3010 78.6782   1
   3   1 -10 69.8018 70.6160   1
   3   1  -9 882.367 119.934   1
   3   0  -9 2185.37 134.038  -2
  -3  -1   9 2185.37 134.038   1
  -3  -1   8 10392.4 127.453   1
  -3  -1   7 88.5348 38.8014   1
   3  -1  -6 25530.7 198.405  -2
  -3  -1   6 25530.7 198.405   1
  -3  -1   5 19837.0 157.809   1
   3   1  -4 12572.8 113.282   1
   3   1  -3 45100.9 209.829   1
   3  -2  -3 46076.7 584.028  -2
  -3  -1   3 46076.7 584.028   1
   3   1  -2 10568.4 152.050   1
  -3   2   2 21226.5 237.523  -2
   3   1  -2 21226.5 237.523   1
   3   1  -1 59481.6 227.037   1
   3   1   0 6477.11 104.296   1
  -3   3  -1 48730.4 311.957  -2
   3   1   1 48730.4 311.957   1
  -3  -1  -2 19268.1 168.449   1
  -3  -1  -3 11928.9 179.829   1
  -3  -1  -4 10066.0 176.201   1
  -3  -1  -5 1933.42 154.355   1
  -3   4  -5 3002.76 195.318  -2
   3   1   5 3002.76 195.318   1
  -3  -1  -6 48.5385 88.6246   1
  -3  -1  -7 42710.4 368.404   1
   3  -5   8 804.824 117.731  -2
  -3  -1  -8 804.824 117.731   1
  -3  -1  -9 1345.18 110.553   1
  -3  -1 -10 28.6563 99.6970   1
  -3  -1 -11 211.200 120.617   1
   3  -6  11 632.317 357.986  -2
  -3  -1 -11 632.317 357.986   1
   3  -6  12 4833.44 327.983  -2
  -3  -1 -12 4833.44 327.983   1
  -3  -1 -13 4648.08 294.449   1
  -3  -1 -14 615.038 343.248   1
   3   1 -16 7144.01 561.777  -2
  -3  -2  16 7144.01 561.777   1
  -3  -2  15 1448.22 239.555   1
   3   2 -14 3281.68 190.647   1
   3   0 -13 67.5141 146.282  -2
  -3  -2  13 67.5141 146.282   1
   3   2 -12 19061.6 255.962   1
   3   2 -11 22626.9 262.179   1
   3   2 -10 2131.56 130.421   1
   3  -1 -10 8815.33 316.203  -2
  -3  -2  10 8815.33 316.203   1
   3   2  -9 6118.49 122.485   1
   3  -1  -9 19992.7 325.556  -2
  -3  -2   9 19992.7 325.556   1
   3   2  -8 396.948 58.6640   1
   3   2  -7 18001.9 159.086   1
   3  -2  -6 4015.48 110.661  -2
  -3  -2   6 4015.48 110.661   1
  -3  -2   5 5240.48 98.3189   1
   3   2  -4 11327.1 119.148   1
   3   2  -3 12402.9 141.480   1
   3  -3  -3 14844.8 401.462  -2
  -3  -2   3 14844.8 401.462   1
  -3  -2   2 6685.35 232.798   1
  -3   3   2 7713.92 123.813  -2
   3   2  -2 7713.92 123.813   1
  -3  -2   1 81210.2 297.141   1
   3   2   0 8858.72 124.820   1
   3  -4   1 1693.79 93.3836  -2
  -3  -2  -1 1693.79 93.3836   1
  -3  -2  -2 428.196 51.7763   1
  -3  -2  -3 26.5537 37.8585   1
   3   2   4 79.1470 35.2731   1
   3   2   5 21589.3 188.406   1
  -3   5  -5 35287.0 478.319  -2
   3   2   5 35287.0 478.319   1
  -3  -2  -6 7264.27 253.749   1
  -3  -2  -7 134.063 59.5160   1
   3  -6   8 3040.96 130.817  -2
  -3  -2  -8 3040.96 130.817   1
  -3  -2  -9 2105.72 106.794   1
  -3  -2 -10 990.128 157.727   1
  -3  -2 -11 13570.7 409.076   1
   3  -7  11 18859.7 673.660  -2
  -3  -2 -11 18859.7 673.660   1
   3  -7  12 810.007 234.594  -2
  -3  -2 -12 810.007 234.594   1
  -3  -2 -13 6452.36 473.216   1
  -3  -2 -14 810.113 379.506   1
   3   0 -16 10807.1 635.270  -2
  -3  -3  16 10807.1 635.270   1
   3   3 -15 2818.47 267.259   1
  -3  -3  14 350.622 148.809   1
   3  -1 -13 6070.17 302.384  -2
  -3  -3  13 6070.17 302.384   1
   3   3 -12 1571.98 128.004   1
   3   3 -11 29043.0 351.548   1
  -3  -3  10 159.052 83.1810   1
   3  -2 -10 766.125 228.691  -2
  -3  -3  10 766.125 228.691   1
   3   3  -9 6400.69 281.865   1
   3  -2  -9 32005.1 306.016  -2
  -3  -3   9 32005.1 306.016   1
  -3  -3   8 25952.7 228.385   1
  -3  -3   7 373.901 73.9930   1
   3  -3  -6 7141.23 173.621  -2
  -3  -3   6 7141.23 173.621   1
   3   3  -5 1386.07 83.2617   1
   3   3  -4 21314.6 185.140   1
  -3  -3   3 7448.11 143.737   1
   3  -4  -3 7100.68 344.954  -2
  -3  -3   3 7100.68 344.954   1
   3   3  -2 700.080 131.695   1
  -3   4   2 20676.0 202.211  -2
   3   3  -2 20676.0 202.211   1
  -3  -3   1 6626.07 104.474   1
   3   3   0 604.188 58.5226   1
  -3   5  -1 54645.5 596.080  -2
   3   3   1 54645.5 596.080   1
  -3  -3  -2 2214.52 116.334   1
   3   3   3 32508.0 373.304   1
   3   3   4 2582.14 261.309   1
   3  -6   4 5405.51 355.900  -2
  -3  -3  -4 5405.51 355.900   1
  -3   6  -5 50936.9 621.415  -2
   3   3   5 50936.9 621.415   1
  -3  -3  -6 9316.47 296.118   1
  -3  -3  -7 7002.66 229.267   1
   3  -7   8 2415.11 243.638  -2
  -3  -3  -8 2415.11 243.638   1
  -3  -3  -9 271.402 152.664   1
  -3  -3 -10-8.38310 164.359   1
  -3  -3 -11 4636.79 434.622   1
  -3   8 -11 5430.69 352.036  -2
   3   3  11 5430.69 352.036   1
   3  -8  12 726.303 301.967  -2
  -3  -3 -12 726.303 301.967   1
   3  -1 -16 9196.74 642.972  -2
  -3  -4  16 9196.74 642.972   1
  -3  -4  15 62.2627 294.051   1
   3   4 -14 528.486 160.143   1
   3  -2 -13 2102.72 239.494  -2
  -3  -4  13 2102.72 239.494   1
   3   4 -12 10221.6 327.453   1
   3   4 -11 1505.02 184.195   1
  -3  -4  10 522.045 132.114   1
  -3   3  10 10104.1 320.821  -2
   3   4 -10 10104.1 320.821   1
   3  -3  -9 620.223 126.182  -2
  -3  -4   9 620.223 126.182   1
   3   4  -8 11876.1 181.043   1
  -3  -4   7 42956.6 315.141   1
   3  -4  -6 10316.9 225.298  -2
  -3  -4   6 10316.9 225.298   1
  -3  -4   5 16690.4 201.512   1
   3   4  -4 426.460 67.8626   1
   3   4  -3 32100.9 332.388   1
  -3   5   3 33399.1 456.499  -2
   3   4  -3 33399.1 456.499   1
  -3   5   2 7828.22 155.473  -2
   3   4  -2 7828.22 155.473   1
  -3  -4   1 54.3406 67.7932   1
   3   4   0 7041.06 113.023   1
  -3   6  -1 3900.20 157.694  -2
   3   4   1 3900.20 157.694   1
  -3  -4  -2 2402.69 186.496   1
  -3  -4  -3 14914.4 347.412   1
  -3   7  -4 4972.46 270.281  -2
   3   4   4 4972.46 270.281   1
  -3   7  -5 167.296 205.032  -2
   3   4   5 167.296 205.032   1
   3   4   6 830.540 176.111   1
  -3  -4  -7 408.807 152.078   1
   3  -8   8 770.431 230.359  -2
  -3  -4  -8 770.431 230.359   1
  -3  -4  -9 17678.1 381.703   1
   3   4  10 2402.63 214.350   1
   3  -9  11 698.598 439.001  -2
  -3  -4 -11 698.598 439.001   1
  -3  -5  15 6595.55 473.286   1
  -3  -5  14 457.200 178.169   1
   3  -3 -13 6075.66 408.241  -2
  -3  -5  13 6075.66 408.241   1
  -3  -5  12 147.103 182.421   1
   3   5 -11 5272.45 271.870   1
  -3   4  10 714.718 228.856  -2
   3   5 -10 714.718 228.856   1
   3  -4  -9 8228.37 248.454  -2
  -3  -5   9 8228.37 248.454   1
  -3  -5   8 1547.36 119.091   1
  -3  -5   7 23717.5 293.760   1
  -3   5   6 1211.50 171.835  -2
   3   5  -6 1211.50 171.835   1
   3   5  -5 2797.41 137.603   1
   3   5  -4 12898.4 251.265   1
  -3   6   3 2091.80 155.470  -2
   3   5  -3 2091.80 155.470   1
  -3   6   2 2808.83 154.732  -2
   3   5  -2 2808.83 154.732   1
   3   5  -1 5651.28 152.808   1
   3   5   0 6505.62 136.185   1
  -3   7  -1 33045.6 682.221  -2
   3   5   1 33045.6 682.221   1
  -3  -5  -2 670.456 166.094   1
   3   5   3 22.6823 160.050   1
   3  -8   4 1494.51 247.624  -2
  -3  -5  -4 1494.51 247.624   1
  -3   8  -5 23124.7 541.602  -2
   3   5   5 23124.7 541.602   1
  -3  -5  -6 1751.71 215.858   1
  -3  -5  -7 7646.61 277.477   1
   3  -9   8 1248.81 258.634  -2
  -3  -5  -8 1248.81 258.634   1
  -3  -5  -9 6423.51 351.096   1
  -3  -5 -10 3962.50 418.229   1
  -3  -6  14 4601.27 444.872   1
   3  -4 -13 4567.83 576.148  -2
  -3  -6  13 4567.83 576.148   1
  -3  -6  12 7836.75 346.914   1
  -3  -6  11 66.5146 196.895   1
  -3   5  10 6821.68 347.384  -2
   3   6 -10 6821.68 347.384   1
  -3   5   9 8633.40 366.580  -2
   3   6  -9 8633.40 366.580   1
   3   6  -8 10019.1 341.041   1
   3   6  -7 1033.33 138.263   1
   3  -6  -6 12494.9 335.057  -2
  -3  -6   6 12494.9 335.057   1
   3   6  -5 47.9497 118.902   1
   3   6  -4 1602.05 142.373   1
   3   6  -3 34334.6 791.643   1
   3  -7  -3 45757.5 520.840  -2
  -3  -6   3 45757.5 520.840   1
   3  -7  -2 4334.50 189.030  -2
  -3  -6   2 4334.50 189.030   1
  -3  -6   1 6650.53 169.205   1
   3   6   0 37.4129 171.039   1
  -3   8  -1 28858.7 699.695  -2
   3   6   1 28858.7 699.695   1
   3   6   2 2532.36 228.632   1
   3   6   3 576.641 194.056   1
   3  -9   4 8005.75 376.163  -2
  -3  -6  -4 8005.75 376.163   1
   3  -9   5 670.965 269.652  -2
  -3  -6  -5 670.965 269.652   1
  -3  -6  -6 632.256 206.303   1
  -3  -6  -7 678.062 301.887   1
   3 -10   8 2730.14 520.845  -2
  -3  -6  -8 2730.14 520.845   1
  -3  -7  14 166.158 399.537   1
   3  -5 -13 5641.97 642.661  -2
  -3  -7  13 5641.97 642.661   1
   3   7 -12 3255.55 286.088   1
  -3  -7  11 6713.86 347.769   1
  -3   6  10 4371.38 350.076  -2
   3   7 -10 4371.38 350.076   1
   3  -6  -9 12358.0 464.545  -2
  -3  -7   9 12358.0 464.545   1
   3   7  -8 38.6092 187.892   1
   3   7  -7 5564.76 283.156   1
  -3   7   6 2471.14 247.651  -2
   3   7  -6 2471.14 247.651   1
   3   7  -5 3989.35 199.705   1
   3   7  -4 986.463 144.471   1
  -3   8   3 8999.36 255.205  -2
   3   7  -3 8999.36 255.205   1
  -3   8   2 257.228 263.156  -2
   3   7  -2 257.228 263.156   1
  -3  -7   1 264.212 203.568   1
   3   7   0 3909.08 276.487   1
  -3   9  -1 2125.17 326.006  -2
   3   7   1 2125.17 326.006   1
   3   7   2 1527.74 231.601   1
   3   7   3 4459.27 293.258   1
   3 -10   4 3767.96 480.100  -2
  -3  -7  -4 3767.96 480.100   1
   3 -10   5 23935.0 891.049  -2
  -3  -7  -5 23935.0 891.049   1
  -3  -7  -6 85.1261 306.942   1
   3   8 -11 7551.38 513.217   1
  -3   7  10 2225.99 453.827  -2
   3   8 -10 2225.99 453.827   1
  -3   7   9 8276.21 585.180  -2
   3   8  -9 8276.21 585.180   1
   3   8  -8 3048.06 371.515   1
   3   8  -7 182.205 165.961   1
  -3   8   6 1725.51 248.361  -2
   3   8  -6 1725.51 248.361   1
   3   8  -5 12846.8 434.259   1
  -3  -8   4 5220.06 317.499   1
  -3   9   3 9009.40 416.194  -2
   3   8  -3 9009.40 416.194   1
   3  -9  -2 2962.16 356.266  -2
  -3  -8   2 2962.16 356.266   1
  -3  -8   1 107.256 207.143   1
  -3  -8   0 1600.33 332.799   1
   3 -10   1 17823.9 901.655  -2
  -3  -8  -1 17823.9 901.655   1
  -3  -8  -2 278.408 281.778   1
  -3  -8  -3 1357.53 335.471   1
  -4  10   3 1010.30 252.051   1
   4 -10  -2 1932.99 268.901   1
  -4  -8   1 861.671 320.814  -2
   4 -10  -1 861.671 320.814   1
   4 -10   2 95.2659 297.816   1
  -4  -7  -3 7310.99 631.452  -2
   4 -10   3 7310.99 631.452   1
   4 -10   4 6538.38 512.628   1
  -4   9   6-74.4535 344.376   1
  -4  -8   5 3069.98 282.604  -2
   4  -9  -5 3069.98 282.604   1
  -4  -8   4 1505.48 265.017  -2
   4  -9  -4 1505.48 265.017   1
  -4   9   3 7925.72 291.863   1
  -4   9   2 3346.60 227.581   1
   4   7  -1 16638.2 583.183  -2
  -4   9   1 16638.2 583.183   1
  -4   9   0 368.676 184.575   1
  -4   9  -1 673.620 156.427   1
  -4   9  -2 151.734 222.678   1
  -4  -6  -2 3300.32 305.905  -2
   4  -9   2 3300.32 305.905   1
  -4  -6  -3 26026.9 640.172  -2
   4  -9   3 26026.9 640.172   1
  -4   9  -4 1623.32 254.627   1
   4  -9   5 116.027 214.090   1
  -4  -5  -6 33.1769 285.708  -2
   4  -9   6 33.1769 285.708   1
   4  -9   7 2693.19 276.693   1
  -4   9  -8 10949.6 433.133   1
   4  -8  -7 4288.13 301.745   1
   4  -8  -6 374.725 171.014   1
  -4  -7   5 14647.3 351.346  -2
   4  -8  -5 14647.3 351.346   1
  -4  -7   4 3868.78 262.634  -2
   4  -8  -4 3868.78 262.634   1
  -4   8   3 2075.98 186.535   1
   4  -8  -2 2855.43 171.759   1
  -4  -6   1 6909.05 286.486  -2
   4  -8  -1 6909.05 286.486   1
  -4   8   0 513.953 114.585   1
   4  -8   1 7344.23 192.368   1
   4  -8   2 1147.32 142.756   1
  -4  -5  -3 356.289 161.842  -2
   4  -8   3 356.289 161.842   1
   4  -8   4 432.583 115.553   1
  -4   8  -5 6256.93 311.397   1
  -4  -4  -6 204.856 270.223  -2
   4  -8   6 204.856 270.223   1
  -4   8  -7 7559.53 343.245   1
  -4   8  -8 11067.2 397.955   1
  -4   8  -9 3201.76 276.826   1
   4   3  10 365.093 425.799  -2
  -4   8 -10 365.093 425.799   1
  -4   8 -11 11598.2 600.971   1
  -4   8 -12 1092.63 384.629   1
   4  -7  -9 46.2929 311.707   1
  -4  -7   8 3726.33 361.163  -2
   4  -7  -8 3726.33 361.163   1
  -4   7   7 2653.69 192.131   1
  -4   7   6 565.787 145.579   1
  -4   7   5 274.410 265.845   1
   4   6  -5 2230.48 232.655  -2
  -4   7   5 2230.48 232.655   1
  -4  -6   4 391.351 180.692  -2
   4  -7  -4 391.351 180.692   1
  -4   7   3 10962.0 219.858   1
   4  -7  -2 1858.66 101.371   1
  -4  -5   1 16104.4 245.019  -2
   4  -7  -1 16104.4 245.019   1
   4  -7   0 4207.25 115.052   1
  -4   7  -1 21476.6 228.735   1
  -4   7  -2 5990.24 147.503   1
  -4  -4  -2 7486.78 365.247  -2
   4  -7   2 7486.78 365.247   1
  -4  -4  -3 32919.3 293.010  -2
   4  -7   3 32919.3 293.010   1
   4  -7   4 44.9179 59.8884   1
   4  -7   5 662.366 66.7053   1
  -4  -3  -6 1373.55 268.987  -2
   4  -7   6 1373.55 268.987   1
  -4   7  -7 11985.1 371.568   1
   4  -7   8 684.018 204.303   1
   4  -7   9 1568.05 230.150   1
  -4  -2 -10 2545.48 315.892  -2
   4  -7  10 2545.48 315.892   1
  -4   7 -11 280.152 205.451   1
  -4   7 -12 13760.5 620.147   1
   4   1  13 11216.3 762.693  -2
  -4   7 -13 11216.3 762.693   1
  -4   7 -14 540.004 400.434   1
   4  -6 -10 1031.89 316.450   1
   4  -6  -9 3485.96 388.484   1
  -4  -6   8 384.662 169.765  -2
   4  -6  -8 384.662 169.765   1
  -4   6   7 23055.4 339.647   1
  -4   6   6 3337.08 138.636   1
  -4   6   5 2131.61 298.207   1
  -4  -5   5 25121.7 317.226  -2
   4  -6  -5 25121.7 317.226   1
  -4  -5   4 2950.45 139.828  -2
   4  -6  -4 2950.45 139.828   1
   4  -6  -3 4052.34 81.2468   1
   4  -6  -2 220.452 56.1197   1
  -4  -4   1 45370.3 329.942  -2
   4  -6  -1 45370.3 329.942   1
   4  -6   0 9498.29 135.929   1
  -4   6  -1 1361.89 74.3924   1
   4  -6   2 12320.5 151.834   1
  -4  -3  -3 12175.3 145.885  -2
   4  -6   3 12175.3 145.885   1
   4  -6   4 6142.33 79.9697   1
  -4   6  -5 19060.7 397.445   1
  -4  -2  -6 724.210 220.430  -2
   4  -6   6 724.210 220.430   1
   4  -6   7 1936.39 197.618   1
   4  -6   8 270.034 171.268   1
  -4   6  -9 12385.5 374.301   1
  -4  -1 -10 2427.74 290.766  -2
   4  -6  10 2427.74 290.766   1
  -4   6 -11 8128.64 338.658   1
  -4   6 -12 6030.12 315.421   1
   4   0  13 6675.82 618.850  -2
  -4   6 -13 6675.82 618.850   1
  -4   6 -14 710.879 333.818   1
  -4  -6  11 11195.8 667.416  -2
   4  -5 -11 11195.8 667.416   1
   4  -5 -10 1434.62 320.024   1
   4  -5  -9 2780.10 185.368   1
  -4  -5   8 4729.09 192.105  -2
   4  -5  -8 4729.09 192.105   1
  -4   5   7 2641.16 104.121   1
   4  -5  -6 7220.65 138.380   1
  -4   5   5 666.365 72.7689   1
  -4  -4   4 6398.56 137.840  -2
   4  -5  -4 6398.56 137.840   1
   4  -5  -3 20478.8 193.990   1
   4  -5  -2 47.3558 44.8576   1
  -4  -3   1 1864.18 85.2355  -2
   4  -5  -1 1864.18 85.2355   1
   4  -5   0 5315.95 91.8688   1
   4  -5   1 29757.4 195.793   1
  -4   5  -2 2671.06 83.3767   1
   4  -5   3 5921.84 100.972   1
   4   2   3 17576.9 281.436  -2
  -4   5  -3 17576.9 281.436   1
  -4   5  -4 15932.8 267.793   1
   4  -5   5 27626.5 437.169   1
  -4  -1  -6 17682.8 466.397  -2
   4  -5   6 17682.8 466.397   1
   4  -5   7 9645.75 297.119   1
  -4   5  -8 977.398 171.821   1
   4  -5   9 294.793 167.577   1
  -4   0 -10 17494.6 454.601  -2
   4  -5  10 17494.6 454.601   1
  -4   5 -11 3413.22 251.532   1
  -4   5 -12 34.6275 189.812   1
  -4   1 -13 5782.16 419.296  -2
   4  -5  13 5782.16 419.296   1
  -4   5 -14 198.759 314.887   1
  -4   4  12 6575.31 510.533   1
  -4  -5  12 7185.97 524.701  -2
   4  -4 -12 7185.97 524.701   1
  -4  -5  11 5837.52 378.929  -2
   4  -4 -11 5837.52 378.929   1
  -4   4  10 318.001 203.028   1
   4  -4  -9 1679.57 122.681   1
  -4  -4   8 3353.04 116.844  -2
   4  -4  -8 3353.04 116.844   1
  -4   4   7 15671.8 151.862   1
  -4   4   6 10567.8 148.819   1
   4  -4  -5 9092.12 104.353   1
  -4   4   4 113.101 120.002   1
  -4  -3   4 6768.81 109.161  -2
   4  -4  -4 6768.81 109.161   1
  -4   4   3 54545.7 180.785   1
   4  -4  -2 8816.10 86.9445   1
  -4  -2   1 51281.1 264.340  -2
   4  -4  -1 51281.1 264.340   1
   4  -4   0 544.979 50.1159   1
  -4   4  -1 6691.09 106.727   1
  -4   4  -2 1969.80 98.0622   1
  -4   4  -3 1042.82 131.663   1
   4   1   3 20630.4 335.497  -2
  -4   4  -3 20630.4 335.497   1
  -4   4  -4 11572.1 191.862   1
  -4   4  -5 6425.14 160.381   1
   4   0   6 27115.3 521.115  -2
  -4   4  -6 27115.3 521.115   1
   4  -4   7 270.176 137.867   1
  -4   4  -8 6431.67 255.434   1
  -4   4  -9 15284.8 371.552   1
  -4   1 -10 3353.68 269.533  -2
   4  -4  10 3353.68 269.533   1
   4  -4  11 1867.95 211.190   1
   4  -4  12 163.539 183.334   1
  -4   2 -13 19395.9 618.413  -2
   4  -4  13 19395.9 618.413   1
  -4   4 -14 5247.47 429.091   1
   4  -3 -14 3021.60 414.221   1
  -4   3  13 11224.6 333.053   1
   4  -3 -12 2453.20 258.789   1
  -4  -4  12 3473.69 446.041  -2
   4  -3 -12 3473.69 446.041   1
   4   4 -11 17243.7 485.045  -2
  -4   3  11 17243.7 485.045   1
   4  -3 -10 33.8400 76.0021   1
  -4   3   9 18.6637 47.0618   1
  -4  -3   8 2509.38 98.5153  -2
   4  -3  -8 2509.38 98.5153   1
   4  -3  -7 10959.5 127.976   1
  -4   3   6 4600.46 64.4827   1
   4  -3  -5 63.1311 32.2950   1
  -4   3   4 5567.42 112.460   1
  -4  -2   4 5499.84 107.853  -2
   4  -3  -4 5499.84 107.853   1
  -4   3   3 237.525 35.3474   1
  -4   3   2 30195.6 135.152   1
  -4  -1   1 10452.7 110.810  -2
   4  -3  -1 10452.7 110.810   1
  -4   3   0 181.708 42.9658   1
  -4   3  -1 47960.7 195.504   1
  -4   3  -2-5.84979 31.4578   1
   4  -3   3 5623.34 133.102   1
  -4   0  -3 7045.77 321.504  -2
   4  -3   3 7045.77 321.504   1
  -4   3  -4 5417.55 138.604   1
   4  -3   5 42293.7 347.881   1
  -4   1  -6 1440.96 198.165  -2
   4  -3   6 1440.96 198.165   1
  -4   3  -7 10275.8 283.989   1
   4  -3   8 18316.6 376.600   1
   4  -3   9 7706.22 151.455   1
  -4   3 -10 12413.3 257.822   1
  -4   2 -10 16276.3 410.612  -2
   4  -3  10 16276.3 410.612   1
   4  -3  11 1507.50 200.896   1
  -4   3 -12 2715.34 232.670   1
  -4   3 -13 320.666 256.841  -2
   4  -3  13 320.666 256.841   1
  -4   3 -14 9238.61 505.215   1
  -4   3 -15 624.844 360.259   1
  -4  -4  15 4661.70 581.911  -2
   4  -2 -15 4661.70 581.911   1
   4  -2 -14 4646.31 257.156   1
   4  -2 -13 203.348 164.132   1
   4  -2 -12 206.363 159.948   1
  -4   2  11 1859.29 132.412   1
  -4  -3  11 5994.02 264.751  -2
   4  -2 -11 5994.02 264.751   1
  -4   2  10 828.751 35.4372   1
   4  -2  -9 19093.6 162.207   1
  -4  -2   8 9771.13 148.404  -2
   4  -2  -8 9771.13 148.404   1
   4  -2  -7 12777.2 131.919   1
  -4   2   6 43.1638 39.4276   1
   4  -2  -5 11608.1 115.074   1
   4  -2  -4 7407.84 107.321   1
  -4  -1   4 10412.0 268.446  -2
   4  -2  -4 10412.0 268.446   1
  -4   2   3 42763.4 138.887   1
   4  -2  -2 20907.7 114.806   1
   4   0  -1 29606.6 171.404  -2
  -4   2   1 29606.6 171.404   1
   4  -2   0 2040.62 63.3003   1
  -4   2  -1 54629.8 254.433   1
   4  -2   2 16234.1 146.249   1
   4  -2   3 154.587 76.0059   1
  -4   2  -4 1953.49 103.521   1
  -4   2  -5 4112.04 76.4367   1
   4  -2   6 27541.8 229.910  -2
  -4   2  -6 27541.8 229.910   1
   4  -2   7 3131.74 92.4810   1
  -4   2  -8 8249.94 151.711   1
  -4   2  -9 6636.36 155.445   1
   4  -3  10 15437.0 272.549  -2
  -4   2 -10 15437.0 272.549   1
  -4   2 -11 1421.13 137.580   1
   4  -2  12 1934.97 220.284   1
  -4   4 -13 19502.1 618.063  -2
   4  -2  13 19502.1 618.063   1
  -4   2 -14 23.5957 216.243   1
  -4  -3  15 1464.99 451.389  -2
   4  -1 -15 1464.99 451.389   1
   4  -1 -14 601.361 172.652   1
  -4   1  13 7880.29 278.866   1
   4  -1 -12 30.4772 147.842   1
  -4   1  11 8740.05 296.301   1
  -4  -2  11 8273.83 140.128  -2
   4  -1 -11 8273.83 140.128   1
  -4   1  10 10523.7 194.951   1
  -4   1   9 24931.0 269.689   1
  -4  -1   8 2716.43 141.372  -2
   4  -1  -8 2716.43 141.372   1
  -4   1   7 21048.5 163.052   1
  -4   1   6 1459.98 55.9807   1
   4  -1  -5 16.8200 44.2016   1
  -4   1   4 45.3862 66.9890   1
  -4   0   4 3327.36 193.240  -2
   4  -1  -4 3327.36 193.240   1
   4  -1  -3 7277.33 71.0295   1
  -4   1   2 3398.58 64.1820   1
   4  -1  -1 24759.7 182.933  -2
  -4   1   1 24759.7 182.933   1
   4  -1   0 13880.3 157.390   1
  -4   1  -1 2491.88 92.3497   1
  -4   1  -2 34637.3 273.662   1
  -4   1  -3 15860.7 232.733   1
   4  -2   3 15176.3 424.883  -2
  -4   1  -3 15176.3 424.883   1
  -4   1  -4 123.710 80.8229   1
  -4   1  -5 33179.5 315.782   1
   4  -3   6 1404.33 121.785  -2
  -4   1  -6 1404.33 121.785   1
  -4   1  -7 3976.21 124.051   1
  -4   1  -8 6896.53 158.629   1
  -4   1  -9 30368.6 307.495   1
   4  -4  10 3890.93 191.407  -2
  -4   1 -10 3890.93 191.407   1
  -4   1 -11 1423.78 178.729   1
  -4   1 -12 1020.95 183.362   1
   4  -5  13 4398.04 315.880  -2
  -4   1 -13 4398.04 315.880   1
  -4   1 -14 5508.70 430.053   1
  -4  -2  15 4345.96 413.005  -2
   4   0 -15 4345.96 413.005   1
   4   0 -14 2330.04 255.385   1
  -4   0  13-0.62758 205.978   1
   4   0 -12 998.148 204.338   1
  -4  -1  11 5364.62 151.941  -2
   4   0 -11 5364.62 151.941   1
   4   0 -10 11038.4 162.130   1
  -4   0   9 3767.06 155.685   1
   4   0  -8 2968.87 180.587  -2
  -4   0   8 2968.87 180.587   1
  -4   0   7 988.489 63.8430   1
  -4   0   6 17035.6 196.181   1
   4   0  -5 49161.2 163.083   1
  -4   1   5 55161.6 767.400  -2
   4   0  -5 55161.6 767.400   1
  -4   0   4 3924.92 98.3093   1
  -4   1   4 4145.32 90.8363  -2
   4   0  -4 4145.32 90.8363   1
  -4   0   3 26834.3 167.526   1
  -4   0   2 32.0941 48.5321   1
   4  -2  -1 33448.8 257.304  -2
  -4   0   1 33448.8 257.304   1
  -4   0   0 24334.4 196.190   1
   4   0   1 49064.1 281.897   1
  -4   0  -2 10711.4 171.621   1
   4   0   3 1486.09 135.341   1
  -4   3  -3 5961.10 229.697  -2
   4   0   3 5961.10 229.697   1
  -4   0  -4 431.667 88.3387   1
   4   0   5 14812.6 321.306   1
   4  -4   6 25401.8 414.426  -2
  -4   0  -6 25401.8 414.426   1
  -4   0  -7 2493.09 126.183   1
  -4   0  -8 3795.10 145.638   1
  -4   0  -9 141.015 105.978   1
   4  -5  10 18081.8 364.895  -2
  -4   0 -10 18081.8 364.895   1
  -4   0 -11 786.912 128.075   1
   4   0  12 1982.62 217.653   1
  -4  -1  15 924.000 304.012  -2
   4   1 -15 924.000 304.012   1
   4   1 -14 751.482 222.148   1
   4   1 -13 20951.4 490.817   1
   4   1 -12 2986.34 241.889   1
   4   0 -12 3075.49 225.023  -2
  -4  -1  12 3075.49 225.023   1
   4   1 -11 4765.63 192.284   1
  -4   0  11 6239.49 196.274  -2
   4   1 -11 6239.49 196.274   1
  -4  -1  10 507.699 69.5204   1
   4   1  -9 27893.9 221.062   1
  -4   1   8 2362.30 100.022  -2
   4   1  -8 2362.30 100.022   1
   4   1  -7 6122.50 91.7881   1
  -4  -1   6 22695.6 159.921   1
   4   1  -5 11435.2 117.581   1
   4  -2  -5 20859.5 503.735  -2
  -4  -1   5 20859.5 503.735   1
  -4  -1   4 4337.43 248.707   1
  -4   2   4 9841.49 129.099  -2
   4   1  -4 9841.49 129.099   1
  -4  -1   3 23221.2 198.028   1
   4   1  -2 1712.57 71.6685   1
   4  -3  -1 10361.6 161.675  -2
  -4  -1   1 10361.6 161.675   1
   4   1   0 5753.66 113.038   1
   4   1   1 3240.17 95.3971   1
  -4  -1  -2-15.5388 62.5936   1
  -4  -1  -3 24056.7 302.263   1
   4  -4   3 24707.0 319.511  -2
  -4  -1  -3 24707.0 319.511   1
  -4  -1  -4 12604.4 299.391   1
   4   1   5 8781.78 270.485   1
  -4   5  -6 16728.7 476.575  -2
   4   1   6 16728.7 476.575   1
  -4  -1  -7 10965.7 219.818   1
  -4  -1  -8 26.8852 128.456   1
  -4  -1  -9 13345.3 232.215   1
   4  -6  10 1710.11 224.217  -2
  -4  -1 -10 1710.11 224.217   1
   4   1  11 270.564 157.471   1
   4   1  12 5441.05 259.244   1
   4  -7  13 12291.2 745.637  -2
  -4  -1 -13 12291.2 745.637   1
   4   0 -15 4444.02 562.474  -2
  -4  -2  15 4444.02 562.474   1
   4   2 -14 4142.92 290.455   1
  -4  -2  13 14779.2 428.878   1
  -4  -2  12 2601.18 237.149   1
   4  -1 -12 2868.74 263.431  -2
  -4  -2  12 2868.74 263.431   1
   4   2 -11 736.848 163.036   1
  -4   1  11 7510.97 229.523  -2
   4   2 -11 7510.97 229.523   1
   4   2 -10 1396.69 106.874   1
  -4  -2   9 154.937 64.1483   1
   4  -2  -8 7790.42 192.113  -2
  -4  -2   8 7790.42 192.113   1
  -4  -2   7 67.1687 65.5461   1
  -4  -2   6 22748.9 179.298   1
   4   2  -5 18321.5 170.486   1
   4  -3  -5 18645.1 473.273  -2
  -4  -2   5 18645.1 473.273   1
  -4  -2   4 55.7544 161.772   1
  -4   3   4 4513.49 115.914  -2
   4   2  -4 4513.49 115.914   1
   4   2  -3 2858.63 83.4478   1
  -4  -2   2 9285.66 128.770   1
  -4   4   1 62171.7 419.042  -2
   4   2  -1 62171.7 419.042   1
   4   2   0 99.9712 59.0591   1
   4   2   1 11027.5 152.319   1
  -4  -2  -2 1005.31 79.4469   1
  -4  -2  -3 13659.5 232.683   1
   4  -5   3 18724.6 385.424  -2
  -4  -2  -3 18724.6 385.424   1
  -4  -2  -4 25017.4 235.781   1
  -4  -2  -5 19463.6 203.372   1
  -4   6  -6 512.868 76.5785  -2
   4   2   6 512.868 76.5785   1
  -4  -2  -7 12.0812 163.918   1
  -4  -2  -8 188.918 142.284   1
  -4  -2  -9 2250.63 232.869   1
  -4   7  -9 3421.29 436.049  -2
   4   2   9 3421.29 436.049   1
   4  -7  10 2526.45 257.781  -2
  -4  -2 -10 2526.45 257.781   1
  -4  -2 -11 4039.50 240.858   1
  -4  -2 -12 1151.33 238.053   1
   4  -8  13 12.1813 535.799  -2
  -4  -2 -13 12.1813 535.799   1
   4  -1 -15 1230.11 448.604  -2
  -4  -3  15 1230.11 448.604   1
   4   3 -14 9312.51 376.215   1
  -4  -3  13 658.132 213.701   1
   4   3 -12 1771.41 327.244   1
   4  -2 -12 1732.60 286.604  -2
  -4  -3  12 1732.60 286.604   1
   4  -2 -11 6182.82 284.012  -2
  -4  -3  11 6182.82 284.012   1
  -4  -3  10 107.678 83.6994   1
  -4  -3   9 34658.3 275.663   1
  -4   3   8 2368.42 159.019  -2
   4   3  -8 2368.42 159.019   1
  -4  -3   7 5513.59 136.132   1
  -4  -3   6 2085.56 88.6176   1
   4   3  -5 28442.1 252.182   1
  -4   4   5 34580.6 582.683  -2
   4   3  -5 34580.6 582.683   1
  -4  -3   4 8845.62 339.500   1
  -4   4   4 8118.46 161.034  -2
   4   3  -4 8118.46 161.034   1
  -4  -3   3 5031.52 100.676   1
  -4  -3   2 16605.9 168.042   1
  -4   5   1 1577.04 102.776  -2
   4   3  -1 1577.04 102.776   1
   4   3   0 1219.60 86.6257   1
   4   3   1 8811.18 269.096   1
  -4  -3  -2 392.742 142.277   1
  -4   6  -3 14665.5 393.232  -2
   4   3   3 14665.5 393.232   1
   4   3   4 8540.06 293.257   1
   4   3   5 150.049 162.198   1
   4  -7   6 1410.03 268.273  -2
  -4  -3  -6 1410.03 268.273   1
  -4  -3  -7 12447.3 380.725   1
  -4  -3  -8 5725.80 250.233   1
  -4  -3  -9 4414.54 435.187   1
  -4   8  -9 7365.87 375.367  -2
   4   3   9 7365.87 375.367   1
  -4   8 -10 801.903 252.287  -2
   4   3  10 801.903 252.287   1
  -4  -3 -11 5517.61 343.973   1
   4   4 -14 1182.38 236.500   1
   4   4 -13 9494.16 332.630   1
   4  -3 -12 3109.48 274.267  -2
  -4  -4  12 3109.48 274.267   1
   4  -3 -11 13001.6 385.855  -2
  -4  -4  11 13001.6 385.855   1
   4   4 -10 9278.72 300.435   1
  -4  -4   9 10463.1 211.543   1
   4  -4  -8 3311.29 191.757  -2
  -4  -4   8 3311.29 191.757   1
  -4  -4   7 47.3106 73.9912   1
   4   4  -6 46.5908 82.0393   1
  -4  -4   5 2926.06 209.033   1
  -4   5   5 3406.54 203.559  -2
   4   4  -5 3406.54 203.559   1
  -4   5   4 6321.04 181.858  -2
   4   4  -4 6321.04 181.858   1
   4   4  -3 796.693 107.774   1
   4   4  -2 13009.2 231.341   1
   4  -6  -1 49316.6 428.970  -2
  -4  -4   1 49316.6 428.970   1
   4   4   0 204.839 97.0125   1
   4   4   1 3948.49 151.537   1
   4   4   2 1697.92 145.267   1
   4  -7   2 6300.10 425.201  -2
  -4  -4  -2 6300.10 425.201   1
  -4   7  -3 34582.2 620.885  -2
   4   4   3 34582.2 620.885   1
   4   4   4 739.947 184.485   1
   4   4   5 1760.60 214.255   1
  -4   8  -6 117.431 260.334  -2
   4   4   6 117.431 260.334   1
   4   4   7 1982.86 256.924   1
  -4  -4  -8 13067.3 352.379   1
  -4  -4  -9 4645.22 459.481   1
   4  -9   9 6269.75 531.441  -2
  -4  -4  -9 6269.75 531.441   1
   4  -9  10 33.8713 401.236  -2
  -4  -4 -10 33.8713 401.236   1
  -4  -5  13 384.295 201.052   1
   4  -4 -12 5627.31 335.257  -2
  -4  -5  12 5627.31 335.257   1
   4  -4 -11 6417.13 352.708  -2
  -4  -5  11 6417.13 352.708   1
   4   5 -10 11501.6 385.486   1
   4   5  -9 5791.89 288.790   1
  -4   5   8 4443.29 339.017  -2
   4   5  -8 4443.29 339.017   1
   4   5  -7 4101.12 159.157   1
   4   5  -6 205.970 121.414   1
   4   5  -5 28615.3 499.667   1
  -4   6   5 30289.4 612.520  -2
   4   5  -5 30289.4 612.520   1
  -4   6   4 2373.74 179.588  -2
   4   5  -4 2373.74 179.588   1
   4   5  -3 785.451 117.266   1
   4   5  -2 3278.91 148.359   1
  -4   7   1 18704.8 351.112  -2
   4   5  -1 18704.8 351.112   1
   4   5   0 8889.56 316.440   1
   4   5   1 783.382 184.711   1
  -4   8  -2 5556.10 320.777  -2
   4   5   2 5556.10 320.777   1
  -4   8  -3 255.138 249.588  -2
   4   5   3 255.138 249.588   1
   4   5   4 1006.76 210.301   1
   4   5   5 328.182 199.909   1
  -4   9  -6 374.843 273.194  -2
   4   5   6 374.843 273.194   1
  -4  -5  -7 6088.13 461.736   1
  -4  -5  -8 4749.25 435.825   1
  -4  -5  -9-37.2120 343.639   1
  -4  -6  12 269.690 336.113   1
  -4   5  12 1572.75 418.596  -2
   4   6 -12 1572.75 418.596   1
  -4   5  11 9286.41 443.510  -2
   4   6 -11 9286.41 443.510   1
  -4  -6  10 2903.18 270.231   1
   4   6  -9 7573.14 337.184   1
  -4   6   8 592.671 212.807  -2
   4   6  -8 592.671 212.807   1
   4   6  -7 611.813 199.305   1
   4   6  -6 4981.48 213.650   1
  -4   7   5 3017.52 210.373  -2
   4   6  -5 3017.52 210.373   1
  -4   7   4 542.904 169.938  -2
   4   6  -4 542.904 169.938   1
   4   6  -3 3332.42 167.277   1
   4   6  -2 46.9070 102.416   1
  -4   8   1 7074.47 423.903  -2
   4   6  -1 7074.47 423.903   1
   4   6   0 5659.51 300.091   1
   4   6   1 822.576 212.406   1
  -4   9  -2 4536.22 334.424  -2
   4   6   2 4536.22 334.424   1
  -4   9  -3 24196.0 632.069  -2
   4   6   3 24196.0 632.069   1
   4   6   4 1737.08 243.687   1
  -4  -6  -5 1616.80 343.026   1
   4 -10   6 169.703 392.708  -2
  -4  -6  -6 169.703 392.708   1
  -4  -6  -7 4806.03 474.483   1
  -4   6  11 7987.07 609.472  -2
   4   7 -11 7987.07 609.472   1
   4   7 -10 83.7502 298.394   1
   4   7  -9 38.9121 178.260   1
  -4   7   8 3157.69 293.054  -2
   4   7  -8 3157.69 293.054   1
   4   7  -7 8025.51 278.566   1
   4   7  -6 11850.7 308.064   1
   4   7  -5 9190.48 388.133   1
   4  -8  -5 15776.3 481.989  -2
  -4  -7   5 15776.3 481.989   1
  -4   8   4 3837.33 346.551  -2
   4   7  -4 3837.33 346.551   1
   4   7  -3 2218.92 254.938   1
   4   7  -2 65.2897 201.927   1
  -4   9   1 18949.0 654.414  -2
   4   7  -1 18949.0 654.414   1
   4   7   0 220.570 201.215   1
   4   7   1-22.0633 215.401   1
   4 -10   2 673.450 404.786  -2
  -4  -7  -2 673.450 404.786   1
   4 -10   3 6836.47 594.398  -2
  -4  -7  -3 6836.47 594.398   1
  -4  -7  -4 7290.11 548.774   1
   4   8 -10-85.9307 346.266   1
  -4   8   8 1274.93 511.755  -2
   4   8  -8 1274.93 511.755   1
   4   8  -7 866.259 350.733   1
   4   8  -6 4059.08 455.645   1
   4   8  -5 2623.27 415.963   1
  -5  10   2 712.215 381.558   1
  -5  -7  -1 4790.50 562.376  -2
   5 -10   1 4790.50 562.376   1
   5 -10   2 257.439 305.800   1
   5 -10   3 2885.69 405.963   1
   5   8  -6 860.647 537.081  -2
  -5   9   6 860.647 537.081   1
  -5   9   5 248.962 220.997   1
   5  -9  -4 2617.62 281.925   1
  -5  -7   3 2238.74 289.961  -2
   5  -9  -3 2238.74 289.961   1
   5  -9  -2 1090.79 182.895   1
   5  -9  -1 1322.52 212.151   1
   5  -9   0-55.8914 214.183   1
  -5  -6  -1 5089.90 397.389  -2
   5  -9   1 5089.90 397.389   1
  -5   9  -2 4978.90 241.794   1
  -5   9  -3 10683.6 405.380   1
  -5  -5  -4 1076.79 316.032  -2
   5  -9   4 1076.79 316.032   1
  -5   9  -5 7688.88 369.558   1
   5  -9   6 3666.72 404.967   1
   5  -9   7 80.9618 317.850   1
  -5  -7   7 4993.61 379.518  -2
   5  -8  -7 4993.61 379.518   1
  -5  -7   6 1525.91 333.286  -2
   5  -8  -6 1525.91 333.286   1
   5  -8  -5 14208.3 430.819   1
   5  -8  -4 88.7933 126.127   1
  -5  -6   3 5618.35 250.678  -2
   5  -8  -3 5618.35 250.678   1
   5  -8  -2 2877.12 181.229   1
   5  -8  -1 2435.82 146.579   1
  -5   8   0 4940.86 221.530   1
  -5  -5   0 5562.21 323.521  -2
   5  -8   0 5562.21 323.521   1
  -5  -5  -1 27419.2 376.238  -2
   5  -8   1 27419.2 376.238   1
   5  -8   2 226.883 187.108   1
  -5   8  -3 2454.80 240.044   1
  -5  -4  -4 3471.68 352.476  -2
   5  -8   4 3471.68 352.476   1
  -5   8  -5 3530.03 275.285   1
  -5   8  -6 2614.27 261.564   1
  -5   8  -7 10621.9 393.345   1
  -5  -3  -8 3057.50 340.193  -2
   5  -8   8 3057.50 340.193   1
   5  -8   9 678.044 226.128   1
   5  -7  -8 996.569 316.843   1
  -5  -6   7 19816.8 484.964  -2
   5  -7  -7 19816.8 484.964   1
  -5  -6   6 1907.05 301.323  -2
   5  -7  -6 1907.05 301.323   1
   5  -7  -5 6818.40 225.548   1
   5  -7  -4 787.265 124.303   1
  -5  -5   3 1394.83 198.089  -2
   5  -7  -3 1394.83 198.089   1
  -5   7   2-18.7515 98.4254   1
   5  -7  -1 12276.1 195.789   1
   5  -7   0 11758.9 186.671   1
  -5  -4   0 11545.5 381.799  -2
   5  -7   0 11545.5 381.799   1
  -5  -4  -1 3121.74 159.324  -2
   5  -7   1 3121.74 159.324   1
  -5   7  -2 2743.53 120.199   1
   5  -7   3 3687.50 120.219   1
  -5  -3  -4 156.919 232.540  -2
   5  -7   4 156.919 232.540   1
   5  -7   5 1114.18 197.755   1
  -5   7  -6 3744.03 258.275   1
  -5   7  -7 18192.4 455.378   1
  -5  -2  -8 2652.15 317.320  -2
   5  -7   8 2652.15 317.320   1
  -5   7  -9 7059.31 330.759   1
   5  -7  10 313.989 210.668   1
   5   1  11 30.2533 341.410  -2
  -5   7 -11 30.2533 341.410   1
  -5  -6  10 324.733 408.447  -2
   5  -6 -10 324.733 408.447   1
   5  -6  -9-51.1149 295.870   1
  -5   6   8 6073.03 283.663   1
  -5  -5   7 706.898 243.912  -2
   5  -6  -7 706.898 243.912   1
  -5  -5   6 4548.79 215.569  -2
   5  -6  -6 4548.79 215.569   1
   5  -6  -5 6594.78 174.887   1
   5  -6  -4 806.390 92.5301   1
  -5  -4   3 21796.3 345.504  -2
   5  -6  -3 21796.3 345.504   1
  -5   6   2-0.22898 56.7501   1
   5  -6  -1 37786.5 238.139   1
   5  -6   0 558.605 78.0013   1
  -5  -3  -1 10945.1 197.040  -2
   5  -6   1 10945.1 197.040   1
   5  -6   2 1482.09 87.2347   1
  -5   6  -3 1334.06 137.823   1
  -5  -2  -4 14483.4 445.850  -2
   5  -6   4 14483.4 445.850   1
  -5   6  -5 2281.91 204.968   1
  -5   6  -6 538.730 173.136   1
   5  -6   7 600.549 186.287   1
  -5  -1  -8 15961.3 468.610  -2
   5  -6   8 15961.3 468.610   1
  -5   6  -9 3067.08 252.989   1
  -5   6 -10 7179.32 331.259   1
  -5   0 -11 19645.6 635.833  -2
   5  -6  11 19645.6 635.833   1
  -5   6 -12 326.906 355.454   1
  -5   6 -13 833.908 352.421   1
   5  -5 -11 9086.02 392.455   1
  -5  -5  10 213.425 281.763  -2
   5  -5 -10 213.425 281.763   1
   5  -5  -9 15443.6 437.066   1
   5  -5  -8 3665.94 190.086   1
  -5   5   7 181.066 88.9222   1
  -5  -4   7 8782.48 310.488  -2
   5  -5  -7 8782.48 310.488   1
  -5   5   6 80.5581 112.284   1
  -5  -4   6 518.395 100.762  -2
   5  -5  -6 518.395 100.762   1
   5  -5  -5 12620.8 146.307   1
  -5   5   4 6709.14 130.987   1
  -5  -3   3 44691.3 279.403  -2
   5  -5  -3 44691.3 279.403   1
  -5   5   2 647.204 58.9871   1
   5  -5  -1 6035.92 111.327   1
   5  -5   0 15148.4 172.189   1
  -5  -2  -1 14666.7 177.826  -2
   5  -5   1 14666.7 177.826   1
   5  -5   2 62.9286 84.0244   1
   5  -5   3 36195.1 395.191   1
  -5  -1  -4 10843.6 367.331  -2
   5  -5   4 10843.6 367.331   1
   5  -5   5 34.1534 142.470   1
  -5   5  -6 2888.13 206.140   1
  -5   5  -7 6306.19 272.728   1
  -5   0  -8 86.1968 232.117  -2
   5  -5   8 86.1968 232.117   1
   5  -5   9 16.4166 178.824   1
   5  -5  10 2042.64 232.207   1
  -5   1 -11 19944.9 618.646  -2
   5  -5  11 19944.9 618.646   1
  -5   5 -12 5495.47 441.386   1
  -5   5 -13 4378.40 409.022   1
   5  -2  14 554.663 458.805  -2
  -5   5 -14 554.663 458.805   1
   5  -4 -12-21.9078 223.760   1
   5  -4 -11 2420.72 263.516   1
  -5  -4  10 2104.03 328.195  -2
   5  -4 -10 2104.03 328.195   1
  -5   4   9 4575.02 183.942   1
   5  -4  -8 455.706 123.275   1
   5  -4  -7 9355.83 225.398   1
  -5   4   6 77.9923 53.1553   1
  -5  -3   6 3479.28 167.256  -2
   5  -4  -6 3479.28 167.256   1
   5  -4  -5 5446.85 89.4278   1
   5  -4  -4 16418.5 163.934   1
  -5  -2   3 2772.48 85.5995  -2
   5  -4  -3 2772.48 85.5995   1
   5  -4  -2 157.360 46.7188   1
  -5   4   1 10556.7 114.441   1
  -5   4   0 1374.62 67.3832   1
   5   1   1 13365.8 141.226  -2
  -5   4  -1 13365.8 141.226   1
   5  -4   2 365.822 83.8202   1
  -5   4  -3 66717.0 436.041   1
  -5   0  -4 7271.14 297.674  -2
   5  -4   4 7271.14 297.674   1
   5  -4   5 1966.80 174.968   1
   5  -4   6 4.16894 145.113   1
   5  -4   7 78.4245 151.896   1
  -5   1  -8 36963.0 592.444  -2
   5  -4   8 36963.0 592.444   1
   5  -4   9 258.420 178.109   1
   5  -4  10 829.739 201.148   1
  -5   2 -11 506.828 268.216  -2
   5  -4  11 506.828 268.216   1
   5  -4  12 8908.95 365.669   1
  -5   4 -13 2408.05 358.980   1
   5  -3  14 2828.44 486.659  -2
  -5   4 -14 2828.44 486.659   1
   5  -3 -12 1916.31 251.900   1
  -5   3  11 2928.63 260.294   1
  -5  -3  10 6967.08 406.514  -2
   5  -3 -10 6967.08 406.514   1
   5  -3  -9 7752.23 186.860   1
   5  -3  -8 1053.71 119.788   1
   5  -3  -7 28543.5 329.524   1
  -5  -2   6 7696.12 187.478  -2
   5  -3  -6 7696.12 187.478   1
  -5   3   5 44114.2 238.294   1
  -5   3   4 1920.52 74.2540   1
  -5  -1   3 15165.6 127.429  -2
   5  -3  -3 15165.6 127.429   1
  -5   3   2 1236.55 50.6959   1
  -5   3   1 6314.10 89.4198   1
  -5   3   0 14712.1 128.587   1
  -5   3  -1 123.365 61.9220   1
   5   0   1 27517.9 293.997  -2
  -5   3  -1 27517.9 293.997   1
  -5   3  -2 785.786 48.7213   1
   5  -3   3 5445.25 85.2558   1
  -5   1  -4 36986.8 386.390  -2
   5  -3   4 36986.8 386.390   1
  -5   3  -5 1485.37 131.472   1
   5  -3   6 17.7570 137.711   1
  -5   3  -7 20756.1 416.698   1
  -5   2  -8 16800.8 426.564  -2
   5  -3   8 16800.8 426.564   1
  -5   3  -9 3139.53 232.014   1
   5  -3  10 64.7167 180.001   1
  -5   3 -11 9682.82 464.434  -2
   5  -3  11 9682.82 464.434   1
   5  -3  12 300.439 201.560   1
  -5   3 -13 411.405 301.269   1
   5  -4  14 3141.52 475.030  -2
  -5   3 -14 3141.52 475.030   1
  -5  -3  13 4711.79 297.978  -2
   5  -2 -13 4711.79 297.978   1
  -5   2  12 3791.25 229.149   1
   5  -2 -11 607.848 165.754   1
  -5  -2  10 5392.86 167.224  -2
   5  -2 -10 5392.86 167.224   1
  -5   2   9 7168.77 108.722   1
  -5   2   8 904.754 68.9197   1
  -5   2   7 1263.07 76.0904   1
  -5   2   6 110.651 92.2223   1
  -5  -1   6 408.943 105.567  -2
   5  -2  -6 408.943 105.567   1
  -5   2   5 9093.22 137.213   1
  -5   2   4 3414.54 85.8595   1
   5   0  -3 36172.0 179.184  -2
  -5   2   3 36172.0 179.184   1
  -5   2   2 207.000 41.1780   1
  -5   2   1 26367.9 171.433   1
  -5   2   0 20889.3 180.672   1
  -5   2  -1 5181.93 126.252   1
  -5   1  -1 6798.77 231.114  -2
   5  -2   1 6798.77 231.114   1
  -5   2  -2 2354.78 84.6092   1
   5  -2   3 10621.6 185.371   1
  -5   2  -4 574.594 143.582  -2
   5  -2   4 574.594 143.582   1
   5  -2   5 252.264 83.5781   1
   5  -2   6 795.563 74.3022   1
   5  -2   7 39963.2 280.596   1
   5  -3   8 18846.9 215.279  -2
  -5   2  -8 18846.9 215.279   1
  -5   2  -9 743.523 131.560   1
   5  -2  10 1536.42 309.895   1
  -5   4 -11 550.796 278.333  -2
   5  -2  11 550.796 278.333   1
  -5   2 -12 16361.0 459.911   1
  -5   2 -13 249.357 304.967   1
   5  -5  14 440.614 442.236  -2
  -5   2 -14 440.614 442.236   1
   5  -1 -14-69.5889 292.464   1
  -5  -2  13 1986.79 309.402  -2
   5  -1 -13 1986.79 309.402   1
  -5   1  12 1467.11 231.640   1
   5  -1 -11 20152.6 312.420   1
  -5  -1  10 1022.49 152.598  -2
   5  -1 -10 1022.49 152.598   1
   5  -1  -9 1177.45 113.267   1
  -5   1   8 11223.9 156.043   1
  -5   1   7 20047.6 210.104   1
  -5   0   6 8445.82 145.025  -2
   5  -1  -6 8445.82 145.025   1
  -5   1   5 3871.88 103.815   1
   5  -1  -4 1223.10 48.3272   1
   5  -1  -3 56064.6 266.974  -2
  -5   1   3 56064.6 266.974   1
  -5   1   2 11347.4 118.409   1
  -5   1   1 61707.4 283.453   1
  -5   1   0 39.2890 62.2665   1
   5  -1   1 1610.62 168.217   1
   5  -2   1 6114.24 179.547  -2
  -5   1  -1 6114.24 179.547   1
  -5   1  -2 7335.39 155.755   1
  -5   1  -3 361.756 97.6761   1
  -5   3  -4 33497.8 542.241  -2
   5  -1   4 33497.8 542.241   1
   5  -1   5 4597.98 218.603   1
  -5   1  -6 794.260 123.549   1
  -5   1  -7 1391.29 111.107   1
   5  -4   8 36834.3 355.430  -2
  -5   1  -8 36834.3 355.430   1
  -5   1  -9 194.937 126.605   1
  -5   1 -10 64.6291 134.018   1
  -5   5 -11 20010.6 898.032  -2
   5  -1  11 20010.6 898.032   1
   5   0 -14 816.362 225.940   1
  -5  -1  13 6336.33 379.030  -2
   5   0 -13 6336.33 379.030   1
   5   0 -12 66.0217 123.660   1
  -5   0  11 35784.2 435.090   1
   5   0 -10 737.351 170.148  -2
  -5   0  10 737.351 170.148   1
  -5   0   9 3453.10 82.1396   1
  -5   0   8 772.576 77.7282   1
  -5   0   7 54.0478 121.212   1
  -5   1   6 8286.34 224.572  -2
   5   0  -6 8286.34 224.572   1
  -5   0   5 785.975 53.7036   1
  -5   0   4 2110.70 79.3280   1
   5  -2  -3 29537.0 256.063  -2
  -5   0   3 29537.0 256.063   1
  -5   0   2 4170.28 94.2909   1
  -5   0   1 6304.21 112.829   1
  -5   0   0 7581.33 135.357   1
   5  -3   1 34079.8 264.730  -2
  -5   0  -1 34079.8 264.730   1
  -5   0  -2 578.705 87.3442   1
  -5   0  -3 29647.3 355.843   1
  -5   4  -4 8193.55 325.471  -2
   5   0   4 8193.55 325.471   1
   5   0   5 7081.14 261.982   1
  -5   0  -6 8641.98 296.636   1
  -5   0  -7 3705.18 152.909   1
   5  -5   8 157.746 157.179  -2
  -5   0  -8 157.746 157.179   1
  -5   0  -9 428.294 145.394   1
  -5   0 -10 3278.15 201.564   1
  -5   6 -11 19300.1 653.036  -2
   5   0  11 19300.1 653.036   1
   5   1 -14 2396.98 366.350   1
   5   0 -14 3091.02 449.200  -2
  -5  -1  14 3091.02 449.200   1
  -5   0  13 4875.38 288.036  -2
   5   1 -13 4875.38 288.036   1
  -5  -1  12 372.798 149.541   1
  -5  -1  11 336.226 136.094   1
  -5   1  10 885.591 83.1960  -2
   5   1 -10 885.591 83.1960   1
   5   1  -9 7.96078 45.8808   1
   5   1  -8 375.760 45.7323   1
   5   1  -7 60500.7 304.646   1
  -5   2   6 520.190 76.6459  -2
   5   1  -6 520.190 76.6459   1
   5   1  -5 9205.41 146.874   1
   5   1  -4 4392.07 96.3842   1
  -5   3   3 19025.5 250.392  -2
   5   1  -3 19025.5 250.392   1
  -5  -1   2 8447.36 130.989   1
  -5  -1   1 426.221 67.4823   1
  -5  -1   0 256.117 79.6461   1
   5  -4   1 14155.3 212.839  -2
  -5  -1  -1 14155.3 212.839   1
  -5  -1  -2 17341.8 226.309   1
  -5  -1  -3 36000.1 358.903   1
   5  -5   4 9929.94 250.600  -2
  -5  -1  -4 9929.94 250.600   1
   5   1   5 1214.89 120.808   1
  -5  -1  -6 8964.54 315.433   1
   5   1   7-20.5362 176.542   1
   5  -6   8 15164.8 384.415  -2
  -5  -1  -8 15164.8 384.415   1
   5   1   9 6699.92 252.095   1
  -5  -1 -10 31.4666 155.881   1
   5  -7  11-42.7431 296.440  -2
  -5  -1 -11-42.7431 296.440   1
   5   2 -14 2093.45 253.313   1
   5  -1 -14 2022.41 464.391  -2
  -5  -2  14 2022.41 464.391   1
  -5   1  13 2464.38 246.742  -2
   5   2 -13 2464.38 246.742   1
  -5  -2  12 78.8625 152.465   1
  -5  -2  11 10057.5 338.976   1
  -5   2  10 4339.41 207.712  -2
   5   2 -10 4339.41 207.712   1
   5   2  -9 1842.39 87.5983   1
   5   2  -8 134.416 66.2227   1
   5   2  -7 39309.6 276.585   1
  -5   3   6 8890.05 159.425  -2
   5   2  -6 8890.05 159.425   1
   5   2  -5 7242.98 128.042   1
  -5  -2   4 1351.31 79.3801   1
  -5   4   3 3145.11 123.627  -2
   5   2  -3 3145.11 123.627   1
   5   2  -2 12388.2 195.531   1
  -5  -2   1-3.64036 77.9681   1
   5   2   0 480.053 79.8689   1
   5  -5   1 18044.8 273.159  -2
  -5  -2  -1 18044.8 273.159   1
  -5  -2  -2 4686.68 151.603   1
  -5  -2  -3 4628.73 147.581   1
   5  -6   4 13319.5 240.065  -2
  -5  -2  -4 13319.5 240.065   1
  -5  -2  -5 11912.8 355.727   1
   5   2   6 1663.10 211.509   1
   5   2   7 9632.94 501.136   1
   5  -7   7 23945.7 752.196  -2
  -5  -2  -7 23945.7 752.196   1
   5  -7   8 1922.16 250.195  -2
  -5  -2  -8 1922.16 250.195   1
  -5  -2  -9 4185.49 235.925   1
  -5  -2 -10 9251.63 379.869   1
   5  -8  11 1071.92 495.950  -2
  -5  -2 -11 1071.92 495.950   1
  -5  -3  15 12672.1 628.071   1
  -5  -3  14 178.470 322.044   1
  -5   2  13 3606.32 278.584  -2
   5   3 -13 3606.32 278.584   1
   5   3 -12 883.870 216.213   1
   5   3 -11 169.877 189.340   1
  -5   3  10 6670.03 273.300  -2
   5   3 -10 6670.03 273.300   1
   5   3  -9 1402.59 109.215   1
   5   3  -8 142.984 80.8708   1
   5   3  -7 276.154 86.9518   1
   5  -4  -7 8088.25 405.691  -2
  -5  -3   7 8088.25 405.691   1
  -5   4   6 3654.11 142.774  -2
   5   3  -6 3654.11 142.774   1
   5   3  -5 87.1379 80.0576   1
   5   3  -4 890.142 79.0347   1
   5  -5  -3 55061.0 406.805  -2
  -5  -3   3 55061.0 406.805   1
  -5  -3   2 260.881 91.3956   1
   5   3  -1 10474.8 188.812   1
  -5  -3   0 1571.87 106.195   1
  -5   6  -1 12574.6 210.422  -2
   5   3   1 12574.6 210.422   1
   5   3   2 6268.47 155.056   1
   5   3   3 2.05550 166.245   1
  -5   7  -4 69.6521 235.522  -2
   5   3   4 69.6521 235.522   1
   5   3   5 1054.18 207.188   1
  -5  -3  -6 9388.40 363.830   1
  -5   8  -7 15226.3 465.900  -2
   5   3   7 15226.3 465.900   1
   5  -8   8 3286.34 298.344  -2
  -5  -3  -8 3286.34 298.344   1
  -5  -3  -9 139.141 228.008   1
  -5  -3 -10 3650.36 454.677   1
  -5  -4  15-186.784 375.423   1
  -5  -4  14 221.585 407.083   1
  -5   3  13 5816.77 399.547  -2
   5   4 -13 5816.77 399.547   1
   5   4 -12 2300.44 263.290   1
   5   4 -11 19191.7 368.352   1
  -5   4  10 2222.58 225.850  -2
   5   4 -10 2222.58 225.850   1
   5   4  -9 4617.02 201.018   1
   5   4  -8 1136.35 141.118   1
   5   4  -7 9425.04 297.197   1
  -5   5   7 9115.57 443.953  -2
   5   4  -7 9115.57 443.953   1
  -5   5   6 674.047 160.282  -2
   5   4  -6 674.047 160.282   1
   5   4  -5 259.707 115.675   1
   5   4  -4 535.048 116.231   1
  -5   6   3 23643.0 432.920  -2
   5   4  -3 23643.0 432.920   1
   5   4  -2 11007.7 245.331   1
  -5  -4   1 4632.05 180.164   1
   5   4   0 92.3127 114.551   1
  -5   7  -1 3651.59 210.345  -2
   5   4   1 3651.59 210.345   1
   5   4   2 12927.4 273.041   1
   5   4   3 1713.57 156.664   1
  -5   8  -4 2943.45 341.574  -2
   5   4   4 2943.45 341.574   1
  -5  -4  -5 11275.8 396.245   1
   5   4   6 73.1390 203.170   1
   5  -9   7 1032.49 418.280  -2
  -5  -4  -7 1032.49 418.280   1
   5  -9   8 1354.48 461.101  -2
  -5  -4  -8 1354.48 461.101   1
   5   5 -12 2225.02 265.736   1
   5   5 -11 13553.1 330.050   1
  -5   5  10 53.3981 197.052  -2
   5   5 -10 53.3981 197.052   1
   5   5  -9 536.870 150.376   1
   5   5  -8 95.6347 140.155   1
   5   5  -7 848.460 183.098   1
  -5   6   7 921.918 308.305  -2
   5   5  -7 921.918 308.305   1
  -5   6   6 5238.00 253.766  -2
   5   5  -6 5238.00 253.766   1
   5   5  -5 7629.30 234.837   1
   5   5  -4 889.677 137.320   1
  -5   7   3 1815.47 195.097  -2
   5   5  -3 1815.47 195.097   1
   5   5  -2 2926.98 239.300   1
   5   5  -1 67.3506 183.658   1
   5   5   0 1118.09 214.187   1
  -5   8  -1 28046.1 658.585  -2
   5   5   1 28046.1 658.585   1
   5   5   2 489.554 205.502   1
   5   5   3 2798.07 264.716   1
  -5   9  -4 1299.72 310.483  -2
   5   5   4 1299.72 310.483   1
  -5  -5  -5 6597.82 477.614   1
  -5  -5  -6 8830.65 562.039   1
  -5   6  10 756.243 291.896  -2
   5   6 -10 756.243 291.896   1
   5   6  -9 6204.22 266.018   1
   5   6  -8 3494.60 217.597   1
  -5  -6   7 17830.6 700.436   1
  -5   7   7 21393.5 473.767  -2
   5   6  -7 21393.5 473.767   1
  -5   7   6 1634.54 221.215  -2
   5   6  -6 1634.54 221.215   1
   5   6  -5 4324.61 208.777   1
   5   6  -4 2813.61 262.412   1
  -5   8   3 6786.12 431.113  -2
   5   6  -3 6786.12 431.113   1
   5   6  -2 1615.03 232.416   1
   5   6  -1 2061.46 245.663   1
  -5   9   0 278.021 275.141  -2
   5   6   0 278.021 275.141   1
  -5   9  -1 4526.80 373.516  -2
   5   6   1 4526.80 373.516   1
   5   6   2 5801.54 336.343   1
  -5  -6  -3 309.296 330.259   1
  -5   7  10-121.052 307.063  -2
   5   7 -10-121.052 307.063   1
   5   7  -9 42.4356 252.192   1
   5   7  -8 1899.06 254.619   1
  -5   8   7 5697.94 511.509  -2
   5   7  -7 5697.94 511.509   1
  -5   8   6 1780.15 445.815  -2
   5   7  -6 1780.15 445.815   1
   5   7  -5 456.004 312.185   1
   5   7  -4 73.7529 292.078   1
  -5   9   3 2012.92 469.328  -2
   5   7  -3 2012.92 469.328   1
   5   7  -2 2370.26 393.771   1
   6 -10   1 2260.58 409.995   1
  -6  -6  -2 4218.55 577.147  -2
   6 -10   2 4218.55 577.147   1
   6   7  -5 1935.37 624.255  -2
  -6   9   5 1935.37 624.255   1
  -6   9   4 2349.36 463.372   1
  -6   9   3 1464.88 410.037   1
  -6   9   2 928.043 377.318   1
   6   6  -1 6447.13 669.142  -2
  -6   9   1 6447.13 669.142   1
   6  -9   0 103.909 227.970   1
   6  -9   1-66.9169 186.326   1
  -6  -5  -2 15424.2 571.832  -2
   6  -9   2 15424.2 571.832   1
   6  -9   3-107.351 293.535   1
   6  -9   4 7849.22 503.967   1
   6  -9   5 3699.98 411.670   1
   6  -8  -7 655.776 306.379   1
   6  -8  -6 7069.73 359.583   1
  -6  -6   5 1187.26 334.901  -2
   6  -8  -5 1187.26 334.901   1
   6  -8  -4 820.079 182.144   1
   6  -8  -3 3409.59 211.499   1
  -6   8   2 906.331 229.392   1
  -6  -5   2 609.276 267.597  -2
   6  -8  -2 609.276 267.597   1
  -6  -5   1 1736.07 235.768  -2
   6  -8  -1 1736.07 235.768   1
  -6   8   0 2685.09 198.167   1
  -6   8  -1 4882.39 232.959   1
  -6  -4  -2 7879.66 418.907  -2
   6  -8   2 7879.66 418.907   1
  -6   8  -3 921.076 217.540   1
  -6   8  -4 6112.77 322.678   1
  -6   8  -5 3302.57 277.439   1
  -6  -3  -6 10985.4 475.720  -2
   6  -8   6 10985.4 475.720   1
   6  -8   7 1117.85 313.210   1
  -6  -6   8 3893.25 499.671  -2
   6  -7  -8 3893.25 499.671   1
  -6   7   7 7001.15 334.036   1
   6  -7  -6 3282.37 271.146   1
  -6  -5   5 8103.12 345.275  -2
   6  -7  -5 8103.12 345.275   1
  -6   7   4 128.663 145.381   1
   6  -7  -3 15871.8 318.726   1
   6  -7  -2 6522.58 185.079   1
  -6  -4   1 8880.83 248.400  -2
   6  -7  -1 8880.83 248.400   1
   6  -7   0 39.4347 96.3607   1
   6  -7   1 161.812 163.412   1
  -6  -3  -2 7001.31 367.989  -2
   6  -7   2 7001.31 367.989   1
  -6   7  -3 649.284 189.611   1
  -6   7  -4 371.921 186.126   1
   6  -7   5 1957.38 231.004   1
  -6  -2  -6 25649.4 618.111  -2
   6  -7   6 25649.4 618.111   1
   6  -7   7 596.531 212.756   1
  -6   7  -8 13025.3 424.816   1
  -6  -1  -9 8338.94 461.797  -2
   6  -7   9 8338.94 461.797   1
  -6  -5   9 6699.75 518.524  -2
   6  -6  -9 6699.75 518.524   1
  -6  -5   8 706.925 399.850  -2
   6  -6  -8 706.925 399.850   1
   6  -6  -7 5228.59 282.095   1
  -6   6   6 1219.37 167.370   1
  -6  -4   5 4104.54 253.571  -2
   6  -6  -5 4104.54 253.571   1
   6  -6  -4 1313.32 117.037   1
   6  -6  -3-8.18934 93.3440   1
   6  -6  -2 32301.5 288.670   1
  -6  -3   1 2994.37 145.760  -2
   6  -6  -1 2994.37 145.760   1
  -6   6   0 1264.15 91.9342   1
   6  -6   1 13371.6 263.892   1
  -6  -2  -2 1132.20 220.910  -2
   6  -6   2 1132.20 220.910   1
   6  -6   3 448.053 158.622   1
  -6   6  -4 245.090 162.573   1
  -6   6  -5 10519.5 342.803   1
  -6  -1  -6 702.216 258.126  -2
   6  -6   6 702.216 258.126   1
   6  -6   7-25.3768 190.450   1
   6  -6   8 2530.95 250.152   1
  -6   0  -9 1981.10 313.927  -2
   6  -6   9 1981.10 313.927   1
  -6   6 -10 11418.7 410.298   1
   6  -5 -10 5685.36 438.247   1
  -6   5   9 6566.06 460.450   1
  -6  -4   9 6384.09 508.047  -2
   6  -5  -9 6384.09 508.047   1
  -6  -4   8 2192.74 235.355  -2
   6  -5  -8 2192.74 235.355   1
   6  -5  -7 3062.49 183.722   1
   6  -5  -6 2367.97 146.456   1
  -6  -3   5 5652.25 160.897  -2
   6  -5  -5 5652.25 160.897   1
   6  -5  -4 492.503 85.0074   1
   6  -5  -3 10891.6 123.101   1
  -6   5   2 5544.91 110.976   1
  -6  -2   2 10119.9 303.113  -2
   6  -5  -2 10119.9 303.113   1
  -6  -2   1 9421.40 153.862  -2
   6  -5  -1 9421.40 153.862   1
  -6   5   0 300.219 77.0431   1
  -6   5  -1 16803.7 235.077   1
  -6  -1  -2 27113.5 423.168  -2
   6  -5   2 27113.5 423.168   1
  -6   5  -3 216.658 145.838   1
  -6   5  -4 8127.62 287.962   1
   6  -5   5 18.9743 159.622   1
  -6   0  -6 15192.9 438.975  -2
   6  -5   6 15192.9 438.975   1
   6  -5   7 89.0896 179.650   1
   6  -5   8 0.99873 195.427   1
  -6   1  -9 4282.02 367.433  -2
   6  -5   9 4282.02 367.433   1
   6  -5  10 10197.6 385.288   1
  -6   5 -11 954.731 322.687   1
  -6   4  11 7427.53 352.164   1
   6  -4 -10 3665.13 272.199   1
  -6   4   9 8460.67 335.055   1
  -6  -3   8 6304.49 255.956  -2
   6  -4  -8 6304.49 255.956   1
  -6   4   7 12366.8 235.870   1
  -6   4   6 4544.18 162.850   1
  -6  -2   5 22560.9 354.672  -2
   6  -4  -5 22560.9 354.672   1
  -6   4   4 1616.08 66.6542   1
   6  -4  -3 7053.29 103.055   1
  -6   4   2 3605.63 87.7626   1
   6   1  -1 11762.9 151.091  -2
  -6   4   1 11762.9 151.091   1
  -6   4   0 1356.69 69.6693   1
  -6   4  -1 345.711 59.1767   1
   6   0   2 65956.8 294.003  -2
  -6   4  -2 65956.8 294.003   1
   6  -4   3 124.328 128.313   1
  -6   4  -4 1193.37 252.682   1
  -6   4  -5 12960.1 344.402   1
  -6   1  -6 378.810 224.858  -2
   6  -4   6 378.810 224.858   1
   6  -4   7 140.377 172.696   1
   6  -4   8 1320.69 213.697   1
  -6   2  -9 8177.14 433.113  -2
   6  -4   9 8177.14 433.113   1
  -6   4 -10 2551.51 258.173   1
  -6   4 -11 104.793 295.478   1
  -6   4 -12 92.2118 339.867   1
  -6  -3  12 1245.60 320.833  -2
   6  -3 -12 1245.60 320.833   1
  -6   3  11 4490.58 293.097   1
   6  -3 -10 0.78565 187.696   1
  -6   3   9 325.476 173.743   1
  -6  -2   8 18396.8 336.549  -2
   6  -3  -8 18396.8 336.549   1
   6  -3  -7 200.594 53.2852   1
  -6   3   6 19911.2 216.021   1
  -6  -1   5 20687.6 269.861  -2
   6  -3  -5 20687.6 269.861   1
  -6   3   4 27.6333 34.0615   1
  -6   3   3 8840.14 98.9130   1
  -6   3   2 244.134 52.5136   1
   6   0  -1 2778.95 92.8525  -2
  -6   3   1 2778.95 92.8525   1
  -6   3   0 3875.64 87.8973   1
   6  -3   1 13381.6 137.309   1
   6  -1   2 3030.27 100.820  -2
  -6   3  -2 3030.27 100.820   1
  -6   3  -3 141.893 50.0631   1
   6  -3   4 1655.83 143.785   1
  -6   3  -5 8553.75 238.917   1
  -6   2  -6 50749.5 574.607  -2
   6  -3   6 50749.5 574.607   1
   6  -3   7 828.608 160.284   1
   6  -3   8 8325.37 329.313   1
  -6   3  -9 167.334 266.890  -2
   6  -3   9 167.334 266.890   1
  -6   3 -10 14403.9 433.085   1
  -6   3 -11 637.972 304.317   1
  -6   3 -12 113.649 332.589   1
   6   2 -12 1847.15 471.186  -2
  -6   2  12 1847.15 471.186   1
  -6   2  11 2833.39 365.766   1
  -6   2  10 778.740 280.875   1
  -6   2   9 7058.86 194.510   1
   6   1  -8 17131.0 240.052  -2
  -6   2   8 17131.0 240.052   1
  -6   2   7 5369.52 136.397   1
  -6   2   6 4540.78 132.609   1
  -6   0   5 16905.2 263.653  -2
   6  -2  -5 16905.2 263.653   1
  -6   2   4 13963.4 114.426   1
  -6   2   3 15153.7 125.765   1
  -6   2   2 18205.4 157.318   1
   6  -1  -1 18245.8 191.891  -2
  -6   2   1 18245.8 191.891   1
  -6   2   0 12502.5 163.247   1
  -6   2  -1 2285.09 95.4153   1
   6  -2   2 9249.71 186.616  -2
  -6   2  -2 9249.71 186.616   1
  -6   2  -3 3868.37 201.255   1
   6  -2   4 214.706 140.499   1
  -6   2  -5 904.920 167.824   1
   6  -3   6 52189.0 448.562  -2
  -6   2  -6 52189.0 448.562   1
  -6   2  -7 141.098 104.056   1
   6  -2   8 278.854 193.809   1
  -6   4  -9 8321.11 435.343  -2
   6  -2   9 8321.11 435.343   1
   6  -2  10 385.634 278.681   1
  -6   2 -11 130.161 280.489   1
   6  -1 -13 10831.7 424.265   1
  -6  -1  12 10797.1 511.984  -2
   6  -1 -12 10797.1 511.984   1
   6  -1 -11 1074.24 225.393   1
   6  -1 -10 833.698 125.652   1
   6  -1  -9 183.396 73.3777   1
   6   0  -8 2902.30 141.315  -2
  -6   1   8 2902.30 141.315   1
  -6   1   7 1143.57 93.8737   1
  -6   1   6 241.204 104.209   1
   6  -1  -5 11381.0 266.579  -2
  -6   1   5 11381.0 266.579   1
   6  -1  -4 8396.15 105.937   1
  -6   1   3 17.8841 54.2041   1
  -6   1   2 31693.8 225.788   1
   6  -2  -1 20546.8 205.018  -2
  -6   1   1 20546.8 205.018   1
  -6   1   0 1125.41 94.0685   1
  -6   1  -1 5860.93 150.054   1
   6  -3   2 2392.14 148.069  -2
  -6   1  -2 2392.14 148.069   1
   6  -1   3 393.268 137.651   1
  -6   1  -4 25630.9 454.724   1
  -6   1  -5 10544.1 324.756   1
  -6   4  -6 434.825 229.464  -2
   6  -1   6 434.825 229.464   1
  -6   1  -7 920.537 143.746   1
  -6   1  -8 2161.69 167.181   1
  -6   5  -9 4409.70 374.592  -2
   6  -1   9 4409.70 374.592   1
  -6   1 -10 19010.7 504.434   1
   6   0 -13 341.450 220.327   1
  -6   0  12 19803.8 647.554  -2
   6   0 -12 19803.8 647.554   1
   6   0 -11 1133.98 154.323   1
   6   0 -10 1952.66 168.881   1
  -6   0   9 33397.6 298.250   1
  -6   1   8 2485.47 140.309  -2
   6   0  -8 2485.47 140.309   1
   6   0  -7 547.411 149.188   1
   6   0  -6 315.385 39.7837   1
  -6   2   5 17472.8 184.089  -2
   6   0  -5 17472.8 184.089   1
   6   0  -4 9961.27 186.137   1
   6   0  -3 2147.47 107.024   1
  -6   0   2 6628.56 135.997   1
   6  -3  -1 3058.84 129.311  -2
  -6   0   1 3058.84 129.311   1
  -6   0   0 24064.1 267.120   1
  -6   0  -1 7329.97 167.472   1
   6  -4   2 57170.8 559.379  -2
  -6   0  -2 57170.8 559.379   1
  -6   0  -3 2640.52 149.024   1
  -6   0  -4 18930.5 308.665   1
   6   0   5 949.198 187.302   1
  -6   5  -6 13707.2 458.310  -2
   6   0   6 13707.2 458.310   1
   6   0   7 2306.84 237.963   1
  -6   0  -8 1333.38 171.504   1
  -6   6  -9 1373.73 303.170  -2
   6   0   9 1373.73 303.170   1
  -6  -1  13 7520.44 369.324   1
   6  -1 -12 8340.04 354.692  -2
  -6  -1  12 8340.04 354.692   1
  -6  -1  11 2268.04 187.767   1
   6   1 -10 93.4686 142.059   1
   6   1  -9 9829.57 320.207   1
   6   1  -8 16574.7 222.904   1
  -6   2   8 20678.4 361.420  -2
   6   1  -8 20678.4 361.420   1
  -6  -1   7 537.772 77.9766   1
   6   1  -6 5846.65 144.963   1
  -6   3   5 16628.2 226.994  -2
   6   1  -5 16628.2 226.994   1
  -6  -1   4 11172.1 179.176   1
   6   1  -3 70.4591 93.1225   1
   6   1  -2 5.73248 84.7303   1
  -6   4   1 14286.6 222.407  -2
   6   1  -1 14286.6 222.407   1
  -6  -1   0 1488.87 102.046   1
  -6  -1  -1 32.0170 105.800   1
   6  -5   2 26095.2 396.177  -2
  -6  -1  -2 26095.2 396.177   1
  -6  -1  -3 6417.78 197.254   1
   6   1   4 2137.79 150.519   1
  -6  -1  -5 835.942 195.460   1
  -6   6  -6 981.071 273.357  -2
   6   1   6 981.071 273.357   1
   6   1   7 253.682 201.695   1
   6   1   8 19506.3 389.930   1
   6  -7   9 7388.00 593.101  -2
  -6  -1  -9 7388.00 593.101   1
  -6  -2  13 259.941 311.924   1
  -6   2  12 2135.36 264.059  -2
   6   2 -12 2135.36 264.059   1
   6   2 -11 1270.12 218.487   1
   6   2 -10 1500.33 215.015   1
  -6  -2   9 2587.41 224.768   1
  -6   3   8 19220.3 305.133  -2
   6   2  -8 19220.3 305.133   1
   6   2  -7 1228.58 106.712   1
   6   2  -6 1736.76 104.605   1
  -6   4   5 27025.2 317.451  -2
   6   2  -5 27025.2 317.451   1
   6   2  -4 2854.62 124.212   1
   6   2  -3 266.324 81.0835   1
   6   2  -2 7001.37 173.195   1
  -6   5   1 10861.2 234.113  -2
   6   2  -1 10861.2 234.113   1
  -6  -2   0 15425.9 240.819   1
  -6  -2  -1 1933.45 125.303   1
  -6   6  -2 1034.25 169.707  -2
   6   2   2 1034.25 169.707   1
   6   2   3 59.0830 171.051   1
  -6  -2  -4 11500.9 369.049   1
   6   2   5 1203.43 215.989   1
  -6   7  -6 23608.3 649.224  -2
   6   2   6 23608.3 649.224   1
   6   2   7 2213.42 250.776   1
  -6  -2  -8 7213.62 360.903   1
   6  -8   9 2408.61 560.079  -2
  -6  -2  -9 2408.61 560.079   1
  -6  -3  14 687.839 357.186   1
  -6  -3  13 8694.23 522.003   1
  -6   3  12 1387.29 319.184  -2
   6   3 -12 1387.29 319.184   1
  -6  -3  11 1911.66 248.600   1
   6   3 -10 4185.35 283.374   1
   6   3  -9 8347.87 338.026   1
  -6   4   8 5166.60 225.206  -2
   6   3  -8 5166.60 225.206   1
   6   3  -7 49.5747 111.495   1
   6   3  -6 110.076 129.699   1
  -6   5   5 6785.81 224.256  -2
   6   3  -5 6785.81 224.256   1
   6   3  -4 22499.1 293.879   1
   6   3  -3 72.1928 102.466   1
   6   3  -2 4165.47 156.951   1
  -6   6   1 3270.17 178.529  -2
   6   3  -1 3270.17 178.529   1
   6   3   0 16903.1 317.353   1
   6   3   1 597.154 142.929   1
  -6   7  -2 6392.69 294.329  -2
   6   3   2 6392.69 294.329   1
  -6  -3  -3 9813.42 363.661   1
  -6  -3  -4 796.066 212.268   1
   6   3   5 542.169 208.473   1
  -6   8  -6 9164.92 472.852  -2
   6   3   6 9164.92 472.852   1
  -6  -3  -8 1418.91 389.325   1
  -6  -3  -9 251.916 463.325   1
  -6  -4  13 3059.08 408.358   1
   6  -4 -12 5759.89 605.424  -2
  -6  -4  12 5759.89 605.424   1
   6   4 -11 1655.67 243.891   1
   6   4 -10 1171.39 234.437   1
  -6  -4   9 493.546 309.749   1
  -6   5   9 4698.90 468.847  -2
   6   4  -9 4698.90 468.847   1
  -6   5   8 2544.63 219.304  -2
   6   4  -8 2544.63 219.304   1
   6   4  -7 2432.36 172.608   1
   6   4  -6 4310.54 197.323   1
  -6   6   5 4422.62 254.607  -2
   6   4  -5 4422.62 254.607   1
   6   4  -4 3005.33 174.450   1
   6   4  -3 498.927 177.304   1
   6   4  -2 188.765 132.950   1
  -6   7   1 10634.6 318.736  -2
   6   4  -1 10634.6 318.736   1
   6   4   0 2112.83 169.909   1
   6   4   1 16.4808 136.997   1
  -6   8  -2 8676.38 463.921  -2
   6   4   2 8676.38 463.921   1
   6   4   3 5763.54 320.318   1
  -6  -4  -4 11860.1 427.031   1
   6   5 -11 4887.43 446.847   1
   6   5 -10 900.755 237.585   1
  -6  -5   9 8440.00 540.657   1
  -6   6   9 7738.18 540.637  -2
   6   5  -9 7738.18 540.637   1
  -6   6   8 608.652 210.530  -2
   6   5  -8 608.652 210.530   1
   6   5  -7 515.302 156.507   1
  -6  -5   6 10470.7 286.692   1
  -6   7   5 8194.36 331.133  -2
   6   5  -5 8194.36 331.133   1
   6   5  -4 3076.17 188.800   1
   6   5  -3 1370.07 223.114   1
   6   5  -2-56.6186 198.864   1
  -6   8   1 2210.04 318.699  -2
   6   5  -1 2210.04 318.699   1
   6   5   0 8233.59 356.875   1
   6   5   1 512.525 209.317   1
  -6   9  -2 12254.3 759.431  -2
   6   5   2 12254.3 759.431   1
   6   6 -10 1274.28 339.947   1
  -6   7   9 2267.07 479.863  -2
   6   6  -9 2267.07 479.863   1
  -6   7   8 4440.33 374.850  -2
   6   6  -8 4440.33 374.850   1
   6   6  -7 2720.75 367.536   1
   6   6  -6 1216.56 325.177   1
  -6   8   5 796.147 427.535  -2
   6   6  -5 796.147 427.535   1
   6   6  -4 1576.23 344.225   1
   6   6  -3 2333.77 356.664   1
   6   6  -2 5938.33 458.877   1
  -6   9   1 5305.89 552.431  -2
   6   6  -1 5305.89 552.431   1
   6   7  -7 3197.96 466.988   1
   7  -9  -1 4904.40 488.345   1
  -7  -5   0 3573.18 579.996  -2
   7  -9   0 3573.18 579.996   1
   7  -9   1 284.523 368.447   1
   7  -9   2 1120.59 262.314   1
   7  -9   3 549.625 319.728   1
  -7  -4  -4 9742.16 687.635  -2
   7  -9   4 9742.16 687.635   1
   7  -8  -6 137.444 318.583   1
  -7   8   5 3663.41 328.565   1
  -7   8   4 6390.10 358.825   1
  -7  -5   3 6591.25 447.287  -2
   7  -8  -3 6591.25 447.287   1
   7  -8  -2 193.629 233.113   1
  -7   8   1 77.6911 224.230   1
   7   4   0 9168.94 373.135  -2
  -7   8   0 9168.94 373.135   1
   7  -8   1 457.816 183.943   1
   7  -8   2 2634.63 269.988   1
   7  -8   3 6443.51 449.882   1
  -7  -3  -4 12240.5 703.924  -2
   7  -8   4 12240.5 703.924   1
   7  -8   5 1548.37 330.324   1
   7  -8   6 2838.51 365.408   1
   7  -7  -8 3608.18 429.944   1
  -7  -5   7 3064.36 503.459  -2
   7  -7  -7 3064.36 503.459   1
  -7   7   6 3841.51 309.970   1
  -7  -5   6 4741.63 483.153  -2
   7  -7  -6 4741.63 483.153   1
   7  -7  -5 613.082 184.110   1
  -7   7   4 12382.4 415.383   1
  -7  -4   4 12382.1 505.261  -2
   7  -7  -4 12382.1 505.261   1
  -7  -4   3 493.476 207.222  -2
   7  -7  -3 493.476 207.222   1
  -7   7   2 692.317 232.767   1
  -7   7   1 1895.58 174.936   1
  -7  -3   0 2557.17 241.998  -2
   7  -7   0 2557.17 241.998   1
  -7   7  -1 73.9202 168.331   1
   7  -7   2 369.474 185.037   1
  -7   7  -3 8229.26 332.142   1
  -7  -2  -4 1090.32 284.567  -2
   7  -7   4 1090.32 284.567   1
   7  -7   5 1412.14 231.259   1
   7  -7   6 11.4784 211.452   1
  -7  -1  -7 11032.9 659.136  -2
   7  -7   7 11032.9 659.136   1
   7  -6  -9 1974.25 267.667   1
  -7   6   8 2812.05 269.885   1
  -7  -4   7 11739.5 505.027  -2
   7  -6  -7 11739.5 505.027   1
  -7   6   6 66.9132 171.898   1
  -7  -4   6 4545.59 438.681  -2
   7  -6  -6 4545.59 438.681   1
  -7   6   5 5292.59 221.375   1
   7  -6  -4 159.033 157.848   1
  -7  -3   4 1392.90 286.142  -2
   7  -6  -4 1392.90 286.142   1
  -7  -3   3 4855.56 263.776  -2
   7  -6  -3 4855.56 263.776   1
  -7   6   2 2102.26 160.193   1
  -7   6   1 1039.70 143.837   1
  -7  -2   0 16709.9 400.101  -2
   7  -6   0 16709.9 400.101   1
  -7   6  -1-10.5662 150.935   1
  -7   6  -2 3213.36 224.572   1
   7  -6   3 497.779 177.007   1
  -7  -1  -4 16869.5 506.477  -2
   7  -6   4 16869.5 506.477   1
   7  -6   5-29.1762 184.670   1
   7  -6   6 1314.59 224.002   1
  -7   0  -7 16344.0 545.960  -2
   7  -6   7 16344.0 545.960   1
   7  -6   8 4556.62 416.351   1
  -7   5   9 3470.94 275.273   1
  -7   5   8 3347.69 268.391   1
  -7  -3   7 8890.05 299.010  -2
   7  -5  -7 8890.05 299.010   1
   7  -5  -6 1614.52 150.697   1
   7  -5  -5 2164.66 178.556   1
  -7   5   4 9240.81 257.686   1
  -7  -2   3 11815.5 330.432  -2
   7  -5  -3 11815.5 330.432   1
   7  -5  -2 3389.04 139.994   1
  -7   5   1 2697.76 132.452   1
  -7  -1   0 20928.3 295.694  -2
   7  -5   0 20928.3 295.694   1
  -7   5  -1 2765.15 193.550   1
   7  -5   2 27.0213 145.182   1
   7  -5   3 1221.81 182.503   1
  -7   0  -4 315.787 229.474  -2
   7  -5   4 315.787 229.474   1
   7  -5   5 1629.23 213.474   1
   7  -5   6 902.666 209.761   1
  -7   1  -7 7821.78 409.403  -2
   7  -5   7 7821.78 409.403   1
  -7   5  -8 7317.97 361.004   1
   7  -5   9 1037.56 319.617   1
   7   3 -10 10108.1 644.883  -2
  -7   4  10 10108.1 644.883   1
  -7   4   9-114.292 268.015   1
  -7   4   8 9990.60 509.149   1
  -7  -2   7 921.785 207.817  -2
   7  -4  -7 921.785 207.817   1
  -7   4   6 114.122 139.848   1
   7  -4  -5 2027.81 164.137   1
   7  -4  -4 125.682 94.8917   1
  -7  -1   3 17854.6 231.532  -2
   7  -4  -3 17854.6 231.532   1
  -7   4   2 2316.44 83.5046   1
  -7   4   1 10218.3 132.412   1
   7   0   0 2778.23 120.903  -2
  -7   4   0 2778.23 120.903   1
   7  -4   1 6722.57 139.243   1
  -7   4  -2 6906.49 145.630   1
  -7   4  -3 60.4344 123.638   1
  -7   1  -4 27400.2 562.436  -2
   7  -4   4 27400.2 562.436   1
   7  -4   5 96.9459 173.863   1
  -7   4  -6 2553.53 240.966   1
  -7   2  -7 2702.41 313.546  -2
   7  -4   7 2702.41 313.546   1
   7  -4   8 14995.9 438.346   1
   7  -4   9 565.583 211.531   1
  -7   3  11 5176.28 438.735   1
   7   2 -10 4955.05 506.436  -2
  -7   3  10 4955.05 506.436   1
  -7   3   9 1325.13 287.069   1
  -7   3   8 135.577 253.667   1
  -7  -1   7 3380.22 231.631  -2
   7  -3  -7 3380.22 231.631   1
  -7   3   6 17572.2 240.951   1
  -7   3   5 4198.56 146.741   1
  -7   3   4 7464.37 100.340   1
   7   0  -3 13528.2 159.454  -2
  -7   3   3 13528.2 159.454   1
  -7   3   2 8347.84 117.644   1
  -7   3   1 5641.67 106.691   1
   7  -1   0 25345.6 237.915  -2
  -7   3   0 25345.6 237.915   1
  -7   3  -1 11179.3 151.262   1
  -7   3  -2 135.300 73.4542   1
   7  -3   3 2688.85 115.669   1
  -7   2  -4 12611.8 344.037  -2
   7  -3   4 12611.8 344.037   1
  -7   3  -5 2139.16 180.081   1
   7  -3   6 1851.29 185.421   1
  -7   3  -7 134.480 219.993  -2
   7  -3   7 134.480 219.993   1
   7  -3   8 31.2668 196.977   1
   7  -3   9 3235.49 272.459   1
  -7   2  11 85.8160 259.136   1
   7   1 -10 13749.6 676.060  -2
  -7   2  10 13749.6 676.060   1
  -7   2   9 42.9782 231.778   1
  -7   2   8 2333.02 168.884   1
  -7   0   7 19011.3 307.331  -2
   7  -2  -7 19011.3 307.331   1
  -7   2   6 6036.81 168.207   1
   7  -2  -5 47.1048 98.9377   1
  -7   2   4 7676.58 112.832   1
  -7   1   3 2979.08 102.352  -2
   7  -2  -3 2979.08 102.352   1
  -7   2   2 4214.46 108.238   1
  -7   2   1 61.0983 77.9120   1
   7  -2   0 28.5524 116.513  -2
  -7   2   0 28.5524 116.513   1
  -7   2  -1 1000.78 103.939   1
  -7   2  -2 13810.6 248.303   1
  -7   2  -3 13414.5 350.194   1
  -7   3  -4 10880.2 397.207  -2
   7  -2   4 10880.2 397.207   1
  -7   2  -5 5138.18 273.432   1
  -7   2  -6 8965.20 345.284   1
  -7   4  -7 1946.03 310.370  -2
   7  -2   7 1946.03 310.370   1
  -7   2  -8 13753.9 435.834   1
   7  -2   9 432.848 305.152   1
  -7   1  11 2628.64 349.859   1
   7   0 -10 18008.3 765.987  -2
  -7   1  10 18008.3 765.987   1
  -7   1   9 771.099 155.564   1
  -7   1   8 208.397 98.8546   1
  -7   1   7 26089.7 367.826  -2
   7  -1  -7 26089.7 367.826   1
  -7   1   6 9120.75 201.579   1
   7  -1  -5 665.900 46.6083   1
   7  -1  -4 84.8907 74.8725   1
  -7   2   3 3612.10 144.378  -2
   7  -1  -3 3612.10 144.378   1
   7  -1  -2 24660.4 268.372   1
  -7   1   1 268.054 84.1294   1
   7  -3   0 24114.1 311.728  -2
  -7   1   0 24114.1 311.728   1
   7  -1   1 230.446 134.840   1
   7  -1   2 8275.01 283.599   1
  -7   1  -3 5738.81 260.053   1
  -7   4  -4 24752.0 568.738  -2
   7  -1   4 24752.0 568.738   1
   7  -1   5 629.730 195.359   1
   7  -1   6 420.476 194.454   1
   7  -5   7 6402.72 404.856  -2
  -7   1  -7 6402.72 404.856   1
  -7   1  -8 854.424 220.347   1
  -7   0  11 110.240 202.419   1
   7  -1 -10 20755.2 431.195  -2
  -7   0  10 20755.2 431.195   1
  -7   0   9 359.459 160.604   1
  -7   0   8 2876.31 168.919   1
  -7   2   7 14903.7 465.078  -2
   7   0  -7 14903.7 465.078   1
   7   0  -6 9734.80 317.913   1
   7   0  -5 55.8157 77.5724   1
   7   0  -4 1911.88 98.5208   1
  -7   3   3 16720.9 308.179  -2
   7   0  -3 16720.9 308.179   1
  -7   0   2 73.5344 92.2244   1
  -7   0   1 21.0669 96.7398   1
  -7   4   0 2974.19 206.095  -2
   7   0   0 2974.19 206.095   1
  -7   0  -1 29.9502 143.194   1
  -7   0  -2 10992.4 331.454   1
   7   0   3 1203.18 193.067   1
  -7   5  -4 310.101 249.307  -2
   7   0   4 310.101 249.307   1
   7   0   5 0.51955 194.515   1
  -7   0  -6 16262.9 453.418   1
  -7   6  -7 16261.8 576.545  -2
   7   0   7 16261.8 576.545   1
  -7  -1  11 5843.43 250.609   1
  -7   2  10 13847.6 399.253  -2
   7   1 -10 13847.6 399.253   1
   7   1  -9 150.853 183.905   1
   7   1  -8 146.922 173.309   1
   7  -3  -7 3177.51 398.966  -2
  -7  -1   7 3177.51 398.966   1
  -7  -1   6 5334.76 167.465   1
   7   1  -5 678.040 113.299   1
   7   1  -4 815.551 122.848   1
  -7   4   3 21612.4 308.690  -2
   7   1  -3 21612.4 308.690   1
   7   1  -2 22453.7 346.512   1
  -7  -1   1 1052.38 141.599   1
  -7   5   0 16660.1 389.228  -2
   7   1   0 16660.1 389.228   1
  -7  -1  -1 2488.38 212.680   1
  -7  -1  -2 20691.9 451.534   1
   7   1   3 19.7951 182.131   1
  -7   6  -4 14754.9 524.793  -2
   7   1   4 14754.9 524.793   1
   7   1   5 425.184 205.713   1
   7   1   6 1614.30 236.747   1
  -7  -2  12 1896.97 387.127   1
   7   2 -11 7760.75 359.905   1
   7  -3 -10 6117.27 403.208  -2
  -7  -2  10 6117.27 403.208   1
   7   2  -9 705.883 217.916   1
   7   2  -8 754.024 207.067   1
  -7   4   7 551.443 263.983  -2
   7   2  -7 551.443 263.983   1
   7   2  -6 19497.1 367.176   1
   7   2  -5 240.478 118.560   1
  -7  -2   4 1893.20 152.891   1
  -7   5   3 9601.02 297.864  -2
   7   2  -3 9601.02 297.864   1
  -7  -2   2 7440.90 235.039   1
  -7  -2   1 3632.92 193.432   1
  -7   6   0 13334.8 472.465  -2
   7   2   0 13334.8 472.465   1
  -7  -2  -1 9825.12 278.679   1
   7   2   2 390.297 155.896   1
   7   2   3-116.214 192.022   1
  -7   7  -4 1392.79 305.624  -2
   7   2   4 1392.79 305.624   1
   7   2   5 733.695 224.975   1
  -7  -3  13 284.439 414.817   1
  -7  -3  12 197.366 328.578   1
  -7  -3  11 704.843 337.702   1
  -7   4  10 8713.89 458.581  -2
   7   3 -10 8713.89 458.581   1
   7   3  -9 2618.78 269.191   1
   7   3  -8 1322.73 239.562   1
  -7   5   7 10335.2 464.724  -2
   7   3  -7 10335.2 464.724   1
   7   3  -6 1121.26 177.091   1
   7   3  -5 97.8597 150.053   1
   7   3  -4 1483.06 156.535   1
  -7   6   3 4567.63 257.123  -2
   7   3  -3 4567.63 257.123   1
  -7  -3   2 6346.57 233.162   1
   7   3  -1 1880.69 175.771   1
  -7   7   0 3199.48 255.261  -2
   7   3   0 3199.48 255.261   1
   7   3   1 6872.56 255.698   1
   7   3   2 13741.4 334.456   1
  -7  -3  -3 1745.07 195.803   1
  -7   8  -4 11159.5 718.570  -2
   7   3   4 11159.5 718.570   1
  -7   5  10 5923.13 423.060  -2
   7   4 -10 5923.13 423.060   1
   7   4  -9 172.859 218.825   1
   7   4  -8 6914.83 349.099   1
  -7   6   7 12301.2 516.834  -2
   7   4  -7 12301.2 516.834   1
  -7  -4   6 5547.58 233.005   1
   7   4  -5 1106.87 199.587   1
   7   4  -4 1173.56 209.021   1
  -7   7   3 455.665 200.148  -2
   7   4  -3 455.665 200.148   1
   7   4  -2 9308.19 362.184   1
   7   4  -1 1100.16 222.324   1
  -7   8   0 6692.36 595.281  -2
   7   4   0 6692.36 595.281   1
   7   4   1 66.3670 287.130   1
   7   4   2 2389.72 369.711   1
   7   5  -9 1242.33 354.402   1
   7   5  -8 272.838 451.998   1
   7   5  -7 2442.13 405.056   1
   7   5  -6 1380.09 327.526   1
   7   5  -5 728.721 307.310   1
   7   5  -4 1398.18 333.990   1
  -7   8   3 6967.73 585.777  -2
   7   5  -3 6967.73 585.777   1
   7   5  -2 481.758 291.477   1
   7   5  -1 9.78471 276.528   1
   7   6  -5 500.979 358.441   1
  -8   8   4 1433.99 464.632   1
  -8  -4   2 7928.91 704.081  -2
   8  -8  -2 7928.91 704.081   1
   8  -8  -1 331.924 369.989   1
   8  -8   0 55.2874 362.156   1
   8  -8   3 2691.87 394.788   1
   8  -8   4 301.602 307.002   1
  -8  -2  -5 6512.65 590.257  -2
   8  -8   5 6512.65 590.257   1
   8   4  -5 4088.32 607.709  -2
  -8   7   5 4088.32 607.709   1
   8  -7  -4 791.689 254.093   1
   8  -7  -3 212.583 225.238   1
   8   3  -2 6941.29 448.019  -2
  -8   7   2 6941.29 448.019   1
  -8   7   1 274.120 220.038   1
  -8   7   0 2052.16 263.242   1
  -8   7  -1 105.630 221.349   1
  -8  -2  -2 24622.2 864.927  -2
   8  -7   2 24622.2 864.927   1
   8  -7   3 90.5504 277.913   1
   8  -7   4 503.575 305.674   1
  -8  -1  -5 999.496 410.442  -2
   8  -7   5 999.496 410.442   1
   8  -7   6-4.13561 293.027   1
  -8   6   8 5561.26 497.778   1
  -8   6   7 90.2740 352.631   1
   8  -6  -6 14237.2 693.885   1
  -8  -3   5 2808.90 295.137  -2
   8  -6  -5 2808.90 295.137   1
  -8   6   4 31.3677 171.242   1
  -8   6   3 130.638 219.749   1
   8   2  -2 1731.80 330.321  -2
  -8   6   2 1731.80 330.321   1
  -8   6   1 2624.10 272.316   1
  -8   6   0-10.5697 215.484   1
   8  -6   1 173.801 162.975   1
  -8  -1  -2 3222.78 310.764  -2
   8  -6   2 3222.78 310.764   1
  -8   6  -3 3556.39 255.259   1
   8  -6   4 1264.00 228.293   1
  -8   0  -5 3648.40 478.561  -2
   8  -6   5 3648.40 478.561   1
   8  -6   6 15282.0 630.786   1
   8  -6   7 1197.01 331.080   1
  -8   5   8 238.926 312.858   1
   8  -5  -7 12.5375 231.687   1
  -8   5   6 859.165 184.236   1
  -8  -2   5 1008.56 237.833  -2
   8  -5  -5 1008.56 237.833   1
  -8   5   4 9247.70 278.892   1
  -8   5   3 1109.56 170.195   1
   8   1  -2 11264.9 390.252  -2
  -8   5   2 11264.9 390.252   1
  -8   5   1 6069.07 324.869   1
  -8   5   0 2837.08 180.931   1
  -8   5  -1 183.784 159.830   1
  -8   0  -2 5936.95 342.500  -2
   8  -5   2 5936.95 342.500   1
   8  -5   3 165.416 172.190   1
  -8   5  -4 694.287 202.299   1
  -8   1  -5 2366.13 314.310  -2
   8  -5   5 2366.13 314.310   1
   8  -5   6 16922.2 634.306   1
   8  -5   7 1533.18 326.439   1
   8   2  -9 1961.56 450.606  -2
  -8   4   9 1961.56 450.606   1
  -8   4   8 4161.86 416.630   1
   8  -4  -7 1156.10 240.727   1
  -8   4   6 2965.64 203.185   1
  -8  -1   5 1150.98 224.455  -2
   8  -4  -5 1150.98 224.455   1
  -8   4   4 12047.1 295.990   1
  -8   4   3 1539.90 135.203   1
   8   0  -2 26975.4 373.937  -2
  -8   4   2 26975.4 373.937   1
  -8   4   1 2192.76 118.316   1
   8  -4   0 1029.07 126.414   1
   8  -4   1 788.320 139.286   1
   8  -1   2 598.144 192.029  -2
  -8   4  -2 598.144 192.029   1
  -8   4  -3 3134.73 198.150   1
  -8   4  -4 3379.64 210.120   1
  -8   2  -5 472.710 266.326  -2
   8  -4   5 472.710 266.326   1
   8  -4   6-144.328 208.913   1
   8  -4   7 5331.64 427.371   1
   8   1  -9 5028.70 538.269  -2
  -8   3   9 5028.70 538.269   1
  -8   3   8 201.065 215.229   1
   8  -3  -7 943.558 224.894   1
   8  -3  -6 212.757 147.873   1
  -8   0   5 2534.03 239.199  -2
   8  -3  -5 2534.03 239.199   1
  -8   3   4 1168.11 131.138   1
  -8   3   3 76.9756 113.850   1
   8  -1  -2 889.890 167.315  -2
  -8   3   2 889.890 167.315   1
  -8   3   1 289.390 93.5088   1
  -8   3   0 9940.68 189.717   1
  -8   3  -1 2079.17 130.339   1
  -8   2  -2 31921.3 528.540  -2
   8  -3   2 31921.3 528.540   1
  -8   3  -3 4000.65 211.261   1
  -8   3  -4 4919.52 234.690   1
  -8   3  -5 3060.45 272.834  -2
   8  -3   5 3060.45 272.834   1
   8  -3   6 3360.70 227.531   1
   8  -3   7 84.8294 281.740   1
  -8   2  10 194.636 255.718   1
   8   0  -9 2208.16 411.550  -2
  -8   2   9 2208.16 411.550   1
  -8   2   8 19739.5 501.389   1
   8  -2  -7 37.3621 143.945   1
  -8   2   6 5013.21 178.777   1
  -8   1   5 5638.58 231.809  -2
   8  -2  -5 5638.58 231.809   1
  -8   2   4 8114.63 210.266   1
  -8   2   3 1886.20 143.879   1
   8  -2  -2 3364.70 187.128  -2
  -8   2   2 3364.70 187.128   1
   8  -2  -1 1679.56 131.534   1
   8  -2   0 4651.46 200.215   1
  -8   2  -1 7301.44 279.839   1
  -8   3  -2 29745.4 615.814  -2
   8  -2   2 29745.4 615.814   1
  -8   2  -3 15.8280 178.209   1
   8  -2   4 1908.05 233.541   1
  -8   4  -5 721.475 282.066  -2
   8  -2   5 721.475 282.066   1
   8  -2   6 141.420 204.685   1
   8  -2   7 2472.86 353.045   1
  -8   1  10 1406.43 294.880   1
  -8   1   8 15128.6 604.125   1
   8  -1  -7 557.389 124.888   1
  -8   1   6 2278.73 153.479   1
  -8   2   5 5702.02 279.794  -2
   8  -1  -5 5702.02 279.794   1
  -8   1   4 2763.28 230.728   1
  -8   1   3 2860.09 237.883   1
  -8   3   2 1021.75 171.370  -2
   8  -1  -2 1021.75 171.370   1
   8  -1  -1 22.0166 119.962   1
  -8   1   0 6727.22 230.739   1
  -8   1  -1 297.490 156.764   1
  -8   4  -2 859.947 245.985  -2
   8  -1   2 859.947 245.985   1
   8  -1   3 607.680 200.868   1
  -8   1  -4 13896.5 414.181   1
  -8   5  -5 2662.82 326.587  -2
   8  -1   5 2662.82 326.587   1
   8  -1   6 8418.93 510.068   1
   8  -2  -9 2014.18 273.247  -2
  -8   0   9 2014.18 273.247   1
  -8   0   8 902.389 196.114   1
   8   0  -7 554.662 203.192   1
   8   0  -6 142.465 190.852   1
  -8   3   5 3211.22 332.969  -2
   8   0  -5 3211.22 332.969   1
  -8   0   4 30148.5 562.292   1
   8   0  -3 30.0614 117.684   1
  -8   4   2 23920.5 416.300  -2
   8   0  -2 23920.5 416.300   1
   8   0  -1 419.390 137.674   1
   8   0   0 8638.83 262.220   1
   8   0   1 3716.13 215.341   1
  -8   5  -2 4960.14 351.164  -2
   8   0   2 4960.14 351.164   1
   8   0   3 209.318 192.159   1
   8   0   4 127.990 202.136   1
  -8   6  -5 3837.14 504.802  -2
   8   0   5 3837.14 504.802   1
   8   0   6 3102.82 410.718   1
  -8  -1  10 1054.59 354.212   1
   8  -3  -9 3395.24 498.750  -2
  -8  -1   9 3395.24 498.750   1
  -8  -1   8 5785.36 430.993   1
  -8  -1   7 200.462 292.075   1
   8   1  -6 56.4791 209.284   1
  -8   4   5 926.458 300.256  -2
   8   1  -5 926.458 300.256   1
  -8  -1   4 7043.53 332.551   1
   8   1  -3 2930.15 181.428   1
  -8   5   2 9249.38 319.708  -2
   8   1  -2 9249.38 319.708   1
  -8  -1   1 1706.94 175.483   1
   8   1   0 2944.15 202.466   1
   8   1   1 2067.16 193.062   1
  -8   6  -2 3537.05 295.483  -2
   8   1   2 3537.05 295.483   1
  -8  -1  -3 153.769 206.583   1
   8   1   4 9398.74 519.656   1
  -8  -2  11 1439.87 389.419   1
  -8  -2  10 511.012 335.493   1
   8  -4  -9 2395.88 489.066  -2
  -8  -2   9 2395.88 489.066   1
  -8  -2   8 720.822 323.120   1
  -8  -2   7 703.994 321.666   1
  -8  -2   6 8571.38 508.820   1
  -8   5   5 1252.85 321.398  -2
   8   2  -5 1252.85 321.398   1
  -8  -2   4 2384.86 260.752   1
   8   2  -3 1122.87 161.324   1
  -8   6   2 1241.94 224.731  -2
   8   2  -2 1241.94 224.731   1
   8   2  -1 1928.90 226.226   1
   8   2   0 19171.9 389.324   1
   8   2   1 448.902 180.384   1
  -8   7  -2 20287.0 618.446  -2
   8   2   2 20287.0 618.446   1
   8   2   3 15.5828 218.770   1
  -8  -3   8 13362.8 633.785   1
  -8  -3   7-46.1431 292.366   1
  -8  -3   6 2175.21 365.651   1
   8  -6  -5 1936.87 461.416  -2
  -8  -3   5 1936.87 461.416   1
   8   3  -4 4300.82 303.916   1
   8   3  -3 87.5889 166.074   1
  -8   7   2 6462.27 544.516  -2
   8   3  -2 6462.27 544.516   1
   8   3  -1 61.3671 212.227   1
   8   3   0 1839.34 340.489   1
   8   3   1 3172.60 386.046   1
  -8   8  -2 7112.27 652.763  -2
   8   3   2 7112.27 652.763   1
   8   4  -3 936.942 330.936   1
  -8   8   2 7772.15 615.188  -2
   8   4  -2 7772.15 615.188   1
   8   4  -1 2590.11 374.298   1
   9   2  -4 4897.06 583.610  -2
  -9   6   4 4897.06 583.610   1
  -9   6   3 367.935 316.717   1
  -9   6   2 905.322 330.659   1
  -9   6   1 791.399 343.487   1
   9  -6   5 8759.72 541.562   1
   9   2  -7 3921.22 633.111  -2
  -9   5   7 3921.22 633.111   1
  -9   5   5 2250.49 393.309   1
   9   1  -4 5008.89 572.520  -2
  -9   5   4 5008.89 572.520   1
  -9   5   3 3246.80 405.443   1
  -9   5   2 2680.90 372.737   1
  -9   5   1 1354.00 344.764   1
   9   0   0 169.614 398.158  -2
  -9   5   0 169.614 398.158   1
  -9   5  -1 765.645 335.384   1
  -9   1  -3 3634.35 453.559  -2
   9  -5   3 3634.35 453.559   1
   9  -5   4 883.783 333.613   1
   9  -5   5 8464.21 512.931   1
  -9   4   8 280.606 324.603   1
   9   1  -7 2212.73 526.293  -2
  -9   4   7 2212.73 526.293   1
  -9   4   6 2475.19 396.654   1
  -9   4   5 1040.31 234.922   1
   9   0  -4 136.335 276.085  -2
  -9   4   4 136.335 276.085   1
  -9   4   3 5798.26 340.064   1
  -9   4   2 7565.06 369.226   1
  -9   4   1 424.378 179.859   1
   9  -1   0 9363.77 392.939  -2
  -9   4   0 9363.77 392.939   1
  -9   4  -1 195.956 207.107   1
  -9   4  -2 406.556 229.348   1
  -9   2  -3 7448.04 384.108  -2
   9  -4   3 7448.04 384.108   1
  -9   4  -4 3796.03 283.100   1
   9  -4   5 201.641 286.122   1
   9  -4   6 248.156 336.022   1
  -9   3   8 2127.76 363.605   1
   9   0  -7 691.192 438.112  -2
  -9   3   7 691.192 438.112   1
  -9   3   6 3831.96 411.582   1
  -9   3   5 928.258 228.190   1
  -9   1   4 2838.93 274.389  -2
   9  -3  -4 2838.93 274.389   1
  -9   3   3 3763.58 186.198   1
  -9   3   2 551.948 178.207   1
  -9   3   1 9615.48 305.482   1
   9  -2   0 2007.08 278.928  -2
  -9   3   0 2007.08 278.928   1
  -9   3  -1 2379.65 220.280   1
   9  -3   2 2017.89 194.723   1
  -9   3  -3 8101.72 399.800  -2
   9  -3   3 8101.72 399.800   1
   9  -3   4 8.38798 210.696   1
   9  -3   5 906.165 304.599   1
  -9   2   8 125.592 276.532   1
  -9   2   6 2373.73 252.950   1
   9  -2  -5 2209.25 209.960   1
   9  -2  -4 261.005 193.280  -2
  -9   2   4 261.005 193.280   1
  -9   2   3 731.730 149.451   1
  -9   2   2 5170.56 207.231   1
  -9   2   1 113.325 177.083   1
   9  -3   0 1821.10 277.685  -2
  -9   2   0 1821.10 277.685   1
   9  -2   1 6353.29 253.277   1
  -9   2  -2 6949.63 317.790   1
   9  -4   3 6564.89 394.440  -2
  -9   2  -3 6564.89 394.440   1
   9  -2   4 2860.89 382.941   1
   9  -2   5 299.109 288.986   1
  -9   1   8 1587.60 351.517   1
   9  -2  -7 99.4878 339.045  -2
  -9   1   7 99.4878 339.045   1
  -9   1   6 15739.7 341.906   1
  -9   1   5 772.918 184.764   1
  -9   3   4 2520.59 336.863  -2
   9  -1  -4 2520.59 336.863   1
   9  -1  -3 1484.01 244.744   1
  -9   1   2 4158.89 303.823   1
  -9   1   1 7247.63 358.671   1
   9  -4   0 7907.30 479.949  -2
  -9   1   0 7907.30 479.949   1
   9  -1   1 1275.08 181.543   1
   9  -1   2 64.9377 197.794   1
  -9   5  -3 4440.32 495.968  -2
   9  -1   3 4440.32 495.968   1
   9  -1   4 973.240 312.190   1
   9  -3  -7 576.066 471.850  -2
  -9   0   7 576.066 471.850   1
  -9   0   6 2560.70 394.003   1
   9   0  -5 6791.43 347.643   1
  -9   4   4 214.327 301.294  -2
   9   0  -4 214.327 301.294   1
  -9   0   3 977.788 238.449   1
  -9   0   2 2921.38 278.627   1
   9   0  -1 3688.75 294.561   1
   9  -5   0 522.898 306.057  -2
  -9   0   0 522.898 306.057   1
   9   0   1 1386.53 240.826   1
   9   0   2 7557.32 355.683   1
  -9   6  -3 778.320 393.160  -2
   9   0   3 778.320 393.160   1
   9   0   4 129.785 330.232   1
  -9  -1   8 3879.24 436.942   1
   9  -4  -7 2978.17 534.294  -2
  -9  -1   7 2978.17 534.294   1
  -9  -1   6 3000.44 391.197   1
   9   1  -5 1204.51 245.770   1
   9  -5  -4 4163.56 523.868  -2
  -9  -1   4 4163.56 523.868   1
   9   1  -3 32.1803 216.958   1
  -9  -1   2 11475.1 595.922   1
   9   1  -1 1418.52 376.846   1
  -9   6   0 4623.49 614.725  -2
   9   1   0 4623.49 614.725   1
   9   1   1 2329.20 275.224   1
   9   1   2 3452.08 295.986   1
  -9   7  -3 9550.37 745.289  -2
   9   1   3 9550.37 745.289   1
   9   2  -5 993.635 363.188   1
  -9   6   4 4790.83 587.735  -2
   9   2  -4 4790.83 587.735   1
   9   2  -2 182.345 339.093   1
   9   2  -1 3561.99 456.117   1
  -9   7   0 578.647 525.371  -2
   9   2   0 578.647 525.371   1
 -10   4   3 7004.98 534.066   1
  10  -2   1 6369.20 644.730  -2
 -10   4  -1 6369.20 644.730   1
 -10   3   4 10429.5 585.889   1
 -10   3   3 45.5632 332.510   1
 -10   3   1 1703.78 393.645   1
 -10   3   0 305.189 351.903   1
 -10   2   4 4806.08 466.649   1
 -10   2   3 5449.62 471.160   1
  10  -3  -2 1336.93 493.423  -2
 -10   2   2 1336.93 493.423   1
 -10   2   1 247.029 342.494   1
 -10   1   5 250.324 365.974   1
 -10   1   4 371.161 252.854   1
 -10   1   3 1960.32 397.325   1
  10  -4  -2 358.068 491.713  -2
 -10   1   2 358.068 491.713   1
   0   0  -3 1318.19 41.9769   2
   0   0  -4 12434.0 94.1246   2
   0   0  -5 16672.1 117.502   2
   0   0  -6 566.241 50.6158   2
   0   0  -8 1088.05 68.2505   2
   0   0  -9 10292.4 134.212   2
   0   0 -10 6775.13 154.832   2
   0   0 -11 2657.66 251.626   2
   0   0  12 10047.5 192.647   2
   0   0  13 1649.80 120.916   2
   0   0 -15 756.043 172.750   2
   0   0 -16 7128.16 495.576   2
   0   1 -16 872.142 189.922   2
   0   1 -15 561.210 167.624   2
   0  -1  13 7981.80 175.281   2
   0  -1  12 1480.69 102.539   2
   0   1 -11 68.5519 122.016   2
   0   1 -10 32104.2 200.919   2
   0  -1   9 5178.41 87.3122   2
   0  -1   8 61233.5 240.218   2
   0  -1   6 352.466 43.7471   2
   0  -1   5 87.1204 42.5409   2
   0  -1   4 31344.4 130.875   2
   0  -1   3 59.6751 35.7477   2
   0  -1   2 396.974 26.3230   2
   0   1   1 2439.74 68.6123   2
   0  -1  -2 302.396 53.3048   2
   0   1   3 2500.71 75.9880   2
   0   1   4 53604.6 253.909   2
   0   1   5 6156.57 95.3627   2
   0   1   6 14489.0 142.971   2
   0  -1  -8 26163.3 211.307   2
   0  -1  -9 24.9518 63.7751   2
   0  -1 -10 334.359 100.569   2
   0  -1 -11 2257.92 258.891   2
   0   1  12 13027.9 228.923   2
   0   1  13 2747.22 147.226   2
   0  -1 -15 698.937 209.586   2
   0  -1 -16 264.592 314.996   2
   0   2 -17 173.427 381.920   2
   0  -2  16 3261.05 228.754   2
   0   2 -15 2145.37 193.726   2
   0  -2  13 487.467 84.5740   2
   0  -2  12 10523.4 163.668   2
   0  -2  11 2887.40 174.923   2
   0  -2  10 5147.34 93.8673   2
   0   2  -9 1602.79 63.5722   2
   0  -2   8 22341.1 160.868   2
   0  -2   6 27365.1 153.910   2
   0  -2   5 9870.97 92.9790   2
   0  -2   4 22919.4 114.099   2
   0   2  -3 5339.90 56.6684   2
   0   2  -2 19738.4 97.8852   2
   0   2  -1 9586.08 95.9228   2
   0   2   1 9305.03 126.563   2
   0   2   2 10194.1 135.972   2
   0   2   3 81.3824 70.0123   2
   0   2   4 113889. 435.708   2
   0   2   5 1435.90 86.5246   2
   0   2   6 9952.61 157.316   2
   0  -2  -8 900.819 79.9818   2
   0  -2  -9 8618.51 168.328   2
   0  -2 -10 501.917 144.146   2
   0  -2 -11 815.374 239.871   2
   0  -2 -12 760.593 119.826   2
   0   2  13 3622.71 168.025   2
   0  -2 -15 802.555 315.160   2
   0  -3  17 640.095 344.378   2
   0  -3  16 1015.04 186.446   2
   0  -3  15 11381.5 263.667   2
   0  -3  13 109.745 79.7337   2
   0  -3  12 279.952 78.8113   2
   0  -3  11 61.0279 68.8329   2
   0  -3  10 7998.65 130.193   2
   0  -3   9 6357.11 104.991   2
   0  -3   8 2369.01 73.5441   2
   0  -3   6 52611.6 214.910   2
   0  -3   5 5617.44 75.1585   2
   0   3  -4 93010.3 224.554   2
   0   3  -3 4464.13 64.2258   2
   0   3  -2 821.380 42.3214   2
   0   3  -1 1714.39 77.7963   2
   0   3   1 299.237 80.1239   2
   0   3   2 7385.14 140.064   2
   0   3   3 3265.45 162.366   2
   0   3   4 6839.75 169.946   2
   0   3   5 13856.5 197.511   2
   0   3   6 47.9692 81.8903   2
   0   3   8 32117.2 371.947   2
   0   3   9 8734.65 187.517   2
   0  -3 -10 8015.19 425.681   2
   0   3  12 11246.5 306.223   2
   0  -3 -13 999.255 141.233   2
   0  -4  17 586.744 333.122   2
   0  -4  16 1662.03 200.790   2
   0  -4  15 68.0381 159.566   2
   0  -4  13 455.489 117.288   2
   0  -4  12 5287.54 170.556   2
   0  -4  11 9758.72 215.987   2
   0  -4  10 1610.35 95.8767   2
   0  -4   9 1263.93 75.2506   2
   0  -4   8 2691.09 79.2602   2
   0  -4   6 27.0293 45.3412   2
   0   4  -5-5.12294 38.3240   2
   0   4  -4 20092.7 173.924   2
   0   4  -3 254.462 43.0328   2
   0   4  -2 34066.8 177.365   2
   0   4  -1 3197.53 96.7651   2
   0   4   1 5248.18 138.289   2
   0   4   2 26999.7 270.974   2
   0  -4  -3 8755.42 346.926   2
   0  -4  -4 11181.1 401.163   2
   0   4   5 3161.91 152.803   2
   0   4   6 993.107 129.113   2
   0   4   8 16306.0 384.637   2
   0  -4  -9 969.940 186.176   2
   0  -4 -12 504.628 175.865   2
   0   4  13 4527.64 316.960   2
   0  -5  16 816.421 191.857   2
   0  -5  15 5179.76 240.078   2
   0  -5  13 484.040 137.203   2
   0  -5  12 220.539 122.802   2
   0  -5  11 5373.60 209.520   2
   0  -5  10 24629.0 304.419   2
   0  -5   9 319.025 78.3821   2
   0  -5   8 11443.7 135.833   2
   0   5  -6 12440.6 124.222   2
   0  -5   5 4894.70 76.7599   2
   0   5  -4 1901.72 104.107   2
   0   5  -3 7051.51 141.725   2
   0   5  -2 23307.3 223.709   2
   0   5  -1 3529.36 111.538   2
   0   5   1 818.710 98.0969   2
   0   5   2 280.847 97.8344   2
   0  -5  -3 3873.26 300.120   2
   0   5   5 852.113 171.778   2
   0   5   6 10348.1 331.519   2
   0  -5  -8 17.4636 184.114   2
   0   5   9 3705.90 272.925   2
   0   5  12 5358.41 475.392   2
   0   6 -16 561.839 338.106   2
   0  -6  15 1175.71 235.163   2
   0  -6  13-20.9806 136.909   2
   0  -6  12 607.425 133.615   2
   0  -6  11 157.707 165.200   2
   0  -6  10 35223.0 418.393   2
   0  -6   9 1090.29 97.4762   2
   0  -6   8 6608.30 145.958   2
   0   6  -6 1357.81 65.3251   2
   0   6  -5 3218.70 80.0217   2
   0  -6   4 976.523 94.1426   2
   0   6  -2 5775.90 209.917   2
   0   6  -1 161.816 102.023   2
   0   6   1 901.750 151.247   2
   0   6   2 17449.0 377.458   2
   0  -6  -3 102.244 229.777   2
   0  -6  -5 1304.09 212.438   2
   0   6   6 13553.3 406.600   2
   0   6   8 3716.62 289.702   2
   0  -6  -9-43.6155 221.792   2
   0   7 -15 2384.72 370.806   2
   0  -7  13 64.5633 201.156   2
   0  -7  12 340.374 201.129   2
   0   7  -9 696.384 111.020   2
   0   7  -8 104.682 86.1956   2
   0   7  -6 23349.5 195.598   2
   0  -7   5 39.1784 54.8280   2
   0   7  -2 22153.7 400.897   2
   0   7  -1 2702.61 161.514   2
   0   7   1 3822.36 192.518   2
   0   7   2 4153.32 248.808   2
   0  -7  -5 33.2802 208.300   2
   0  -7  -6 3.21198 213.665   2
   0   7   8 40.4336 303.567   2
   0   7   9 1115.98 374.298   2
   0   8 -13 700.790 315.873   2
   0   8 -12 3086.97 381.362   2
   0  -8   9 123.731 194.685   2
   0   8  -8 15.0722 123.128   2
   0   8  -6 15551.9 304.015   2
   0  -8   5 237.618 130.692   2
   0   8  -2 18.8629 150.586   2
   0   8  -1 2526.64 217.743   2
   0   8   1 239.782 157.138   2
   0   8   2 7553.20 275.814   2
   0   8   5 202.573 222.259   2
   0  -8  -6 5650.55 480.478   2
   0   9 -12 125.104 319.855   2
   0   9  -9-36.0339 291.697   2
   0   9  -8 3772.20 290.729   2
   0  -9   6 212.578 217.940   2
   0  -9   5 1024.63 158.163   2
   0   9  -2 14214.7 394.409   2
   0   9  -1 166.052 186.549   2
   0   9   1 65.7086 205.066   2
   0  -9  -2 15216.3 630.421   2
   0 -10  -1 14.8312 335.866   2
   1 -10  -1 335.713 323.633   2
   1 -10   0 5403.02 459.305   2
   1 -10   3 1221.91 313.854   2
   1 -10   4 170.200 260.877   2
   1  -9  -4 4087.27 433.110   2
   1  -9  -3 920.250 338.682   2
  -1   9   1 271.385 211.149   2
  -1   9   0 1687.18 235.562   2
  -1   9  -3 353.960 176.142   2
  -1   9  -4 9013.33 329.534   2
   1  -9   6 175.414 144.899   2
   1  -9   7 1022.57 167.394   2
  -1   9 -10 540.868 302.939   2
  -1   9 -11 906.582 311.230   2
  -1   8   8 181.188 350.906   2
  -1   8   7 579.821 341.356   2
  -1   8   4 2780.48 233.448   2
  -1   8   3 1980.27 173.303   2
  -1   8   1-37.4207 109.680   2
  -1   8   0 19553.4 293.428   2
  -1   8  -3 740.267 167.456   2
  -1   8  -4 12063.4 333.633   2
   1  -8   6-14.2337 130.599   2
   1  -8   7 68.5774 129.064   2
   1  -8  10 164.588 158.261   2
   1  -8  11 476.757 151.014   2
  -1   8 -13 4935.78 434.626   2
  -1   7  10 2859.67 291.444   2
  -1   7   8 9191.19 316.467   2
  -1   7   7 450.102 172.902   2
  -1   7   4 6228.17 298.576   2
  -1   7   3 1183.89 198.372   2
  -1   7   1 1744.58 196.455   2
  -1   7   0 2347.75 194.742   2
  -1   7  -3 2206.73 173.083   2
  -1   7  -4 5237.13 223.551   2
  -1   7  -6 2191.33 104.287   2
  -1   7  -7 1030.11 115.766   2
  -1   7  -8 14311.5 471.614   2
   1  -7  10 442.320 136.524   2
   1  -7  11 185.792 139.909   2
   1  -7  13 822.523 214.713   2
   1  -7  14 117.249 202.980   2
  -1   6  11 1597.66 260.503   2
  -1   6  10 117.927 173.845   2
  -1   6   8 2939.28 206.951   2
  -1   6   7 398.677 150.543   2
   1  -6  -5 1121.22 136.734   2
  -1   6   4 688.867 82.8349   2
  -1   6   3 5256.45 243.865   2
  -1   6   1 10317.8 293.623   2
  -1   6   0 14222.9 325.651   2
  -1   6  -3 306.657 119.011   2
  -1   6  -4 25288.2 209.945   2
  -1   6  -6 72.2804 81.6476   2
   1  -6   7 3508.79 123.456   2
  -1   6  -8 4035.75 208.331   2
   1  -6   9 31675.8 314.682   2
   1  -6  10 681.308 97.3850   2
   1  -6  11 1854.03 141.441   2
   1  -6  13 3112.94 256.747   2
   1  -6  14 177.913 208.448   2
   1  -6  16 5359.67 352.140   2
   1  -5 -11 1191.50 185.691   2
  -1   5  10 12754.4 322.856   2
  -1   5   8 1339.08 157.590   2
  -1   5   7 3623.59 228.051   2
   1  -5  -6 13836.6 507.462   2
  -1   5   4 15181.6 222.298   2
  -1   5   3 2098.55 80.2469   2
  -1   5   1 23922.2 312.356   2
  -1   5   0 11723.3 197.190   2
   1  -5   1 9875.61 257.771   2
  -1   5  -2 10459.3 351.173   2
  -1   5  -3 236.188 78.7425   2
  -1   5  -4 572.707 75.5582   2
  -1   5  -6 12321.3 147.515   2
   1  -5   7 29.9962 53.9285   2
   1  -5   8 11455.8 147.154   2
   1  -5   9 24573.0 338.245   2
   1  -5  10 433.581 108.787   2
   1  -5  11 1559.40 132.660   2
   1  -5  13 2439.04 172.044   2
   1  -5  14 80.5858 150.274   2
   1  -5  15 3358.01 264.449   2
  -1   4  11 258.194 147.014   2
  -1   4  10 6198.75 226.733   2
  -1   4   8 46.0845 114.498   2
  -1   4   7 3123.60 151.269   2
   1  -4  -6 2035.58 245.979   2
  -1   4   4 1028.64 96.4364   2
   1  -4  -3 148.893 58.5294   2
  -1   4   1 6407.74 143.046   2
  -1   4   0 6455.50 142.129   2
  -1   4  -1 20516.8 254.348   2
   1  -4   2 39248.0 396.312   2
  -1   4  -3 12637.0 152.131   2
  -1   4  -4 27598.7 214.149   2
   1  -4   6 2827.67 73.9391   2
   1  -4   7 7318.67 108.869   2
   1  -4   8 16174.5 158.875   2
   1  -4   9 163.289 92.2279   2
   1  -4  10 1126.56 103.162   2
   1  -4  11 5649.12 185.421   2
   1  -4  13 22937.3 289.306   2
   1  -4  14 1092.66 160.841   2
   1  -4  15 2071.94 239.179   2
   1  -4  17 1682.17 383.737   2
   1  -3 -15 3492.34 428.501   2
   1  -3 -14-39.6020 212.475   2
  -1   3  11 140.386 110.452   2
  -1   3  10 5775.42 167.257   2
  -1   3   8 8871.24 178.197   2
  -1   3   7 300.254 82.6607   2
   1  -3  -6 52393.7 519.143   2
   1  -3  -5 14372.3 392.950   2
  -1   3   4 8634.02 149.916   2
   1  -3  -3 961.166 85.5766   2
  -1   3   1 1292.64 54.6739   2
  -1   3   0 14458.6 168.602   2
  -1   3  -1 6094.71 104.632   2
  -1   3  -2 1089.17 77.8898   2
  -1   3  -3 63465.9 311.311   2
   1  -3   4 11200.9 107.151   2
   1  -3   6 19634.1 150.447   2
   1  -3   7 1859.94 69.7491   2
   1  -3   8 225.313 62.2790   2
   1  -3   9 1634.69 83.2417   2
   1  -3  10 13926.1 175.868   2
   1  -3  11 2456.55 128.128   2
   1  -3  13 6503.09 157.753   2
   1  -3  14 744.307 131.839   2
   1  -3  15 946.033 209.784   2
   1  -2 -15 3023.56 270.196   2
  -1   2  14 9412.38 291.405   2
  -1   2  11 821.344 103.315   2
  -1   2  10 22439.6 257.739   2
  -1   2   8 1259.36 74.4388   2
  -1   2   7 422.899 61.6281   2
  -1   2   6 10857.0 158.147   2
   1  -2  -5 53286.8 437.434   2
  -1   2   4 533.497 68.7987   2
  -1   2   3 3456.67 83.8065   2
  -1   2   1 682.874 50.5150   2
  -1   2   0 297.362 48.1279   2
  -1   2  -1 1591.54 71.8408   2
  -1   2  -2 93638.5 320.357   2
   1  -2   3 9098.17 122.935   2
   1  -2   4 9720.81 106.252   2
   1  -2   6 25705.3 176.347   2
   1  -2   7 23202.6 165.145   2
   1  -2   8 8078.48 112.062   2
   1  -2   9 6210.39 124.938   2
   1  -2  10 608.469 71.4314   2
   1  -2  11 20085.1 202.990   2
   1  -2  13 777.818 95.0506   2
   1  -2  14 3129.19 195.000   2
   1  -2  15 1380.45 340.397   2
   1  -1 -15 203.998 168.817   2
  -1   1  14 3332.47 206.050   2
  -1   1  11 6265.00 155.838   2
   1  -1 -10 1941.23 86.9949   2
   1  -1  -8 3497.92 82.6829   2
   1  -1  -7 1579.72 63.0226   2
   1  -1  -6 33192.3 202.578   2
  -1   1   5 29236.5 177.390   2
  -1   1   4 19438.8 130.752   2
  -1   1   3 857.617 51.7203   2
   1  -1  -1 39779.3 127.362   2
   1  -1   0 118.155 32.2449   2
   1  -1   1 11773.7 98.9963   2
   1  -1   2 28112.5 161.752   2
   1  -1   3 14884.9 103.838   2
   1  -1   4 3950.60 60.1217   2
   1  -1   6 6621.17 86.3198   2
   1  -1   7 30345.8 175.463   2
   1  -1   8-19.5152 49.1104   2
   1  -1   9 18070.4 191.338   2
  -1   1 -10 9038.94 142.145   2
  -1   1 -11 2653.01 114.950   2
   1  -1  13 123.571 100.876   2
   1  -1  14 4871.48 217.870   2
   1  -1  15 4497.62 298.904   2
   1   0 -17 43.3011 240.302   2
  -1   0  15 162.628 159.958   2
  -1   0  14 6076.64 232.657   2
   1   0 -13 4094.38 305.862   2
   1   0 -12 16068.1 480.395   2
  -1   0  11 7851.71 136.689   2
   1   0 -10 29458.3 212.735   2
  -1   0   8 1490.57 62.3839   2
   1   0  -7 27.6136 44.0184   2
   1   0  -6 27838.3 173.151   2
  -1   0   5 544.929 38.3184   2
   1   0  -4 181.034 44.1863   2
  -1   0   3 303.119 36.9568   2
   1   0   1 15126.8 92.5673   2
  -1   0  -2 47382.7 203.952   2
  -1   0  -3 1204.42 37.4809   2
  -1   0  -4 9132.61 90.6221   2
  -1   0  -6 54821.6 248.528   2
  -1   0  -7 521.918 57.0212   2
  -1   0  -8 3971.67 93.9788   2
   1   0   9 5444.58 160.454   2
  -1   0 -10 5127.90 131.133   2
  -1   0 -11 16000.2 218.021   2
   1   0  13 3013.92 148.781   2
  -1   0 -14 39.4959 143.759   2
   1   1 -17 780.012 248.449   2
  -1  -1  15 232.539 156.564   2
  -1  -1  14 8982.90 258.492   2
   1   1 -12 6.62561 178.570   2
  -1  -1  11 1525.43 63.9918   2
   1   1 -10 2465.37 65.0763   2
  -1  -1   8 20414.5 125.883   2
  -1  -1   7 3644.65 81.7320   2
  -1  -1   6 11274.8 114.801   2
  -1  -1   5 102.027 43.7967   2
  -1  -1   4 29610.7 134.219   2
  -1  -1   3 16380.7 67.8643   2
  -1  -1   1 49393.7 119.261   2
  -1  -1   0 3411.52 53.7438   2
   1   1   1 301.282 57.2429   2
   1   1   2 71966.8 285.881   2
   1   1   3 46878.4 253.536   2
   1   1   4 1926.94 85.7170   2
  -1  -1  -6 12675.0 140.886   2
  -1  -1  -7 22441.3 194.691   2
  -1  -1  -8 126.693 58.9386   2
  -1  -1  -9 1753.04 227.185   2
  -1  -1 -10 6337.35 146.005   2
  -1  -1 -11 8996.45 178.111   2
   1   1  13 4002.31 178.624   2
   1   1  14 4336.98 296.162   2
  -1  -1 -15 361.523 288.670   2
   1   2 -17 1863.97 386.341   2
   1   2 -15 279.418 168.066   2
   1   2 -14 905.825 130.472   2
  -1  -2  13 1162.62 181.866   2
  -1  -2  12 14129.9 228.452   2
  -1  -2  11 33.5455 31.4978   2
   1   2 -10 10069.3 101.661   2
  -1  -2   8 24921.7 137.207   2
  -1  -2   7 11759.9 90.9376   2
  -1  -2   6 42671.9 174.772   2
  -1  -2   5 6942.06 73.8045   2
  -1  -2   4 287.941 32.9569   2
  -1  -2   3 4622.83 41.8952   2
  -1  -2   1 802.449 50.9542   2
   1   2   0 11872.8 136.229   2
   1   2   1 4244.68 102.599   2
   1   2   2 1248.50 81.7371   2
   1   2   3 44542.3 284.632   2
   1   2   4 11120.1 162.941   2
   1   2   6 19389.8 226.363   2
   1   2   7 3471.54 102.551   2
  -1  -2  -8 521.932 83.9382   2
  -1  -2 -10 17494.5 231.317   2
  -1  -2 -11 4374.83 147.387   2
   1   2  13 104.097 175.151   2
  -1  -2 -14 952.220 311.105   2
   1   3 -17 144.971 328.284   2
  -1  -3  15 3419.75 182.414   2
  -1  -3  14 7469.78 212.579   2
  -1  -3  13 975.281 252.323   2
  -1  -3  12 479.374 50.6673   2
  -1  -3  11 50.7290 45.9461   2
  -1  -3  10 4620.63 89.9518   2
  -1  -3   8 5082.57 79.6800   2
  -1  -3   7 2917.29 60.8433   2
  -1  -3   6 44.7827 41.7189   2
   1   3  -5 29990.0 126.690   2
   1   3  -4 41977.5 141.770   2
   1   3  -3 812.935 41.5125   2
   1   3  -1 41.2547 54.0008   2
   1   3   0 23826.6 218.173   2
   1   3   1 23891.5 261.446   2
   1   3   2 41720.0 433.528   2
   1   3   3 3062.14 113.178   2
  -1  -3  -4 1264.94 96.3675   2
   1   3   6 6064.60 181.550   2
   1   3   7 11511.9 243.433   2
   1   3   8 230.728 108.750   2
  -1  -3 -10 746.703 135.636   2
   1   3  11 11105.8 363.737   2
  -1  -3 -13-29.3217 207.711   2
  -1  -4  17 3526.27 405.241   2
  -1  -4  15 3854.77 191.689   2
  -1  -4  14 618.676 134.504   2
  -1  -4  13-11.4958 214.501   2
  -1  -4  12 22099.6 381.755   2
  -1  -4  11 773.200 69.9642   2
  -1  -4  10 3643.64 93.3598   2
  -1  -4   8 26813.8 174.769   2
  -1  -4   7 3085.99 67.5822   2
   1   4  -6 13260.3 127.305   2
   1   4  -5 24907.9 179.299   2
   1   4  -4 14067.1 108.093   2
  -1  -4   3 9489.91 92.0142   2
   1   4  -1 7144.39 107.067   2
   1   4   0 1692.55 74.6413   2
   1   4   1 20047.8 346.862   2
   1   4   2 6847.13 233.073   2
   1   4   3 2051.02 114.757   2
   1   4   4 13158.8 255.453   2
   1   4   6 2619.96 202.735   2
   1   4   7 11959.9 345.280   2
  -1  -4  -8 6867.00 419.632   2
   1   4  10 4784.94 291.072   2
  -1  -4 -11 464.571 216.335   2
   1   4  13 4383.81 481.541   2
  -1  -5  15 1385.26 181.371   2
  -1  -5  14 2225.17 178.902   2
  -1  -5  13 1920.01 260.189   2
  -1  -5  12 18460.5 518.175   2
   1   5 -11 5042.12 132.669   2
  -1  -5  10 1493.85 87.2436   2
  -1  -5   8 764.066 66.7843   2
   1   5  -7 9902.49 110.538   2
   1   5  -6 186.617 87.5420   2
   1   5  -5 9767.75 213.281   2
  -1  -5   4 13803.2 118.810   2
  -1  -5   3 899.542 58.4779   2
   1   5  -1 13182.8 198.341   2
   1   5   0 27831.6 229.935   2
  -1  -5  -1 41.3773 109.312   2
  -1  -5  -3 46.1947 149.156   2
   1   5   4 6299.14 271.166   2
   1   5   6 14005.0 392.766   2
  -1  -5  -7 245.224 192.246   2
  -1  -5  -8-73.7191 276.614   2
  -1  -5 -10 971.189 241.386   2
   1   5  11 2327.50 411.448   2
   1   6 -15 37.5544 300.135   2
  -1  -6  14 453.884 153.206   2
  -1  -6  13 5477.74 341.610   2
  -1  -6  12 1855.49 242.760   2
  -1  -6  11 5521.59 198.925   2
  -1  -6  10 2599.70 165.530   2
   1   6  -8 17415.3 161.903   2
   1   6  -7 1195.93 74.8393   2
   1   6  -6 4439.90 241.560   2
   1   6  -5 922.839 147.090   2
  -1  -6   4 22146.9 212.406   2
  -1  -6   3 7100.45 136.335   2
   1   6  -1 6537.46 190.481   2
   1   6   0 1795.72 164.154   2
  -1  -6  -1 4344.83 124.431   2
   1   6   3 3354.87 244.435   2
   1   6   4 4864.41 280.136   2
  -1  -6  -6 1664.12 244.069   2
  -1  -6  -7 1660.65 259.820   2
   1   6  10 1658.90 377.396   2
   1   7 -14 2635.09 372.712   2
  -1  -7  11 660.572 193.572   2
  -1  -7  10 545.363 187.645   2
   1   7  -8 8783.63 205.062   2
   1   7  -7 5067.27 144.759   2
   1   7  -6 531.759 139.853   2
   1   7  -4 295.685 84.2764   2
  -1  -7   3 10326.3 173.025   2
   1   7  -1 2886.00 166.896   2
   1   7   0 12220.2 332.360   2
  -1  -7  -3 1869.36 246.281   2
   1   7   4 12468.6 425.395   2
  -1  -7  -6 156.036 220.410   2
   1   7   7 5.28200 318.846   2
  -1  -8  11 134.997 217.134   2
  -1  -8  10 2646.24 253.295   2
   1   8  -8 3142.83 255.752   2
   1   8  -7 3152.48 258.060   2
  -1  -8   4 13503.1 284.031   2
   1   8  -3 92.2648 126.128   2
   1   8  -1 1631.40 168.134   2
   1   8   0 14642.8 332.026   2
   1   8   3 189.483 208.306   2
   1   8   4 166.949 220.857   2
   1   9 -11 247.502 331.395   2
   1   9 -10 1473.08 363.869   2
   1   9  -8 6907.89 473.954   2
  -1  -9   7 110.850 211.761   2
   1   9  -4 1276.77 244.987   2
  -1  -9   3 2113.09 287.888   2
  -1  -9   1 1150.49 199.916   2
   1   9   0 1071.78 188.202   2
  -1  -9  -3 558.600 338.783   2
  -1  -9  -4 5027.89 479.727   2
   2 -10  -2 117.532 362.280   2
   2 -10   1 143.513 298.200   2
   2 -10   2 7175.68 477.267   2
   2 -10   4 1339.35 326.473   2
   2 -10   5 409.897 306.716   2
  -2   9   3 71.5999 212.050   2
  -2   9   2 3924.17 298.191   2
  -2   9  -1 1193.39 228.561   2
  -2   9  -2 4987.82 286.758   2
  -2   9  -4 329.541 191.182   2
  -2   9  -5 519.979 189.769   2
  -2   9  -8 1514.28 188.718   2
   2  -9   9 965.262 180.774   2
  -2   8   9 62.7274 370.310   2
  -2   8   6 6232.22 308.289   2
  -2   8   5 1673.21 185.396   2
  -2   8   3-43.1103 124.279   2
  -2   8   2 199.314 113.758   2
  -2   8  -1 1037.67 193.754   2
  -2   8  -2 2507.58 216.537   2
  -2   8  -4 1093.67 184.014   2
  -2   8  -5 213.403 165.271   2
   2  -8   8 711.530 160.098   2
   2  -8   9 267.306 154.907   2
   2  -8  11 9283.74 292.530   2
   2  -8  12 1078.22 183.593   2
  -2   7  10 24.6763 314.126   2
   2  -7  -9 1388.13 260.622   2
  -2   7   6 291.905 182.281   2
  -2   7   5 2915.44 221.796   2
  -2   7   3 3324.89 167.789   2
  -2   7   2 12368.2 246.409   2
  -2   7  -1 3137.28 210.391   2
  -2   7  -2 10086.8 300.148   2
  -2   7  -4 12197.5 321.276   2
  -2   7  -5 4948.66 229.993   2
   2  -7   8 148.024 129.897   2
   2  -7   9 599.089 143.069   2
   2  -7  11 9175.19 278.349   2
   2  -7  12 505.536 214.381   2
   2  -7  13 31.3551 302.236   2
   2  -7  15 66.7562 350.364   2
  -2   6  10 4808.31 319.085   2
  -2   6   9 1154.24 226.471   2
   2  -6  -6 661.513 116.914   2
  -2   6   5 789.626 102.885   2
  -2   6   3 10816.0 231.724   2
  -2   6   2 10976.1 216.366   2
  -2   6  -1 1145.96 151.671   2
  -2   6  -2 1002.35 118.893   2
  -2   6  -4 22187.7 312.064   2
  -2   6  -5 116.195 100.457   2
  -2   6  -6 8163.56 263.662   2
   2  -6   8 2039.88 152.472   2
   2  -6   9 3695.15 122.909   2
   2  -6  11 1415.55 121.232   2
   2  -6  12-38.1476 181.741   2
   2  -6  13 3828.15 384.267   2
   2  -6  15 11094.2 568.214   2
   2  -5 -13 338.815 342.367   2
  -2   5  12 545.085 224.735   2
  -2   5  10 3131.59 268.375   2
  -2   5   9 175.254 180.527   2
  -2   5   6 2482.23 137.047   2
  -2   5   5 3026.40 130.560   2
  -2   5   3 1293.28 74.6616   2
  -2   5   2 58.7012 68.6314   2
   2  -5  -1 5808.91 142.841   2
  -2   5  -1 13866.3 208.332   2
  -2   5  -2 13924.4 203.499   2
  -2   5  -4 4563.15 135.754   2
  -2   5  -5 17092.9 228.059   2
   2  -5   6 11083.9 121.756   2
   2  -5   7 11070.7 193.564   2
   2  -5   8 15336.2 188.266   2
   2  -5   9 9427.46 180.454   2
   2  -5  11 11744.8 251.038   2
   2  -5  12 204.373 121.646   2
   2  -5  13 220.202 158.223   2
   2  -5  15 4731.08 297.554   2
   2  -4 -13 170.337 212.545   2
  -2   4  12 5960.49 324.357   2
   2  -4 -10 239.298 173.749   2
  -2   4   9 96.5388 96.6472   2
  -2   4   6 11265.4 170.731   2
  -2   4   5 313.066 71.3330   2
  -2   4   3 17679.4 175.478   2
  -2   4   2 41.3566 62.7770   2
   2  -4  -1 740.004 78.2892   2
   2  -4   0 20316.9 199.764   2
  -2   4  -1 37116.9 288.117   2
  -2   4  -2 11173.1 169.628   2
  -2   4  -4 6549.01 87.1572   2
   2  -4   5 7961.59 115.833   2
   2  -4   6 91.0561 54.2987   2
   2  -4   7 12483.0 204.540   2
   2  -4   8 20574.0 197.900   2
   2  -4   9 6069.14 137.517   2
   2  -4  11 233.352 113.512   2
   2  -4  12 2062.01 155.103   2
   2  -4  13 9800.92 217.787   2
   2  -4  15 2934.92 209.036   2
   2  -3 -13 119.667 199.033   2
  -2   3  12 6640.81 301.174   2
  -2   3  10 2365.71 150.709   2
  -2   3   9 416.202 90.0378   2
   2  -3  -8 343.894 123.806   2
  -2   3   6 1370.02 82.3702   2
  -2   3   5 593.923 67.8632   2
  -2   3   3 13817.3 146.236   2
  -2   3   2 13333.2 124.700   2
  -2   3   1 1336.23 58.8054   2
  -2   3   0 92937.8 281.578   2
  -2   3  -1 110.716 45.2720   2
  -2   3  -2 2625.52 63.7220   2
   2  -3   4 1726.91 92.4671   2
   2  -3   5 27794.0 198.895   2
   2  -3   6 4266.45 97.7655   2
   2  -3   7 2942.40 90.5961   2
   2  -3   8 1865.15 85.1752   2
   2  -3   9 23057.2 286.796   2
   2  -3  11 14035.2 254.181   2
   2  -3  12 7351.71 180.178   2
   2  -3  13 4467.58 163.076   2
   2  -3  15 4179.48 291.810   2
   2  -3  16 207.793 319.920   2
   2  -2 -16 1813.21 273.504   2
  -2   2  13 1113.21 165.528   2
  -2   2  12 5501.24 263.891   2
  -2   2  10 13926.4 202.916   2
  -2   2   9 97.2128 76.0438   2
   2  -2  -8 32905.7 267.005   2
  -2   2   7 4192.27 166.747   2
   2  -2  -6 116.376 63.9512   2
  -2   2   5 181.760 58.0522   2
   2  -2  -3 37568.8 189.566   2
  -2   2   2 14054.8 106.293   2
  -2   2   1 766.003 53.1391   2
  -2   2   0 27509.7 160.916   2
  -2   2  -1 58351.0 276.378   2
  -2   2  -2 39.7973 68.8771   2
   2  -2   4 40961.7 233.830   2
   2  -2   5 32973.2 195.651   2
   2  -2   6 129.589 54.5383   2
   2  -2   7 5397.72 110.644   2
   2  -2   8 3952.13 102.617   2
   2  -2   9 657.118 93.0065   2
   2  -2  11 3027.80 141.224   2
   2  -2  12 4287.33 165.695   2
  -2   2 -13 7089.08 432.255   2
   2  -2  15 1223.36 233.961   2
   2  -1 -16 2063.71 259.532   2
  -2   1  13 6115.64 223.776   2
  -2   1  12 14915.4 292.835   2
  -2   1  10 9217.73 202.623   2
   2  -1  -9 1696.22 74.4796   2
   2  -1  -8 12308.5 135.300   2
   2  -1  -7 8798.58 118.839   2
  -2   1   6 20748.2 153.359   2
   2  -1  -5 152.294 43.6045   2
   2  -1  -3 61435.6 217.204   2
  -2   1   2 788.569 43.5613   2
   2  -1  -1 217.344 39.9724   2
   2  -1   0 12388.5 114.795   2
   2  -1   1 14454.5 133.599   2
   2  -1   2 3799.71 94.1293   2
   2  -1   4 87230.4 251.336   2
   2  -1   5 13748.3 121.983   2
   2  -1   6 44.8584 55.7624   2
   2  -1   7 2480.60 84.0635   2
   2  -1   8 28.5638 48.1105   2
  -2   1  -9 31379.4 226.051   2
  -2   1 -11 221.918 88.8899   2
   2  -1  12 253.341 108.104   2
  -2   1 -13 17157.1 613.036   2
   2  -1  15 6595.29 339.581   2
   2   0 -17-47.4125 345.558   2
   2   0 -16 642.431 220.914   2
  -2   0  13 3414.37 178.645   2
   2   0 -12 30.2596 95.0732   2
  -2   0  10 2493.64 110.090   2
   2   0  -9 1704.31 82.9878   2
   2   0  -8 6888.89 117.362   2
   2   0  -7 6960.44 100.476   2
   2   0  -6 45979.5 189.920   2
   2   0  -5 6078.14 74.4859   2
   2   0  -3 761.134 50.2543   2
   2   0  -2 2957.21 53.0022   2
   2   0  -1 15169.6 78.0501   2
   2   0   0 10889.7 85.6825   2
   2   0   1 40598.9 144.190   2
  -2   0  -2 1315.81 68.5279   2
   2   0   4 34783.5 251.297   2
  -2   0  -5 51933.4 189.349   2
  -2   0  -6 362.206 44.5293   2
   2   0   7 5121.98 135.185   2
  -2   0  -8 18973.6 183.602   2
  -2   0  -9 9343.73 147.464   2
  -2   0 -11 103.406 82.2633   2
  -2   0 -12 572.740 112.097   2
  -2   0 -13 1227.48 304.206   2
   2   1 -17-18.9407 326.129   2
  -2  -1  16 3728.13 295.886   2
  -2  -1  13 412.858 126.463   2
  -2  -1  12 7095.37 170.938   2
  -2  -1  10 633.659 75.1301   2
   2   1  -9 13426.8 150.084   2
  -2  -1   8 15026.1 138.265   2
  -2  -1   7 3926.97 75.5739   2
  -2  -1   6 3065.04 59.8781   2
  -2  -1   5 6661.84 56.6073   2
  -2  -1   3 42833.2 97.5987   2
  -2  -1   2 37682.3 92.4619   2
  -2  -1   1 176.351 32.7132   2
  -2  -1   0 24158.9 98.7958   2
  -2  -1  -1 27244.5 119.599   2
  -2  -1  -2 5022.40 55.6024   2
  -2  -1  -4 2927.34 61.3916   2
  -2  -1  -5 38.4355 41.2905   2
  -2  -1  -6 1179.14 52.6656   2
  -2  -1  -7 1214.43 78.3255   2
  -2  -1  -8 26907.6 215.430   2
  -2  -1  -9 13285.2 170.899   2
   2   1  11 4431.16 161.445   2
  -2  -1 -12 76.4103 167.914   2
  -2  -1 -13 15870.1 633.940   2
   2   2 -16 6688.16 341.016   2
  -2  -2  15 271.485 288.921   2
  -2  -2  13 3115.69 130.904   2
   2   2 -12 515.026 81.5687   2
  -2  -2  10 30348.8 224.540   2
  -2  -2   9 5221.47 94.2969   2
  -2  -2   8 1006.27 55.3356   2
  -2  -2   7 10429.6 79.0254   2
  -2  -2   6 11185.5 78.1775   2
   2   2  -5 4041.57 46.4694   2
  -2  -2   3 5505.85 60.7007   2
  -2  -2   2 56758.3 180.801   2
  -2  -2   1 15851.7 115.309   2
  -2  -2   0 58928.1 229.879   2
  -2  -2  -1 3927.86 75.5498   2
   2   2   2 4204.32 112.844   2
   2   2   4 2584.05 107.984   2
   2   2   5 16773.8 219.251   2
   2   2   6 5212.35 109.740   2
  -2  -2  -7 1956.04 237.441   2
  -2  -2  -8 3788.69 133.325   2
  -2  -2  -9 22661.0 228.121   2
  -2  -2 -11 1118.44 199.124   2
   2   2  12 3798.56 260.645   2
  -2  -2 -13 1606.02 336.665   2
  -2  -3  16 471.582 178.592   2
  -2  -3  15 113.826 290.632   2
  -2  -3  13-1.73800 109.652   2
  -2  -3  12 3684.50 117.658   2
  -2  -3  10 50816.3 288.535   2
  -2  -3   9 2811.58 60.3241   2
  -2  -3   8 9292.56 96.6514   2
  -2  -3   7 889.680 50.2684   2
   2   3  -6 12.8921 39.7734   2
   2   3  -5 21560.6 127.520   2
  -2  -3   3 10039.1 101.589   2
  -2  -3   2 1284.87 65.5120   2
  -2  -3   1 12740.8 121.543   2
   2   3   0 17652.6 286.047   2
   2   3   1 20482.5 189.804   2
   2   3   2 21449.7 236.302   2
   2   3   4 11261.6 195.045   2
   2   3   5 5627.11 225.662   2
   2   3   6 3398.23 199.615   2
  -2  -3  -7 7661.83 393.492   2
   2   3   8 736.558 111.209   2
  -2  -3  -9-17.6058 170.358   2
   2   3  11 2653.22 253.092   2
   2   3  12 7135.38 344.664   2
  -2  -4  16 183.836 292.657   2
  -2  -4  15 258.153 291.994   2
  -2  -4  13 6016.00 190.598   2
  -2  -4  12 1402.48 111.921   2
  -2  -4  10 562.092 59.0050   2
  -2  -4   9 11063.8 115.862   2
   2   4  -8 142.588 49.8529   2
   2   4  -7 154.361 47.1050   2
   2   4  -6 40642.2 201.590   2
  -2  -4   5 1559.27 62.8606   2
  -2  -4   3 3018.54 61.5789   2
  -2  -4   2 10853.6 116.823   2
   2   4  -1 6856.74 156.260   2
   2   4   1 1077.74 100.158   2
   2   4   2 5454.30 153.300   2
   2   4   4 23886.1 430.070   2
   2   4   5 7976.53 284.850   2
  -2  -4  -6 1057.23 184.030   2
  -2  -4  -8 311.423 190.797   2
   2   4   9 6411.02 323.594   2
   2   4  11 638.625 241.621   2
   2   4  12 212.682 338.627   2
   2   4  13 2778.66 509.311   2
  -2  -5  16 2615.08 405.946   2
  -2  -5  15 316.953 308.479   2
  -2  -5  14 10519.9 496.907   2
  -2  -5  13 4480.62 180.415   2
  -2  -5  12 1009.14 128.200   2
  -2  -5  10 6806.81 142.986   2
  -2  -5   9 385.351 62.1496   2
   2   5  -8 1681.22 150.699   2
   2   5  -7 108.393 171.815   2
   2   5  -6 34710.4 228.112   2
  -2  -5   5 12239.9 116.423   2
   2   5  -3 354.393 54.6835   2
  -2  -5   2 1462.31 72.6130   2
   2   5  -1 27861.6 278.950   2
  -2  -5  -1 1481.82 180.581   2
   2   5   2 5788.90 258.683   2
   2   5   4 9182.29 326.436   2
   2   5   5 3411.60 248.862   2
   2   5   6 5122.01 291.944   2
  -2  -5  -8 2241.20 263.033   2
  -2  -5  -9 335.693 220.298   2
   2   5  11 8348.30 609.816   2
  -2  -6  14 16474.2 595.200   2
  -2  -6  13 79.2294 141.486   2
  -2  -6  12-41.7335 165.496   2
  -2  -6  10 283.496 155.455   2
  -2  -6   9 8807.28 193.595   2
   2   6  -8 2959.30 182.285   2
   2   6  -7 26.9894 192.027   2
   2   6  -6 316.982 51.3079   2
  -2  -6   5 11956.0 142.642   2
  -2  -6   3 121.931 73.3690   2
  -2  -6   2 22270.9 269.092   2
  -2  -6   1 902.175 111.707   2
   2   6   1 42.6983 96.6997   2
   2   6   2 7915.53 323.366   2
  -2  -6  -4 124.593 201.610   2
  -2  -6  -5-21.5077 215.772   2
  -2  -6  -6-56.7353 290.007   2
   2   6   8 4708.49 473.247   2
  -2  -7  12 3831.13 260.582   2
  -2  -7  10 15082.3 396.862   2
   2   7  -9 2304.19 213.587   2
   2   7  -6 4518.08 245.733   2
   2   7  -5 620.946 80.1258   2
  -2  -7   3 94.5351 84.0313   2
  -2  -7   2 9865.25 213.666   2
   2   7   1 1551.14 201.514   2
   2   7   2 419.070 224.231   2
  -2  -7  -4 223.638 221.487   2
  -2  -7  -5 107.520 226.554   2
   2   8 -10 10743.7 503.760   2
  -2  -8   9 675.509 206.535   2
  -2  -8   6 206.165 195.381   2
  -2  -8   5 6952.83 321.947   2
  -2  -8   3 294.723 169.984   2
  -2  -8   2 133.071 173.206   2
  -2  -8  -1-0.67269 149.492   2
  -2  -8  -2 8004.69 284.043   2
   2   9  -9 1529.91 359.659   2
   2   9  -6 6779.24 355.395   2
  -2  -9   5 615.219 223.040   2
  -2  -9   3 3471.82 237.104   2
  -2  -9   2 2502.24 278.582   2
  -2  -9  -1 725.400 358.171   2
  -2  -9  -2 2605.55 427.657   2
   3 -10  -1 20.2320 325.161   2
   3 -10   0 716.736 320.075   2
   3 -10   2 24.1714 301.054   2
   3 -10   3 3462.14 399.307   2
   3 -10   6-49.0504 307.067   2
   3 -10   7 430.891 322.057   2
   3 -10   9 233.458 326.753   2
  -3   9   4 181.503 234.367   2
  -3   9   1 1177.31 234.294   2
   3  -9   0 1036.26 230.046   2
  -3   9  -2 356.806 202.682   2
  -3   9  -3 134.538 190.204   2
  -3   9  -6 1121.74 218.136   2
  -3   9  -7 3918.26 237.299   2
   3  -9   9 17613.9 402.549   2
   3  -9  10 311.807 233.970   2
  -3   8   8 184.050 325.148   2
  -3   8   7 4266.80 291.334   2
  -3   8   5 211.374 142.108   2
  -3   8   4 4337.44 201.300   2
  -3   8   1 13629.8 405.307   2
  -3   8   0 2251.60 230.517   2
  -3   8  -2 5315.35 272.715   2
  -3   8  -3 430.095 179.062   2
  -3   8  -6 199.063 176.469   2
   3  -8   7 2306.87 195.047   2
   3  -8   9 11112.5 317.702   2
   3  -8  10 808.087 183.787   2
   3  -8  11 648.084 325.690   2
   3  -8  13 2093.27 388.610   2
  -3   7   8 81.2937 203.730   2
  -3   7   7 238.510 182.255   2
  -3   7   5 1477.10 156.260   2
  -3   7   4 3658.42 180.825   2
  -3   7   3 11933.4 517.325   2
  -3   7   1 7097.45 173.308   2
  -3   7   0 720.777 169.519   2
  -3   7  -2 2171.95 194.129   2
  -3   7  -3 7741.33 283.783   2
  -3   7  -6 1187.36 178.481   2
   3  -7   7 1954.61 170.721   2
   3  -7   9 1275.00 167.528   2
   3  -7  10 2337.67 193.092   2
   3  -7  11 5318.75 306.506   2
   3  -7  13 20477.3 704.731   2
   3  -7  14-65.7275 328.005   2
   3  -6 -12 1384.54 373.933   2
  -3   6  11 1539.47 251.823   2
  -3   6   8 940.904 203.381   2
  -3   6   7 124.168 163.685   2
  -3   6   5 1724.85 147.038   2
  -3   6   4 128.533 110.336   2
  -3   6   1 4341.58 136.991   2
  -3   6   0 1076.91 61.4536   2
  -3   6  -2 184.785 136.179   2
  -3   6  -3 41517.0 532.656   2
  -3   6  -4 2939.93 273.232   2
   3  -6   6 5987.89 246.128   2
   3  -6   7 1080.74 140.070   2
   3  -6   9 5352.86 211.052   2
   3  -6  10 167.726 103.241   2
   3  -6  11 26.2979 179.736   2
   3  -6  13 6909.15 318.574   2
   3  -6  14 2529.48 372.721   2
   3  -5 -12 17.4785 223.199   2
   3  -5 -11 126.696 208.449   2
   3  -5  -8 1510.25 140.979   2
  -3   5   7 2818.51 157.399   2
  -3   5   5 37528.4 375.726   2
  -3   5   4 41.8246 77.8246   2
  -3   5   3 2250.86 123.669   2
  -3   5   1 2476.48 76.7038   2
  -3   5   0 2174.12 70.9377   2
  -3   5  -2 10787.9 192.302   2
  -3   5  -3 9883.73 187.015   2
  -3   5  -4 253.161 90.1943   2
  -3   5  -5 11853.1 414.976   2
   3  -5   6 463.545 139.678   2
   3  -5   7 19136.0 262.834   2
   3  -5   9 3915.05 141.611   2
   3  -5  10 1856.06 127.195   2
   3  -5  11 9785.45 242.683   2
   3  -5  13 2033.55 170.749   2
   3  -5  14 2186.82 160.876   2
   3  -4 -14 737.015 364.122   2
   3  -4 -12 825.096 297.135   2
  -3   4  11 128.751 179.059   2
   3  -4  -8 118.802 92.7464   2
   3  -4  -7 4227.89 125.021   2
   3  -4  -5 19681.0 212.509   2
  -3   4   4 1938.83 80.3291   2
  -3   4   3 142.861 72.3751   2
  -3   4   2 19803.5 356.407   2
  -3   4   1 29668.7 188.749   2
  -3   4   0 800.730 60.0831   2
   3  -4   2 77.9886 51.3276   2
   3  -4   3 12501.7 139.765   2
   3  -4   4 3705.80 124.879   2
   3  -4   5 1312.61 145.310   2
   3  -4   6 3409.37 108.375   2
   3  -4   7 38622.7 332.638   2
   3  -4   9 30231.6 312.852   2
   3  -4  10 1734.18 132.307   2
   3  -4  11 818.419 127.925   2
   3  -4  13 676.095 124.290   2
  -3   4 -14-15.6601 167.599   2
   3  -4  16-80.2052 377.518   2
   3  -3 -15 1223.98 363.315   2
   3  -3 -14 3694.74 280.164   2
  -3   3  12 5134.83 271.533   2
  -3   3  11 3523.95 227.544   2
   3  -3 -10 9379.19 323.362   2
  -3   3   8 218.025 75.7356   2
   3  -3  -7 57.1439 69.0940   2
   3  -3  -5 10089.2 146.353   2
  -3   3   4 502.995 55.0607   2
  -3   3   3 3665.73 82.8294   2
   3  -3  -2 1504.42 145.678   2
  -3   3   1 114679. 323.502   2
  -3   3   0 119.484 58.5062   2
   3  -3   2 11373.8 166.077   2
   3  -3   3 9751.77 160.669   2
   3  -3   4 3421.06 117.300   2
   3  -3   5 23.9460 93.3958   2
   3  -3   6 13508.8 155.493   2
   3  -3   7 1163.01 82.5044   2
   3  -3   9 2711.80 126.756   2
   3  -3  10 0.04782 97.0089   2
   3  -3  11 16740.5 281.286   2
   3  -3  13 5645.26 203.146   2
   3  -3  14 557.878 159.531   2
   3  -2 -15 705.233 307.394   2
  -3   2  14 7789.23 268.285   2
  -3   2  12 817.048 173.370   2
  -3   2  11 14048.0 265.826   2
  -3   2  10 703.995 95.2750   2
  -3   2   9 25647.1 486.020   2
   3  -2  -8 8137.63 130.709   2
   3  -2  -7 145.482 55.9796   2
   3  -2  -5 13641.9 137.528   2
  -3   2   4 3434.26 77.4999   2
  -3   2   3 247.277 49.7053   2
  -3   2   2 10526.8 148.996   2
  -3   2   1 25059.1 159.462   2
   3  -2   0 882.812 62.4248   2
   3  -2   2 17624.9 184.843   2
   3  -2   3 63599.1 352.552   2
   3  -2   4 1888.89 96.4645   2
   3  -2   5 15777.4 143.966   2
   3  -2   6 747.562 59.1785   2
   3  -2   7 18018.5 171.906   2
   3  -2   9 568.263 94.3451   2
   3  -2  10 3826.03 144.816   2
   3  -2  11 20258.9 287.718   2
   3  -2  13 10041.9 333.092   2
  -3   2 -14-10.6463 173.081   2
   3  -1 -15 232.832 221.502   2
   3  -1 -14 46.3097 149.007   2
  -3   1  12 2355.24 133.788   2
   3  -1 -11 164.993 91.3842   2
  -3   1  10 6703.26 216.192   2
   3  -1  -9 12289.7 149.906   2
   3  -1  -8 7567.03 97.8912   2
   3  -1  -7 18737.4 137.049   2
   3  -1  -5 21937.0 157.632   2
  -3   1   4 2988.07 56.2183   2
  -3   1   3 6148.72 82.7129   2
   3  -1  -2 10466.3 100.807   2
   3  -1  -1 14856.7 133.001   2
   3  -1   0 1919.02 71.9645   2
  -3   1  -2 85.4512 66.3829   2
   3  -1   3 110950. 448.800   2
   3  -1   4 35.1679 33.2713   2
   3  -1   5 9986.67 85.4210   2
   3  -1   6 4040.00 82.4220   2
  -3   1  -7 1259.77 67.2890   2
   3  -1   9 2670.49 184.038   2
   3  -1  10 2240.38 185.312   2
   3  -1  11 2446.99 202.972   2
  -3   1 -13 441.573 181.413   2
  -3   1 -14 453.793 204.294   2
  -3   0  15 5928.32 325.149   2
  -3   0  14 1797.68 168.402   2
  -3   0  12 574.725 103.385   2
  -3   0  11 3951.28 127.322   2
  -3   0  10 5132.36 126.063   2
  -3   0   9 1166.40 122.542   2
   3   0  -8 812.377 53.4343   2
   3   0  -7 34895.3 176.727   2
   3   0  -5 64102.8 248.414   2
   3   0  -4 15441.7 140.684   2
   3   0  -3 68.3865 59.2125   2
   3   0  -2 1507.52 44.6274   2
   3   0  -1 2912.35 56.6803   2
   3   0   0 1064.46 50.6912   2
   3   0   2 8548.59 62.9877   2
   3   0   3 1958.37 92.0697   2
   3   0   4 6311.74 135.593   2
  -3   0  -5 1172.48 92.8027   2
   3   0   6 6862.41 156.194   2
   3   0   7 36413.5 466.450   2
   3   0   9 12836.0 324.628   2
   3   0  10 2210.56 193.929   2
   3   0  11 18584.4 419.002   2
   3   0  13 83.2389 186.169   2
   3   0  14 477.157 292.444   2
  -3  -1  15 13348.0 428.188   2
  -3  -1  14 100.474 134.007   2
  -3  -1  12 13543.6 207.129   2
   3   1 -11 38.6557 70.5097   2
  -3  -1  10 81.2117 61.6850   2
  -3  -1   9 768.097 82.1832   2
  -3  -1   8 8099.15 91.3436   2
  -3  -1   7 58.7081 28.9398   2
  -3  -1   5 16433.5 115.372   2
  -3  -1   4 10166.1 86.9269   2
  -3  -1   3 35056.7 132.038   2
  -3  -1   2 8426.06 66.4455   2
  -3  -1   1 47481.1 159.195   2
  -3  -1   0 5059.10 64.2170   2
  -3  -1  -2 14070.6 113.562   2
   3   1   3 9467.07 155.904   2
   3   1   4 8018.39 156.224   2
   3   1   5 1371.65 138.558   2
   3   1   6 136.268 102.828   2
   3   1   7 35789.5 489.059   2
   3   1   9 1016.79 172.093   2
  -3  -1 -10 29.8958 160.904   2
  -3  -1 -11-20.2674 171.426   2
   3   1  13 4232.41 295.139   2
   3   1  14 388.176 340.633   2
  -3  -2  15 1282.85 232.896   2
  -3  -2  14 2881.12 210.675   2
  -3  -2  12 16211.0 211.861   2
  -3  -2  11 18952.6 183.038   2
  -3  -2  10 1870.36 75.4509   2
  -3  -2   9 5486.71 102.324   2
  -3  -2   8 350.230 41.2172   2
  -3  -2   7 14367.7 90.5122   2
   3   2  -5 4261.80 63.6229   2
   3   2  -4 9429.64 77.5991   2
  -3  -2   3 10010.5 97.3493   2
  -3  -2   2 4927.85 66.2056   2
  -3  -2   1 65336.1 202.630   2
  -3  -2   0 6838.36 85.8191   2
  -3  -2  -2 321.323 43.7410   2
  -3  -2  -3 4.73747 34.9559   2
  -3  -2  -4 69.6041 30.7556   2
  -3  -2  -5 14623.8 97.2599   2
  -3  -2  -6 3886.55 62.3801   2
  -3  -2  -7 152.725 143.994   2
   3   2   9 1798.89 205.179   2
   3   2  10 1076.27 205.799   2
   3   2  11 11780.5 388.935   2
   3   2  13 4914.00 442.895   2
   3   2  14 809.218 398.980   2
   3   3 -15 2723.19 216.252   2
  -3  -3  14 140.799 163.836   2
  -3  -3  12 1445.12 120.288   2
  -3  -3  11 25013.1 205.224   2
  -3  -3  10 142.566 57.5010   2
   3   3  -9 5264.45 108.640   2
  -3  -3   8 19818.8 123.574   2
  -3  -3   7 296.540 49.2253   2
  -3  -3   5 1109.88 49.7123   2
  -3  -3   4 17955.7 124.576   2
  -3  -3   3 6190.62 91.4236   2
   3   3  -2 375.937 62.8513   2
  -3  -3   1 5302.68 81.0337   2
  -3  -3   0 501.658 52.7265   2
  -3  -3  -2 1716.34 72.1396   2
  -3  -3  -3 25024.6 202.454   2
  -3  -3  -4 1922.22 85.0866   2
   3   3   6 7920.09 287.039   2
  -3  -3  -7 5975.34 142.637   2
  -3  -3  -9 142.096 189.670   2
  -3  -3 -10 37.8329 202.081   2
  -3  -3 -11 4722.62 431.755   2
   3   3  13 34.9354 373.089   2
  -3  -4  15 83.4574 226.777   2
  -3  -4  14 394.395 172.851   2
  -3  -4  12 9656.05 211.818   2
  -3  -4  11 1227.89 115.791   2
  -3  -4  10 496.892 71.4254   2
   3   4  -9-0.36332 87.2565   2
  -3  -4   8 9848.05 150.646   2
   3   4  -7 35272.1 202.798   2
  -3  -4   5 13314.2 142.024   2
  -3  -4   4 359.872 57.3756   2
  -3  -4   3 23620.3 165.057   2
  -3  -4   1 34.7353 56.8547   2
  -3  -4   0 5529.11 124.566   2
  -3  -4  -2 1899.15 103.905   2
  -3  -4  -3 11584.0 185.321   2
   3   4   4 2861.42 144.260   2
  -3  -4  -6 929.926 198.024   2
   3   4   7 410.068 197.729   2
   3   4   9 16933.3 480.557   2
   3   4  10 2520.28 395.014   2
  -3  -5  15 5404.81 461.461   2
  -3  -5  14 504.617 189.141   2
  -3  -5  12 180.851 159.786   2
  -3  -5  11 4793.67 197.178   2
   3   5 -10 299.010 142.463   2
  -3  -5   8 1199.93 98.0861   2
   3   5  -7 18713.9 178.301   2
  -3  -5   5 2174.63 93.7832   2
  -3  -5   4 10431.2 157.440   2
   3   5  -3 322.600 99.8006   2
  -3  -5   1 4775.23 127.616   2
  -3  -5   0 5293.73 133.892   2
  -3  -5  -2 577.279 103.253   2
  -3  -5  -3-24.5561 98.2063   2
  -3  -5  -4 559.150 136.774   2
  -3  -5  -6 1422.76 234.534   2
   3   5   7 6861.99 349.765   2
   3   5   9 6333.82 534.921   2
  -3  -6  12 6766.69 472.142   2
  -3  -6  11 58.5367 156.106   2
   3   6 -10 96.8416 187.474   2
   3   6  -8 7874.31 271.470   2
  -3  -6   7 729.991 106.980   2
  -3  -6   5-22.4093 120.221   2
  -3  -6   4 1031.34 66.6205   2
   3   6  -3 30788.5 757.049   2
  -3  -6   1 5704.65 151.011   2
  -3  -6   0 48.1887 97.2009   2
  -3  -6  -2 2147.53 178.541   2
  -3  -6  -3 523.785 147.753   2
   3   6   4 2644.67 277.656   2
  -3  -6  -6 755.272 243.677   2
  -3  -7  11 6118.18 480.264   2
  -3  -7   8 116.873 165.705   2
   3   7  -7 4434.46 205.910   2
  -3  -7   5 2743.61 186.885   2
  -3  -7   4 650.782 152.651   2
   3   7  -3 7577.51 477.968   2
  -3  -7   1 66.1746 121.812   2
  -3  -7   0 3139.35 182.261   2
  -3  -7  -2 1234.00 181.155   2
  -3  -7  -3 4388.78 233.766   2
  -3  -7  -4 1929.13 371.909   2
  -3  -8   8 2181.65 238.675   2
   3   8  -7 171.316 203.685   2
  -3  -8   5 9545.95 302.096   2
  -3  -8   4 4049.19 238.191   2
  -3  -8   1 64.4582 178.275   2
  -3  -8   0 1038.67 245.587   2
   3   9  -7 4301.72 445.810   2
   3   9  -5 2526.86 293.182   2
  -3  -9   4 150.879 226.116   2
  -3  -9   1 3038.32 412.871   2
   4 -10   1 441.142 308.637   2
   4 -10   4 5254.38 447.873   2
   4 -10   5 1711.28 355.592   2
   4 -10   7 9981.56 560.139   2
   4 -10   8 467.528 343.300   2
  -4   9   3 7294.22 363.774   2
  -4   9   2 2753.88 272.754   2
  -4   9   0 691.059 214.180   2
  -4   9  -1 793.266 220.758   2
  -4   9  -4 1248.49 228.485   2
  -4   9  -5 48.7062 198.886   2
  -4   9  -7 2058.38 257.164   2
   4  -9   8 7701.45 367.073   2
   4  -9   9 833.661 348.383   2
   4  -9  10 179.861 364.979   2
  -4   8   7 4108.05 426.048   2
  -4   8   6 407.672 223.110   2
  -4   8   3 1803.61 243.394   2
  -4   8   2 2240.65 243.177   2
  -4   8   0 490.311 194.209   2
  -4   8  -1 5908.18 297.770   2
  -4   8  -4 372.860 195.765   2
  -4   8  -5 4786.36 278.127   2
   4  -8   7 6247.37 317.942   2
   4  -8   8 8358.18 291.316   2
   4  -8   9 2047.17 390.392   2
   4  -8  11 9253.72 384.659   2
   4  -8  12 938.901 245.226   2
  -4   7  10 51.4048 215.983   2
  -4   7   9 52.5916 213.425   2
  -4   7   7 2116.48 192.448   2
  -4   7   6 495.465 148.061   2
  -4   7   3 8816.92 225.386   2
  -4   7   2 1596.83 125.965   2
  -4   7   0 3744.91 143.659   2
  -4   7  -1 17912.8 262.325   2
  -4   7  -2 5164.12 194.826   2
  -4   7  -4 54.0352 160.379   2
  -4   7  -5 570.404 174.690   2
   4  -7   7 9251.03 336.037   2
   4  -7   8 575.429 159.680   2
   4  -7   9 1308.21 223.676   2
   4  -7  11 151.056 165.328   2
   4  -7  12 10312.4 388.680   2
  -4   6  10 714.562 230.353   2
  -4   6   9 3049.68 264.334   2
  -4   6   7 17744.1 343.938   2
  -4   6   6 2559.96 171.088   2
  -4   6   5 1829.14 202.506   2
  -4   6   3 3574.73 154.996   2
  -4   6   2 124.472 93.1704   2
  -4   6   0 7738.80 188.042   2
  -4   6  -1 1037.80 113.203   2
  -4   6  -2 9489.04 291.064   2
  -4   6  -4 5872.05 251.509   2
   4  -6   5 15014.4 365.448   2
  -4   6  -7 1468.48 188.567   2
   4  -6   8 233.621 90.0275   2
   4  -6   9 10416.1 206.830   2
   4  -6  11 6008.43 245.172   2
   4  -6  12 4985.93 280.383   2
   4  -5 -10 1100.90 221.600   2
  -4   5   9 2287.85 233.895   2
  -4   5   7 1996.03 127.199   2
  -4   5   6 5608.34 187.128   2
   4  -5  -5 420.934 224.054   2
  -4   5   3 15817.5 220.902   2
  -4   5   2 66.3277 65.9332   2
  -4   5   0 4353.33 117.029   2
  -4   5  -1 24533.6 237.062   2
  -4   5  -2 2246.24 92.6357   2
   4  -5   3 5672.26 167.918   2
   4  -5   4 12494.0 190.774   2
   4  -5   5 22493.7 411.262   2
   4  -5   7 7941.99 189.949   2
   4  -5   8 574.462 112.440   2
   4  -5   9 288.082 114.539   2
   4  -5  11 2504.18 209.232   2
   4  -5  12 95.3143 166.325   2
   4  -5  14 248.144 298.132   2
   4  -4 -13 1839.13 251.428   2
  -4   4  10 273.938 189.370   2
   4  -4  -9 1302.11 151.586   2
  -4   4   7 11798.3 169.885   2
  -4   4   6 8068.84 141.340   2
  -4   4   5 7253.28 145.126   2
   4  -4  -4-17.8205 160.802   2
   4  -4  -3 45527.3 267.933   2
  -4   4   2 6879.27 111.925   2
  -4   4   0 413.039 68.5668   2
   4  -4   1 5618.51 116.613   2
   4  -4   2 1651.86 82.9184   2
   4  -4   3 1005.38 109.103   2
   4  -4   4 9351.48 186.674   2
   4  -4   5 4742.65 211.559   2
   4  -4   7 277.070 94.8325   2
   4  -4   8 5157.16 151.740   2
   4  -4   9 12527.8 216.329   2
   4  -4  11 1295.35 173.306   2
  -4   4 -12 122.525 185.072   2
   4  -4  14 4847.17 404.366   2
   4  -4  15 3760.76 463.453   2
   4  -3 -14 2747.40 388.707   2
  -4   3  13 8343.33 330.978   2
  -4   3  10 50.4178 112.705   2
   4  -3  -9 37.3129 92.4715   2
   4  -3  -7 10090.5 163.416   2
   4  -3  -6 4187.11 94.2170   2
  -4   3   5 67.3163 56.5401   2
   4  -3  -4 4987.46 260.735   2
  -4   3   3 186.523 54.2156   2
  -4   3   2 23886.6 186.698   2
  -4   3   0 168.383 62.2571   2
   4  -3   1 38733.2 257.186   2
   4  -3   2 26.8104 76.9943   2
   4  -3   3 4757.97 184.624   2
   4  -3   4 4389.00 134.154   2
   4  -3   5 34484.1 325.173   2
   4  -3   7 8434.82 154.800   2
   4  -3   8 15196.5 199.326   2
   4  -3   9 6691.19 162.297   2
   4  -3  11 1243.37 131.677   2
   4  -3  12 2312.21 229.421   2
   4  -3  14 7428.13 476.069   2
   4  -2 -14 3509.38 284.131   2
   4  -2 -13 0.82453 235.221   2
  -4   2  12 130.907 259.316   2
   4  -2 -10 874.271 81.4431   2
   4  -2  -9 15170.8 181.361   2
  -4   2   7 9996.74 125.446   2
  -4   2   6 53.5069 45.0861   2
  -4   2   5 9042.73 108.514   2
   4  -2  -4 6031.79 274.531   2
  -4   2   3 34950.3 213.943   2
  -4   2   2 16370.7 143.938   2
   4  -2   0 1620.80 76.2814   2
   4  -2   1 43166.5 291.195   2
   4  -2   2 13072.0 178.986   2
  -4   2  -3 174.571 90.6119   2
   4  -2   4 1511.43 99.6771   2
   4  -2   5 3174.69 80.2497   2
   4  -2   7 2463.43 83.8956   2
   4  -2   8 6350.81 143.160   2
   4  -2   9 5196.79 139.190   2
  -4   2 -11 1362.32 200.191   2
  -4   2 -12 1424.16 207.972   2
   4  -2  14 32.6724 298.461   2
  -4   1  14 524.419 213.286   2
   4  -1 -13 6426.13 318.626   2
  -4   1  12 30.7490 178.125   2
  -4   1  11 6473.27 253.607   2
   4  -1 -10 8520.69 153.358   2
  -4   1   9 19980.8 215.614   2
  -4   1   7 15934.7 124.320   2
   4  -1  -6 1132.17 43.6805   2
   4  -1  -5 23.1224 29.8738   2
   4  -1  -4 40.8842 49.6903   2
   4  -1  -3 5948.20 87.7045   2
   4  -1  -2 2618.06 61.5851   2
   4  -1   0 11009.2 123.650   2
   4  -1   1 2091.79 72.4702   2
   4  -1   2 27118.9 239.460   2
   4  -1   3 12131.4 125.161   2
   4  -1   4 53.5748 19.7097   2
   4  -1   5 26588.4 251.735   2
   4  -1   7 3280.16 194.882   2
   4  -1   8 5399.11 237.655   2
   4  -1   9 24217.9 451.417   2
  -4   1 -11 1289.51 204.991   2
  -4   1 -12 865.604 198.050   2
   4  -1  14 4282.05 421.577   2
  -4   0  14 1853.78 242.289   2
  -4   0  13-29.7936 190.446   2
  -4   0  12 584.192 188.208   2
  -4   0  11 1724.80 140.668   2
   4   0 -10 9799.28 135.264   2
   4   0  -9 2805.69 85.4221   2
  -4   0   7 835.619 59.3896   2
   4   0  -6 13651.5 131.821   2
   4   0  -5 47283.4 221.314   2
   4   0  -4 3517.85 94.1098   2
   4   0  -3 19849.6 97.0370   2
   4   0  -2 11.8604 34.6803   2
   4   0   0 18931.6 127.318   2
   4   0   1 38489.1 174.158   2
   4   0   2 7922.38 77.3729   2
   4   0   3 1107.74 103.379   2
   4   0   4 443.323 84.9698   2
   4   0   5 12605.4 205.709   2
   4   0   7 2181.72 180.485   2
   4   0   8 3036.69 211.510   2
  -4   0  -9 145.458 161.546   2
   4   0  11 416.029 192.725   2
   4   0  12 1592.62 232.593   2
   4   0  14-31.7290 316.336   2
  -4  -1  14 787.425 218.942   2
  -4  -1  13 17172.4 446.797   2
  -4  -1  12 2303.27 221.069   2
  -4  -1  10 355.556 47.8824   2
  -4  -1   9 23391.8 265.652   2
   4   1  -7 5074.93 94.4992   2
   4   1  -6 18850.7 134.887   2
  -4  -1   5 9497.41 102.532   2
   4   1  -4 3331.03 79.7120   2
   4   1  -3 18448.4 96.9304   2
  -4  -1   2 1324.60 42.5659   2
   4   1   0 4445.23 71.0289   2
   4   1   1 2543.45 66.9763   2
   4   1   2-2.21846 71.3003   2
   4   1   3 18112.5 321.100   2
   4   1   4 10563.6 189.134   2
   4   1   5 7068.85 243.639   2
   4   1   7 8943.96 294.159   2
  -4  -1  -8-44.3240 160.197   2
   4   1   9 11095.5 354.537   2
   4   1  11 252.033 200.482   2
   4   1  12 4700.40 428.486   2
  -4  -2  14 3429.97 274.133   2
  -4  -2  13 12791.6 327.135   2
  -4  -2  12 2224.91 185.330   2
   4   2 -11 788.253 171.995   2
  -4  -2  10 1145.31 82.4505   2
  -4  -2   9 194.393 74.2566   2
  -4  -2   7 25.8865 35.2088   2
  -4  -2   6 19560.9 187.541   2
  -4  -2   5 13331.4 110.861   2
   4   2  -4 134.867 65.2423   2
  -4  -2   3 2193.85 49.0152   2
  -4  -2   2 7721.75 83.9913   2
  -4  -2   0 109.902 50.3313   2
  -4  -2  -1 8755.29 118.005   2
  -4  -2  -2 734.954 59.7284   2
  -4  -2  -3 8871.90 128.240   2
   4   2   4 20495.9 307.284   2
   4   2   5 16007.0 360.832   2
  -4  -2  -7 41.1106 161.081   2
  -4  -2  -8 200.982 182.158   2
  -4  -2  -9 1857.66 230.218   2
   4   2  11 3535.14 293.904   2
   4   2  12 1187.25 341.525   2
   4   3 -14 8517.23 297.373   2
  -4  -3  13 393.546 169.033   2
  -4  -3  12 1556.28 179.612   2
  -4  -3  10 48.6009 33.1348   2
  -4  -3   9 24752.1 210.758   2
  -4  -3   7 4166.68 77.8113   2
   4   3  -6 1657.24 72.7170   2
  -4  -3   5 23719.8 146.494   2
   4   3  -4 7321.48 230.058   2
  -4  -3   3 3614.92 55.2261   2
  -4  -3   2 12909.5 117.722   2
  -4  -3   0 917.965 63.1917   2
  -4  -3  -1 7168.59 112.929   2
  -4  -3  -2 302.049 58.1211   2
  -4  -3  -4 6616.90 101.145   2
  -4  -3  -5 86.8522 25.6221   2
   4   3   7 9938.12 355.616   2
   4   3   8 5400.48 305.853   2
   4   3   9 4124.11 292.221   2
   4   4 -14 1027.17 247.149   2
  -4  -4  13 9019.43 301.567   2
  -4  -4  12 1320.32 228.596   2
  -4  -4  10 7558.27 175.909   2
  -4  -4   9 8959.62 153.178   2
   4   4  -7 22.5326 59.8837   2
  -4  -4   6 29.3347 62.0455   2
  -4  -4   5 2418.82 83.6447   2
  -4  -4   3 599.759 39.9239   2
  -4  -4   2 10352.1 123.588   2
  -4  -4   0 117.591 65.5029   2
  -4  -4  -1 2815.05 103.967   2
  -4  -4  -2 1205.27 97.7301   2
  -4  -4  -4 544.016 104.531   2
   4   4   5 1542.21 221.142   2
   4   4   7 1505.18 238.722   2
   4   4   8 12097.0 422.869   2
   4   4   9 4663.62 477.702   2
   4   5 -13 391.271 372.244   2
   4   5 -12 778.699 357.075   2
  -4  -5  10 9953.02 372.246   2
  -4  -5   9 5085.42 184.549   2
   4   5  -7 3144.75 112.157   2
  -4  -5   6 192.383 90.1328   2
   4   5  -5 26274.3 654.189   2
  -4  -5   3 559.936 53.4813   2
  -4  -5   2 2370.03 105.073   2
  -4  -5   0 7001.87 138.941   2
  -4  -5  -1 532.572 92.8259   2
  -4  -5  -2 3155.22 169.561   2
  -4  -5  -4 842.795 220.929   2
  -4  -5  -5 135.419 215.620   2
   4   5   7 5296.58 342.837   2
  -4  -6  10 2506.16 354.640   2
  -4  -6   9 6436.89 460.708   2
  -4  -6   7 372.247 132.716   2
  -4  -6   6 4162.46 188.637   2
   4   6  -5 2292.83 323.743   2
  -4  -6   3 2845.92 148.236   2
  -4  -6   2 26.1667 120.955   2
  -4  -6   0 4947.75 174.913   2
  -4  -6  -1 681.446 122.976   2
   4   6   2 3920.62 215.402   2
  -4  -6  -4 1497.05 286.217   2
  -4  -6  -5 1459.19 344.507   2
  -4  -7   9 203.617 507.585   2
  -4  -7   7 6181.25 235.224   2
  -4  -7   6 9186.60 272.639   2
  -4  -7   3 1526.84 202.216   2
  -4  -7   2 59.4305 161.995   2
  -4  -7   0 90.3681 182.740   2
   4   7   1 25.0557 229.273   2
  -4  -7  -2 803.263 337.061   2
  -4  -8   7 564.681 247.472   2
  -4  -8   6 2999.45 280.381   2
  -4  -8   3 747.592 195.546   2
  -4  -8   2 1373.38 252.232   2
  -5   9   4 2148.08 386.833   2
  -5   9   2 644.608 229.227   2
  -5   9   1 1418.94 249.909   2
  -5   9  -2 3815.30 286.529   2
  -5   9  -3 8323.87 363.792   2
   5  -9   5 5811.69 331.188   2
   5  -9   6 2460.82 377.771   2
   5  -9   9 2200.34 416.288   2
  -5   8   8 123.120 315.753   2
  -5   8   5 11479.2 416.649   2
  -5   8   4 21.7972 202.165   2
  -5   8   2 2334.27 243.015   2
  -5   8   1 1587.03 233.506   2
  -5   8   0 3748.92 273.542   2
  -5   8  -2 195.603 197.033   2
  -5   8  -3 1822.50 231.190   2
   5  -8   5 2833.95 260.552   2
   5  -8   6 2113.31 251.522   2
   5  -8   9 346.120 230.692   2
   5  -8  10 7214.67 368.456   2
  -5   7   9 6896.68 336.783   2
  -5   7   8 811.305 217.404   2
   5  -7  -7 3825.75 421.017   2
  -5   7   5 5818.83 220.723   2
  -5   7   4 690.465 135.284   2
  -5   7   2 98.7208 175.043   2
  -5   7   1 10175.1 239.765   2
  -5   7   0 9825.26 234.785   2
  -5   7  -2 2381.88 159.389   2
  -5   7  -3 3246.71 242.723   2
  -5   7  -5 1028.91 204.441   2
   5  -7   6 3053.83 256.950   2
  -5   7  -7 14062.8 587.383   2
   5  -7   9 5422.08 248.907   2
   5  -7  10 364.356 170.598   2
  -5   6  11 500.530 283.661   2
  -5   6   9-112.848 157.834   2
  -5   6   8 4626.78 221.200   2
  -5   6   7 89.1043 171.981   2
  -5   6   5 5186.21 198.440   2
  -5   6   4 650.754 123.452   2
  -5   6   2 63.5781 110.514   2
  -5   6   1 30125.3 369.660   2
   5  -6   0 499.049 92.6418   2
  -5   6  -2 1125.84 103.594   2
   5  -6   3 980.350 96.4467   2
   5  -6   5 1773.80 113.049   2
   5  -6   6 460.408 176.968   2
  -5   6  -7 491.710 187.023   2
   5  -6   9 2483.74 192.885   2
   5  -6  10 5798.54 241.296   2
  -5   5  11 6129.33 330.477   2
  -5   5   9 11443.0 291.741   2
  -5   5   8 2658.52 172.396   2
  -5   5   7 178.575 147.063   2
  -5   5   5 9365.19 194.094   2
  -5   5   4 5058.31 148.733   2
  -5   5   2 576.340 82.0000   2
  -5   5   1 4861.15 138.522   2
  -5   5   0 12218.9 194.327   2
   5  -5   2 24.7905 94.5177   2
   5  -5   3 28917.7 321.788   2
  -5   5  -5-0.20846 148.463   2
   5  -5   6 2105.78 204.890   2
   5  -5   7 4786.14 167.984   2
   5  -5   9 6.78279 137.087   2
   5  -5  10 1641.11 166.529   2
   5  -5  13 3616.87 396.449   2
  -5   4  12 83.6991 205.084   2
  -5   4  11 1894.83 174.043   2
  -5   4   9 3369.29 174.973   2
  -5   4   8 378.194 87.9021   2
  -5   4   7 6749.29 164.132   2
  -5   4   5 4450.72 121.909   2
  -5   4   4 13008.4 164.499   2
  -5   4   2 141.460 78.7240   2
   5  -4  -1 8444.57 147.040   2
   5  -4   0 1148.45 93.2211   2
   5  -4   2 397.753 85.1043   2
   5  -4   3 52031.7 439.223   2
   5  -4   5 1761.62 177.735   2
  -5   4  -6 48.3449 148.674   2
   5  -4   7 77.1610 97.8471   2
   5  -4   9 107.405 120.249   2
  -5   4 -10 626.681 276.816   2
   5  -4  12 7509.44 348.108   2
   5  -4  13 1662.96 348.556   2
   5  -3 -14 180.757 318.375   2
  -5   3  12 1181.93 227.751   2
  -5   3  11 2086.96 234.948   2
  -5   3   9 5594.68 134.776   2
  -5   3   8 896.730 83.5185   2
  -5   3   7 21032.5 210.132   2
  -5   3   5 35995.7 246.627   2
  -5   3   4 1441.00 73.0790   2
   5  -3  -2 1028.93 70.6535   2
   5  -3  -1 4984.61 106.576   2
   5  -3   0 11924.3 163.530   2
  -5   3  -2 718.860 91.8971   2
   5  -3   3 4735.39 162.680   2
   5  -3   5 1387.19 160.810   2
   5  -3   6 18.5632 78.2777   2
   5  -3   7 16466.9 198.863   2
   5  -3   9 2513.92 129.176   2
  -5   3 -10 14.9085 182.758   2
  -5   3 -12 314.998 210.435   2
   5  -3  13 434.927 308.216   2
   5  -2 -15 9735.98 575.733   2
   5  -2 -14 104.935 335.565   2
  -5   2  12 2567.98 199.815   2
  -5   2  11 345.648 180.205   2
  -5   2   9 5784.08 110.480   2
  -5   2   8 766.258 64.3743   2
  -5   2   7 1101.59 64.9479   2
  -5   2   5 6999.04 124.033   2
   5  -2  -4 2856.09 84.2692   2
   5  -2  -2 167.925 54.8481   2
   5  -2  -1 20817.3 191.213   2
   5  -2   0 16607.4 178.451   2
  -5   2  -1 4091.07 218.527   2
   5  -2   2 1803.49 100.607   2
   5  -2   3 8523.40 171.110   2
   5  -2   5 186.883 56.1335   2
   5  -2   6 525.504 45.1772   2
   5  -2   7 32372.7 509.634   2
   5  -2   9 539.511 180.813   2
  -5   2 -10 1198.09 207.885   2
   5  -2  12 13712.4 430.776   2
   5  -2  13 107.146 295.133   2
   5  -1 -15 655.149 357.469   2
   5  -1 -14 18.2605 297.077   2
  -5   1  12 953.754 163.284   2
   5  -1 -11 15204.7 316.045   2
  -5   1   9 640.322 37.6583   2
   5  -1  -8 8345.56 169.697   2
  -5   1   7 14703.1 308.188   2
   5  -1  -5 3185.12 118.397   2
  -5   1   4 1127.75 43.3372   2
   5  -1  -2 9072.46 105.831   2
   5  -1  -1 48537.0 245.096   2
   5  -1   0 53.5355 57.7160   2
   5  -1   1 1388.61 88.5097   2
   5  -1   2 5911.66 103.418   2
   5  -1   3 217.774 50.2043   2
   5  -1   5 3783.98 201.240   2
  -5   1  -6 710.015 151.510   2
  -5   1  -7 1059.92 174.367   2
  -5   1  -9 147.081 177.092   2
  -5   1 -10 67.1075 190.941   2
   5  -1  12 1151.73 322.668   2
   5  -1  13 1472.57 337.165   2
  -5   0  14 630.915 188.526   2
  -5   0  12-7.76589 135.282   2
   5   0 -11 28702.1 397.750   2
   5   0  -9 2546.71 50.4396   2
   5   0  -8 582.522 70.7810   2
   5   0  -7 37.4165 65.3175   2
   5   0  -5 647.948 69.5850   2
   5   0  -4 1733.75 69.6851   2
   5   0  -2 3312.07 64.0102   2
   5   0  -1 4986.97 79.1101   2
   5   0   0 5851.55 89.3831   2
   5   0   1 26693.8 202.474   2
   5   0   2 412.916 43.5709   2
   5   0   3 23758.9 266.128   2
   5   0   5 5807.51 239.457   2
   5   0   6 7425.68 274.271   2
   5   0   7 2994.69 218.676   2
  -5   0  -9 353.763 190.579   2
   5   0  10 2333.34 240.357   2
   5   0  12 6043.03 463.728   2
  -5  -1  14 1992.94 248.162   2
  -5  -1  12 254.906 117.316   2
  -5  -1  11 349.059 110.917   2
  -5  -1   9 1.48648 34.3825   2
  -5  -1   8 270.463 59.4262   2
   5   1  -7 51389.6 309.476   2
   5   1  -6 284.389 90.5256   2
   5   1  -5 7287.70 114.761   2
   5   1  -4 3652.97 78.2670   2
   5   1  -2 6891.69 86.8968   2
   5   1  -1 338.611 49.2035   2
   5   1   0 124.450 53.2964   2
   5   1   2 13391.2 203.544   2
   5   1   3 28923.0 301.947   2
  -5  -1  -5 999.083 164.078   2
   5   1   6 7586.79 288.783   2
  -5  -1  -7 52.1102 170.411   2
   5   1   9 6171.68 311.972   2
  -5  -1 -10 75.6861 219.813   2
   5   2 -14 2045.66 261.295   2
  -5  -2  12 101.313 161.171   2
  -5  -2  11 8479.78 273.955   2
   5   2  -9 1399.65 64.9818   2
  -5  -2   8 91.2881 34.0572   2
  -5  -2   7 34007.1 350.409   2
   5   2  -5 6115.80 139.009   2
  -5  -2   4 1141.05 89.0534   2
  -5  -2   2 10209.6 109.955   2
  -5  -2   1 14.2882 48.7834   2
  -5  -2   0 422.955 66.9173   2
   5   2   2 3657.72 134.813   2
   5   2   3 3461.79 164.036   2
   5   2   5 9625.33 320.749   2
   5   2   6 1201.98 200.285   2
   5   2   7 8174.97 335.057   2
   5   2   9 3386.22 272.600   2
   5   2  10 7390.59 519.450   2
  -5  -3  14 216.019 292.298   2
   5   3 -12 841.179 183.768   2
  -5  -3  11 96.7888 194.636   2
  -5  -3   9 1285.12 123.538   2
  -5  -3   8 154.064 108.012   2
  -5  -3   7 251.932 108.877   2
   5   3  -6 2567.35 72.0563   2
  -5  -3   5 65.7267 53.2685   2
  -5  -3   4 697.209 92.0867   2
  -5  -3   2 244.860 58.7184   2
  -5  -3   1 8273.88 129.860   2
  -5  -3   0 1218.65 83.6195   2
  -5  -3  -2 5299.72 131.881   2
  -5  -3  -3-6.50286 57.9836   2
  -5  -3  -5 868.344 200.906   2
   5   3   6 8170.06 344.973   2
   5   3   7 6157.22 324.999   2
  -5  -4  12 2394.64 263.399   2
  -5  -4  11 17354.7 472.334   2
  -5  -4   9 4190.82 183.899   2
  -5  -4   8 1028.20 143.760   2
   5   4  -7 7466.65 182.737   2
  -5  -4   5 170.448 73.2718   2
  -5  -4   4 447.663 82.6341   2
  -5  -4   2 8472.28 122.251   2
  -5  -4   1 3759.52 99.4534   2
  -5  -4   0 48.7422 79.3053   2
  -5  -4  -2 10573.7 220.896   2
   5   4   3 1485.56 216.855   2
   5   4   5 9525.25 374.864   2
   5   4   6 65.6448 214.718   2
  -5  -4  -7 1134.49 331.010   2
  -5  -5  11 11856.6 420.754   2
  -5  -5   9 492.118 216.429   2
  -5  -5   8 86.5843 171.617   2
  -5  -5   5 6349.47 180.230   2
  -5  -5   4 549.221 112.505   2
  -5  -5   2 2436.61 137.733   2
  -5  -5   1 3.88588 101.293   2
   5   5   0 958.371 156.026   2
  -5  -5  -2 532.687 212.107   2
   5   5   3 2336.74 260.100   2
  -5  -5  -5 6227.55 476.899   2
  -5  -6   9 4312.30 410.936   2
  -5  -6   8 3008.93 246.660   2
  -5  -6   5 3316.53 192.873   2
  -5  -6   4 2435.06 157.875   2
  -5  -6   2 1356.56 160.030   2
  -5  -6   1 1755.63 164.668   2
  -5  -6   0 255.511 158.787   2
   5   6   2 5050.44 334.601   2
  -5  -6  -3 210.799 374.345   2
  -5  -7   8 1367.56 346.468   2
  -5  -7   5 511.410 230.414   2
  -5  -7   4-107.584 218.214   2
  -5  -7   2 1908.79 207.947   2
  -5  -8   5 2821.68 428.528   2
  -6   9   3 1247.64 359.514   2
  -6   9   2 608.663 311.224   2
  -6   9   0 127.554 282.493   2
  -6   9  -1-38.9766 284.590   2
  -6   9  -3-23.3257 318.353   2
   6  -9   8 1692.06 426.857   2
  -6   8   7 516.428 311.443   2
  -6   8   6 5338.12 440.104   2
  -6   8   4 544.486 302.166   2
  -6   8   3 2955.43 269.217   2
  -6   8   2 588.035 210.664   2
  -6   8   0 1857.09 244.926   2
  -6   8  -1 3647.56 276.855   2
   6  -8   3 604.953 213.417   2
   6  -8   4 4792.72 303.932   2
  -6   8  -5 2320.42 252.454   2
   6  -8   7 1083.37 362.420   2
   6  -8   8 1022.10 379.771   2
  -6   7   7 4982.61 281.986   2
  -6   7   6 2574.44 195.186   2
  -6   7   4 189.213 136.441   2
  -6   7   3 11978.1 379.847   2
  -6   7   2 4990.69 207.100   2
  -6   7   0 15.8627 131.249   2
  -6   7  -1 180.719 185.224   2
   6  -7   3 406.462 198.563   2
   6  -7   4 427.058 198.599   2
  -6   7  -5 1569.13 230.995   2
  -6   7  -7 607.421 213.124   2
   6  -7   8 10017.6 311.007   2
  -6   6  10 63.1982 287.920   2
   6  -6  -9-24.1028 317.726   2
  -6   6   7 3885.32 202.983   2
  -6   6   6 993.653 146.997   2
  -6   6   4 1055.21 139.664   2
  -6   6   3 24.6161 122.380   2
  -6   6   2 26388.9 314.123   2
  -6   6   0 957.401 115.154   2
   6  -6   1 11012.1 211.680   2
  -6   6  -3 458.691 178.692   2
   6  -6   4 219.224 175.847   2
   6  -6   5 8110.95 327.452   2
  -6   6  -7-52.4080 200.704   2
   6  -6   8 2103.98 190.330   2
  -6   5  11 229.513 216.467   2
  -6   5  10 4140.02 292.612   2
   6  -5  -9 4728.85 431.566   2
  -6   5   7 2142.56 158.295   2
  -6   5   6 1796.26 201.270   2
  -6   5   4 377.731 93.0352   2
  -6   5   3 8656.15 169.173   2
  -6   5   2 4364.89 149.166   2
   6  -5   0 226.468 95.8331   2
   6  -5   1 13983.5 260.893   2
   6  -5   3 271.320 119.031   2
   6  -5   4 6774.75 207.274   2
   6  -5   5-33.1152 124.319   2
   6  -5   7 89.9291 138.737   2
   6  -5   8 112.095 139.710   2
   6  -5  10 7962.44 364.870   2
  -6   4  11 4774.90 303.000   2
  -6   4  10 2723.39 260.949   2
  -6   4   9 6405.69 308.614   2
  -6   4   7 9630.68 231.104   2
  -6   4   6 3499.59 128.809   2
  -6   4   4 1541.75 102.235   2
  -6   4   3 5527.87 164.882   2
   6  -4  -2 2809.59 124.526   2
   6  -4   0 1163.40 101.862   2
   6  -4   1 336.186 92.7256   2
   6  -4   3 23.8956 109.508   2
   6  -4   4 986.325 168.379   2
   6  -4   5 10470.5 328.976   2
   6  -4   7 133.882 123.959   2
  -6   4  -8 1120.71 216.705   2
  -6   4 -10 1872.40 340.378   2
   6  -4  11 255.492 287.555   2
   6  -4  12 78.4720 337.233   2
   6  -3 -14 342.964 363.684   2
   6  -3 -13 79.4913 303.445   2
  -6   3  11 3399.02 268.915   2
  -6   3  10 20.3419 181.740   2
  -6   3   9 243.927 175.470   2
  -6   3   7 245.627 70.6864   2
  -6   3   6 15609.1 221.647   2
  -6   3   4 37.2095 68.7717   2
  -6   3   3 6859.81 178.361   2
   6  -3  -2 256.282 73.8267   2
   6  -3   0 3085.18 120.702   2
   6  -3   1 10590.7 190.508   2
  -6   3  -3 102.454 131.300   2
  -6   3  -4 1079.00 164.655   2
   6  -3   5 6573.03 269.732   2
  -6   3  -7 626.512 185.640   2
   6  -3   8 6490.39 253.798   2
   6  -3  10 12045.9 407.766   2
   6  -3  11 451.548 301.769   2
   6  -3  12 94.8654 330.502   2
   6  -2 -14 304.218 342.414   2
   6  -2 -13 7286.59 477.325   2
  -6   2  11 1896.31 225.632   2
  -6   2  10 487.446 179.258   2
  -6   2   9 5258.67 257.013   2
  -6   2   8 93.0863 50.5171   2
  -6   2   7 3715.80 96.8897   2
  -6   2   6 3212.18 73.9100   2
   6  -2  -4 13204.9 200.574   2
   6  -2  -3 12263.7 145.512   2
   6  -2  -2 14426.8 160.865   2
   6  -2   0 9720.18 151.671   2
   6  -2   1 1759.71 99.3551   2
   6  -2   3 3184.80 127.049   2
   6  -2   4 86.5830 75.3578   2
   6  -2   5 577.225 49.5294   2
  -6   2  -7 163.778 181.133   2
  -6   2  -8 67.6179 189.428   2
   6  -2  10 202.491 204.012   2
   6  -2  11 138.712 297.388   2
   6  -1 -13 7612.05 429.730   2
   6  -1 -11 968.528 160.404   2
  -6   1  10 763.737 148.861   2
   6  -1  -9 113.048 89.8264   2
  -6   1   7 865.715 102.986   2
  -6   1   6 257.741 129.725   2
   6  -1  -4 6801.49 108.271   2
   6  -1  -3 26.7752 50.0843   2
   6  -1  -2 25635.4 195.369   2
   6  -1   0 842.425 72.1128   2
   6  -1   1 4668.15 93.9513   2
   6  -1   3 203.973 58.1347   2
   6  -1   4 20431.2 413.285   2
   6  -1   5 8646.46 294.617   2
  -6   1  -7 924.251 189.043   2
  -6   1  -8 1781.90 230.191   2
   6  -1  10 14910.7 445.900   2
   6  -1  11 438.558 320.627   2
  -6   0  13 349.106 219.873   2
  -6   0  11 930.453 148.027   2
  -6   0  10 1381.87 146.485   2
   6   0  -9 26950.3 254.360   2
   6   0  -7 402.399 81.6904   2
   6   0  -6 426.931 88.8295   2
   6   0  -4 6946.19 80.5345   2
   6   0  -3 1693.50 58.2244   2
   6   0  -2 5258.66 88.7894   2
   6   0   0 18817.7 159.420   2
   6   0   1 5906.00 98.7361   2
   6   0   3 2133.32 175.144   2
   6   0   4 14803.3 356.719   2
  -6   0  -5 764.650 173.754   2
  -6   0  -7 1707.24 220.812   2
  -6   0  -8 1196.25 223.280   2
   6   0  10 3964.20 416.124   2
  -6  -1  13 6159.19 345.658   2
  -6  -1  11 1766.88 235.917   2
  -6  -1  10 141.848 186.498   2
   6   1  -9 8394.05 215.101   2
   6   1  -7 480.930 76.7797   2
   6   1  -6 4774.44 130.307   2
   6   1  -4 8378.37 96.1079   2
   6   1  -3 58.1900 45.5199   2
   6   1  -2 14.4502 51.6422   2
   6   1   0 1146.55 74.7311   2
   6   1   1 54.8527 70.6675   2
   6   1   3 5419.53 242.239   2
   6   1   4 1823.79 192.740   2
   6   1   5 444.171 180.706   2
  -6  -1  -7 230.966 197.462   2
   6   1   8 16932.6 465.180   2
  -6  -2  13 152.810 322.825   2
   6   2 -11 996.127 319.667   2
   6   2 -10 1361.19 300.676   2
  -6  -2   9 1934.14 214.007   2
  -6  -2   7 1130.13 117.844   2
   6   2  -6 1424.34 120.826   2
   6   2  -4 2073.14 71.9414   2
   6   2  -3 204.873 53.4607   2
   6   2  -2 5784.01 110.649   2
   6   2   0 11987.3 200.579   2
   6   2   1 1379.29 131.170   2
  -6  -2  -3 15.5680 158.260   2
   6   2   4 9830.81 336.825   2
  -6  -2  -5 1083.72 214.254   2
  -6  -2  -7 2017.24 246.524   2
  -6  -2  -8 6795.58 472.513   2
   6   3 -11 1604.64 233.559   2
   6   3 -10 3963.82 273.695   2
   6   3  -9 7266.04 317.958   2
   6   3  -7 3.29628 112.386   2
  -6  -3   6 153.656 107.210   2
  -6  -3   4 19387.5 279.993   2
  -6  -3   3 4.93639 72.2679   2
  -6  -3   2 3556.24 123.651   2
   6   3   0 14629.8 228.743   2
  -6  -3  -1 397.815 98.9987   2
   6   3   3 8869.46 334.441   2
   6   3   4 610.444 201.983   2
   6   3   5 477.604 209.169   2
  -6  -3  -7 3248.32 387.889   2
  -6  -4  11 1552.01 240.820   2
  -6  -4  10 1446.34 231.490   2
   6   4  -9 190.241 283.724   2
  -6  -4   7 2007.50 173.134   2
  -6  -4   6 3647.18 172.670   2
  -6  -4   4 2406.44 135.876   2
  -6  -4   3 461.419 131.964   2
  -6  -4   2 171.769 103.060   2
  -6  -4   0 1770.35 172.236   2
   6   4   1 97.3069 179.278   2
   6   4   3 4947.90 303.476   2
   6   4   4 10934.5 406.796   2
  -6  -4  -5 293.959 305.504   2
  -6  -5  10 774.280 224.491   2
   6   5  -9 7688.14 506.766   2
  -6  -5   7 468.018 198.892   2
  -6  -5   6 9122.27 339.695   2
  -6  -5   4 2707.87 193.902   2
  -6  -5   3 1094.87 161.796   2
  -6  -5   2-42.2301 139.297   2
   6   5   0 7398.10 271.443   2
  -6  -5  -1 421.187 175.831   2
  -6  -5  -3 787.244 326.023   2
  -6  -5  -4 4686.84 447.442   2
  -6  -6   7 2346.47 268.625   2
  -6  -6   6 1194.89 254.663   2
  -6  -6   4 1117.61 195.239   2
  -6  -6   3 2367.58 275.321   2
   6   6  -2 5554.66 491.068   2
  -6  -6   0 205.847 318.971   2
  -6  -6  -1 198.104 333.552   2
  -6  -7   6 1254.77 275.643   2
  -7   8   5 2516.28 368.968   2
  -7   8   4 4427.34 420.228   2
  -7   8   2 187.818 279.851   2
  -7   8   1 4.25701 279.507   2
  -7   8  -1 274.124 292.916   2
  -7   8  -2 2079.72 354.382   2
  -7   8  -3 5351.87 447.952   2
  -7   7   6 2935.08 349.339   2
  -7   7   5 572.516 208.594   2
  -7   7   4 9025.48 347.689   2
  -7   7   2 607.135 157.477   2
  -7   7   1 1280.00 171.301   2
  -7   7  -1 79.4629 154.393   2
  -7   7  -2 249.775 160.676   2
   7  -7   3 6556.74 323.838   2
  -7   7  -5 1089.60 222.604   2
  -7   7  -6-0.43423 213.136   2
  -7   6   9 1406.70 351.246   2
  -7   6   8 1993.62 271.595   2
  -7   6   6-27.1874 137.240   2
  -7   6   5 4054.84 246.692   2
  -7   6   4 152.678 131.631   2
   7  -6  -2 1736.98 165.441   2
  -7   6   1 846.980 150.767   2
  -7   6  -1 42.0137 145.639   2
   7  -6   2 2534.62 234.445   2
  -7   6  -3 454.391 197.356   2
  -7   6  -5-48.0241 207.967   2
   7  -6   6 1144.56 224.954   2
  -7   6  -8 3805.84 411.907   2
  -7   5   9 2711.85 266.058   2
  -7   5   8 2907.65 269.195   2
  -7   5   6 1488.94 174.296   2
  -7   5   5 1697.88 152.488   2
   7  -5  -4 7218.27 225.306   2
   7  -5  -2 2662.77 169.484   2
   7  -5  -1 1996.83 160.711   2
   7  -5   1 2210.25 203.010   2
  -7   5  -2 154.944 163.492   2
  -7   5  -3 962.140 192.066   2
  -7   5  -5 1283.87 219.004   2
  -7   5  -6 545.088 205.003   2
   7  -5   8 5836.54 325.265   2
   7  -4 -12 954.305 383.161   2
   7  -4 -11 3742.79 424.315   2
  -7   4   9 26.1128 207.929   2
  -7   4   8 7222.33 328.839   2
  -7   4   6 106.337 108.919   2
  -7   4   5 1522.72 135.428   2
  -7   4   4 138.273 111.942   2
  -7   4   2 1866.53 144.109   2
   7  -4  -1 8169.47 194.539   2
   7  -4   1 4989.95 233.621   2
   7  -4   2 5353.84 246.843   2
   7  -4   3 75.1758 160.204   2
  -7   4  -5 159.723 183.180   2
   7  -4   6 2238.57 240.319   2
   7  -4   8 11672.9 411.550   2
  -7   4  -9 532.963 215.624   2
   7  -3 -13 2524.66 432.925   2
   7  -3 -12 498.699 352.988   2
  -7   3  11 3704.30 292.992   2
  -7   3   9 998.157 215.272   2
  -7   3   8 64.0275 179.888   2
   7  -3  -6 13069.3 363.522   2
   7  -3  -5 3157.94 140.112   2
  -7   3   4 6861.89 149.159   2
   7  -3  -2 6457.58 163.155   2
   7  -3  -1 4526.74 148.668   2
   7  -3   1 8687.65 211.670   2
   7  -3   2 138.672 111.351   2
   7  -3   3 2097.42 145.384   2
   7  -3   5 1919.23 217.823   2
  -7   3  -6 1552.07 183.099   2
  -7   3  -8 30.4795 199.169   2
   7  -3   9 2600.05 260.751   2
   7  -2 -12 451.346 311.069   2
   7  -2 -11 222.455 164.511   2
  -7   2   9 29.0646 175.244   2
   7  -2  -8 1702.51 257.221   2
   7  -2  -6 4595.39 242.539   2
  -7   2   5 1.34713 59.7483   2
   7  -2  -4 6842.65 164.762   2
   7  -2  -2 3469.42 124.803   2
   7  -2  -1 112.225 78.4073   2
   7  -2   1 807.143 99.7720   2
   7  -2   2 10789.1 197.514   2
   7  -2   3 10591.6 264.952   2
   7  -2   5 4001.81 207.775   2
   7  -2   6 7424.46 318.182   2
   7  -2   8 11029.4 395.687   2
  -7   2  -9 170.996 206.226   2
   7  -1 -11 1810.24 241.529   2
   7  -1  -9 602.324 162.479   2
   7  -1  -8 125.385 99.3260   2
   7  -1  -6 7171.77 182.385   2
  -7   1   5 793.529 110.470   2
   7  -1  -4 91.6897 50.5851   2
   7  -1  -2 19936.2 169.644   2
   7  -1  -1 256.912 67.2260   2
   7  -1   1 164.488 70.2693   2
   7  -1   2 6716.74 150.969   2
   7  -1   3 4623.37 195.448   2
  -7   1  -5 598.585 184.107   2
  -7   1  -6 394.251 196.689   2
   7  -1   8 806.830 221.715   2
   7   0 -11 91.0150 276.022   2
   7   0  -9 388.332 241.861   2
   7   0  -8 2474.27 135.450   2
   7   0  -6 8042.74 182.547   2
   7   0  -5 67.5835 97.2361   2
   7   0  -4 1352.17 57.5850   2
   7   0  -2 14.8329 58.5785   2
   7   0  -1 27.2489 62.1575   2
   7   0   1 1.31249 79.2710   2
   7   0   2 9016.57 292.942   2
  -7   0  -3 1037.06 178.457   2
  -7   0  -5 25.6473 183.681   2
   7   0   6 12246.0 396.890   2
  -7   0  -8 2970.17 377.093   2
   7   1 -11 4878.40 415.171   2
   7   1  -9 168.646 242.090   2
   7   1  -8 80.0418 140.724   2
   7   1  -6 4464.14 143.870   2
  -7  -1   5 541.487 101.386   2
  -7  -1   4 729.288 106.359   2
   7   1  -2 17774.8 194.645   2
   7   1  -1 872.730 81.0503   2
   7   1   1 2241.64 186.418   2
   7   1   2 16666.3 388.066   2
  -7  -1  -3 62.5431 163.059   2
  -7  -1  -5 444.765 194.994   2
  -7  -1  -6 1447.50 227.723   2
   7   2 -11 7295.86 479.148   2
   7   2  -9 780.535 281.584   2
   7   2  -8 821.796 285.593   2
   7   2  -6 17141.0 328.403   2
  -7  -2   5 274.151 138.252   2
   7   2  -4 1581.86 161.702   2
   7   2  -2 6140.57 171.092   2
   7   2  -1 3021.00 172.719   2
   7   2   1 7884.28 293.158   2
  -7  -2  -2 404.294 175.991   2
   7   2   3 15.5430 186.971   2
  -7  -2  -5 616.364 222.229   2
  -7  -2  -6 7039.37 512.101   2
   7   3  -9 2119.79 244.435   2
   7   3  -8 986.533 218.671   2
  -7  -3   6 903.415 142.396   2
  -7  -3   5 37.9778 122.991   2
  -7  -3   4 1315.54 170.281   2
   7   3  -2 5396.23 304.157   2
   7   3  -1 1663.62 170.651   2
   7   3   1 6093.42 291.637   2
   7   3   2 11233.4 379.448   2
   7   3   3 1424.67 240.336   2
  -7  -3  -5 170.254 287.720   2
   7   4  -9 55.1748 197.201   2
   7   4  -8 6086.19 324.566   2
   7   4  -6 5558.46 253.611   2
  -7  -4   5 920.878 180.024   2
   7   4  -4 858.325 235.301   2
   7   4  -2 8445.68 368.929   2
   7   4  -1 1197.44 255.195   2
  -7  -4  -1 98.6947 177.273   2
  -7  -4  -2 1849.87 353.546   2
  -7  -4  -3 5330.88 452.841   2
  -7  -5   8 180.103 280.546   2
   7   5  -6 1396.86 271.957   2
  -7  -5   5 468.740 189.781   2
   7   5  -4 1322.98 265.429   2
  -7  -5   2 255.895 239.298   2
  -7  -5   1 23.9324 336.633   2
  -7  -5  -1 1225.27 410.471   2
   7   6  -5 239.590 442.815   2
  -8   8   3 754.100 335.841   2
  -8   8   1 315.515 294.735   2
  -8   8   0 140.751 287.107   2
  -8   8  -1 413.857 289.401   2
  -8   7   3 116.600 207.865   2
  -8   7   1 170.007 205.838   2
  -8   7   0 1716.52 336.313   2
  -8   7  -1 25.8960 211.557   2
  -8   7  -3 108.547 280.705   2
  -8   7  -4 358.418 283.180   2
   8  -6  -6 10782.9 607.384   2
   8  -6  -4 65.7165 211.207   2
  -8   6   3 98.2095 148.437   2
  -8   6   1 2023.58 191.045   2
  -8   6   0 75.0405 157.022   2
  -8   6  -1 195.783 162.018   2
   8  -6   3 2931.12 266.901   2
  -8   6  -4 1081.61 230.102   2
  -8   6  -6 12961.6 601.221   2
   8  -5  -8 137.542 299.296   2
   8  -5  -7 127.197 290.985   2
   8  -5  -6 904.483 321.469   2
   8  -5  -4 7195.38 343.338   2
   8  -5  -3 807.460 147.892   2
  -8   5   1 4780.60 219.625   2
  -8   5   0 2293.06 184.326   2
  -8   5  -1 201.222 154.885   2
  -8   5  -3 45.8445 190.782   2
   8  -5   4 523.338 206.974   2
  -8   5  -6 13891.4 609.593   2
  -8   5  -7 1233.28 338.340   2
   8  -4 -11 23.7220 390.593   2
   8  -4 -10 348.012 309.215   2
   8  -4  -8 3096.42 386.053   2
   8  -4  -7 811.855 316.224   2
  -8   4   6 2326.91 256.713   2
   8  -4  -4 9630.63 360.566   2
  -8   4   3 1156.55 142.951   2
  -8   4   1 1550.58 157.607   2
  -8   4   0 899.970 153.705   2
  -8   4  -1 612.083 165.673   2
  -8   4  -3 2463.56 230.856   2
   8  -4   4 2716.94 247.719   2
  -8   4  -6 84.8335 205.970   2
  -8   4  -7 4469.45 415.752   2
   8  -3 -10 1590.41 366.059   2
   8  -3  -8 212.458 281.490   2
  -8   3   7 933.626 217.004   2
  -8   3   6 125.718 193.720   2
   8  -3  -4 823.691 202.490   2
   8  -3  -3 22.0867 187.436   2
  -8   3   1 280.577 128.206   2
  -8   3   0 8061.85 242.641   2
   8  -3   1 1522.44 184.364   2
   8  -3   3 3290.33 239.281   2
   8  -3   4 3750.96 221.612   2
   8  -3   6 2892.96 222.636   2
  -8   3  -7-43.5673 282.353   2
   8  -2  -8 15306.5 395.584   2
  -8   2   7-59.6719 118.514   2
   8  -2  -6 3999.48 201.867   2
   8  -2  -4 6291.97 229.429   2
   8  -2  -3 1352.81 165.422   2
   8  -2  -1 1397.87 126.691   2
   8  -2   0 3772.46 140.546   2
   8  -2   1 5614.60 167.822   2
   8  -2   3-35.5719 144.954   2
   8  -2   4 1162.60 177.103   2
  -8   2  -6 176.967 210.697   2
  -8   2  -7 1785.60 326.978   2
   8  -1 -10 1264.29 293.787   2
   8  -1  -8 13331.5 577.780   2
  -8   1   7 374.280 121.935   2
   8  -1  -6 2048.42 146.366   2
   8  -1  -4 2229.50 146.282   2
   8  -1  -3 2307.71 146.892   2
   8  -1  -1 45.4978 88.7708   2
   8  -1   0 5357.64 150.935   2
  -8   1  -1 125.772 123.122   2
   8  -1   3 533.785 185.680   2
   8  -1   4 10997.1 369.343   2
  -8   1  -6 6948.28 467.846   2
  -8   1  -7 960.869 312.661   2
   8   0 -10 931.216 267.686   2
   8   0  -8 662.056 216.218   2
  -8   0   7 331.420 150.774   2
  -8   0   6 46.1443 144.947   2
   8   0  -4 25442.3 322.118   2
   8   0  -3-6.52966 114.322   2
   8   0  -1 383.051 95.6844   2
   8   0   0 7153.16 233.815   2
   8   0   1 2954.82 219.288   2
  -8   0  -3 186.616 178.914   2
  -8   0  -4 62.9141 190.715   2
  -8   0  -6 3018.28 382.598   2
   8   1 -10 1202.31 323.412   2
   8   1  -8 4816.83 312.401   2
  -8  -1   7 126.117 210.750   2
   8   1  -6-12.1553 153.417   2
   8   1  -4 5655.38 231.473   2
   8   1  -3 2723.15 191.130   2
   8   1  -1 1273.58 245.200   2
   8   1   0 2348.27 176.022   2
  -8  -1  -1 1682.96 196.203   2
   8   1   3 151.154 191.393   2
  -8  -1  -4 8219.53 481.380   2
  -8  -1  -6 69.0277 301.659   2
   8   2  -8 709.659 315.772   2
  -8  -2   7 735.478 228.764   2
   8   2  -6 7018.44 265.131   2
   8   2  -4 1927.81 193.754   2
   8   2  -3 914.034 231.141   2
   8   2  -1 1406.27 253.046   2
   8   2   0 15876.3 472.166   2
   8   2   1 499.819 226.514   2
  -8  -2  -3 66.8551 281.839   2
  -8  -2  -4 4815.48 435.874   2
   8   3  -8 11979.4 593.095   2
   8   3  -7 96.9712 349.988   2
   8   3  -6 1833.58 220.826   2
   8   3  -4 3242.99 285.896   2
  -8  -3   3 8.15924 222.091   2
   8   3  -1-39.9386 220.631   2
   8   3   0 1406.80 267.859   2
  -8  -3  -1 2683.73 442.385   2
   8   4  -8 4137.73 504.848   2
   8   4  -7-17.1991 364.358   2
   8   4  -4 2508.83 408.950   2
  -8  -4   3 870.583 254.201   2
  -9   7   1 145.712 377.972   2
  -9   7  -1 7325.95 368.769   2
  -9   7  -2 979.240 254.517   2
  -9   6   5-16.9615 338.976   2
  -9   6   3 139.909 327.612   2
  -9   6   2 637.914 334.307   2
  -9   6   1 442.011 342.441   2
  -9   6  -1 928.859 233.333   2
  -9   6  -2 124.496 219.475   2
  -9   6  -4 2666.48 373.876   2
   9  -5  -6 1870.19 383.654   2
  -9   5   5 1806.87 258.873   2
  -9   5   3 2492.27 270.703   2
  -9   5   2 1587.74 253.201   2
   9  -5  -1 1237.15 246.836   2
  -9   5  -1 798.909 178.127   2
  -9   5  -2 1408.76 206.589   2
  -9   5  -4 778.248 305.983   2
  -9   5  -5 6733.59 481.502   2
   9  -4  -8 138.680 330.559   2
  -9   4   6 1904.83 280.374   2
   9  -4  -5 861.044 236.983   2
   9  -4  -3 4603.46 308.933   2
   9  -4  -2 6407.18 339.122   2
   9  -4  -1 393.189 230.850   2
  -9   4  -1 149.681 159.518   2
   9  -4   2 520.602 202.765   2
  -9   4  -4 2787.33 370.928   2
  -9   4  -5 54.0798 279.296   2
   9  -3  -6 3513.38 269.578   2
  -9   3   5 622.466 226.354   2
  -9   3   3 2754.00 268.971   2
   9  -3  -2 514.991 220.279   2
   9  -3  -1 7474.46 289.683   2
   9  -3   1 1904.99 164.400   2
  -9   3  -2 1646.21 187.159   2
  -9   3  -4-17.8984 202.369   2
  -9   3  -5 873.960 308.122   2
  -9   3  -6 3200.38 421.224   2
   9  -2  -8 17.1326 308.638   2
   9  -2  -6 2105.73 239.686   2
  -9   2   5 1867.96 172.236   2
   9  -2  -3 566.088 146.185   2
   9  -2  -2 4255.32 195.896   2
   9  -2  -1-64.8968 173.406   2
   9  -2   1 4752.33 258.807   2
   9  -2   2 5071.49 239.086   2
  -9   2  -4 2291.00 352.392   2
  -9   2  -5 89.4152 285.392   2
   9  -1  -8 1130.25 310.508   2
   9  -1  -6 13237.7 578.681   2
   9  -1  -5 487.442 213.232   2
   9  -1  -3 955.572 149.890   2
   9  -1  -2 2981.42 215.220   2
   9  -1  -1 5566.27 258.074   2
   9  -1   1 886.172 225.560   2
  -9   1  -4 946.419 333.850   2
  -9   1  -5 2046.22 363.483   2
   9   0  -8-80.4171 290.965   2
   9   0  -6 1662.62 361.483   2
   9   0  -5 5837.49 308.293   2
   9   0  -3 564.410 326.201   2
   9   0  -2 2616.18 381.334   2
   9   0  -1 2957.80 387.598   2
   9   1  -8 3235.89 402.833   2
   9   1  -6 2297.67 393.121   2
   9   1  -5 790.958 351.943   2
   9   1  -3 133.207 331.006   2
   9   1  -2 8586.21 518.013   2
   9   1  -1 1121.86 335.858   2
   9   2  -3 724.693 338.863   2
   9   2  -2 457.941 362.722   2
  10  -4  -4 1339.55 396.864   2
  10  -4  -3 5181.69 485.262   2
  10  -3  -5-15.0477 366.452   2
  10  -3  -4 7789.40 528.905   2
  10  -3  -3 59.0712 238.449   2
  10  -3  -1 1494.68 369.979   2
  10  -3   0 182.321 336.173   2
  10  -2  -4 3926.18 449.227   2
  10  -2  -3 4666.33 444.344   2
  10  -2   0 1251.73 388.967   2
  10  -1  -4 121.555 386.481   2
  10  -1  -3 1629.20 389.724   2
;
_shelx_hkl_checksum              31152
loop_
_space_group_symop_operation_xyz
'x, y, z'
'-x, -y, -z'
loop_
_atom_site_label
_atom_site_type_symbol
_atom_site_fract_x
_atom_site_fract_y
_atom_site_fract_z
_atom_site_U_iso_or_equiv
_atom_site_adp_type
_atom_site_occupancy
_atom_site_site_symmetry_order
_atom_site_calc_flag
_atom_site_refinement_flags_posn
_atom_site_refinement_flags_adp
_atom_site_refinement_flags_occupancy
_atom_site_disorder_assembly
_atom_site_disorder_group
Cu1 Cu 0.53536(7) 0.50668(7) 0.11393(4) 0.01564(12) Uani 1 1 d . . . . .
Cu2 Cu -0.04246(7) 0.50742(7) 0.39913(4) 0.01469(12) Uani 1 1 d . . . . .
I1 I 0.38914(4) 0.72585(4) 0.03476(2) 0.01688(8) Uani 1 1 d . . . . .
I2 I -0.25546(4) 0.27696(4) 0.47836(2) 0.01613(8) Uani 1 1 d . . . . .
I3 I -0.23378(4) 0.66548(4) 0.29070(2) 0.01680(8) Uani 1 1 d . . . . .
N1 N 0.3077(4) 0.3430(4) 0.1687(2) 0.0097(7) Uani 1 1 d . . . . .
N2 N 0.0769(4) 0.3433(5) 0.2871(2) 0.0108(7) Uani 1 1 d . . . . .
N3 N 0.0039(4) 0.1341(4) 0.1157(3) 0.0114(7) Uani 1 1 d . . . . .
N4 N 0.2233(5) 0.1030(4) 0.2574(3) 0.0117(7) Uani 1 1 d . . . . .
C1 C 0.2308(5) 0.4525(5) 0.2481(3) 0.0108(8) Uani 1 1 d . . . . .
H1A H 0.184845 0.538224 0.215444 0.013 Uiso 1 1 calc R U . . .
H1AB H 0.330011 0.518452 0.308826 0.013 Uiso 1 1 calc R U . . .
C2 C -0.0691(5) 0.2440(5) 0.1943(3) 0.0127(9) Uani 1 1 d . . . . .
H2A H -0.172330 0.169718 0.218835 0.015 Uiso 1 1 calc R U . . .
H2AB H -0.118499 0.327216 0.160871 0.015 Uiso 1 1 calc R U . . .
C3 C 0.1562(5) 0.2446(5) 0.0785(3) 0.0119(9) Uani 1 1 d . . . . .
H3A H 0.108943 0.328247 0.044407 0.014 Uiso 1 1 calc R U . . .
H3AB H 0.205164 0.170326 0.024669 0.014 Uiso 1 1 calc R U . . .
C4 C 0.3778(5) 0.2195(5) 0.2173(3) 0.0114(9) Uani 1 1 d . . . . .
H4A H 0.478654 0.284111 0.277470 0.014 Uiso 1 1 calc R U . . .
H4AB H 0.429367 0.145866 0.164564 0.014 Uiso 1 1 calc R U . . .
C5 C 0.1471(6) 0.2206(5) 0.3371(3) 0.0119(9) Uani 1 1 d . . . . .
H5A H 0.045995 0.148309 0.364280 0.014 Uiso 1 1 calc R U . . .
H5AB H 0.246093 0.286032 0.398017 0.014 Uiso 1 1 calc R U . . .
C6 C 0.0697(6) 0.0084(5) 0.1617(3) 0.0136(9) Uani 1 1 d . . . . .
H6A H 0.118549 -0.066074 0.107859 0.016 Uiso 1 1 calc R U . . .
H6AB H -0.033755 -0.067977 0.184834 0.016 Uiso 1 1 calc R U . . .
C7 C 0.2925(6) -0.0245(6) 0.3084(3) 0.0155(9) Uani 1 1 d . . . . .
H7A H 0.188520 -0.103061 0.328357 0.023 Uiso 1 1 calc R U . . .
H7B H 0.383675 0.039041 0.372138 0.023 Uiso 1 1 calc R U . . .
H7C H 0.350615 -0.093352 0.258189 0.023 Uiso 1 1 calc R U . . .
loop_
_atom_site_aniso_label
_atom_site_aniso_U_11
_atom_site_aniso_U_22
_atom_site_aniso_U_33
_atom_site_aniso_U_23
_atom_site_aniso_U_13
_atom_site_aniso_U_12
Cu1 0.0150(3) 0.0171(3) 0.0169(3) 0.0067(2) 0.0040(2) 0.0054(2)
Cu2 0.0136(3) 0.0178(3) 0.0120(3) 0.0033(2) 0.0021(2) 0.0031(2)
I1 0.02179(15) 0.02212(17) 0.01270(14) 0.00696(12) 0.00473(12) 0.01401(13)
I2 0.01344(14) 0.02013(16) 0.01109(13) 0.00423(12) -0.00044(11) -0.00207(12)
I3 0.01287(14) 0.01584(15) 0.02031(15) 0.00653(12) -0.00211(11) 0.00146(11)
N1 0.0092(17) 0.0127(19) 0.0081(16) 0.0024(14) 0.0042(14) 0.0034(14)
N2 0.0094(17) 0.0153(19) 0.0070(16) 0.0011(14) 0.0014(14) 0.0033(14)
N3 0.0091(17) 0.016(2) 0.0089(16) 0.0016(14) 0.0007(14) 0.0034(15)
N4 0.0114(17) 0.0127(19) 0.0106(16) 0.0041(15) -0.0007(14) 0.0026(15)
C1 0.010(2) 0.011(2) 0.012(2) 0.0027(17) 0.0061(17) 0.0029(17)
C2 0.009(2) 0.014(2) 0.014(2) -0.0006(17) 0.0025(17) 0.0031(17)
C3 0.013(2) 0.016(2) 0.0063(19) 0.0018(17) 0.0013(17) 0.0031(17)
C4 0.009(2) 0.013(2) 0.012(2) 0.0034(17) 0.0014(17) 0.0035(17)
C5 0.013(2) 0.015(2) 0.0088(19) 0.0056(17) 0.0031(17) 0.0036(18)
C6 0.012(2) 0.014(2) 0.012(2) 0.0017(17) -0.0023(17) 0.0003(17)
C7 0.016(2) 0.013(2) 0.018(2) 0.0081(18) -0.0014(18) 0.0018(18)
loop_
_atom_type_symbol
_atom_type_description
_atom_type_scat_dispersion_real
_atom_type_scat_dispersion_imag
_atom_type_scat_source
C C 0.0033 0.0016 'International Tables Vol C Tables 4.2.6.8 and 6.1.1.4'
H H 0.0000 0.0000 'International Tables Vol C Tables 4.2.6.8 and 6.1.1.4'
N N 0.0061 0.0033 'International Tables Vol C Tables 4.2.6.8 and 6.1.1.4'
Cu Cu 0.3201 1.2651 'International Tables Vol C Tables 4.2.6.8 and 6.1.1.4'
I I -0.4742 1.8119 'International Tables Vol C Tables 4.2.6.8 and 6.1.1.4'
loop_
_geom_angle_atom_site_label_1
_geom_angle_atom_site_label_2
_geom_angle_atom_site_label_3
_geom_angle
_geom_angle_site_symmetry_1
_geom_angle_site_symmetry_3
_geom_angle_publ_flag
I1 Cu1 Cu1 55.774(18) 2_665 2_665 ?
I1 Cu1 Cu1 56.170(18) . 2_665 ?
I1 Cu1 I1 111.94(2) . 2_665 yes
I1 Cu1 I3 111.30(2) . 1_655 yes
I3 Cu1 Cu1 143.51(3) 1_655 2_665 ?
I3 Cu1 I1 122.42(2) 1_655 2_665 yes
N1 Cu1 Cu1 113.55(9) . 2_665 ?
N1 Cu1 I1 101.10(9) . 2_665 yes
N1 Cu1 I1 104.76(9) . . yes
N1 Cu1 I3 102.67(9) . 1_655 yes
I2 Cu2 Cu2 59.29(2) 2_566 2_566 ?
I2 Cu2 Cu2 59.47(2) . 2_566 ?
I2 Cu2 I2 118.76(2) . 2_566 yes
I2 Cu2 I3 111.92(2) . . yes
I3 Cu2 Cu2 138.26(3) . 2_566 ?
I3 Cu2 I2 112.76(2) . 2_566 yes
N2 Cu2 Cu2 113.92(9) . 2_566 ?
N2 Cu2 I2 101.57(9) . 2_566 yes
N2 Cu2 I2 102.26(9) . . yes
N2 Cu2 I3 107.82(9) . . yes
Cu1 I1 Cu1 68.06(2) . 2_665 yes
Cu2 I2 Cu2 61.24(2) . 2_566 yes
Cu1 I3 Cu2 123.63(2) 1_455 . yes
C1 N1 Cu1 110.3(2) . . ?
C1 N1 C3 108.4(3) . . ?
C3 N1 Cu1 111.0(2) . . ?
C4 N1 Cu1 108.7(2) . . ?
C4 N1 C1 109.2(3) . . ?
C4 N1 C3 109.2(3) . . ?
C1 N2 Cu2 110.7(2) . . ?
C1 N2 C2 108.4(3) . . ?
C2 N2 Cu2 108.8(2) . . ?
C5 N2 Cu2 110.7(2) . . ?
C5 N2 C1 108.9(3) . . ?
C5 N2 C2 109.3(3) . . ?
C2 N3 C3 109.4(3) . . ?
C6 N3 C2 110.1(3) . . ?
C6 N3 C3 109.8(3) . . ?
C4 N4 C6 107.4(3) . . ?
C5 N4 C4 107.9(3) . . ?
C5 N4 C6 108.7(3) . . ?
C7 N4 C4 111.4(3) . . ?
C7 N4 C5 110.1(3) . . ?
C7 N4 C6 111.2(3) . . ?
N1 C1 N2 111.1(3) . . ?
N1 C1 H1A 109.4 . . ?
N1 C1 H1AB 109.4 . . ?
N2 C1 H1A 109.4 . . ?
N2 C1 H1AB 109.4 . . ?
H1A C1 H1AB 108.0 . . ?
N2 C2 H2A 109.4 . . ?
N2 C2 H2AB 109.4 . . ?
N3 C2 N2 111.2(3) . . ?
N3 C2 H2A 109.4 . . ?
N3 C2 H2AB 109.4 . . ?
H2A C2 H2AB 108.0 . . ?
N1 C3 H3A 109.5 . . ?
N1 C3 H3AB 109.5 . . ?
N3 C3 N1 110.7(3) . . ?
N3 C3 H3A 109.5 . . ?
N3 C3 H3AB 109.5 . . ?
H3A C3 H3AB 108.1 . . ?
N1 C4 N4 110.5(3) . . ?
N1 C4 H4A 109.6 . . ?
N1 C4 H4AB 109.6 . . ?
N4 C4 H4A 109.6 . . ?
N4 C4 H4AB 109.6 . . ?
H4A C4 H4AB 108.1 . . ?
N2 C5 N4 110.2(3) . . ?
N2 C5 H5A 109.6 . . ?
N2 C5 H5AB 109.6 . . ?
N4 C5 H5A 109.6 . . ?
N4 C5 H5AB 109.6 . . ?
H5A C5 H5AB 108.1 . . ?
N3 C6 N4 109.9(3) . . ?
N3 C6 H6A 109.7 . . ?
N3 C6 H6AB 109.7 . . ?
N4 C6 H6A 109.7 . . ?
N4 C6 H6AB 109.7 . . ?
H6A C6 H6AB 108.2 . . ?
N4 C7 H7A 109.5 . . ?
N4 C7 H7B 109.5 . . ?
N4 C7 H7C 109.5 . . ?
H7A C7 H7B 109.5 . . ?
H7A C7 H7C 109.5 . . ?
H7B C7 H7C 109.5 . . ?
loop_
_geom_bond_atom_site_label_1
_geom_bond_atom_site_label_2
_geom_bond_distance
_geom_bond_site_symmetry_2
_geom_bond_publ_flag
Cu1 Cu1 2.9303(10) 2_665 yes
Cu1 I1 2.6121(6) . yes
Cu1 I1 2.6243(6) 2_665 yes
Cu1 I3 2.6156(6) 1_655 yes
Cu1 N1 2.186(3) . yes
Cu2 Cu2 2.6667(10) 2_566 yes
Cu2 I2 2.6151(6) . yes
Cu2 I2 2.6201(6) 2_566 yes
Cu2 I3 2.6172(6) . yes
Cu2 N2 2.184(3) . yes
N1 C1 1.481(5) . ?
N1 C3 1.487(5) . ?
N1 C4 1.452(5) . ?
N2 C1 1.486(5) . ?
N2 C2 1.488(5) . ?
N2 C5 1.456(5) . ?
N3 C2 1.458(5) . ?
N3 C3 1.471(5) . ?
N3 C6 1.433(5) . ?
N4 C4 1.526(5) . ?
N4 C5 1.517(5) . ?
N4 C6 1.535(5) . ?
N4 C7 1.493(5) . ?
C1 H1A 0.9900 . ?
C1 H1AB 0.9900 . ?
C2 H2A 0.9900 . ?
C2 H2AB 0.9900 . ?
C3 H3A 0.9900 . ?
C3 H3AB 0.9900 . ?
C4 H4A 0.9900 . ?
C4 H4AB 0.9900 . ?
C5 H5A 0.9900 . ?
C5 H5AB 0.9900 . ?
C6 H6A 0.9900 . ?
C6 H6AB 0.9900 . ?
C7 H7A 0.9800 . ?
C7 H7B 0.9800 . ?
C7 H7C 0.9800 . ?
loop_
_twin_individual_id
_twin_individual_mass_fraction_refined
_twin_individual_twin_lattice_type
_twin_individual_twin_matrix_11
_twin_individual_twin_matrix_12
_twin_individual_twin_matrix_13
_twin_individual_twin_matrix_21
_twin_individual_twin_matrix_22
_twin_individual_twin_matrix_23
_twin_individual_twin_matrix_31
_twin_individual_twin_matrix_32
_twin_individual_twin_matrix_33
1 0.5502 ref 1.000 0.0000 0.0000 0.0000 1.0000 0.0000 0.0000 0.0000 1.0000
2 0.4498 nmt -1.000 0.0001 -0.0001 0.5614 1.0005 0.2853 -0.0002 -0.0013 -1.0003
