#------------------------------------------------------------------------------
#$Date: 2020-11-19 01:21:32 +0200 (Thu, 19 Nov 2020) $
#$Revision: 259176 $
#$URL: file:///home/coder/svn-repositories/cod/cif/4/00/37/4003709.cif $
#------------------------------------------------------------------------------
#
# This file is available in the Crystallography Open Database (COD),
# http://www.crystallography.net/
#
# All data on this site have been placed in the public domain by the
# contributors.
#
data_4003709
loop_
_publ_author_name
'Hodges, James M.'
'Xia, Yi'
'Malliakas, Christos D.'
'Slade, Tyler J.'
'Wolverton, Chris'
'Kanatzidis, Mercouri G.'
_publ_section_title
;
 Mixed-Valent Copper Chalcogenides: Tuning Structures and Electronic
 Properties Using Multiple Anions
;
_journal_name_full               'Chemistry of Materials'
_journal_paper_doi               10.1021/acs.chemmater.0c03620
_journal_year                    2020
_chemical_formula_moiety         '0.5(Cu16 K6 S8 Te4)'
_chemical_formula_sum            'Cu8 K3 S4 Te2'
_chemical_formula_weight         1009.06
_space_group_crystal_system      monoclinic
_space_group_IT_number           12
_space_group_name_Hall           '-C 2y'
_space_group_name_H-M_alt        'C 1 2/m 1'
_audit_creation_date             2019-06-09
_audit_creation_method
;
Olex2 1.2
(compiled 2018.05.29 svn.r3508 for OlexSys, GUI svn.r5506)
;
_cell_angle_alpha                90
_cell_angle_beta                 102.542(17)
_cell_angle_gamma                90
_cell_formula_units_Z            2
_cell_length_a                   18.117(18)
_cell_length_b                   3.937(4)
_cell_length_c                   9.982(10)
_cell_measurement_reflns_used    476
_cell_measurement_temperature    300(2)
_cell_measurement_theta_max      28.15
_cell_measurement_theta_min      4.32
_cell_volume                     695.0(12)
_computing_cell_refinement       'SAINT V8.34A (Bruker, 2017)'
_computing_data_collection       'APEX2 V2017.3 (Bruker, 2017)'
_computing_data_reduction        'Bruker SAINT'
_computing_molecular_graphics    'Olex2 (Dolomanov et al., 2009)'
_computing_publication_material  'Olex2 (Dolomanov et al., 2009)'
_computing_structure_refinement  'XL (Sheldrick, 2008)'
_diffrn_ambient_temperature      300.0
_diffrn_detector_area_resol_mean 8
_diffrn_measured_fraction_theta_full 0.990
_diffrn_measured_fraction_theta_max 0.993
_diffrn_measurement_device_type  'Bruker Kappa APEX CCD area detector'
_diffrn_measurement_method       '\w and \f scans'
_diffrn_radiation_monochromator  Triumph
_diffrn_radiation_type           MoK\a
_diffrn_radiation_wavelength     0.71073
_diffrn_reflns_av_R_equivalents  0.0607
_diffrn_reflns_av_unetI/netI     0.0680
_diffrn_reflns_Laue_measured_fraction_full 0.990
_diffrn_reflns_Laue_measured_fraction_max 0.993
_diffrn_reflns_limit_h_max       26
_diffrn_reflns_limit_h_min       -26
_diffrn_reflns_limit_k_max       5
_diffrn_reflns_limit_k_min       -4
_diffrn_reflns_limit_l_max       13
_diffrn_reflns_limit_l_min       -15
_diffrn_reflns_number            4019
_diffrn_reflns_point_group_measured_fraction_full 0.990
_diffrn_reflns_point_group_measured_fraction_max 0.993
_diffrn_reflns_theta_full        25.242
_diffrn_reflns_theta_max         32.526
_diffrn_reflns_theta_min         4.183
_diffrn_source                   'sealed tube'
_diffrn_standards_number         0
_exptl_absorpt_coefficient_mu    17.563
_exptl_absorpt_correction_T_max  0.7465
_exptl_absorpt_correction_T_min  0.6220
_exptl_absorpt_correction_type   multi-scan
_exptl_absorpt_process_details
;
SADABS-2016/2 (Bruker,2016/2) was used for absorption correction.
wR2(int) was 0.0552 before and 0.0406 after correction.
The Ratio of minimum to maximum transmission is 0.8332.
The \l/2 correction factor is Not present.
;
_exptl_crystal_colour            black
_exptl_crystal_colour_primary    black
_exptl_crystal_density_diffrn    4.821
_exptl_crystal_description       plate
_exptl_crystal_F_000             914
_exptl_crystal_size_max          0.055
_exptl_crystal_size_mid          0.031
_exptl_crystal_size_min          0.021
_refine_diff_density_max         2.663
_refine_diff_density_min         -1.828
_refine_diff_density_rms         0.383
_refine_ls_extinction_coef       0.0008(2)
_refine_ls_extinction_expression Fc^*^=kFc[1+0.001xFc^2^\l^3^/sin(2\q)]^-1/4^
_refine_ls_extinction_method     'SHELXL-2014/7 (Sheldrick 2014'
_refine_ls_goodness_of_fit_ref   1.006
_refine_ls_hydrogen_treatment    undef
_refine_ls_matrix_type           full
_refine_ls_number_parameters     54
_refine_ls_number_reflns         1398
_refine_ls_number_restraints     0
_refine_ls_restrained_S_all      1.006
_refine_ls_R_factor_all          0.0977
_refine_ls_R_factor_gt           0.0523
_refine_ls_shift/su_max          0.000
_refine_ls_shift/su_mean         0.000
_refine_ls_structure_factor_coef Fsqd
_refine_ls_weighting_details
'w=1/[\s^2^(Fo^2^)+(0.0599P)^2^] where P=(Fo^2^+2Fc^2^)/3'
_refine_ls_weighting_scheme      calc
_refine_ls_wR_factor_gt          0.1071
_refine_ls_wR_factor_ref         0.1221
_reflns_Friedel_coverage         0.000
_reflns_number_gt                931
_reflns_number_total             1398
_reflns_threshold_expression     'I > 2\s(I)'
_cod_data_source_file            cm0c03620_si_002.cif
_cod_data_source_block           k3cu8te2s4_2
_cod_original_cell_volume        695.1(12)
_cod_database_code               4003709
_shelx_shelxl_version_number     2014/7
_shelx_space_group_comment
;
The symmetry employed for this shelxl refinement is uniquely defined
by the following loop, which should always be used as a source of
symmetry information in preference to the above space-group names.
They are only intended as comments.
;
_olex2_refinement_description
;
;
_shelx_res_file
;
    k3cu8te2s4_2.res created by SHELXL-2014/7

TITL k3cu8te2s4_2_mono_a.res in C2/m
REM Old TITL K3Cu8Te2S4_2_mono in C2/m
REM SHELXT solution in C2/m
REM R1 0.099, Rweak 0.007, Alpha 0.043, Orientation as input
REM Formula found by SHELXT: K7 Cu8 Te2
CELL 0.71073 18.1172 3.9374 9.982 90 102.542 90
ZERR 2 0.018 0.0037 0.0097 0 0.017 0
LATT 7
SYMM -X,+Y,-Z
SFAC Cu K S Te
UNIT 16 6 8 4

L.S. 4
PLAN  20
TEMP 26.85
list 4
fmap 2
acta
REM <olex2.extras>
REM <HklSrc "%.\\K3Cu8Te2S4_2.hkl">
REM </olex2.extras>

WGHT    0.059900
EXTI    0.000810
FVAR       0.15973
CU1   1    0.577038    0.500000    1.015489    10.50000    0.02712    0.01807 =
         0.01690    0.00000   -0.00251    0.00000
CU2   1    0.519268    0.000000    0.148875    10.50000    0.02661    0.01129 =
         0.02572    0.00000    0.00741    0.00000
CU3   1    0.611754    0.500000    0.284901    10.50000    0.03527    0.02404 =
         0.01790    0.00000   -0.00296    0.00000
CU4   1    0.704166    0.000000    0.435072    10.50000    0.03308    0.01500 =
         0.04917    0.00000    0.01414    0.00000
K1    2    0.500000    0.000000    0.500000    10.25000    0.03060    0.02164 =
         0.02223    0.00000    0.00099    0.00000
K2    2    0.670796    0.000000    0.775496    10.50000    0.02608    0.02225 =
         0.02650    0.00000    0.00289    0.00000
S1    3    0.471413    0.500000    0.214235    10.50000    0.01650    0.00819 =
         0.01617    0.00000    0.00131    0.00000
S2    3    0.656741    0.500000    0.515985    10.50000    0.01813    0.01221 =
         0.01277    0.00000    0.00170    0.00000
TE1   4    0.665540    0.000000    1.134996    10.50000    0.01661    0.01266 =
         0.01814    0.00000    0.00072    0.00000
HKLF 4

REM  k3cu8te2s4_2_mono_a.res in C2/m
REM R1 =  0.0523 for     931 Fo > 4sig(Fo)  and  0.0977 for all    1398 data
REM     54 parameters refined using      0 restraints

END

WGHT      0.0599      0.0000

REM Highest difference peak  2.663,  deepest hole -1.828,  1-sigma level  0.383
Q1    1   0.7073  0.0000  1.1611  10.50000  0.05    2.66
Q2    1   0.6191  0.0000  1.1282  10.50000  0.05    2.13
Q3    1   0.4782  0.0000  0.1272  10.50000  0.05    1.80
Q4    1   0.7631  0.0000  0.3951  10.50000  0.05    1.73
Q5    1   0.5718  0.0000  0.0854  10.50000  0.05    1.69
Q6    1   0.6616  0.0000  0.4107  10.50000  0.05    1.64
Q7    1   0.6212  0.5000  0.4991  10.50000  0.05    1.62
Q8    1   0.6987  0.0000  1.2409  10.50000  0.05    1.62
Q9    1   0.7182  0.0000  0.5068  10.50000  0.05    1.61
Q10   1   0.6305  0.5000  0.3992  10.50000  0.05    1.61
Q11   1   0.6543  0.5000  0.2976  10.50000  0.05    1.59
Q12   1   0.6020  0.5000  0.9230  10.50000  0.05    1.57
Q13   1   0.6319  0.5000  0.6824  10.50000  0.05    1.49
Q14   1   0.4177  0.0000  0.4653  10.50000  0.05    1.46
Q15   1   0.5196  0.5000  0.2331  10.50000  0.05    1.45
Q16   1   0.5376  0.5000  0.9999  10.50000  0.05    1.45
Q17   1   0.4409  0.0000  0.1702  10.50000  0.05    1.38
Q18   1   0.5117 -0.5000  0.5015  10.50000  0.05    1.36
Q19   1   0.7181  0.0000  0.4060  10.50000  0.05    1.34
Q20   1   0.6926  0.5000  0.7203  10.50000  0.05    1.29
;
_shelx_res_checksum              93301
_shelx_hkl_file
;
   6   0   0 1581.24   19.10
  -6   0   0 1564.94   18.80
  -8   0   0  136.49    8.00
   8   0   0  146.89    8.50
 -10   0   0   46.40    7.80
  10   0   0   59.29    8.20
 -12   0   0  489.55   16.60
  12   0   0  504.35   16.40
 -14   0   0   33.00   11.10
  14   0   0   31.30   10.60
  16   0   0  254.37   15.70
 -16   0   0  253.47   15.30
 -18   0   0   79.79   14.40
  18   0   0   99.79   15.10
  20   0   0  103.19   17.50
 -20   0   0  108.99   16.20
  22   0   0  318.37   23.50
 -22   0   0  324.87   22.00
  24   0   0  123.89   22.80
 -24   0   0   83.49   20.00
 -26   0   0   -1.30   19.00
  26   0   0   21.70   22.50
   3   1   0  433.36    9.50
  -3   1   0  435.26    8.40
   3   1   0  424.76    8.40
  -5  -1   0 3982.90   37.00
  -5   1   0 3924.11   36.00
   5   1   0 4021.60   37.50
   7  -1   0  290.57   10.40
  -7  -1   0  323.17   10.80
   7   1   0  324.57   11.10
  -9  -1   0  182.18   11.90
   9  -1   0  200.08   11.80
   9   1   0  184.78   11.90
  11  -1   0  154.48   10.90
 -11  -1   0  146.79   11.20
  11   1   0  156.28   11.30
 -11   1   0  171.28   10.80
  13  -1   0   40.40   10.30
 -13  -1   0   42.80   11.30
 -13   1   0   45.00   10.80
  13   1   0   33.10   10.70
  15  -1   0   66.59   11.60
 -15  -1   0   49.10   12.60
  15   1   0   63.59   12.50
 -15   1   0   67.09   12.00
  17  -1   0   23.70   12.90
 -17  -1   0   26.80   13.70
 -17   1   0   17.70   12.40
  17   1   0   13.50   13.30
 -19  -1   0  105.89   16.80
  19  -1   0  111.29   16.40
  19   1   0   71.89   16.60
 -19   1   0  105.59   15.50
  21  -1   0   84.89   18.90
 -21  -1   0   58.09   17.60
  21   1   0   45.10   18.20
 -21   1   0   50.39   16.10
 -23  -1   0   58.19   19.00
  23  -1   0   63.39   21.10
 -23   1   0   23.70   17.00
  23   1   0   49.70   20.10
 -25  -1   0  -17.80   18.70
 -25   1   0    5.90   17.40
  25   1   0   32.40   21.30
   0   2   0 9999.00   84.29
   2   2   0   18.30    6.00
  -4  -2   0  106.29    7.30
   4   2   0   99.29    6.20
  -4   2   0   99.29    6.70
   4   2   0  102.09    7.60
  -6  -2   0  853.61   15.10
   6   2   0  860.11   16.10
  -6   2   0  852.71   14.30
   6   2   0  853.61   14.10
   8  -2   0   82.69    8.50
  -8  -2   0   92.69    8.60
   8   2   0   84.69    9.40
  -8   2   0   98.49    8.50
   8   2   0   89.79    8.00
 -10  -2   0   26.10    9.10
  10  -2   0   13.30    9.00
  10   2   0   26.90    9.80
  10   2   0   29.30    7.80
  12  -2   0  325.77   16.80
 -12  -2   0  340.27   17.00
  12   2   0  340.77   18.10
 -12   2   0  324.97   13.70
 -14  -2   0   17.40   11.60
  14  -2   0   28.00   11.40
 -14   2   0   18.90    9.30
  14   2   0   27.90   12.00
 -14   2   0   26.80   11.10
  16  -2   0  184.68   16.60
 -16  -2   0  190.18   16.10
 -16   2   0  156.18   13.10
  16   2   0  193.98   16.70
 -16   2   0  191.78   15.50
 -18  -2   0   65.89   16.00
  18   2   0   72.89   16.20
 -18   2   0   47.00   13.40
 -18   2   0   57.19   14.50
 -20  -2   0   68.09   17.90
  20   2   0   78.59   17.60
 -20   2   0   63.39   14.90
 -20   2   0   40.10   15.20
 -22  -2   0  272.87   23.20
 -22   2   0  255.47   23.70
 -22   2   0  199.68   19.40
  22   2   0  241.08   22.10
 -24  -2   0   72.59   21.10
 -24   2   0   68.79   17.40
  24   2   0   40.70   19.80
  -1   3   0   13.40    8.20
   1   3   0   20.60    9.10
  -3  -3   0  217.28   10.90
   3   3   0  212.58   12.00
  -3   3   0  227.98   11.30
  -5  -3   0 1308.97   21.40
   5   3   0 1353.96   22.90
  -5   3   0 1345.67   20.90
  -7  -3   0  141.99   10.20
  -7   3   0  123.49    9.90
   7   3   0  137.09   11.90
  -9  -3   0   89.29   10.50
   9   3   0   66.69   11.20
  -9   3   0   96.59   10.60
 -11  -3   0   90.69   11.40
  11   3   0   95.29   10.10
  11   3   0   70.19   12.50
 -13  -3   0   27.90   11.90
  13   3   0   24.80   13.00
  13   3   0   25.20   10.30
 -15  -3   0   24.20   13.40
  15   3   0   17.30   13.70
 -15   3   0   15.80   12.80
  15   3   0   23.20   11.40
 -17  -3   0   21.30   15.40
  17   3   0   45.30   13.40
  17   3   0    8.60   14.80
 -17   3   0   30.60   14.00
 -19  -3   0   38.30   18.00
  19   3   0   26.50   15.00
  19   3   0   43.50   16.70
 -19   3   0   44.60   15.50
 -21  -3   0   17.50   19.30
  21   3   0   44.10   16.10
  21   3   0   51.99   17.40
 -21   3   0   21.50   15.40
 -23  -3   0   48.90   26.40
  23   3   0   37.40   22.80
 -23   3   0   11.70   16.50
   0   4   0 2728.43   36.30
  -2   4   0   -9.00   10.60
   2   4   0    6.70   11.20
  -4   4   0   25.90   10.90
   4   4   0    1.20   11.10
   6   4   0  376.06   19.80
  -6   4   0  358.26   18.40
  -8   4   0   29.40   11.40
   8   4   0   49.30   12.70
 -10   4   0   13.80   11.40
  10   4   0    0.20   12.30
  12   4   0  129.49   16.10
  14   4   0   11.20   15.60
  16   4   0   77.49   17.60
 -16   4   0   67.29   14.80
 -18   4   0   23.50   14.90
  18   4   0   43.90   17.60
   1   5   0   19.00   14.50
  -1   5   0  -20.00   14.00
   3   5   0   59.59   13.70
   5   5   0  347.57   18.90
   7   5   0   31.00   13.70
  -9   5   0   26.50   13.60
   9   5   0   31.90   14.30
  11   5   0   32.20   15.00
  13   5   0   26.30   16.40
  26   0  -1   38.40   22.00
 -26   0   1   -3.80   19.10
 -24   0   1   -6.00   17.50
  24   0  -1   18.50   19.90
 -22   0   1    6.60   15.80
  22   0  -1   -2.10   17.60
 -20   0   1   -3.10   14.00
  20   0  -1   -5.10   14.80
  18   0  -1    1.60   12.70
 -18   0   1    1.00   12.90
 -16   0   1   69.19   12.30
  16   0  -1   73.09   12.40
  14   0  -1    8.50   10.20
 -14   0   1   11.70   10.10
  12   0  -1 1045.00   20.30
 -12   0   1 1061.29   20.50
  10   0  -1   82.39    8.70
 -10   0   1  110.89    9.00
   8   0  -1  110.19    8.10
  -8   0   1  110.89    7.70
   6   0  -1   53.79    6.50
  -6   0   1   55.69    6.20
  -4   0  -1    4.00    4.90
  -6   0  -1   44.90    6.10
   6   0   1   46.40    6.20
   8   0   1  129.49    8.30
  -8   0  -1  121.29    8.10
  10   0   1  231.88   12.50
 -10   0  -1  241.08   12.30
  12   0   1  214.68   14.40
 -12   0  -1  192.68   12.30
  14   0   1  163.48   13.30
 -14   0  -1  184.58   13.50
  16   0   1   -6.40   11.50
 -16   0  -1    5.10   11.70
 -18   0  -1  -13.90   13.60
  18   0   1    6.00   14.00
  20   0   1  791.02   30.10
 -20   0  -1  820.02   28.70
  22   0   1   -1.50   19.10
 -22   0  -1   34.20   17.40
  24   0   1   47.40   22.10
 -24   0  -1   49.50   18.80
  26   0   1   98.79   24.40
 -26   0  -1   49.00   19.50
  25  -1  -1    1.40   21.50
 -25  -1   1   10.60   19.90
 -25   1   1   11.40   17.50
  25   1  -1   50.29   21.30
  23  -1  -1   43.70   20.50
 -23  -1   1   69.19   19.60
  23   1  -1   93.89   20.40
 -23   1   1   80.99   17.60
 -21  -1   1   25.70   16.90
  21  -1  -1   14.40   17.20
 -21   1   1   44.00   15.50
  21   1  -1   34.90   17.40
 -19  -1   1   84.99   16.40
  19  -1  -1   73.19   16.30
 -19   1   1   78.19   14.80
  19   1  -1   92.89   16.20
  17  -1  -1   51.39   13.30
 -17  -1   1   68.39   13.80
 -17   1   1   54.09   13.40
  17   1  -1   48.90   13.30
 -15  -1   1   69.69   12.20
  15  -1  -1   70.99   12.60
  15   1  -1   67.49   12.40
 -15   1   1   62.99   12.20
  13  -1  -1  200.88   13.50
 -13  -1   1  217.58   13.00
 -13   1   1  200.48   13.00
  13   1  -1  216.48   13.40
 -11  -1   1    5.40    8.00
  11  -1  -1    4.20    8.50
  11   1  -1   -1.00    8.30
  -9  -1   1   29.40    7.20
   9  -1  -1   36.30    7.50
   9   1  -1   33.40    7.60
   7  -1  -1 5154.18   46.70
  -7  -1   1 5032.80   46.50
   7   1  -1 5023.50   47.30
  -7   1   1 5032.40   46.50
   5   1  -1  154.68    8.50
  -5   1   1  151.68    7.70
   5   1  -1  155.58    7.90
   3   1  -1  653.13   10.30
  -3   1   1  656.63   11.20
   3   1  -1  678.53   10.80
   1   1  -1  122.69    6.90
  -1   1   1  125.89    7.70
   1   1   1   69.39    5.70
  -3  -1  -1   94.19    7.00
   3   1   1   86.69    6.40
  -3   1  -1   90.39    4.90
  -5  -1  -1    2.00    5.40
   5   1   1   -2.40    5.40
  -5   1  -1    3.10    4.60
  -7  -1  -1   15.50    6.50
   7   1   1    2.00    6.40
  -7   1  -1   -0.70    5.80
  -9  -1  -1  887.81   17.40
   9  -1   1  898.61   16.30
  -9   1  -1  855.91   16.60
   9   1   1  894.61   17.70
  11  -1   1   -0.10    8.00
 -11  -1  -1   -1.60    9.00
  11   1   1   -2.50    8.90
 -11   1  -1    5.70    8.80
  13  -1   1   57.19   10.40
 -13  -1  -1   71.59   12.00
  13   1   1   70.99   12.10
 -13   1  -1   58.69   11.00
  15  -1   1 1342.87   25.80
 -15  -1  -1 1326.07   27.90
 -15   1  -1 1395.66   26.60
  15   1   1 1322.07   27.70
  17  -1   1   55.79   13.80
 -17  -1  -1   21.40   13.80
 -17   1  -1   35.70   13.30
  17   1   1   64.89   15.20
  19  -1   1   30.50   15.60
 -19  -1  -1   33.40   15.50
  19   1   1    9.20   15.90
 -19   1  -1   19.30   14.10
 -21  -1  -1   75.89   17.70
  21  -1   1   63.49   20.10
  21   1   1   43.30   19.10
 -21   1  -1   63.79   16.10
 -23  -1  -1   19.10   18.50
 -23   1  -1   33.20   17.40
  23   1   1   21.10   20.60
 -25  -1  -1  -15.60   19.30
 -25   1  -1  -27.80   19.10
 -25   1  -1   11.20   18.30
  25   1   1  -13.00   20.80
 -24  -2   1  -10.30   19.40
 -24   2   1   16.20   16.60
  24   2  -1    8.60   18.80
 -22  -2   1   23.20   19.20
 -22   2   1   20.20   15.60
  22   2  -1  -17.80   16.60
 -20  -2   1   22.40   17.00
 -20   2   1    7.40   14.50
  20   2  -1   16.20   16.50
 -18  -2   1   -2.80   14.80
  18  -2  -1    7.20   15.50
 -18   2   1    0.90   13.20
  18   2  -1   -8.70   14.50
  16  -2  -1   25.00   13.70
 -16  -2   1   32.00   13.40
 -16   2   1   47.90   12.90
  16   2  -1   35.30   13.80
  14  -2  -1    5.50   11.50
 -14  -2   1    1.90   10.80
  14   2  -1   16.70   11.80
 -12  -2   1  654.63   19.10
  12   2  -1  635.04   20.70
  12   2  -1  650.03   18.80
  10  -2  -1   79.79   10.20
 -10  -2   1   78.79    9.60
  10   2  -1   79.39   10.70
  10   2  -1   77.99    9.80
 -10   2   1   85.09    9.90
   8  -2  -1   33.60    8.50
  -8  -2   1   43.80    7.80
   8   2  -1   27.90    8.20
  -8   2   1   46.80    8.10
   8   2  -1   29.90    7.30
  -6  -2   1   10.90    6.00
   6  -2  -1   15.60    7.00
   6   2  -1   -1.40    5.70
  -6   2   1   11.90    6.30
   6   2  -1   18.10    6.80
   4  -2  -1  151.38    9.00
   4   2  -1  139.39    8.90
  -4   2   1  146.69    9.70
   4   2  -1  136.69    9.30
  -2   2   1 1577.94   19.90
   2   2  -1 1587.04   19.50
   0  -2  -1  205.78   11.00
   0   2   1  180.38    9.80
   0   2  -1  181.68    9.20
  -2  -2  -1   61.79    7.20
   2   2   1   86.79    7.60
  -4  -2  -1   -6.90    6.20
   4   2   1   -8.10    6.70
  -6  -2  -1   32.20    7.30
   6   2   1   15.80    7.60
  -6   2  -1   34.00    5.30
  -6   2  -1   27.00    6.40
  -8  -2  -1   85.69    9.00
   8   2   1   90.89    7.70
   8   2   1   78.49    9.60
  -8   2  -1   92.29    7.10
 -10  -2  -1  138.69   11.20
  10  -2   1  106.79   10.50
  10   2   1  137.19   11.90
 -10   2  -1  145.29    8.80
 -12  -2  -1  141.89   12.80
  12  -2   1  146.69   12.60
 -12   2  -1  154.88   11.90
 -12   2  -1  158.48   10.20
  12   2   1  148.49   13.50
 -14  -2  -1  146.59   14.30
 -14   2  -1  128.89   10.90
 -14   2  -1  146.69   13.40
  14   2   1  119.19   14.30
 -16  -2  -1   -1.60   13.30
 -16   2  -1   10.50   12.30
  16   2   1  -14.60   13.50
 -16   2  -1   -3.60   11.00
 -18  -2  -1    0.60   15.50
 -18   2  -1    6.70   12.80
  18   2   1   11.60   15.40
 -18   2  -1    7.40   13.20
 -20  -2  -1  532.85   29.40
 -20   2  -1  550.94   25.60
  20   2   1  537.95   29.50
 -20   2  -1  500.75   25.80
 -22  -2  -1  -18.40   18.80
 -22   2  -1   -4.40   15.50
 -22   2  -1  -14.50   15.10
  22   2   1   12.40   18.70
 -24  -2  -1   41.70   20.70
  24   2   1   33.50   20.20
 -24   2  -1   13.00   16.40
  23   3  -1   52.89   18.50
  23   3  -1   50.49   17.20
 -23   3   1   32.60   16.70
  21   3  -1   -3.40   16.60
 -21   3   1    9.20   16.20
  21   3  -1   27.40   16.60
 -19   3   1   26.70   15.20
  19   3  -1   44.70   14.70
  19   3  -1   40.20   16.60
 -17  -3   1   41.70   23.80
 -17   3   1   15.90   13.90
  17   3  -1   23.00   13.70
  17   3  -1   11.60   14.60
 -15  -3   1   43.30   14.20
  15   3  -1   60.49   12.40
  15   3  -1   23.10   13.90
 -13  -3   1  151.98   13.40
  13   3  -1  148.09   14.50
  13   3  -1  143.99   12.40
 -11  -3   1    5.40    9.50
  11   3  -1    1.00    8.30
  11   3  -1    2.30   10.60
 -11   3   1    5.60   10.70
  -9  -3   1    6.70    9.20
   9   3  -1    9.90   10.00
  -9   3   1   13.30    9.90
   9   3  -1   14.00    7.70
   7   3  -1 2024.70   26.70
   7   3  -1 2073.59   28.30
  -7   3   1 2104.89   28.20
   5  -3  -1   53.29    9.80
   5   3  -1   58.09    8.30
  -5   3   1   38.90    9.90
   5   3  -1   49.10    9.20
   3  -3  -1  214.88   11.50
   3   3  -1  216.48   11.10
  -3   3   1  207.88   12.00
   3   3  -1  202.48   12.40
   1  -3  -1   93.59   10.30
  -1   3   1   98.59   10.60
  -1  -3  -1   23.00    9.20
   1   3   1   35.70    9.80
  -3  -3  -1   33.00    9.10
   3   3   1   37.50    9.80
  -5  -3  -1   12.10    9.20
   5   3   1    7.40    9.70
  -7  -3  -1    4.60    8.50
  -7   3  -1   -8.90    7.40
   7   3   1    1.30   10.10
  -9  -3  -1  377.66   16.90
   9   3   1  374.36   18.70
 -11  -3  -1   10.10   10.90
  11   3   1   -3.00   11.50
 -13  -3  -1   37.10   12.80
  13   3   1   10.60   13.20
 -13   3  -1   32.50   11.30
 -15  -3  -1  673.53   25.30
 -15   3  -1  653.03   22.80
  15   3   1  629.84   26.30
  15   3   1  618.14   22.00
 -17  -3  -1   46.40   16.60
  17   3   1   39.60   13.70
  17   3   1   20.80   16.00
 -17   3  -1   40.30   14.40
 -19  -3  -1   30.80   17.60
  19   3   1    3.70   16.80
 -19   3  -1   -0.40   13.80
 -21  -3  -1   14.30   19.00
 -21   3  -1   24.70   15.80
  21   3   1   47.00   18.80
 -20   4   1    9.70   15.90
  20   4  -1   16.40   18.00
 -18   4   1   -3.80   14.40
  18   4  -1    3.60   16.70
  16   4  -1   21.50   15.70
  14   4  -1  -27.20   14.20
  12   4  -1  217.98   16.80
 -12   4   1  245.68   16.60
  12   4  -1  217.28   17.10
  10   4  -1   25.80   10.40
  10   4  -1   40.40   12.90
 -10   4   1   36.80   13.00
   8   4  -1    4.20   11.10
   8   4  -1  -10.70    9.00
  -8   4   1    0.50   11.60
  -6   4   1    1.00   11.50
   6   4  -1   -6.90   10.60
   6   4  -1   -1.20    9.20
   4   4  -1   65.09   11.00
  -4   4   1   66.89   13.00
  -2   4   1  452.55   21.60
   2   4  -1  471.25   17.80
   0   4   1   62.89   12.60
   2   4   1   13.40   12.10
   4   4   1    7.10   11.60
   6   4   1    3.70   12.00
   8   4   1   31.90   13.40
  10   4   1   27.00   13.80
  12   4   1   65.89   15.50
  14   4   1   54.29   16.20
 -14   4  -1   80.09   13.20
  16   4   1   17.20   16.70
 -16   4  -1    7.50   13.10
  18   4   1   -5.80   17.10
 -18   4  -1   -5.50   13.00
  13   5  -1   48.20   16.10
 -11   5   1   -4.10   14.30
  11   5  -1    4.70   13.70
   9   5  -1    4.40   12.80
  -9   5   1    4.10   14.40
   7   5  -1  597.64   22.80
  -7   5   1  585.64   25.60
   5   5  -1    0.10   11.90
  -5   5   1    4.10   14.30
  -3   5   1   74.09   16.10
  -1   5   1   62.29   16.20
   1   5   1    2.50   15.30
   3   5   1  -15.80   13.40
   5   5   1    2.60   13.90
   7   5   1   -8.60   13.80
   9   5   1  161.68   17.70
  11   5   1  -10.70   15.10
  13   5   1   13.00   16.70
 -26   0   2  124.59   21.40
  26   0  -2  139.49   23.80
  24   0  -2   44.40   19.80
 -24   0   2   20.40   17.70
 -22   0   2   23.20   15.80
  22   0  -2   13.60   17.20
  20   0  -2  284.77   19.40
 -20   0   2  273.47   19.00
 -18   0   2    3.80   12.50
  18   0  -2   -4.40   12.70
  16   0  -2   18.20   11.50
 -16   0   2   35.30   11.40
  14   0  -2 2732.33   36.30
 -14   0   2 2791.32   36.20
  12   0  -2   40.00    9.70
 -12   0   2   47.70    9.60
  10   0  -2  141.09    9.60
 -10   0   2  153.88    9.60
   8   0  -2  317.57   11.30
   6   0  -2  154.28    8.90
   4   0  -2    5.40    5.30
   2   0  -2   98.99    5.00
   0   0  -2   -0.40    3.40
  -2   0  -2  444.36    9.20
  -4   0  -2  165.98    8.00
   6   0   2  159.18    9.10
  -6   0  -2  159.78    9.40
   8   0   2 2321.37   27.10
  -8   0  -2 2318.27   27.30
 -10   0  -2  252.37   14.00
  10   0   2  265.97   13.20
 -12   0  -2   95.49   11.80
  12   0   2  105.39   11.30
 -14   0  -2    7.50   11.40
  14   0   2    2.20   10.80
 -16   0  -2   66.29   13.70
  16   0   2   48.40   13.60
 -18   0  -2  130.99   17.10
  18   0   2  145.99   17.70
 -20   0  -2    8.50   15.70
  20   0   2    9.50   17.60
 -22   0  -2   45.70   18.00
  22   0   2   59.19   21.40
  24   0   2   18.80   22.50
 -24   0  -2   28.30   18.00
  25  -1  -2   12.80   21.50
 -25  -1   2   -3.20   19.50
 -25   1   2   15.20   17.30
  25   1  -2    7.00   19.50
 -23  -1   2   81.69   19.90
  23  -1  -2   70.09   20.30
 -23   1   2   36.00   16.50
  23   1  -2   85.49   19.60
  21  -1  -2   32.70   17.20
 -21  -1   2   42.00   17.10
 -21   1   2   25.60   15.30
  21   1  -2   44.30   16.50
  19  -1  -2  336.97   20.10
 -19  -1   2  338.17   22.70
  19   1  -2  321.47   19.40
 -19   1   2  300.07   19.00
  17  -1  -2   82.69   14.70
 -17  -1   2   66.09   13.30
 -17   1   2   80.69   13.70
  17   1  -2   57.69   13.30
 -15  -1   2   70.49   11.90
  15  -1  -2   93.39   13.40
  15   1  -2   68.29   12.20
 -15   1   2   64.29   12.20
  13  -1  -2    3.80   10.10
 -13  -1   2   25.10    9.80
  13   1  -2   15.40   10.10
  11  -1  -2  173.88   10.90
 -11  -1   2  148.09   10.30
  11   1  -2  159.08   10.70
  -9  -1   2 2511.75   28.80
   9  -1  -2 2562.44   29.30
   9   1  -2 2558.54   29.40
  -9   1   2 2546.45   29.00
  -7  -1   2  339.07   10.50
   7  -1  -2  346.27   11.50
   7   1  -2  349.27   11.20
   7   1  -2  365.26   11.00
  -7   1   2  351.66   10.80
   5  -1  -2   75.29    6.80
   5   1  -2   69.89    6.50
   5   1  -2   57.09    5.90
  -5   1   2   55.09    6.00
   3  -1  -2  610.34   11.80
  -3   1   2  639.34   11.50
   3   1  -2  619.64   11.30
   1  -1  -2  144.39    7.00
   1   1  -2  111.89    7.70
  -1   1   2  138.49    7.10
  -1  -1  -2  255.07    9.20
  -1   1  -2  249.48    7.60
  -1   1  -2  256.57    8.80
   1   1   2  250.57    9.50
  -3  -1  -2   74.89    6.60
   3   1   2   69.59    6.70
  -3   1  -2   79.39    5.50
  -5  -1  -2  263.57   10.00
  -5   1  -2  294.87    8.50
  -5   1  -2  289.67    9.50
   5   1   2  298.37   10.60
  -7  -1  -2  277.37   11.40
   7   1   2  263.57   12.00
  -7   1  -2  284.07   10.40
  -7   1  -2  277.37   10.90
   9  -1   2  103.39    8.60
  -9  -1  -2   88.39    9.40
   9   1   2   96.79    9.40
  -9   1  -2   99.79    9.00
  -9   1  -2  105.89    8.70
 -11  -1  -2   18.80    9.60
  11  -1   2   17.30    8.80
  11   1   2   22.30    9.50
 -11   1  -2   11.30    9.30
  13  -1   2 2064.79   29.80
 -13  -1  -2 2067.49   32.20
 -13   1  -2 2101.39   30.50
  13   1   2 1951.90   31.60
 -15  -1  -2   23.90   12.70
  15  -1   2   -3.40   11.00
 -15   1  -2  -11.60   11.10
  15   1   2   12.80   12.50
 -17  -1  -2   57.09   15.40
  17  -1   2   96.29   14.90
 -17   1  -2   66.99   14.00
  17   1   2   66.19   16.20
 -19  -1  -2   84.59   17.20
 -19   1  -2   60.69   15.60
  19   1   2   79.99   17.90
 -21  -1  -2   16.20   17.30
 -21   1  -2   18.20   16.30
  21   1   2  -12.90   18.70
 -21   1  -2   -1.00   17.30
 -23  -1  -2    4.00   18.30
  23   1   2   12.70   20.90
 -23   1  -2  -12.60   17.80
 -23   1  -2   16.20   17.60
 -25  -1  -2   54.39   20.80
 -25   1  -2   13.10   17.70
  25   1   2   41.30   22.50
 -25   1  -2  -26.80   18.40
 -24  -2   2   35.70   20.70
 -24   2   2    2.70   16.40
  24   2  -2   10.40   18.10
  24   2  -2  -33.60   16.60
  22  -2  -2   47.70   26.60
 -22  -2   2   -3.50   18.30
  22   2  -2   14.90   17.30
 -22   2   2  -10.00   16.00
 -20  -2   2  227.28   20.10
  20  -2  -2  241.08   22.20
  20   2  -2  201.68   18.80
 -20   2   2  214.08   18.60
  18  -2  -2    6.80   16.80
 -18  -2   2   14.60   14.60
  18   2  -2  -17.40   13.70
 -18   2   2  -12.90   13.40
  16  -2  -2   31.80   14.10
 -16  -2   2  -23.30   12.30
  16   2  -2    0.40   12.40
  16   2  -2    7.00   13.10
 -14  -2   2 1853.91   30.30
  14  -2  -2 1837.72   30.70
  14   2  -2 1908.01   31.80
  14   2  -2 1830.22   31.30
 -12  -2   2   19.90    9.80
  12  -2  -2   23.00   10.80
 -12   2   2   18.30   10.50
  12   2  -2   12.90   10.80
  12   2  -2   24.80   10.90
  10  -2  -2  111.79   11.20
 -10  -2   2  100.79    9.90
 -10   2   2   93.99   10.50
  10   2  -2   93.39   10.70
  10   2  -2  108.09   10.50
  -8  -2   2  207.28   11.10
   8  -2  -2  205.18   13.00
  -8   2   2  210.28   12.50
   8   2  -2  186.88   11.90
   8   2  -2  208.48   12.80
   6  -2  -2   87.99    8.90
  -6   2   2   80.29    8.00
   6   2  -2  111.89    7.90
   6   2  -2   97.09    8.00
   4  -2  -2    6.80    7.10
  -4   2   2    4.70    6.50
   4   2  -2   -4.20    6.00
   4   2  -2    5.20    5.20
   2  -2  -2   59.29    7.70
  -2   2   2   67.09    7.50
   2   2  -2   77.09    7.10
   0  -2  -2   -6.10    6.60
   0   2  -2   -4.10    6.20
   0   2   2   -0.90    6.70
  -2  -2  -2  292.67   11.90
   2   2   2  266.87   12.30
  -2   2  -2  267.87    9.10
  -4  -2  -2  100.49    8.40
  -4   2  -2   96.89    6.40
   4   2   2   76.79    8.60
  -6  -2  -2   91.89    9.30
   6   2   2   95.09    9.50
  -6   2  -2   92.59    7.30
  -8  -2  -2 1365.56   22.70
   8   2   2 1431.86   24.20
  -8   2  -2 1382.46   20.20
  -8   2  -2 1403.76   20.00
 -10  -2  -2  168.68   12.40
  10   2   2  174.78   13.10
 -10   2  -2  167.48   11.50
 -10   2  -2  175.88   10.20
 -12  -2  -2   46.90   11.30
  12   2   2   70.99   12.20
 -12   2  -2   60.89   10.50
 -12   2  -2   45.40    8.90
 -14  -2  -2   17.10   12.00
 -14   2  -2   -4.00    9.80
 -14   2  -2   -5.00   10.80
  14   2   2   10.30   13.00
 -16  -2  -2   54.99   14.50
  16   2   2   51.89   15.50
 -16   2  -2   49.30   13.10
 -16   2  -2   54.69   12.50
 -18  -2  -2   69.79   16.80
 -18   2  -2   68.99   15.10
 -18   2  -2   67.79   14.30
  18   2   2   59.19   17.20
 -20  -2  -2   -0.40   17.20
 -20   2  -2   31.10   14.90
 -20   2  -2   12.50   15.00
  20   2   2   11.80   17.40
 -22  -2  -2   -0.40   18.20
 -22   2  -2   33.60   16.70
 -22   2  -2   21.90   16.50
  22   2   2   41.00   20.20
 -24  -2  -2   -3.50   19.40
 -24   2  -2   -2.80   17.00
 -24   2  -2  -20.00   16.80
  24   2   2   18.00   20.40
 -23   3   2   12.10   17.20
  23   3  -2   34.50   18.10
  23   3  -2   30.20   16.30
 -21   3   2   22.40   16.20
  21   3  -2   28.50   16.00
  21   3  -2   16.90   16.90
  19   3  -2  174.58   18.10
 -19   3   2  118.59   17.10
  19   3  -2  150.88   18.40
  17   3  -2   46.90   15.40
  17   3  -2   79.09   14.80
  15   3  -2   45.70   14.40
  15   3  -2   25.00   12.00
  13   3  -2   17.40   11.10
 -13   3   2   13.40   12.20
  13   3  -2   20.80   12.30
  11  -3  -2   59.89   12.80
 -11   3   2   97.09   12.60
  11   3  -2   69.99   11.60
  11   3  -2   95.99   10.60
   9   3  -2 1028.10   21.30
  -9   3   2 1029.70   22.20
   9   3  -2 1024.20   20.60
   7  -3  -2  186.18   12.80
   7   3  -2  185.38   10.80
  -7   3   2  173.58   12.30
   7   3  -2  177.08   11.10
   5  -3  -2   14.80   10.20
   5   3  -2   27.40    8.60
  -5   3   2   26.50   10.30
   3  -3  -2  237.68   13.30
   3   3  -2  208.98   13.70
  -3   3   2  245.98   13.50
   1  -3  -2   45.60   10.30
  -1   3   2   62.19   11.00
  -1  -3  -2  146.99   12.00
   1   3   2  130.69   12.70
  -3  -3  -2   18.60    9.70
   3   3   2   36.10   10.80
  -5  -3  -2  168.68   11.90
   5   3   2  153.28   13.10
  -7  -3  -2  197.58   12.30
   7   3   2  172.78   13.50
  -9  -3  -2   34.50   10.60
   9   3   2   19.70   12.00
 -11  -3  -2   12.10   11.90
  11   3   2   -8.20   12.30
 -11   3  -2    0.50    9.40
 -11   3  -2   -7.50    7.80
 -13  -3  -2  986.00   26.50
 -13   3  -2  942.41   23.00
  13   3   2  973.70   27.30
 -15  -3  -2   21.70   14.60
 -15   3  -2   10.10   11.70
  15   3   2   25.20   15.30
 -17  -3  -2   40.20   16.80
  17   3   2   34.90   16.80
 -17   3  -2   37.10   13.40
 -19  -3  -2   64.99   18.70
 -19   3  -2   41.10   14.90
  19   3   2   49.50   18.60
 -21  -3  -2   21.90   19.60
  21   3   2   13.40   18.50
 -21   3  -2   11.60   14.70
  20   4  -2   71.59   19.50
 -20   4   2   94.69   17.40
  18   4  -2    0.30   16.50
  16   4  -2   23.30   13.70
  16   4  -2  -21.40   14.90
  14   4  -2  667.63   26.00
  14   4  -2  659.93   23.90
 -14   4   2  655.83   25.90
  12   4  -2   20.70   11.60
  12   4  -2    7.50   13.00
 -12   4   2    3.60   13.90
 -10   4   2   32.70   13.70
  10   4  -2   41.60   11.40
  10   4  -2   47.80   12.20
   8   4  -2   92.19   11.60
  -8   4   2  103.19   14.30
   8   4  -2   73.79   11.20
   6   4  -2   31.40   10.60
  -6   4   2   45.20   13.50
  -4   4   2   14.60   13.50
   4   4  -2   25.70   10.50
  -2   4   2   25.00   13.70
   0   4   2   12.50   12.60
   2   4   2  130.69   15.20
   4   4   2   41.10   13.20
   6   4   2   33.80   13.50
   8   4   2  466.25   23.90
  10   4   2   67.49   15.20
  12   4   2   11.70   15.20
  14   4   2   -5.20   15.90
  16   4   2   11.90   17.50
 -18   4  -2   19.60   13.30
  18   4   2   31.50   18.50
 -13   5   2    8.30   15.70
  13   5  -2  -17.80   13.40
 -11   5   2   20.70   15.90
  11   5  -2   18.00   13.20
  -9   5   2  304.47   20.50
   9   5  -2  304.57   20.00
   7   5  -2   51.69   12.20
  -7   5   2   48.20   16.30
  -5   5   2   21.80   15.50
  -3   5   2   56.69   17.60
  -1   5   2   29.60   16.90
   1   5   2   46.70   17.20
   3   5   2   25.40   15.50
   5   5   2   47.70   15.80
   7   5   2   64.49   15.80
   9   5   2   22.40   15.40
  11   5   2   -6.70   16.00
  13   5   2  310.67   22.90
 -26   0   3  129.99   21.40
  26   0  -3  101.19   22.40
  24   0  -3   35.80   19.40
 -24   0   3   50.19   18.50
  22   0  -3  -26.50   15.90
 -22   0   3   24.00   16.70
 -20   0   3   65.39   15.40
  20   0  -3   48.70   15.60
 -18   0   3   88.89   14.10
  18   0  -3   69.09   14.00
 -16   0   3  406.46   20.30
  16   0  -3  382.96   20.10
  14   0  -3  332.77   18.30
 -14   0   3  321.37   17.70
  12   0  -3  109.59   11.00
 -12   0   3  112.59   11.10
  10   0  -3    6.00    7.60
   8   0  -3  239.78   10.90
  -6   0   3  893.81   14.10
   6   0  -3  955.00   14.40
   4   0  -3 1714.53   19.40
   4   0  -3 1689.63   18.90
   2   0  -3  697.43   10.80
   2   0  -3  715.33   10.60
   2   0  -3  704.63   10.90
   0   0  -3 1502.05   16.70
   0   0  -3 1470.35   16.10
   0   0  -3 1459.35   16.20
  -2   0  -3  149.39    7.90
  -2   0  -3  144.89    7.50
  -4   0  -3   28.00    5.40
  -4   0  -3   22.90    5.40
   6   0   3 6780.72   60.59
  -6   0  -3 6854.11   60.79
  -8   0  -3  263.77   12.20
   8   0   3  241.98   11.20
 -10   0  -3  500.85   16.50
  10   0   3  480.25   15.80
 -12   0  -3  230.48   14.40
  12   0   3  244.48   14.10
 -14   0  -3   12.40   11.70
  14   0   3   13.50   11.30
 -16   0  -3  102.59   15.00
  16   0   3  110.29   15.50
  18   0   3   98.19   18.10
 -18   0  -3   95.89   16.10
  20   0   3  -12.70   18.70
 -20   0  -3   11.60   15.80
 -22   0  -3  219.98   21.40
  22   0   3  295.47   26.50
 -24   0  -3   13.50   18.40
  25  -1  -3   38.00   21.50
 -25  -1   3   12.60   20.40
 -25   1   3   -7.20   17.60
  25   1  -3   22.50   19.40
 -23  -1   3  100.19   19.40
  23  -1  -3   73.59   20.30
 -23   1   3   75.79   17.50
  23   1  -3   64.09   19.10
  21  -1  -3  475.95   27.90
 -21  -1   3  444.46   25.70
  21   1  -3  437.26   25.80
 -21   1   3  414.76   25.70
 -19  -1   3   49.90   14.70
  19  -1  -3   33.20   16.30
 -19   1   3   28.20   14.60
  19   1  -3   73.29   15.30
 -17  -1   3  288.67   19.50
  17  -1  -3  234.98   17.70
 -17   1   3  271.37   17.30
  17   1  -3  254.47   16.50
 -15  -1   3    3.40   11.00
  15  -1  -3   17.10   12.00
  15   1  -3   13.90   11.20
  13  -1  -3    3.10   10.40
 -13  -1   3    3.70    9.90
  13   1  -3   14.10   10.10
  11  -1  -3  290.67   14.90
 -11  -1   3  268.87   13.70
  11   1  -3  266.77   14.70
 -11   1   3  257.17   14.30
  -9  -1   3    1.20    6.60
   9  -1  -3   24.60    7.90
   9   1  -3   17.20    7.70
  -9   1   3   19.10    7.30
   9   1  -3   17.60    7.40
   7  -1  -3   91.59    8.00
  -7   1   3   83.79    7.50
   7   1  -3   88.99    7.50
   7   1  -3   95.59    8.10
   5  -1  -3 1084.89   16.10
   5   1  -3 1109.19   15.00
  -5   1   3 1097.89   16.30
   5   1  -3 1078.09   16.30
   3  -1  -3   70.19    6.70
  -3   1   3   54.69    6.50
   3   1  -3   50.09    6.30
   1  -1  -3   22.10    6.00
   1   1  -3   24.50    5.00
  -1   1   3   27.70    6.30
   1   1  -3   19.90    5.50
  -1  -1  -3 5934.11   50.99
  -1  -1  -3 5950.10   53.39
  -1   1  -3 5989.30   52.69
   1   1   3 5952.10   53.59
  -1   1  -3 5908.01   53.79
  -3  -1  -3  184.98    9.90
   3   1   3  186.08   10.10
  -3   1  -3  185.78    8.80
  -5  -1  -3  233.88   10.40
   5   1   3  234.38   11.10
  -5   1  -3  229.78   10.40
  -7  -1  -3  160.78    9.80
  -7   1  -3  163.18    9.00
   7   1   3  172.78   10.10
  -7   1  -3  179.48    8.70
  -9  -1  -3   75.29    9.70
   9  -1   3   70.59    9.10
  -9   1  -3   54.09    8.70
   9   1   3   35.50    9.50
  -9   1  -3   60.39    8.80
  11  -1   3  387.36   15.20
 -11  -1  -3  374.26   17.70
  11   1   3  401.06   18.30
 -11   1  -3  406.06   17.00
 -11   1  -3  390.96   16.40
  13  -1   3  279.27   16.30
 -13  -1  -3  286.47   16.00
  13   1   3  309.57   16.90
 -13   1  -3  267.27   17.60
 -13   1  -3  277.27   18.00
  15  -1   3   58.49   14.40
 -15  -1  -3   61.49   14.00
 -15   1  -3   76.49   13.60
  15   1   3   34.30   13.70
 -15   1  -3   33.30   12.70
 -17  -1  -3   -3.30   14.30
 -17   1  -3   17.80   14.20
 -17   1  -3   20.10   13.90
  17   1   3   23.70   15.50
 -19  -1  -3   99.79   17.70
  19   1   3   91.09   19.90
 -19   1  -3  102.99   17.60
 -19   1  -3   75.19   16.80
 -21  -1  -3   21.90   17.60
 -21   1  -3   24.90   16.60
 -21   1  -3  -19.20   16.80
  21   1   3   46.80   20.80
 -23  -1  -3   -6.30   18.20
 -23   1  -3    8.70   17.10
  23   1   3   46.60   21.80
 -23   1  -3   13.60   18.20
 -24  -2   3   30.30   20.70
  24  -2  -3   22.60   23.60
  24   2  -3   -7.60   17.50
 -24   2   3   -1.40   17.30
  24   2  -3   30.10   18.00
 -22  -2   3    5.80   18.50
  22  -2  -3   16.80   21.00
 -22   2   3  -30.40   15.90
  22   2  -3   -3.10   16.70
  22   2  -3  -32.50   16.60
 -20  -2   3   45.60   17.70
  20  -2  -3   33.10   19.80
  20   2  -3   51.29   17.60
  20   2  -3   37.10   16.10
 -20   2   3   47.20   15.40
 -18  -2   3   84.29   15.80
  18  -2  -3   75.89   17.60
  18   2  -3   51.39   15.30
  18   2  -3   61.29   15.60
 -16  -2   3  278.17   17.10
  16  -2  -3  333.87   22.60
  16   2  -3  301.77   18.60
  16   2  -3  277.47   17.90
 -14  -2   3  243.28   14.80
  14  -2  -3  216.58   15.20
 -14   2   3  234.98   15.20
  14   2  -3  245.98   15.60
  14   2  -3  232.18   15.80
 -12  -2   3   74.19   11.20
  12  -2  -3   66.69   12.00
 -12   2   3   84.89   12.10
  12   2  -3   84.49   11.80
  12   2  -3   82.99   12.10
  10  -2  -3    4.30   10.20
 -10  -2   3   -9.10    8.30
  10   2  -3   -7.40    9.40
  10   2  -3    4.40    9.20
 -10   2   3    1.70    9.40
   8  -2  -3  182.78   11.50
  -8   2   3  173.78   10.90
   8   2  -3  170.08   10.70
   8   2  -3  170.88   10.50
   6  -2  -3  534.15   15.20
   6   2  -3  549.45   12.90
   6   2  -3  545.75   14.60
  -6   2   3  552.54   15.40
   4  -2  -3  933.11   17.90
   4   2  -3  926.51   17.30
  -4   2   3  919.21   17.60
   2  -2  -3  400.96   13.50
  -2   2   3  401.16   13.50
   2   2  -3  413.06   12.70
   0  -2  -3  867.11   17.20
   0   2  -3  896.71   17.30
   0   2   3  853.81   17.70
  -2  -2  -3   92.29    9.40
  -2   2  -3   93.19    6.80
   2   2   3   83.09    9.20
  -4  -2  -3   21.10    8.10
  -4   2  -3   19.80    5.90
   4   2   3   11.90    8.50
  -6  -2  -3 4062.79   44.20
   6   2   3 4177.78   45.40
  -6   2  -3 4190.18   41.80
  -8  -2  -3  155.38   11.90
  -8   2  -3  167.18    9.50
   8   2   3  175.78   12.80
 -10  -2  -3  317.47   17.30
 -10   2  -3  305.77   14.50
 -10   2  -3  284.57   14.70
  10   2   3  348.17   18.80
 -12  -2  -3  184.78   14.10
 -12   2  -3  195.68   12.90
 -12   2  -3  177.78   12.10
  12   2   3  177.18   15.70
 -14  -2  -3    5.90   13.10
 -14   2  -3   15.40   10.60
 -14   2  -3   -2.20   11.10
  14   2   3    7.00   13.90
 -16  -2  -3   72.69   15.80
 -16   2  -3   69.29   13.60
 -16   2  -3   89.29   13.00
  16   2   3   65.59   16.30
 -18  -2  -3   47.90   17.10
 -18   2  -3   39.80   13.90
 -18   2  -3   73.79   15.40
  18   2   3   52.49   17.90
 -20  -2  -3    4.20   18.00
 -20   2  -3   10.60   15.50
  20   2   3   11.80   18.80
 -20   2  -3   13.10   15.10
 -22  -2  -3  180.78   22.40
 -22   2  -3  195.88   19.30
  22   2   3  171.28   23.30
 -22   2  -3  169.78   19.70
  23   3  -3   17.80   16.70
  23   3  -3   48.20   18.60
 -23   3   3   17.10   17.50
  21   3  -3  210.78   19.50
 -21   3   3  192.98   19.60
  21   3  -3  172.48   20.10
  19   3  -3   17.80   15.40
  19   3  -3   31.00   16.80
  17   3  -3  151.78   16.40
  17   3  -3  125.79   17.40
  15  -3  -3   20.00   17.00
  15   3  -3   30.20   12.70
 -15   3   3   -9.80   13.30
  15   3  -3   16.80   14.10
  13  -3  -3  -10.80   13.60
 -13   3   3    3.80   13.00
  13   3  -3   25.40   11.10
  13   3  -3   21.70   12.50
  11  -3  -3   97.79   14.00
 -11   3   3  137.99   14.40
  11   3  -3  165.18   13.20
  11   3  -3  166.48   13.10
   9  -3  -3   16.40   11.40
  -9   3   3   -4.20   10.70
   9   3  -3   11.20    9.20
   9   3  -3   -4.30    8.60
   7  -3  -3   23.00   11.40
   7   3  -3   37.60    9.50
  -7   3   3   46.20   11.20
   5  -3  -3  450.75   18.70
  -5   3   3  448.16   19.20
   5   3  -3  473.05   16.40
   3  -3  -3   23.90   11.10
   3   3  -3   16.30    9.50
  -3   3   3   37.30   11.40
   1  -3  -3    6.20   10.60
   1   3  -3   22.10    9.60
  -1   3   3    7.60   11.10
  -1  -3  -3 2175.58   31.30
   1   3   3 2158.68   32.60
  -3  -3  -3  101.39   11.90
   3   3   3   74.09   12.30
  -5  -3  -3  100.69   11.60
   5   3   3  104.69   13.20
  -7  -3  -3   76.89   11.50
  -7   3  -3  101.69    8.70
   7   3   3   69.99   12.60
  -9  -3  -3   40.90   11.60
  -9   3  -3   44.10    8.40
   9   3   3   25.40   12.90
 -11  -3  -3  170.68   15.20
 -11   3  -3  155.38   11.40
  11   3   3  162.58   16.40
 -13  -3  -3  169.08   17.20
  13   3   3  162.28   18.00
 -13   3  -3  146.19   11.90
 -15  -3  -3    6.30   15.90
  15   3   3   41.90   16.10
 -15   3  -3   13.90   12.80
 -15   3  -3   24.30   12.10
 -17  -3  -3   26.80   17.80
  17   3   3   -1.00   16.80
 -17   3  -3   -5.90   12.60
 -19  -3  -3   76.49   19.50
  19   3   3   70.39   19.30
 -19   3  -3   29.30   13.90
 -21  -3  -3   29.00   19.20
 -21   3  -3  -20.80   14.40
  21   3   3   -5.00   19.50
  20   4  -3    5.30   17.50
  20   4  -3   55.99   16.00
  18   4  -3   47.20   16.40
  18   4  -3   24.40   15.30
  16   4  -3  111.79   15.30
  16   4  -3  102.39   16.70
  14   4  -3   94.19   15.00
 -14   4   3  101.69   17.30
  14   4  -3  124.59   15.40
  12   4  -3   20.00   12.10
 -12   4   3   38.30   15.10
  12   4  -3   13.20   11.90
  10   4  -3  -11.10   10.80
 -10   4   3   -0.40   13.90
  10   4  -3   -0.10   10.30
  -8   4   3   81.49   15.30
   8   4  -3  104.09   12.40
  -6   4   3  232.78   17.70
   6   4  -3  251.17   15.50
  -4   4   3  269.07   18.10
   4   4  -3  261.07   18.50
  -2   4   3  161.48   16.80
   0   4   3  372.16   23.30
   2   4   3   46.60   14.40
  -4  -4  -3    3.30   19.70
   4   4   3   16.60   13.60
  -6  -4  -3 1382.46   32.20
   6   4   3 1340.37   31.00
  -8  -4  -3   59.79   14.90
   8   4   3   84.89   15.80
 -10  -4  -3   98.79   16.30
  10   4   3   80.49   16.40
 -12  -4  -3   93.69   18.50
  12   4   3   91.09   17.20
 -14  -4  -3   21.50   28.20
  14   4   3   26.50   16.70
  16   4   3   10.40   17.70
 -13   5   3   -2.10   16.50
  13   5  -3    8.70   13.00
 -11   5   3   57.49   17.30
  -9   5   3    2.80   16.50
  -7   5   3   28.30   16.80
  -5   5   3  153.18   19.30
  -3   5   3  -13.20   16.80
  -1   5   3   11.20   18.00
   1   5   3  481.15   28.60
   3   5   3   32.40   16.30
   5   5   3   -8.10   16.10
   7   5   3   11.70   16.40
   9   5   3    2.50   15.70
  11   5   3   54.69   17.30
 -26   0   4  -11.50   19.20
  26   0  -4    0.10   20.20
  24   0  -4    8.30   18.50
 -24   0   4   14.00   18.20
 -22   0   4   13.70   16.70
  22   0  -4   24.60   17.20
 -20   0   4  -11.90   14.30
  20   0  -4    8.10   14.80
  18   0  -4   12.60   14.20
 -18   0   4   30.70   14.30
 -16   0   4    7.40   12.00
  16   0  -4   11.70   12.50
  14   0  -4  101.99   13.00
 -14   0   4   90.69   12.50
  12   0  -4   34.90   10.20
  10   0  -4   38.20    8.40
  -8   0   4    8.60    6.70
   8   0  -4   12.10    6.90
   6   0  -4 2154.78   24.10
  -6   0   4 2154.88   24.00
   6   0  -4 2178.38   24.80
   4   0  -4   77.19    6.20
   4   0  -4   66.19    6.20
   2   0  -4  433.76    9.80
   2   0  -4  432.66    9.80
   2   0  -4  455.55    9.60
   0   0  -4   76.69    6.00
   0   0  -4   73.89    5.80
   0   0  -4   73.49    5.80
  -2   0  -4    7.80    5.10
  -2   0  -4   12.10    5.10
  -4   0  -4  643.14   13.40
  -4   0  -4  647.54   12.40
   6   0   4  108.79    8.20
  -6   0  -4  115.39    8.00
  -6   0  -4  109.69    8.30
  -8   0  -4   20.10    8.50
   8   0   4   17.10    7.90
  -8   0  -4   24.40    8.30
 -10   0  -4  134.99   11.80
 -10   0  -4   98.89   11.20
  10   0   4  113.99   11.30
  12   0   4   25.70   10.40
 -12   0  -4   30.90   11.20
  14   0   4   46.80   12.20
 -14   0  -4   28.50   12.80
  16   0   4  171.68   17.10
 -16   0  -4  139.39   16.20
 -18   0  -4   79.99   16.80
 -18   0  -4   44.30   15.70
  18   0   4   96.19   18.30
 -20   0  -4    5.90   16.00
 -20   0  -4   31.20   16.70
 -22   0  -4   15.10   16.70
 -22   0  -4  -10.70   17.50
 -24   0  -4   -4.20   18.20
 -24   0  -4  -16.10   17.30
  25  -1  -4   11.50   21.10
 -25  -1   4    7.10   19.80
 -25   1   4  -14.30   17.60
  25   1  -4   39.70   19.40
 -23  -1   4  150.68   19.80
  23  -1  -4  135.99   21.90
  23   1  -4  131.19   19.30
 -23   1   4  116.09   19.30
  21  -1  -4  108.09   20.00
 -21  -1   4   99.49   17.50
 -21   1   4  106.59   18.00
  21   1  -4  105.99   16.90
  19  -1  -4  -14.80   15.90
 -19  -1   4    2.70   14.10
  19   1  -4    5.00   13.90
 -19   1   4   11.50   14.70
  17  -1  -4  -10.20   13.70
 -17  -1   4   22.80   12.70
  17   1  -4   22.00   12.60
 -15  -1   4   50.79   11.30
  15  -1  -4   56.79   12.70
  15   1  -4   57.59   12.00
 -13  -1   4  176.38   12.20
  13  -1  -4  195.18   13.60
  13   1  -4  174.88   12.80
  11  -1  -4  558.44   17.90
 -11  -1   4  551.44   16.10
 -11   1   4  580.64   18.10
  11   1  -4  561.44   17.70
  11   1  -4  543.45   18.20
   9  -1  -4  195.48   13.30
  -9  -1   4  176.58   10.10
  -9   1   4  188.28   12.70
   9   1  -4  180.38   12.90
   9   1  -4  194.08   12.90
   7  -1  -4  236.18   12.30
   7   1  -4  254.27   11.80
   7   1  -4  250.37   11.10
  -7   1   4  229.38   11.80
   5  -1  -4   27.70    6.90
   5   1  -4   34.70    5.60
  -5   1   4   17.80    6.80
   5   1  -4   28.20    6.70
   3  -1  -4   31.40    6.70
   3   1  -4   28.90    6.40
  -3   1   4   27.30    6.70
   1  -1  -4 4098.09   36.40
   1  -1  -4 4005.70   39.50
   1   1  -4 4034.40   39.90
   1   1  -4 4081.69   39.10
  -1   1   4 4057.19   39.80
  -1  -1  -4  193.58    8.40
  -1  -1  -4  196.88   11.00
   1   1   4  170.18   11.10
  -1   1  -4  193.28   10.50
  -1   1  -4  199.78    9.50
  -3  -1  -4  686.23   14.30
  -3  -1  -4  700.13   13.60
   3   1   4  693.73   15.00
  -3   1  -4  692.03   13.70
  -5  -1  -4   20.40    7.50
  -5   1  -4   22.10    6.60
   5   1   4   23.40    8.00
  -7  -1  -4   -5.90    7.90
   7   1   4   12.00    8.60
  -7   1  -4    9.20    7.40
  -7   1  -4    6.90    7.20
  -9  -1  -4  193.38   12.70
   9   1   4  170.48   13.00
  -9   1  -4  195.28   11.50
  -9   1  -4  203.08   11.70
  11  -1   4   26.60   10.70
 -11  -1  -4   27.10   10.90
 -11   1  -4   35.20   10.70
 -11   1  -4   32.60   10.10
  11   1   4   21.90   11.20
 -13  -1  -4   26.20   12.20
 -13   1  -4   38.70   11.90
 -13   1  -4   29.20   11.50
  13   1   4   20.50   12.50
 -15  -1  -4  397.66   22.30
 -15   1  -4  431.86   22.10
  15   1   4  368.86   24.00
 -15   1  -4  413.46   22.00
 -17  -1  -4   13.90   14.90
  17   1   4   -6.00   16.60
 -17   1  -4  -20.00   13.60
 -17   1  -4   -0.60   13.80
 -19  -1  -4  -22.50   16.00
  19   1   4    4.70   18.80
 -19   1  -4   20.80   15.80
 -19   1  -4  -24.30   14.90
 -21  -1  -4  358.96   23.80
  21   1   4  411.76   27.10
 -21   1  -4  328.87   22.50
 -21   1  -4  334.17   22.40
 -23  -1  -4   22.30   18.40
 -23   1  -4    6.90   17.40
  23   1   4    7.20   21.90
 -23   1  -4    1.80   17.80
  24  -2  -4   -6.20   22.30
  24   2  -4   12.50   17.90
  24   2  -4   10.90   17.80
 -24   2   4   34.10   18.20
  22  -2  -4    5.90   21.10
  22   2  -4   10.00   17.30
  22   2  -4    2.70   17.40
 -22   2   4    1.70   16.70
 -20  -2   4   -4.00   17.20
  20  -2  -4    6.20   19.60
  20   2  -4   -6.70   15.50
  20   2  -4   10.90   15.50
 -20   2   4   26.60   15.70
  18  -2  -4   28.80   16.80
 -18  -2   4   46.70   15.40
  18   2  -4    4.50   14.80
  18   2  -4    1.80   14.20
 -16  -2   4   11.80   13.30
  16  -2  -4  -20.80   14.30
  16   2  -4   11.70   13.60
  16   2  -4   10.30   13.20
 -14  -2   4   61.59   12.10
  14  -2  -4   75.59   13.40
  14   2  -4   86.39   13.30
 -14   2   4   53.39   13.20
  14   2  -4   37.80   12.60
 -12  -2   4   33.10   10.30
  12  -2  -4   20.10   11.80
  12   2  -4   33.00   11.00
 -12   2   4   44.90   11.70
  12   2  -4   44.50   11.30
  10  -2  -4   16.80   10.50
 -10  -2   4   13.80    8.90
 -10   2   4   18.10   10.10
  10   2  -4   12.50    9.80
  10   2  -4   10.30    9.90
   8  -2  -4   14.50   10.30
   8   2  -4   -5.40    8.00
  -8   2   4    0.80    9.10
   8   2  -4   11.10    8.50
   6  -2  -4 1388.26   22.90
   6   2  -4 1398.26   22.70
  -6   2   4 1394.26   23.20
   4  -2  -4   65.09    9.80
  -4   2   4   58.99    9.60
   4   2  -4   74.49    9.20
   2  -2  -4  207.58   13.50
  -2   2   4  204.98   14.00
   2   2  -4  224.18   12.80
   0  -2  -4   28.10    8.90
   0   2   4   14.20    9.00
   0   2  -4   25.10    8.50
  -2  -2  -4   14.00    9.10
   2   2   4    8.10    9.20
  -2   2  -4    2.30    6.40
  -4  -2  -4  402.36   16.00
   4   2   4  395.16   17.10
  -4   2  -4  393.26   13.10
  -6  -2  -4   82.59   10.60
   6   2   4   93.89   11.70
  -6   2  -4   68.99    8.50
  -8  -2  -4   10.30   10.40
   8   2   4   11.50   11.30
  -8   2  -4   12.00    7.80
 -10  -2  -4   64.79   12.10
 -10   2  -4   51.99    8.90
  10   2   4   54.99   12.50
 -12  -2  -4   16.00   12.40
 -12   2  -4   18.30   10.30
  12   2   4   24.00   13.60
 -12   2  -4    9.80   10.70
 -14  -2  -4   17.50   14.00
  14   2   4    6.90   15.20
 -14   2  -4    5.40   12.20
 -14   2  -4   24.90   11.40
 -16  -2  -4  109.89   17.20
 -16   2  -4  121.89   15.00
 -16   2  -4  114.89   15.30
  16   2   4  118.39   18.90
 -18  -2  -4   49.60   17.60
  18   2   4   55.89   19.60
 -18   2  -4   28.60   15.00
 -18   2  -4   22.60   15.00
 -20  -2  -4    1.10   18.10
 -20   2  -4   18.70   16.20
  20   2   4   -8.60   20.20
 -20   2  -4   22.00   15.90
 -22  -2  -4   21.10   19.30
  22   2   4   40.60   21.50
 -22   2  -4   -2.30   17.00
 -22   2  -4   -0.50   16.40
  23   3  -4   80.29   19.30
  23   3  -4  106.49   18.40
 -23   3   4   52.39   17.50
  21   3  -4   64.49   17.30
  21   3  -4   35.60   17.40
  19   3  -4   27.90   16.30
  19   3  -4   28.10   16.60
  17  -3  -4  -10.60   18.00
  17   3  -4   19.50   15.20
  17   3  -4    1.20   13.90
  15  -3  -4   34.40   16.40
  15   3  -4   30.90   13.80
 -15   3   4    8.00   14.20
  15   3  -4   42.90   13.20
  13  -3  -4   90.89   16.00
 -13   3   4   98.79   15.00
  13   3  -4  117.39   14.00
  13   3  -4  119.29   13.80
  11  -3  -4  235.28   16.30
  11   3  -4  220.48   13.80
 -11   3   4  258.77   16.50
  11   3  -4  231.18   14.70
   9  -3  -4  102.69   13.70
  -9   3   4  103.69   13.30
   9   3  -4   92.19   11.50
   7  -3  -4  170.88   13.80
  -7   3   4  173.58   14.30
   7   3  -4  175.28   12.80
   5  -3  -4    4.90   11.60
  -5   3   4   37.90   12.10
   5   3  -4   31.20    9.80
   3  -3  -4    2.30   11.40
  -3   3   4    5.00   12.00
   3   3  -4   32.20   10.70
   1  -3  -4 1743.83   29.00
   1   3  -4 1796.52   29.70
  -1   3   4 1772.82   30.70
  -1  -3  -4  113.99   13.40
   1   3   4  124.09   13.80
  -3  -3  -4  298.37   18.70
   3   3   4  290.67   19.30
  -5  -3  -4   14.50   11.30
  -5   3  -4    1.00    7.90
   5   3   4   -7.80   12.00
  -7  -3  -4   14.50   12.00
   7   3   4    8.40   12.70
  -7   3  -4  -17.40    8.00
  -9  -3  -4  109.59   13.80
  -9   3  -4  124.39   11.10
   9   3   4  136.09   15.50
 -11  -3  -4    9.00   13.10
 -11   3  -4    6.80   10.00
  11   3   4   -2.20   14.60
 -13  -3  -4   16.20   15.20
 -13   3  -4   20.40   10.80
  13   3   4   34.60   16.40
 -15  -3  -4  208.38   20.70
 -15   3  -4  242.58   15.70
  15   3   4  210.38   21.20
 -17  -3  -4    9.70   18.20
 -17   3  -4   11.10   13.50
  17   3   4  -20.80   18.60
 -17   3  -4   27.10   15.80
 -19  -3  -4   31.40   19.90
 -19   3  -4   -2.60   14.00
  19   3   4  -17.30   19.90
  20   4  -4   30.80   16.60
  18   4  -4    7.00   16.60
  18   4  -4   16.20   14.50
  16   4  -4   15.20   14.90
  16   4  -4   17.80   14.40
 -16   4   4  -11.10   16.40
  14   4  -4   33.50   13.90
 -14   4   4   17.70   16.50
  14   4  -4   33.20   13.40
 -12   4   4   45.40   16.30
  12   4  -4   24.70   11.40
  12   4  -4   30.60   12.70
 -10   4   4    1.00   14.70
  10   4  -4   17.60   12.40
   8   4  -4   -7.00   11.60
  -8   4   4    1.80   14.50
  -6   4   4  425.46   25.00
   6   4  -4  398.56   20.80
   4  -4  -4   -9.50   22.70
   4   4  -4   55.89   13.70
  -4   4   4   14.90   15.00
   2  -4  -4   64.49   16.20
  -2   4   4   79.79   16.30
   0  -4  -4    0.20   14.80
   0   4   4   25.10   15.00
  -2  -4  -4   24.60   14.20
   2   4   4   14.60   14.50
  -4  -4  -4  123.29   16.30
   4   4   4  109.79   16.30
  -6  -4  -4   25.00   15.00
   6   4   4   26.80   14.70
  -8  -4  -4   -1.20   14.30
   8   4   4  -13.00   15.00
 -10  -4  -4   -7.80   15.00
  10   4   4   25.30   16.10
 -12  -4  -4    9.70   16.30
  12   4   4   24.60   17.10
 -14  -4  -4  -12.60   17.20
  14   4   4    9.90   17.30
 -16  -4  -4   15.00   18.80
  16   4   4   61.49   19.10
 -13   5   4   44.40   19.20
  11   5  -4   80.59   23.10
 -11   5   4   93.79   19.30
  -9   5   4   45.70   18.10
   9   5  -4   51.99   15.30
  -7   5   4   84.49   18.80
  -5   5   4  -16.50   17.70
  -3   5   4   -1.10   17.70
  -1   5   4  457.75   30.30
   1   5   4   44.10   18.40
   3   5   4   69.99   18.20
   5   5   4  -36.90   16.10
   7   5   4   -0.20   16.50
   9   5   4   52.49   17.70
  26   0  -5    8.60   20.20
 -26   0   5   31.50   20.50
  24   0  -5   14.60   18.90
 -24   0   5   14.60   18.50
  22   0  -5   41.90   17.50
 -22   0   5   35.00   17.50
  20   0  -5  236.48   20.00
 -20   0   5  243.98   19.60
  18   0  -5  440.56   24.90
 -18   0   5  452.55   23.70
  16   0  -5  104.49   14.70
 -16   0   5  135.79   14.30
  14   0  -5  418.26   20.20
  12   0  -5  104.29   11.50
  10   0  -5   97.59    9.90
  -8   0   5 3702.63   38.20
   8   0  -5 3666.03   39.00
   8   0  -5 3791.22   39.00
   6   0  -5  277.27   11.30
   6   0  -5  275.27   11.00
  -6   0   5  289.17   10.60
   4   0  -5  771.82   13.70
   4   0  -5  762.52   13.70
   2   0  -5   37.00    6.00
   2   0  -5   45.30    6.20
   2   0  -5   36.80    5.50
   0   0  -5   17.20    5.90
   0   0  -5   23.70    5.80
   0   0  -5   25.60    6.10
  -2   0  -5  271.77   10.10
  -2   0  -5  276.57   10.70
  -4   0  -5   -1.80    6.50
  -4   0  -5   -8.60    6.40
   4   0   5    0.70    6.40
   6   0   5  130.99    9.40
  -6   0  -5  127.29    9.30
  -6   0  -5  128.19    9.80
   8   0   5  411.26   15.00
  -8   0  -5  443.36   15.80
  -8   0  -5  454.05   17.00
 -10   0  -5   15.40   10.10
 -10   0  -5   39.20   10.40
  10   0   5   29.00   10.30
 -12   0  -5    7.60   11.60
 -12   0  -5    9.20   11.00
  12   0   5    4.70   10.80
 -14   0  -5  696.23   24.20
  14   0   5  700.33   23.90
 -14   0  -5  696.23   24.10
 -16   0  -5   54.99   14.80
 -16   0  -5   84.39   15.90
  16   0   5   74.59   18.30
 -18   0  -5  137.29   18.30
 -18   0  -5  151.48   17.40
 -20   0  -5   -7.50   16.90
 -20   0  -5  -11.10   15.40
 -22   0  -5    3.10   16.50
 -22   0  -5   26.90   18.30
  25  -1  -5   70.09   22.70
 -25  -1   5   31.50   19.90
  25   1  -5   35.80   18.50
  25   1  -5   27.60   18.90
 -25   1   5   63.29   19.80
 -23  -1   5   -9.90   17.90
  23  -1  -5  -18.40   20.60
 -23   1   5   22.30   18.50
  23   1  -5   -3.70   17.00
 -21  -1   5   46.90   16.70
  21  -1  -5   34.40   19.20
 -21   1   5   28.10   16.80
  21   1  -5   37.90   16.50
 -19  -1   5   83.09   15.80
  19  -1  -5   76.09   18.10
 -19   1   5   57.09   16.00
  19   1  -5   67.59   15.20
  19   1  -5   25.20   15.10
 -17  -1   5   28.70   12.70
  17  -1  -5   39.40   15.40
  17   1  -5   63.79   13.60
  17   1  -5   46.60   14.50
  15  -1  -5   13.40   12.40
 -15  -1   5   -0.70   10.90
  15   1  -5    3.30   12.40
  15   1  -5   11.10   11.80
  13  -1  -5 1353.06   26.40
 -13  -1   5 1380.26   25.10
  13   1  -5 1380.06   27.30
 -13   1   5 1373.66   26.40
  13   1  -5 1393.06   26.30
  11  -1  -5   54.69   11.40
 -11  -1   5   69.29   10.40
 -11   1   5   43.40   10.70
  11   1  -5   69.09   11.00
  11   1  -5   63.19   11.00
  -9  -1   5   14.50    8.10
   9  -1  -5    4.10    8.90
   9   1  -5    8.20    8.60
  -9   1   5    3.30    8.50
   9   1  -5   -2.00    8.50
   7  -1  -5  118.89    9.50
   7   1  -5   92.89    7.80
   7   1  -5   88.59    9.30
  -7   1   5   91.09    9.10
   5  -1  -5   61.29    8.20
   5   1  -5   50.99    8.00
  -5   1   5   57.49    8.30
   3  -1  -5 1295.97   16.20
   3  -1  -5 1265.87   19.60
   3   1  -5 1303.97   20.10
  -3   1   5 1298.87   19.90
   1  -1  -5  556.44   11.10
   1  -1  -5  554.24   14.20
   1   1  -5  579.24   14.30
   1   1  -5  560.74   13.10
  -1   1   5  543.05   14.30
  -1  -1  -5   60.49    8.30
  -1  -1  -5   51.79    6.30
  -1   1  -5   47.30    6.70
   1   1   5   67.49    8.30
  -1   1  -5   70.39    8.20
  -3  -1  -5    4.60    6.40
  -3  -1  -5    6.00    7.70
  -3   1  -5   -1.10    6.50
   3   1   5    2.20    8.10
  -5  -1  -5  219.18   12.60
  -5  -1  -5  217.58   13.50
  -5   1  -5  193.28   12.30
   5   1   5  216.18   13.80
  -7  -1  -5  233.18   12.10
  -7  -1  -5  203.68   12.50
   7   1   5  201.68   13.10
  -7   1  -5  189.28   12.40
  -7   1  -5  243.08   11.90
  -9  -1  -5  241.28   14.00
  -9  -1  -5  228.38   13.60
   9   1   5  232.18   14.20
  -9   1  -5  236.68   13.10
  -9   1  -5  223.88   12.20
 -11  -1  -5  270.07   15.50
 -11   1  -5  257.87   17.00
 -11   1  -5  256.17   16.40
  11   1   5  261.67   16.00
 -13  -1  -5   84.29   14.10
 -13   1  -5   77.99   12.70
  13   1   5   70.19   15.20
 -13   1  -5   73.39   12.90
 -15  -1  -5   -0.70   13.80
  15   1   5    4.40   16.20
 -15   1  -5  -14.40   12.70
 -15   1  -5    8.00   13.20
 -17  -1  -5    8.70   15.60
 -17   1  -5  -18.40   14.30
 -17   1  -5    4.30   14.00
  17   1   5   34.50   18.40
 -19  -1  -5  352.76   21.80
 -19  -1  -5  406.46   24.80
  19   1   5  377.76   27.30
 -19   1  -5  384.06   26.10
 -19   1  -5  341.37   21.60
 -21  -1  -5   10.10   16.00
 -21  -1  -5   10.70   18.10
 -21   1  -5    4.30   16.50
  21   1   5   -6.30   22.30
 -21   1  -5  -10.30   16.70
  24  -2  -5   56.09   23.60
 -24   2   5   12.00   18.40
  24   2  -5   -4.20   17.60
  24   2  -5    9.50   17.40
  22  -2  -5   99.99   23.00
  22   2  -5   25.00   17.50
 -22   2   5   31.10   17.70
  22   2  -5   50.79   18.20
  20  -2  -5  182.68   22.10
  20   2  -5  159.88   19.00
  20   2  -5  158.08   18.90
  18  -2  -5  259.87   20.70
  18   2  -5  250.47   18.90
  18   2  -5  289.67   19.50
  16  -2  -5   97.49   16.50
 -16   2   5  108.59   15.70
  16   2  -5  106.39   15.40
  16   2  -5  113.79   15.30
  14  -2  -5  344.27   22.00
 -14   2   5  358.96   21.60
  14   2  -5  323.07   20.50
  14   2  -5  335.07   19.90
  12  -2  -5   71.29   13.10
 -12   2   5   62.19   12.50
  12   2  -5   79.99   12.50
  12   2  -5   62.99   11.70
  10  -2  -5   73.59   12.00
  10   2  -5   49.60   11.00
  10   2  -5   92.29   10.80
 -10   2   5   61.99   11.80
   8  -2  -5 2252.17   31.00
  -8   2   5 2204.38   31.10
   8   2  -5 2272.17   31.60
   6  -2  -5  239.48   13.30
  -6   2   5  229.08   13.60
   6   2  -5  229.78   13.00
   4  -2  -5  482.25   17.70
   4   2  -5  528.45   16.90
  -4   2   5  533.45   18.20
   2  -2  -5   51.69   10.40
   2   2  -5   21.70    9.30
  -2   2   5   36.50   10.20
   0  -2  -5   18.40   10.00
   0   2  -5   10.30    9.40
   0   2   5    2.70   10.20
  -2  -2  -5  226.58   11.50
  -2  -2  -5  227.58   13.40
   2   2   5  226.08   13.70
  -2   2  -5  212.48   13.10
  -4  -2  -5    9.20    8.30
  -4  -2  -5    3.80   10.30
  -4   2  -5  -11.30    7.40
   4   2   5    6.50   11.10
  -6  -2  -5   75.69   11.60
  -6   2  -5   71.09    9.40
   6   2   5  104.59   12.90
  -8  -2  -5  323.97   18.00
   8   2   5  320.07   19.70
  -8   2  -5  312.97   15.20
 -10  -2  -5   12.70   12.30
 -10   2  -5   23.00    9.60
  10   2   5   18.00   13.40
 -12  -2  -5   -1.00   13.40
  12   2   5   23.90   15.30
 -12   2  -5   -7.10    9.70
 -14  -2  -5  487.85   24.70
 -14   2  -5  480.35   21.50
 -14   2  -5  470.35   21.30
  14   2   5  474.75   27.00
 -16  -2  -5   34.90   16.30
 -16   2  -5   46.80   14.00
  16   2   5   54.19   18.80
 -16   2  -5   20.70   13.30
 -18  -2  -5  112.39   19.40
 -18   2  -5  112.19   16.60
  18   2   5  131.29   21.80
 -18   2  -5  123.19   16.60
 -20  -2  -5   12.30   18.70
 -20   2  -5    1.20   15.50
 -20   2  -5   11.20   16.10
  20   2   5   23.30   21.40
  23   3  -5   12.10   18.20
 -23   3   5    1.70   17.00
  23   3  -5    7.90   17.40
  21   3  -5   -7.50   17.10
  21   3  -5   17.80   17.30
  19  -3  -5   21.60   21.20
  19   3  -5   38.80   17.60
  19   3  -5   25.20   16.10
  17  -3  -5   21.80   19.10
  17   3  -5   26.80   14.70
  17   3  -5   30.70   16.30
 -17   3   5   38.60   16.20
  15  -3  -5    5.60   17.30
  15   3  -5  -10.30   13.80
  15   3  -5   -3.70   12.70
 -15   3   5    9.10   15.40
  13   3  -5  684.43   23.50
  13   3  -5  625.94   23.20
 -13   3   5  604.14   25.20
  11  -3  -5   30.60   14.80
  11   3  -5   21.40   11.80
 -11   3   5   44.80   14.10
   9  -3  -5    2.30   13.60
   9   3  -5   24.90   10.90
  -9   3   5   -2.20   12.50
   7  -3  -5   52.09   13.40
   7   3  -5   86.09   12.20
  -7   3   5   48.30   13.40
   5  -3  -5   23.30   13.20
   5   3  -5   47.10   10.90
  -5   3   5   26.70   12.80
   3  -3  -5  499.15   21.20
  -3   3   5  495.95   22.30
   3   3  -5  518.35   20.20
   1  -3  -5  302.27   16.80
   1   3  -5  269.77   18.40
  -1   3   5  294.77   17.20
  -1  -3  -5    7.90   12.40
   1   3   5   23.10   12.90
  -3  -3  -5  -13.70   12.10
   3   3   5    2.90   12.60
  -5  -3  -5  126.79   14.40
  -5   3  -5  134.29   11.30
   5   3   5  113.09   15.20
  -7  -3  -5  108.59   14.40
  -7   3  -5  121.79   11.70
   7   3   5  116.39   16.20
  -9  -3  -5   84.09   14.80
   9   3   5   89.99   16.30
  -9   3  -5  101.69   11.50
 -11  -3  -5  138.79   16.20
 -11   3  -5  121.59   13.10
  11   3   5  116.99   17.70
 -13  -3  -5   28.70   15.80
  13   3   5   66.59   18.20
 -13   3  -5   41.20   12.80
 -15  -3  -5   12.00   17.00
  15   3   5   44.80   19.30
 -15   3  -5    5.70   12.70
 -17  -3  -5    6.90   18.50
 -17   3  -5   16.10   13.60
  17   3   5   16.10   19.90
 -19  -3  -5  192.78   23.10
  19   3   5  205.38   25.00
 -19   3  -5  166.88   16.20
  18   4  -5  135.39   17.70
  18   4  -5  103.99   17.00
 -16   4   5   30.10   17.80
  16   4  -5   62.39   15.50
  16   4  -5   28.80   14.40
  14   4  -5  154.38   14.70
 -14   4   5  176.78   19.40
  14   4  -5  153.78   16.80
  12   4  -5   71.89   14.50
 -12   4   5   42.50   16.60
 -10   4   5   33.50   16.10
  10   4  -5   24.10   13.20
   8  -4  -5  629.34   34.10
   8   4  -5  720.03   24.50
  -8   4   5  739.63   27.10
   6  -4  -5   58.19   17.40
   6   4  -5   75.79   14.00
  -6   4   5   38.60   16.80
   4  -4  -5  186.08   19.20
   4   4  -5  214.58   17.40
  -4   4   5  207.98   19.20
   2  -4  -5    3.80   16.40
  -2   4   5    6.00   15.90
   0  -4  -5    1.90   15.90
   0   4   5   21.40   16.10
  -2  -4  -5  129.89   17.00
   2   4   5   97.69   17.20
  -4  -4  -5   -1.80   15.60
   4   4   5   -9.00   15.80
  -6  -4  -5   28.20   16.80
   6   4   5   23.40   15.70
  -8  -4  -5  166.58   18.40
   8   4   5  157.18   18.90
 -10  -4  -5   27.30   16.50
  10   4   5  -25.50   16.60
 -12  -4  -5    1.10   16.60
  12   4   5   -4.80   17.40
 -14  -4  -5  222.68   21.90
  14   4   5  177.98   22.50
  13   5  -5  192.88   18.80
 -13   5   5  194.28   21.80
  11   5  -5    3.60   14.20
 -11   5   5   19.30   18.70
  -9   5   5  -16.20   18.10
   9   5  -5    7.70   14.20
  -7   5   5   35.40   18.20
  -5   5   5  -41.90   17.80
  -3   5   5  133.69   20.80
  -1   5   5   83.99   19.90
   1   5   5    0.40   17.80
   3   5   5  -11.40   17.80
   5   5   5   25.40   17.70
   7   5   5   32.00   17.50
   9   5   5   49.90   18.50
 -26   0   6    1.90   20.60
  26   0  -6   40.60   20.80
  24   0  -6   35.10   18.90
 -24   0   6   10.80   18.90
 -22   0   6   -2.30   17.70
  22   0  -6   10.50   17.40
 -20   0   6  312.17   21.10
  20   0  -6  301.27   21.60
  18   0  -6   -8.20   15.00
 -18   0   6   21.00   14.50
 -16   0   6   52.39   13.80
  16   0  -6   36.90   14.00
  14   0  -6   35.40   12.00
  12   0  -6    0.40   10.70
  12   0  -6   25.10   11.10
  10   0  -6  143.39   11.30
  10   0  -6  152.78   12.00
 -10   0   6  111.79   10.90
   8   0  -6  216.38   13.30
  -8   0   6  234.18   12.90
   8   0  -6  236.68   13.70
  -6   0   6    0.20    7.20
   6   0  -6    1.10    7.00
   6   0  -6    3.10    7.80
   4   0  -6  322.87   12.00
   4   0  -6  331.17   11.80
  -4   0   6  335.77   11.90
   2   0  -6  151.28    8.60
   2   0  -6  136.99    8.00
   2   0  -6  152.38    8.30
   0   0  -6  325.57   11.90
   0   0  -6  332.37   11.60
   0   0  -6  344.27   12.40
   2   0   6 1795.72   23.70
  -2   0  -6 1822.62   24.50
  -2   0  -6 1804.02   23.40
  -4   0  -6  247.28   13.60
  -4   0  -6  262.07   12.70
   4   0   6  250.37   12.90
  -6   0  -6   58.49    9.70
   6   0   6   90.49    9.60
  -6   0  -6   81.89   10.00
   8   0   6  225.78   14.90
  -8   0  -6  224.78   15.00
  -8   0  -6  243.58   16.20
  10   0   6    3.70    9.90
 -10   0  -6    4.50   10.00
 -10   0  -6   -2.00   10.10
 -12   0  -6  876.91   23.90
  12   0   6  902.01   24.50
 -12   0  -6  883.01   24.30
 -14   0  -6  205.98   16.40
 -14   0  -6  237.38   17.40
 -16   0  -6  232.98   18.50
 -16   0  -6  222.58   17.80
 -18   0  -6  -29.80   15.30
 -18   0  -6  -18.40   14.60
 -20   0  -6   68.69   16.60
 -20   0  -6   31.90   17.60
 -22   0  -6   54.29   19.10
 -22   0  -6   28.40   16.50
  25  -1  -6  168.68   24.40
 -25  -1   6  128.69   22.00
  25   1  -6   76.79   19.10
  25   1  -6  121.49   20.60
 -25   1   6  127.79   22.00
 -23  -1   6   75.79   19.40
  23  -1  -6   62.79   21.40
  23   1  -6   28.70   17.60
  23   1  -6   21.20   17.80
 -23   1   6   55.59   19.80
  21  -1  -6   15.00   19.30
 -21  -1   6    1.80   16.60
  21   1  -6   11.60   16.40
  21   1  -6   17.20   16.10
 -21   1   6   23.00   17.60
 -19  -1   6   79.69   15.80
  19  -1  -6   84.39   18.30
  19   1  -6   75.79   16.70
  19   1  -6   74.39   15.50
 -17  -1   6  119.19   14.50
  17  -1  -6  110.29   16.20
  17   1  -6   87.89   14.90
  17   1  -6   93.49   15.90
 -15  -1   6  392.76   19.70
  15  -1  -6  380.36   21.70
  15   1  -6  374.96   20.50
  15   1  -6  402.36   21.50
 -13  -1   6  187.28   13.60
  13  -1  -6  158.08   14.60
 -13   1   6  218.08   15.10
  13   1  -6  182.08   14.00
  13   1  -6  188.68   14.40
 -11  -1   6  472.05   16.80
  11  -1  -6  488.05   19.80
  11   1  -6  464.95   18.30
  11   1  -6  469.55   18.60
 -11   1   6  451.05   18.80
   9  -1  -6  149.19   12.20
   9  -1  -6  178.58   10.60
   9   1  -6  207.28   14.20
  -9   1   6  176.48   12.10
   9   1  -6  186.08   12.70
   7  -1  -6   48.40    9.80
   7  -1  -6   71.89    7.90
   7   1  -6   65.39    9.70
   7   1  -6   45.20    8.00
  -7   1   6   71.49    9.70
   5  -1  -6  452.65   15.60
   5   1  -6  448.36   15.30
  -5   1   6  453.25   15.60
   3  -1  -6  380.66   14.60
   3  -1  -6  390.06   10.90
   3   1  -6  388.26   14.10
  -3   1   6  378.26   14.90
   1  -1  -6  343.77   11.30
   1  -1  -6  341.87   14.30
   1   1  -6  339.37   13.10
  -1   1   6  337.77   14.70
   1   1  -6  351.56   14.30
  -1  -1  -6  644.54   14.50
  -1  -1  -6  631.04   17.20
  -1   1  -6  640.74   15.80
   1   1   6  636.54   17.60
  -3  -1  -6   73.09   10.10
  -3  -1  -6   62.29    8.50
  -3   1  -6   51.89    8.70
   3   1   6   61.39   10.30
  -5  -1  -6   29.40    9.90
  -5  -1  -6   19.00    8.60
   5   1   6   37.00   10.90
  -5   1  -6   39.40    8.80
  -7  -1  -6 1573.94   26.00
  -7  -1  -6 1569.84   26.70
   7   1   6 1541.75   26.70
  -7   1  -6 1560.94   25.60
  -7   1  -6 1556.74   22.20
  -9  -1  -6   -4.30   10.10
  -9  -1  -6    6.80   11.10
   9   1   6    6.40   11.50
  -9   1  -6  -14.50    9.10
  -9   1  -6   11.50    9.10
 -11  -1  -6  410.06   20.50
 -11  -1  -6  415.76   20.50
 -11   1  -6  415.16   19.90
 -11   1  -6  438.76   17.90
  11   1   6  405.96   21.80
 -13  -1  -6   40.40   13.80
 -13  -1  -6   12.80   12.90
 -13   1  -6   38.00   12.50
  13   1   6   25.50   15.20
 -13   1  -6   34.80   12.60
 -15  -1  -6   11.10   13.80
 -15  -1  -6   -5.00   14.40
 -15   1  -6   31.40   13.80
  15   1   6   24.50   17.10
 -15   1  -6   17.30   13.10
 -17  -1  -6   26.70   15.00
 -17  -1  -6   -6.00   15.80
 -17   1  -6   -0.70   14.10
 -17   1  -6   -3.40   14.90
  17   1   6    1.70   18.90
 -19  -1  -6   78.59   19.10
 -19  -1  -6   94.89   17.10
 -19   1  -6   69.59   16.70
  19   1   6   84.49   24.30
 -19   1  -6   86.89   17.80
 -21  -1  -6   15.20   15.90
 -21  -1  -6   -9.80   17.80
 -21   1  -6   -0.30   17.00
 -21   1  -6    2.00   16.50
  24  -2  -6   18.90   23.50
  24   2  -6  -10.70   17.80
  24   2  -6   -7.30   16.80
 -24   2   6   12.10   18.20
  22  -2  -6    1.20   21.70
 -22   2   6   -2.90   17.40
  22   2  -6   -8.20   16.30
  22   2  -6   -8.20   17.10
  20  -2  -6  242.48   23.60
  20   2  -6  230.78   20.30
  20   2  -6  202.08   19.60
  18  -2  -6   12.60   17.50
  18   2  -6   18.10   15.50
  18   2  -6   18.20   14.40
  16  -2  -6   23.70   15.70
  16   2  -6   41.70   14.00
  16   2  -6   33.90   14.40
 -16   2   6    7.20   15.20
  14  -2  -6   45.60   15.30
  14   2  -6   30.20   13.20
  14   2  -6   32.10   12.70
 -14   2   6   48.50   14.50
  12  -2  -6    8.50   12.70
 -12   2   6  -15.40   12.00
  12   2  -6   15.20   10.90
  12   2  -6    5.00   11.20
  10  -2  -6  120.59   13.80
 -10   2   6   86.29   12.80
  10   2  -6  106.89   12.20
   8  -2  -6  181.48   13.90
  -8   2   6  189.18   13.70
   8   2  -6  185.28   13.20
   6  -2  -6   10.20   11.40
  -6   2   6   -6.60   11.00
   6   2  -6    2.10   10.00
   4  -2  -6  262.67   14.70
   4   2  -6  239.48   15.70
  -4   2   6  231.48   14.60
   2  -2  -6   96.39   12.70
   2   2  -6   89.29   11.90
  -2   2   6  106.99   12.80
   0  -2  -6  214.58   14.40
   0   2  -6  226.78   12.30
   0   2  -6  228.38   14.30
   0   2   6  228.68   14.90
  -2  -2  -6 1140.29   24.70
  -2  -2  -6 1172.38   19.20
  -2   2  -6 1160.98   22.30
   2   2   6 1186.48   25.30
  -4  -2  -6  198.28   11.00
  -4  -2  -6  184.58   14.30
  -4   2  -6  197.18   11.70
   4   2   6  219.88   15.40
  -6  -2  -6   50.09    9.80
  -6  -2  -6   82.39   12.80
  -6   2  -6   76.09   10.40
   6   2   6  100.99   14.20
  -8  -2  -6  201.18   15.30
  -8  -2  -6  201.68   14.00
  -8   2  -6  198.38   13.00
   8   2   6  214.58   16.70
 -10  -2  -6   -3.80   13.00
 -10  -2  -6    0.70   12.00
 -10   2  -6   21.30   10.20
  10   2   6  -10.80   14.80
 -12  -2  -6  598.14   24.50
 -12  -2  -6  603.54   25.40
  12   2   6  604.84   28.30
 -12   2  -6  584.94   22.00
 -14  -2  -6  164.68   18.70
 -14  -2  -6  179.28   17.50
  14   2   6  189.78   21.60
 -14   2  -6  182.98   15.70
 -16  -2  -6  148.99   20.10
 -16  -2  -6  144.79   18.10
 -16   2  -6  165.28   16.50
  16   2   6  250.77   24.40
 -16   2  -6  155.78   15.70
 -18  -2  -6   -0.40   18.00
 -18  -2  -6    0.10   15.80
  18   2   6   23.70   22.20
 -18   2  -6   12.80   15.30
 -18   2  -6    3.00   14.40
 -20  -2  -6   62.99   20.40
 -20  -2  -6   25.50   17.00
  20   2   6   76.09   24.40
 -20   2  -6   68.49   17.00
 -20   2  -6   37.90   15.60
  21  -3  -6   -3.00   23.50
  21   3  -6   28.40   18.30
  21   3  -6   14.90   16.40
  19  -3  -6   12.30   21.40
  19   3  -6   29.80   16.90
  19   3  -6   80.99   17.10
  17  -3  -6   37.50   19.80
  17   3  -6   69.29   16.50
 -17   3   6   46.40   17.70
  17   3  -6   97.69   16.70
  15  -3  -6  148.89   20.30
 -15   3   6  182.98   18.90
  15   3  -6  201.68   17.40
  15   3  -6  172.48   16.60
  13  -3  -6   70.39   17.40
  13   3  -6   82.59   14.40
  13   3  -6   86.39   13.70
 -13   3   6   89.99   16.40
  11  -3  -6  256.87   18.40
  11   3  -6  226.48   16.20
 -11   3   6  233.68   18.20
   9  -3  -6   99.49   16.10
   9   3  -6   76.39   13.50
  -9   3   6   90.89   15.20
   7  -3  -6   31.40   14.80
  -7   3   6   32.30   14.10
   7   3  -6   29.70   11.40
   5  -3  -6  294.77   18.40
  -5   3   6  265.37   17.80
   5   3  -6  271.27   18.70
   3  -3  -6  196.68   16.50
   3   3  -6  194.38   15.80
  -3   3   6  169.68   16.70
   1  -3  -6  185.48   16.50
  -1   3   6  170.78   17.00
  -1  -3  -6  366.46   19.10
   1   3   6  356.66   19.80
  -3  -3  -6   19.00   13.90
   3   3   6   63.49   15.30
  -5  -3  -6   28.10    9.70
  -5  -3  -6   22.30   14.00
  -5   3  -6   44.20   10.50
   5   3   6   15.60   14.80
  -7  -3  -6  732.83   22.20
  -7  -3  -6  701.23   26.00
  -7   3  -6  724.33   21.80
   7   3   6  740.63   27.50
  -9  -3  -6    7.30   14.70
  -9  -3  -6  -16.70   12.40
  -9   3  -6    2.70   10.70
   9   3   6   30.00   16.90
 -11  -3  -6  214.78   19.20
 -11  -3  -6  210.38   17.80
  11   3   6  218.28   21.30
 -11   3  -6  253.87   16.40
 -13  -3  -6   -4.30   16.10
 -13  -3  -6    9.00   16.70
 -13   3  -6    3.20   13.10
  13   3   6   28.30   18.90
 -15  -3  -6   45.60   18.10
 -15  -3  -6  -43.20   16.50
  15   3   6    0.70   20.20
 -15   3  -6    6.00   13.80
 -17  -3  -6  -23.40   17.50
 -17  -3  -6   -2.10   18.30
 -17   3  -6    6.90   14.90
  17   3   6  -14.60   20.90
  18   4  -6  -15.90   13.90
  18   4  -6   -6.40   15.50
 -18   4   6  -16.40   18.10
  16   4  -6   20.10   15.50
  16   4  -6   -1.60   13.30
 -16   4   6   22.80   18.50
  14   4  -6   17.80   14.80
 -14   4   6   32.60   18.20
  12  -4  -6  -17.30   24.80
 -12   4   6  -19.70   16.80
  12   4  -6    4.60   13.40
  10  -4  -6   19.00   19.90
 -10   4   6   40.50   17.20
  10   4  -6   34.30   13.60
   8  -4  -6   82.39   19.40
  -8   4   6   87.19   17.90
   8   4  -6   78.39   15.30
   6  -4  -6    2.40   18.00
  -6   4   6  -29.80   16.60
   6   4  -6  -14.90   13.10
   4  -4  -6  104.59   19.70
   4   4  -6   78.59   15.50
  -4   4   6   61.19   18.10
   2  -4  -6   45.50   18.30
  -2   4   6   36.90   17.60
   0  -4  -6   88.79   18.50
   0   4   6   72.79   18.10
  -2  -4  -6  382.66   25.90
   2   4   6  406.06   23.60
  -4  -4  -6   97.69   18.60
   4   4   6   95.09   18.20
  -6  -4  -6   59.79   18.20
   6   4   6   45.00   17.80
  -8  -4  -6  119.19   19.90
   8   4   6   92.89   18.70
 -10  -4  -6    2.40   16.90
  10   4   6   -7.50   17.80
 -12  -4  -6  250.77   22.00
  12   4   6  220.88   23.00
 -14  -4  -6   61.59   19.80
  14   4   6   91.39   21.50
  11   5  -6   92.09   16.60
 -11   5   6  110.19   21.30
   9   5  -6    5.00   15.30
  -9   5   6   13.10   18.60
  -7   5   6   -2.60   18.30
  -5   5   6   83.49   20.10
  -3   5   6   48.10   20.10
  -1   5   6   38.40   20.40
   1   5   6   97.79   20.70
   3   5   6  -11.70   18.60
   5   5   6    5.30   18.30
   7   5   6  174.48   21.90
 -26   0   7    5.00   20.10
  26   0  -7   23.40   20.70
  26   0  -7  -26.70   17.80
  24   0  -7    3.70   17.70
 -24   0   7   -6.30   19.00
  24   0  -7   23.60   18.90
  22   0  -7   76.39   18.00
  22   0  -7  102.49   20.00
 -22   0   7  113.99   20.10
  20   0  -7   35.80   16.30
 -20   0   7   66.59   17.90
  20   0  -7   29.40   17.80
 -18   0   7   79.29   16.40
  18   0  -7   50.59   16.30
  18   0  -7   65.29   16.10
  16   0  -7   49.40   14.90
  16   0  -7   -2.80   13.60
  14   0  -7   12.80   12.60
  14   0  -7    9.90   12.10
  12   0  -7   52.29   11.30
  12   0  -7   47.50   11.70
  10   0  -7  111.59   12.40
 -10   0   7  131.49   12.10
  10   0  -7  127.59   11.40
   8   0  -7  205.68   12.10
  -8   0   7  211.58   14.00
   8   0  -7  198.58   14.10
  -6   0   7   55.59    9.00
   6   0  -7   55.89    9.30
   6   0  -7   63.79    9.40
   4   0  -7   -1.00    8.10
  -4   0   7    6.20    7.90
   4   0  -7   -8.40    7.60
   2   0  -7   16.20    8.30
   2   0  -7   32.00    8.00
   2   0  -7   21.30    7.30
  -2   0   7    9.50    8.00
   0   0  -7 1132.59   20.40
   0   0   7 1143.69   19.10
   0   0  -7 1102.39   19.20
   2   0   7    6.80    8.60
  -2   0  -7   -9.90    8.60
  -2   0  -7   -8.70    7.60
  -4   0  -7  487.05   16.80
  -4   0  -7  444.66   16.10
   4   0   7  468.75   15.90
  -6   0  -7   34.70    9.60
   6   0   7   21.20   10.00
  -6   0  -7   28.40    9.80
  -8   0  -7   20.90   10.00
  -8   0  -7   17.90   10.30
 -10   0  -7   43.20   11.50
 -10   0  -7   40.10   12.10
 -12   0  -7   20.90   12.60
 -12   0  -7   12.10   11.60
 -14   0  -7    4.00   13.80
 -14   0  -7   18.90   13.00
 -16   0  -7   47.60   14.40
 -16   0  -7   42.00   16.00
 -18   0  -7    2.40   14.40
 -18   0  -7   -8.60   16.10
 -20   0  -7  -19.80   16.90
 -20   0  -7   -5.50   14.90
  25  -1  -7  -27.90   21.60
  25   1  -7   -8.70   16.90
  25   1  -7    6.20   18.80
 -25   1   7    6.50   20.40
  23  -1  -7   47.00   21.80
  23   1  -7  -10.30   15.80
  23   1  -7  -24.20   17.10
 -23   1   7   10.50   19.10
  21  -1  -7   57.39   19.70
 -21   1   7   66.79   18.90
  21   1  -7   14.50   16.30
  21   1  -7   32.20   16.60
 -19  -1   7  -10.10   21.20
  19  -1  -7    0.10   17.50
  19   1  -7  -11.80   14.70
  19   1  -7   -5.90   14.80
 -17  -1   7  113.59   15.90
  17  -1  -7  101.89   17.00
  17   1  -7   78.09   15.30
  17   1  -7   99.69   16.10
 -15  -1   7  127.99   14.90
  15  -1  -7  101.59   15.20
  15   1  -7  116.59   15.10
  15   1  -7  103.29   14.60
 -15   1   7  166.58   16.40
 -13  -1   7   -1.20   11.30
  13  -1  -7   11.40   13.20
  13  -1  -7    0.10   10.70
  13   1  -7    8.90   11.30
 -13   1   7   -4.00   12.60
  13   1  -7   -6.40   11.60
  11  -1  -7   46.50   11.90
  11  -1  -7   45.00   10.40
 -11  -1   7   23.70   12.80
 -11   1   7   30.90   11.40
  11   1  -7   27.70   11.00
  11   1  -7   31.80   10.90
   9  -1  -7   52.49    9.40
   9  -1  -7   67.29   12.20
   9   1  -7   39.90   10.60
   9   1  -7   57.69   10.10
  -9   1   7   58.59   11.50
   7  -1  -7  234.68   13.70
   7  -1  -7  196.48   12.30
  -7   1   7  231.08   13.00
   7   1  -7  218.78   13.60
   7   1  -7  226.18   15.60
   5  -1  -7  921.41   21.10
   5   1  -7  936.61   20.80
  -5   1   7  929.41   20.70
   3  -1  -7  176.08   12.40
   3  -1  -7  172.68   11.20
  -3   1   7  164.08   12.50
   3   1  -7  176.48   11.80
   1  -1  -7   33.30    7.40
   1  -1  -7    9.90    9.90
   1   1  -7   27.10    8.30
  -1   1   7   20.60   10.30
   1   1  -7   43.70   10.10
  -1  -1  -7   64.29    8.70
  -1  -1  -7   48.20   11.00
  -1   1  -7   51.59    8.90
   1   1   7   73.59   11.50
  -3  -1  -7   -2.50   10.60
  -3  -1  -7    6.90    8.10
  -3   1  -7   -0.80    8.70
   3   1   7  -15.30   10.10
  -5  -1  -7  882.41   20.40
  -5  -1  -7  914.71   22.40
   5   1   7  891.41   22.00
  -5   1  -7  875.01   21.00
  -7  -1  -7  114.19   12.70
  -7  -1  -7  117.29   11.40
  -7   1  -7  109.69   11.40
   7   1   7  103.09   13.50
  -9  -1  -7  341.67   20.00
  -9  -1  -7  320.47   19.10
   9   1   7  320.47   20.70
  -9   1  -7  336.47   15.90
  -9   1  -7  316.27   18.10
 -11  -1  -7   75.19   12.80
 -11  -1  -7   70.49   14.60
 -11   1  -7   68.19   12.50
 -11   1  -7   63.39   11.70
  11   1   7   50.29   15.90
 -13  -1  -7   45.00   14.70
 -13  -1  -7   49.10   13.90
 -13   1  -7   32.30   12.50
  13   1   7   -3.40   16.50
 -13   1  -7    5.00   12.40
 -15  -1  -7   72.39   17.30
 -15  -1  -7   99.09   16.00
  15   1   7   76.59   20.30
 -15   1  -7  106.49   15.50
 -15   1  -7   83.79   15.40
 -17  -1  -7    9.60   15.30
 -17  -1  -7   32.70   17.40
 -17   1  -7   27.80   15.50
 -17   1  -7   38.90   15.50
 -19  -1  -7   17.20   16.00
 -19  -1  -7   22.70   18.40
 -19   1  -7   21.90   17.00
 -19   1  -7   22.00   16.50
  24  -2  -7  -12.60   23.60
 -24   2   7   16.90   18.70
  24   2  -7   24.00   18.60
  24   2  -7   50.79   18.10
  22  -2  -7   50.89   22.70
  22   2  -7   53.39   17.90
  22   2  -7   54.99   18.70
  20  -2  -7   26.20   20.20
  20   2  -7   47.20   17.30
  20   2  -7   17.50   16.60
  18  -2  -7   59.09   18.80
  18   2  -7   68.89   16.40
  18   2  -7   28.20   15.80
  16  -2  -7    7.00   16.60
  16   2  -7   19.40   13.80
 -16   2   7   -2.90   16.00
  16   2  -7   13.30   13.80
  14  -2  -7   14.00   15.60
  14   2  -7    7.20   12.70
 -14   2   7   11.90   15.00
  14   2  -7   29.20   13.20
  12  -2  -7   25.90   14.20
  12   2  -7   47.50   12.00
  12   2  -7   50.99   12.70
 -12   2   7   46.80   14.10
  10  -2  -7   78.39   14.50
 -10   2   7   96.99   13.90
  10   2  -7   65.89   12.40
   8  -2  -7  150.28   14.50
   8   2  -7  148.39   13.00
  -8   2   7  137.39   13.90
   6  -2  -7   40.20   12.70
  -6   2   7   57.59   12.80
   6   2  -7   58.79   11.50
   4  -2  -7  -16.70   11.90
  -4   2   7   -6.00   12.00
   4   2  -7    3.50   10.20
   2  -2  -7  -20.10   11.90
   2   2  -7   15.90   10.90
  -2   2   7   -3.60   12.00
   0  -2  -7  758.82   22.80
   0  -2  -7  732.63   15.50
   0   2  -7  747.13   20.50
   0   2   7  753.22   23.30
  -2  -2  -7   -6.10    7.60
  -2  -2  -7  -18.80   11.80
   2   2   7  -17.50   12.50
  -2   2  -7    4.00    9.20
  -4  -2  -7  316.97   15.20
  -4  -2  -7  325.97   20.30
   4   2   7  327.27   21.20
  -4   2  -7  340.27   16.90
  -6  -2  -7   20.60   12.80
  -6  -2  -7    4.10   10.00
   6   2   7   27.40   14.60
  -6   2  -7   10.10   10.00
  -8  -2  -7   14.20   11.20
  -8  -2  -7   19.60   13.60
  -8   2  -7    3.30   10.60
   8   2   7   -8.70   15.50
 -10  -2  -7   15.90   14.30
 -10  -2  -7   20.80   12.40
  10   2   7   35.00   16.80
 -10   2  -7   48.90   11.90
 -12  -2  -7   29.10   13.80
 -12  -2  -7   23.80   15.10
 -12   2  -7   20.20   11.90
  12   2   7   27.70   18.40
 -14  -2  -7  -26.60   16.00
 -14  -2  -7  -26.60   13.70
  14   2   7   -3.30   19.60
 -14   2  -7   15.00   12.70
 -16  -2  -7    5.00   18.40
 -16  -2  -7   38.40   16.10
 -16   2  -7   53.69   13.30
  16   2   7   20.20   21.90
 -16   2  -7   55.99   15.30
 -18  -2  -7   23.90   16.40
 -18  -2  -7   -1.00   18.30
 -18   2  -7    7.30   13.30
  18   2   7   41.50   23.60
 -18   2  -7   30.30   15.70
  21  -3  -7   -3.50   23.30
  21   3  -7   46.50   17.90
  21   3  -7   39.30   18.40
  19  -3  -7   -7.50   21.40
  19   3  -7   -5.40   15.40
  19   3  -7    4.00   16.60
  17  -3  -7   52.39   21.20
  17   3  -7   88.79   16.80
  17   3  -7   60.29   16.30
 -17   3   7   53.09   18.30
  15  -3  -7   57.59   19.50
 -15   3   7   77.79   17.60
  15   3  -7   77.99   15.70
  15   3  -7   67.79   15.10
  13  -3  -7   -0.90   17.40
  13   3  -7   10.20   13.10
 -13   3   7  -14.70   15.30
  11  -3  -7  -11.30   16.40
 -11   3   7    2.20   15.10
  11   3  -7   33.70   13.10
   9  -3  -7   14.20   15.70
  -9   3   7   60.09   15.50
   9   3  -7   18.30   12.40
   7  -3  -7  140.19   17.90
  -7   3   7  117.89   16.50
   7   3  -7  130.59   14.30
   5  -3  -7  434.76   26.00
   5   3  -7  458.55   22.10
  -5   3   7  461.45   24.70
   3  -3  -7   87.89   16.80
  -3   3   7   90.19   17.20
   3   3  -7   93.09   14.70
   1  -3  -7   37.60   15.80
  -1   3   7   53.99   16.40
  -1  -3  -7   71.99   16.00
   1   3   7   48.40   16.40
  -3  -3  -7    2.80   14.80
   3   3   7    8.70   15.90
  -5  -3  -7  414.86   24.70
  -5  -3  -7  391.06   17.30
  -5   3  -7  415.46   20.60
   5   3   7  442.76   25.90
  -7  -3  -7   75.29   16.50
  -7  -3  -7   86.89   12.40
  -7   3  -7   34.30   11.80
   7   3   7   67.89   18.30
  -9  -3  -7  188.18   19.10
  -9  -3  -7  193.38   15.60
   9   3   7  190.58   20.70
  -9   3  -7  202.58   15.60
 -11  -3  -7   39.20   14.40
 -11  -3  -7   48.70   17.50
  11   3   7   20.30   19.80
 -11   3  -7   48.50   13.20
 -13  -3  -7   -7.40   17.70
 -13  -3  -7   10.20   14.50
 -13   3  -7   37.30   14.10
  13   3   7   33.60   21.50
 -15  -3  -7   43.40   16.50
 -15  -3  -7   95.69   20.20
 -15   3  -7   68.79   15.90
  15   3   7   90.99   23.50
 -18   4   7   39.40   19.30
  18   4  -7    4.50   13.60
  18   4  -7   -6.30   16.10
  16   4  -7  -14.00   15.00
 -16   4   7   21.50   19.10
  14  -4  -7   -3.60   23.50
  14   4  -7    0.50   14.80
 -14   4   7  -15.60   18.10
  12  -4  -7   -8.50   20.60
 -12   4   7   19.50   17.80
  12   4  -7    9.10   14.20
  10  -4  -7   14.60   21.10
  10   4  -7   58.19   15.30
 -10   4   7    1.00   17.80
   8  -4  -7   73.09   20.30
   8   4  -7   66.09   15.70
  -8   4   7   69.29   18.40
   6  -4  -7   37.00   20.20
   6   4  -7   30.50   14.90
  -6   4   7   17.60   18.80
   4  -4  -7   16.10   19.80
  -4   4   7  -25.80   17.30
   2  -4  -7    4.30   19.10
  -2   4   7   47.60   18.70
   0  -4  -7  270.97   22.70
   0   4   7  248.48   22.30
  -2  -4  -7    5.50   18.10
   2   4   7  -10.60   17.50
  -4  -4  -7  150.48   20.20
   4   4   7  113.89   20.20
  -6  -4  -7   -2.70   18.10
   6   4   7   -9.30   18.00
  -8  -4  -7   -4.40   18.60
   8   4   7    1.10   18.20
 -10  -4  -7   12.30   17.90
  10   4   7  -13.30   18.80
 -12  -4  -7   -6.20   18.30
  12   4   7  -18.80   19.80
   9   5  -7   20.90   15.60
  -9   5   7   -1.70   19.60
  -7   5   7   25.10   19.90
  -5   5   7  114.19   22.30
  -3   5   7  -17.10   19.40
  -1   5   7   37.60   20.90
   1   5   7   40.10   20.80
   3   5   7   12.40   19.50
  24   0  -8    9.30   18.40
 -24   0   8  -18.80   19.60
  24   0  -8    9.40   19.60
 -22   0   8   54.99   20.30
  22   0  -8   31.40   18.30
  22   0  -8   70.39   20.60
 -20   0   8    7.20   17.20
  20   0  -8   37.10   16.80
  20   0  -8  -20.30   17.80
  18   0  -8  141.99   17.10
 -18   0   8  129.59   18.30
  18   0  -8  141.99   18.60
  16   0  -8   51.09   15.40
  16   0  -8   38.10   14.00
  14   0  -8  175.88   15.00
  14   0  -8  173.78   15.80
 -12   0   8 1158.08   23.90
  12   0  -8 1148.89   24.50
 -10   0   8  171.78   13.00
  10   0  -8  145.69   13.30
  10   0  -8  175.88   12.70
  -8   0   8   88.19   10.70
   8   0  -8  102.49   10.70
   8   0  -8   96.79   11.50
  -6   0   8  315.27   14.90
   6   0  -8  332.17   15.50
   6   0  -8  343.47   16.10
   4   0  -8   57.09   10.20
   4   0  -8   59.59    9.60
  -4   0   8   46.30    9.60
   2   0  -8 1131.89   21.20
  -2   0   8 1084.79   20.20
   2   0  -8 1104.99   21.20
   2   0  -8 1134.69   20.90
   0   0  -8  419.36   16.50
   0   0  -8  383.46   15.70
   0   0   8  398.96   15.30
  -2   0  -8  641.54   18.20
  -2   0  -8  668.93   19.20
  -4   0  -8   89.09   10.40
  -4   0  -8   87.79   11.00
  -6   0  -8  121.29   11.80
  -6   0  -8  151.08   12.50
  -8   0  -8  221.98   14.40
  -8   0  -8  207.78   14.10
 -10   0  -8   44.90   12.30
 -10   0  -8   34.40   13.20
 -12   0  -8  140.69   15.10
 -12   0  -8  140.99   15.70
 -14   0  -8   92.39   15.40
 -14   0  -8  160.28   17.60
 -16   0  -8   11.50   16.00
 -16   0  -8   -4.50   13.70
 -18   0  -8   41.60   17.60
 -18   0  -8   27.80   15.10
  25  -1  -8  -29.10   19.50
  25  -1  -8   43.00   23.00
 -25   1   8   24.30   21.20
  25   1  -8   48.50   18.80
  25   1  -8   24.50   19.20
  23  -1  -8   46.40   22.20
  23  -1  -8  -40.00   17.70
 -23   1   8   47.80   19.50
  23   1  -8   33.30   18.40
  23   1  -8   12.80   17.10
  21  -1  -8   79.99   20.60
  21  -1  -8   11.10   17.90
  21   1  -8   29.00   16.70
  21   1  -8   20.30   17.10
  19  -1  -8   86.89   18.60
  19  -1  -8   85.99   17.10
  19   1  -8   61.79   16.10
  19   1  -8   72.69   17.70
  17  -1  -8   48.70   15.50
  17  -1  -8   36.50   16.50
  17   1  -8   68.99   15.20
  17   1  -8   42.80   16.00
  15  -1  -8  123.59   15.60
  15  -1  -8  138.09   16.70
 -15   1   8  156.18   17.20
  15   1  -8  107.59   15.70
  15   1  -8  113.29   15.00
  13  -1  -8  126.19   13.40
  13  -1  -8  104.49   15.50
  13   1  -8  106.69   14.10
 -13   1   8  130.39   15.30
  13   1  -8  127.39   14.30
  11  -1  -8    5.90   12.30
  11  -1  -8   12.70   10.00
  11   1  -8   12.60   10.80
 -11   1   8    1.60   11.40
  11   1  -8   36.60   11.70
   9  -1  -8    9.30   12.00
   9  -1  -8   19.20    9.10
   9   1  -8   10.70    9.60
  -9   1   8   16.10   11.40
   9   1  -8   22.30   10.80
   7  -1  -8 1228.48   24.80
   7  -1  -8 1213.48   20.40
  -7   1   8 1230.98   24.00
   7   1  -8 1254.47   24.50
   5  -1  -8    0.50   11.40
  -5   1   8   -2.60   10.70
   5   1  -8    1.60    9.90
   3  -1  -8  267.77   13.80
   3  -1  -8  273.87   17.30
  -3   1   8  274.97   17.40
   3   1  -8  267.27   14.90
   1  -1  -8   17.50    8.10
   1  -1  -8   64.59   11.20
  -1   1   8   41.20   11.70
   1   1  -8   43.90   10.00
   1   1  -8   41.10   11.30
  -1  -1  -8   13.90    8.70
  -1  -1  -8   27.90   11.30
  -1   1  -8   45.40    9.60
   1   1   8   18.70   11.70
  -3  -1  -8   93.99   12.50
  -3  -1  -8   66.49   10.20
  -3   1  -8   79.99   10.90
   3   1   8   95.89   13.00
  -5  -1  -8  197.08   15.10
  -5  -1  -8  175.48   12.40
   5   1   8  220.58   15.50
  -5   1  -8  189.98   13.60
  -7  -1  -8  -18.30   12.30
  -7  -1  -8    6.20   10.60
  -7   1  -8   33.70   10.60
   7   1   8    1.10   13.20
  -9  -1  -8   69.99   14.10
  -9  -1  -8   70.99   12.30
  -9   1  -8   46.10   11.70
   9   1   8   53.29   15.80
  -9   1  -8   63.29   10.90
 -11  -1  -8   66.19   15.10
 -11  -1  -8   87.19   13.80
  11   1   8   84.19   17.70
 -11   1  -8   64.29   12.40
 -11   1  -8   56.49   12.40
 -13  -1  -8   18.80   15.60
 -13  -1  -8    9.10   13.30
 -13   1  -8    5.60   12.50
 -13   1  -8   23.90   12.80
 -15  -1  -8   89.69   18.10
 -15  -1  -8  114.49   15.90
 -15   1  -8  100.49   15.80
 -15   1  -8  115.29   15.70
 -17  -1  -8   57.09   15.70
 -17  -1  -8   79.49   18.50
 -17   1  -8   62.99   16.20
 -17   1  -8   65.59   15.70
 -19  -1  -8  -11.90   14.40
 -19  -1  -8  -19.00   18.10
 -19   1  -8   -6.70   15.40
 -19   1  -8   -8.70   15.50
  22  -2  -8   60.99   22.90
  22   2  -8   66.89   18.50
  22   2  -8   22.70   18.00
  20  -2  -8   22.40   20.20
  20   2  -8    5.00   16.80
  20   2  -8  -11.30   15.70
  18  -2  -8   78.69   19.70
  18   2  -8   63.39   16.60
 -18   2   8  112.59   19.40
  18   2  -8  106.69   17.10
  16  -2  -8   42.60   18.60
  16   2  -8   45.20   14.70
 -16   2   8   25.10   17.20
  16   2  -8   40.70   14.80
  14  -2  -8  129.69   18.10
  14  -2  -8  136.69   14.90
 -14   2   8  145.59   18.10
  14   2  -8  145.29   15.10
  14   2  -8  133.59   15.20
  12  -2  -8  852.41   26.50
 -12   2   8  837.82   25.90
  12   2  -8  832.52   24.80
  10  -2  -8  105.69   15.90
 -10   2   8  100.99   15.10
  10   2  -8  112.59   13.50
   8  -2  -8   89.09   14.70
   8   2  -8   71.29   12.80
  -8   2   8   71.19   14.30
   6  -2  -8  277.67   17.50
   6   2  -8  237.98   15.20
  -6   2   8  269.87   17.20
   4  -2  -8   61.19   14.30
  -4   2   8   32.20   13.90
   4   2  -8   56.99   12.70
   2  -2  -8  770.52   24.50
   2   2  -8  729.43   23.60
  -2   2   8  773.82   24.40
   0  -2  -8  314.47   21.10
   0  -2  -8  320.17   14.60
   0   2  -8  350.86   18.90
   0   2   8  336.57   18.90
  -2  -2  -8  484.35   22.50
  -2  -2  -8  454.65   16.70
  -2   2  -8  463.05   20.00
   2   2   8  438.86   23.20
  -4  -2  -8   70.49   10.60
  -4  -2  -8   65.59   14.70
  -4   2  -8   59.49   11.50
   4   2   8   60.49   16.00
  -6  -2  -8   85.49   11.80
  -6  -2  -8  103.39   15.80
  -6   2  -8  101.29   12.50
   6   2   8   94.09   17.30
  -8  -2  -8  164.58   14.10
  -8  -2  -8  167.48   17.60
   8   2   8  206.68   20.10
  -8   2  -8  172.78   14.90
 -10  -2  -8   40.60   13.20
 -10  -2  -8   16.70   15.80
 -10   2  -8   56.49   13.20
  10   2   8   31.20   19.10
 -12  -2  -8   86.79   17.90
 -12  -2  -8   96.79   15.70
  12   2   8  109.09   22.20
 -12   2  -8   91.19   14.50
 -14  -2  -8   89.79   18.80
 -14  -2  -8   91.09   16.10
  14   2   8   98.69   23.00
 -14   2  -8   92.99   15.60
 -16  -2  -8   -2.30   14.90
 -16  -2  -8   12.90   18.10
 -16   2  -8    9.50   14.10
  16   2   8   31.80   22.60
  21  -3  -8    2.20   22.50
  21   3  -8   -9.10   16.90
  21   3  -8   16.00   17.30
  19  -3  -8   32.00   22.40
  19   3  -8   50.79   17.40
  19   3  -8   65.59   17.80
 -19   3   8   69.19   19.80
  17  -3  -8   14.90   21.60
  17   3  -8   22.20   15.90
 -17   3   8   25.90   18.80
  17   3  -8   26.20   15.60
  15  -3  -8   66.29   20.50
  15   3  -8   90.99   16.10
  15   3  -8   54.99   14.70
 -15   3   8   90.69   19.10
  13  -3  -8   82.19   19.40
 -13   3   8   81.99   18.00
  13   3  -8   69.29   15.10
  11  -3  -8   29.30   18.40
 -11   3   8  -21.30   16.10
  11   3  -8   -6.10   12.90
   9  -3  -8    6.20   16.90
   9   3  -8   -0.20   12.10
  -9   3   8  -13.00   15.00
   7  -3  -8  607.24   27.90
  -7   3   8  628.84   27.50
   7   3  -8  610.54   23.80
   5  -3  -8   16.00   17.20
   5   3  -8    5.00   13.10
  -5   3   8   -3.30   16.40
   3  -3  -8  142.89   18.60
  -3   3   8  140.99   19.00
   3   3  -8  141.39   16.70
   1  -3  -8   34.20   17.00
  -1   3   8   39.70   17.60
  -1  -3  -8   -8.20   15.70
   1   3   8   16.00   17.40
  -3  -3  -8   37.90   17.20
   3   3   8   30.50   17.60
  -5  -3  -8  129.59   18.70
  -5  -3  -8  112.29   14.20
  -5   3  -8  112.29   14.30
   5   3   8  136.49   20.30
  -7  -3  -8   -0.90   11.30
  -7  -3  -8  -13.70   16.30
  -7   3  -8    9.10   12.60
   7   3   8   13.50   18.50
  -9  -3  -8   12.30   17.30
  -9  -3  -8   26.00   13.10
   9   3   8   50.99   20.80
  -9   3  -8   27.60   13.30
 -11  -3  -8   51.19   14.90
 -11  -3  -8   21.40   18.30
  11   3   8   53.69   21.80
 -11   3  -8   33.10   14.30
 -13  -3  -8   19.40   18.80
 -13  -3  -8   15.90   15.10
 -13   3  -8   21.30   14.70
  13   3   8    8.80   22.00
 -15  -3  -8   89.29   20.90
 -15  -3  -8   63.99   17.10
 -15   3  -8   94.39   16.90
  16  -4  -8   -0.80   24.20
 -16   4   8   20.00   19.40
  16   4  -8   -2.90   15.60
  14  -4  -8   57.09   23.80
  14   4  -8   62.69   15.90
 -14   4   8   71.59   20.80
  12  -4  -8  299.47   25.00
 -12   4   8  281.17   23.90
  12   4  -8  301.37   20.60
  10  -4  -8   34.30   22.10
  10   4  -8   43.10   15.60
 -10   4   8   60.49   19.60
   8  -4  -8   75.19   21.00
  -8   4   8   22.80   18.80
   8   4  -8   23.80   15.30
   6  -4  -8  142.69   22.50
  -6   4   8  149.59   21.30
   6   4  -8  124.09   18.20
   4  -4  -8   75.69   21.50
  -4   4   8   29.70   19.80
   2  -4  -8  253.17   24.00
  -2   4   8  253.07   24.10
   0  -4  -8  173.18   22.30
   0   4   8  127.99   21.70
  -2  -4  -8  167.98   21.80
   2   4   8  193.68   22.70
  -4  -4  -8   -2.70   18.70
   4   4   8   17.60   19.40
  -6  -4  -8   75.79   20.60
   6   4   8   54.89   21.00
  -8  -4  -8   90.59   20.70
   8   4   8   55.69   21.30
 -10  -4  -8  -10.30   19.80
  10   4   8   15.00   21.10
  -5   5   8   17.50   20.80
  -3   5   8   18.40   21.00
  -1   5   8   -4.00   20.70
  24   0  -9    9.10   21.20
  24   0  -9   16.60   18.30
 -22   0   9   84.89   21.50
  22   0  -9   79.09   18.70
  22   0  -9   79.89   20.80
  20   0  -9    0.90   16.50
  20   0  -9  -11.60   18.40
 -20   0   9   44.80   18.70
  18   0  -9  -29.10   16.10
  18   0  -9   -8.60   14.60
  16   0  -9   23.10   13.80
  16   0  -9   -6.10   15.10
  14   0  -9  247.38   16.90
  14   0  -9  214.58   17.30
  12   0  -9   21.20   12.00
 -12   0   9   27.70   12.80
  12   0  -9   19.60   14.00
 -10   0   9  133.89   13.20
  10   0  -9  148.49   12.80
  10   0  -9  101.09   13.60
  -8   0   9   24.20   11.00
   8   0  -9   21.50   10.10
   8   0  -9    5.50   11.40
   6   0  -9   49.20   10.90
   6   0  -9   64.89   10.80
   4   0  -9   10.90    9.80
   4   0  -9   14.40   10.20
   2   0  -9   39.90    9.90
   2   0  -9    0.10   10.10
   2   0  -9    5.70   10.30
   0   0  -9   20.80   10.10
   0   0  -9   13.60    9.50
  -2   0  -9  230.78   13.50
  -2   0  -9  218.28   14.10
  -4   0  -9   -4.40   10.30
  -4   0  -9   -0.20   10.70
  -6   0  -9   29.60   10.80
  -6   0  -9   34.80   12.10
  -8   0  -9  519.15   21.70
  -8   0  -9  515.55   21.40
 -10   0  -9   26.80   12.20
 -10   0  -9   -4.50   12.60
 -12   0  -9   11.30   12.80
 -12   0  -9   25.10   14.60
 -14   0  -9  108.09   17.40
 -14   0  -9  101.79   15.20
 -16   0  -9    2.40   16.70
 -16   0  -9   -6.60   14.30
  23  -1  -9    5.20   21.50
  23  -1  -9  -10.80   18.50
 -23   1   9   19.90   20.10
  23   1  -9   -4.40   17.60
  23   1  -9   27.60   17.10
  21  -1  -9   12.40   19.50
  21  -1  -9   34.70   18.50
  21   1  -9   23.10   16.60
  21   1  -9  -11.20   16.90
  19  -1  -9  342.57   21.80
  19   1  -9  293.97   21.10
  19   1  -9  279.17   21.70
  17  -1  -9   52.59   17.20
  17  -1  -9   42.90   14.70
  17   1  -9   26.30   16.70
  17   1  -9   31.40   14.90
  15  -1  -9   29.70   13.10
  15  -1  -9    6.00   16.30
  15   1  -9    6.60   14.60
 -15   1   9    0.70   15.60
  15   1  -9  -27.70   12.60
  13  -1  -9   72.89   16.20
  13  -1  -9   95.69   12.90
  13   1  -9   77.29   13.90
  13   1  -9   71.99   14.10
 -13   1   9  105.39   16.10
  11  -1  -9   44.10   13.50
  11  -1  -9   16.80   10.70
 -11   1   9   38.20   13.30
  11   1  -9   10.70   11.80
  11   1  -9   25.20   12.60
   9  -1  -9   97.39   14.50
   9  -1  -9   78.39   10.70
   9   1  -9   91.59   12.70
   9   1  -9   54.59   10.90
  -9   1   9   82.49   13.60
   7  -1  -9  189.58   11.60
   7  -1  -9  160.38   14.70
   7   1  -9  136.29   11.70
   7   1  -9  173.68   14.00
  -7   1   9  188.38   14.40
   5  -1  -9  328.67   19.80
   5   1  -9  332.57   14.40
   5   1  -9  300.77   17.50
  -5   1   9  320.17   18.60
   3  -1  -9  479.55   20.50
   3  -1  -9  509.25   17.00
   3   1  -9  493.75   20.20
  -3   1   9  506.65   19.40
   1  -1  -9   66.29    9.90
   1  -1  -9   60.09   13.00
   1   1  -9   50.59   10.90
   1   1  -9   83.09   12.50
  -1   1   9   66.49   13.00
  -1  -1  -9  141.59   14.60
  -1  -1  -9  148.29   12.20
  -1   1  -9  164.48   13.10
   1   1   9  173.98   15.10
  -3  -1  -9  450.55   21.60
  -3  -1  -9  447.26   18.60
   3   1   9  437.86   21.20
  -3   1  -9  429.36   20.00
  -5  -1  -9  183.98   16.20
  -5  -1  -9  163.98   13.40
   5   1   9  195.88   17.20
  -5   1  -9  167.48   14.50
  -7  -1  -9   44.60   12.00
  -7  -1  -9   52.89   14.50
  -7   1  -9   36.30   11.70
   7   1   9   54.79   17.20
  -9  -1  -9   77.69   16.00
  -9  -1  -9   86.59   13.30
  -9   1  -9  103.09   13.60
 -11  -1  -9   33.30   16.00
 -11  -1  -9   25.60   13.00
 -11   1  -9   31.40   12.40
 -11   1  -9   30.40   11.90
 -13  -1  -9  165.28   18.50
 -13  -1  -9  145.89   16.50
 -13   1  -9  159.08   16.30
 -13   1  -9  128.79   14.70
 -15  -1  -9   30.70   17.30
 -15  -1  -9   27.20   15.00
 -15   1  -9   15.10   13.50
 -15   1  -9   11.90   14.00
 -17  -1  -9  157.38   18.00
 -17  -1  -9  123.29   20.10
 -17   1  -9  172.18   17.90
 -17   1  -9  152.88   17.30
  22  -2  -9   23.30   22.80
  22  -2  -9   20.60   20.20
  22   2  -9   18.00   18.20
  22   2  -9   47.20   17.60
  20  -2  -9  -49.40   19.70
  20  -2  -9   -3.60   18.20
  20   2  -9    7.50   16.60
  20   2  -9    5.70   16.30
  18  -2  -9   -0.70   16.30
  18  -2  -9    4.90   18.80
 -18   2   9    8.40   19.30
  18   2  -9    5.90   15.00
  18   2  -9    2.20   15.70
  16  -2  -9    9.80   18.40
  16  -2  -9   43.50   19.60
 -16   2   9    2.10   18.30
  16   2  -9   30.50   15.00
  16   2  -9    7.40   14.30
  14  -2  -9  143.49   19.00
 -14   2   9  212.68   20.10
  14   2  -9  193.08   17.10
  14   2  -9  165.38   15.30
  12  -2  -9   13.90   15.50
 -12   2   9    1.40   15.20
  12   2  -9   22.50   12.90
  10  -2  -9  105.09   16.80
 -10   2   9   91.29   16.50
  10   2  -9   84.69   13.90
   8  -2  -9   -1.30   14.70
  -8   2   9    1.10   14.50
   8   2  -9   -9.00   11.60
   6  -2  -9   25.80   15.20
   6   2  -9   26.20   12.50
  -6   2   9   51.49   15.30
   4  -2  -9   12.90   15.30
  -4   2   9   24.10   14.80
   4   2  -9   15.90   12.50
   2  -2  -9   29.60   15.10
   2  -2  -9   28.00    9.00
   2   2  -9   20.90   13.50
  -2   2   9   25.70   15.40
   0  -2  -9    4.10    9.40
   0  -2  -9   -5.40   14.10
   0   2   9    9.70   15.60
  -2  -2  -9  182.08   12.60
  -2  -2  -9  155.38   17.40
  -2   2  -9  161.98   14.30
   2   2   9  178.58   18.90
  -4  -2  -9   -9.30   10.20
  -4  -2  -9    1.20   14.80
   4   2   9    5.80   16.50
  -4   2  -9    2.30   11.20
  -6  -2  -9   19.60   15.10
  -6  -2  -9   18.80   11.20
  -6   2  -9   24.60   11.70
   6   2   9  -16.40   16.90
  -8  -2  -9  411.96   25.90
  -8  -2  -9  401.66   21.40
  -8   2  -9  388.26   22.70
   8   2   9  414.86   28.20
 -10  -2  -9   26.00   17.00
 -10  -2  -9    4.50   13.10
  10   2   9   11.00   20.40
 -10   2  -9   -2.10   13.30
 -12  -2  -9  -14.30   16.90
 -12  -2  -9   19.40   14.00
  12   2   9  -37.60   20.50
 -12   2  -9  -29.60   13.20
 -14  -2  -9   54.69   19.50
 -14  -2  -9   77.69   15.50
 -14   2  -9  104.49   16.50
  14   2   9  108.09   27.60
  19  -3  -9  168.78   24.60
  19   3  -9  161.28   18.60
  19   3  -9  161.48   18.90
 -19   3   9  194.68   23.10
  17  -3  -9   -3.00   21.80
  17   3  -9    7.70   15.50
 -17   3   9    5.50   19.10
  17   3  -9    8.20   15.20
  15  -3  -9   -8.50   20.90
 -15   3   9    2.00   19.20
  15   3  -9    1.80   14.60
  13  -3  -9   86.59   19.80
 -13   3   9   66.19   19.20
  13   3  -9   44.00   15.10
  11  -3  -9  -29.70   18.90
 -11   3   9   16.60   18.00
  11   3  -9    0.60   13.10
   9  -3  -9   30.60   18.20
  -9   3   9   40.90   18.20
   9   3  -9   21.30   13.10
   7  -3  -9  111.29   19.50
  -7   3   9  105.99   19.40
   7   3  -9  101.49   16.10
   5  -3  -9  136.49   20.40
   5   3  -9  161.48   17.70
  -5   3   9  216.28   21.40
   3  -3  -9  276.97   22.30
  -3   3   9  242.68   22.00
   3   3  -9  249.48   19.30
   1  -3  -9   22.60   18.10
  -1   3   9   49.20   19.40
  -1  -3  -9   92.99   18.60
   1   3   9   82.19   20.40
  -3  -3  -9  225.38   21.10
   3   3   9  249.78   23.00
  -5  -3  -9  134.19   19.30
  -5   3  -9   78.19   15.00
   5   3   9  149.88   22.30
  -7  -3  -9   41.80   13.10
  -7  -3  -9   57.59   18.80
  -7   3  -9   -0.30   13.10
   7   3   9   27.40   20.80
  -9  -3  -9   22.10   18.60
  -9  -3  -9   68.99   14.30
  -9   3  -9   53.49   14.70
   9   3   9   90.69   22.90
 -11  -3  -9   21.60   14.30
 -11  -3  -9   27.80   19.30
 -11   3  -9   31.30   15.20
  11   3   9  -13.80   21.60
 -13  -3  -9  126.99   16.80
 -13  -3  -9  100.39   21.40
  13   3   9   76.59   24.90
 -13   3  -9   87.39   16.70
  14  -4  -9   76.89   25.10
  14   4  -9   77.39   17.00
 -14   4   9   73.39   21.40
  12  -4  -9   11.30   22.30
  12   4  -9  -18.60   14.40
 -12   4   9    4.20   19.50
  10  -4  -9   26.80   22.50
 -10   4   9   42.80   20.40
  10   4  -9  -19.70   15.10
   8  -4  -9  -11.00   20.90
  -8   4   9    6.70   19.60
   8   4  -9   -0.60   15.70
   6  -4  -9   32.70   22.10
   6   4  -9   13.20   16.20
  -6   4   9  -19.50   19.60
   4  -4  -9    7.20   21.50
  -4   4   9    1.60   20.10
   2  -4  -9   13.40   21.10
  -2   4   9  -13.40   21.00
   0  -4  -9    3.40   20.10
   0   4   9    1.30   21.20
  -2  -4  -9   71.19   21.30
   2   4   9   71.39   22.30
  -4  -4  -9   -3.00   19.30
   4   4   9  -12.70   20.70
  -6  -4  -9    1.10   19.60
   6   4   9  -14.50   21.20
  -8  -4  -9  197.78   23.40
   8   4   9  197.78   25.20
  22   0 -10    7.90   20.40
  22   0 -10   13.30   17.10
  20   0 -10   52.19   19.80
  20   0 -10   40.70   17.10
  18   0 -10    4.00   15.50
  18   0 -10   10.70   18.10
  16   0 -10   -5.80   16.10
  16   0 -10   47.40   15.10
  14   0 -10   87.89   14.70
  14   0 -10  100.69   16.00
  12   0 -10  107.69   16.10
  12   0 -10  121.69   14.20
  10   0 -10  148.69   14.10
  10   0 -10  142.19   15.20
   8   0 -10   46.60   13.00
   8   0 -10   40.80   12.10
   6   0 -10   47.10   12.00
   6   0 -10   57.59   11.70
   4   0 -10  191.68   14.30
   4   0 -10  194.78   13.80
   2   0 -10  171.58   13.30
   2   0 -10  195.88   14.20
   0   0 -10    4.10   11.30
   0   0 -10   27.00   11.10
  -2   0 -10   18.80   11.20
  -2   0 -10   19.90   11.70
  -4   0 -10   11.60   12.10
  -4   0 -10   -1.40   11.70
  -6   0 -10  175.08   15.00
  -6   0 -10  144.59   14.40
  -8   0 -10   10.30   11.80
  -8   0 -10    2.20   13.20
 -10   0 -10  220.08   17.50
 -10   0 -10  186.88   16.10
 -12   0 -10   24.40   13.20
 -12   0 -10   10.10   15.30
 -14   0 -10   25.90   13.30
 -14   0 -10    8.20   15.90
 -16   0 -10    9.90   16.30
 -16   0 -10   12.60   14.40
  23  -1 -10   14.00   18.00
  23  -1 -10   12.90   21.10
  23   1 -10   13.00   17.90
 -23   1  10   -7.90   20.60
  23   1 -10   23.10   18.70
  21  -1 -10  113.49   22.00
  21  -1 -10  140.19   19.10
  21   1 -10  104.49   20.30
  21   1 -10  147.89   19.70
  19  -1 -10   10.00   15.90
  19  -1 -10  -12.70   18.10
  19   1 -10   13.90   17.80
  19   1 -10   36.60   16.20
  17  -1 -10   17.00   14.30
  17  -1 -10   -9.00   16.60
  17   1 -10   -7.50   14.50
  17   1 -10   -4.40   17.20
  15  -1 -10   26.00   13.50
  15  -1 -10   -1.50   17.20
  15   1 -10    9.80   15.20
 -15   1  10   25.00   17.60
  15   1 -10   42.60   14.30
  13  -1 -10   10.20   12.10
  13  -1 -10   10.10   15.90
  13   1 -10   -7.90   13.60
  13   1 -10   -3.40   13.00
 -13   1  10  -30.90   15.20
  11  -1 -10    1.40   14.30
  11  -1 -10   28.00   11.40
  11   1 -10   22.50   12.70
 -11   1  10   25.80   14.40
  11   1 -10   18.30   12.60
   9  -1 -10   53.69   15.10
   9  -1 -10   95.09   12.20
  -9   1  10   60.89   14.70
   9   1 -10   60.29   12.00
   9   1 -10   38.10   12.80
   7  -1 -10   10.30   13.70
  -7   1  10   10.10   13.00
   7   1 -10   13.90   11.80
   7   1 -10   23.70   11.10
   5  -1 -10  109.19   15.10
   5   1 -10   59.19   13.30
  -5   1  10   80.59   14.60
   3  -1 -10   22.50   10.80
   3  -1 -10   54.19   14.50
   3   1 -10    8.50   13.20
  -3   1  10   36.70   13.80
   1  -1 -10   93.99   14.80
   1  -1 -10   55.19   11.30
  -1   1  10  117.99   15.70
   1   1 -10   73.39   13.00
  -1  -1 -10  502.05   20.30
  -1  -1 -10  547.15   22.70
  -1   1 -10  488.95   21.60
   1   1  10  496.65   26.20
  -3  -1 -10   39.90   11.80
  -3  -1 -10   94.39   14.80
  -3   1 -10   34.00   12.00
  -5  -1 -10   25.30   14.40
  -5  -1 -10   -4.00   11.00
  -5   1 -10    7.40   11.70
  -7  -1 -10   24.70   12.50
  -7  -1 -10   36.80   15.30
  -7   1 -10   34.20   13.10
  -9  -1 -10  -12.80   11.90
  -9  -1 -10    1.00   15.80
  -9   1 -10    1.00   12.60
 -11  -1 -10   64.69   17.00
 -11  -1 -10  100.69   15.00
 -11   1 -10   75.29   13.30
 -11   1 -10   74.99   14.60
 -13  -1 -10   25.50   14.10
 -13  -1 -10    3.80   17.60
 -13   1 -10   18.30   13.50
 -13   1 -10   11.10   12.60
 -15  -1 -10   98.29   16.20
 -15  -1 -10   96.39   19.80
 -15   1 -10   57.39   15.00
 -15   1 -10   58.09   14.10
  20  -2 -10   20.00   21.00
  20   2 -10   36.10   17.30
  20   2 -10   26.10   16.50
  18  -2 -10   -2.60   19.30
 -18   2  10   39.10   20.10
  18   2 -10   29.00   16.00
  18   2 -10   -1.00   15.40
  16  -2 -10   26.50   19.60
  16   2 -10   30.90   15.10
 -16   2  10   25.60   19.60
  16   2 -10   38.50   15.30
  14  -2 -10   68.59   19.00
  14   2 -10   36.60   14.10
 -14   2  10   83.19   19.70
  14   2 -10   78.09   15.10
  12  -2 -10   62.89   17.60
 -12   2  10   73.39   17.80
  12   2 -10   80.89   14.90
  10  -2 -10   79.69   17.70
 -10   2  10  101.79   18.00
  10   2 -10   96.39   14.90
   8  -2 -10   50.19   16.50
  -8   2  10   25.10   16.20
   8   2 -10   43.10   13.40
   6  -2 -10   44.00   16.60
  -6   2  10   71.59   17.10
   6   2 -10   42.40   14.00
   4  -2 -10  129.09   18.00
  -4   2  10  158.78   18.80
   4   2 -10  130.19   16.50
   2  -2 -10  123.99   12.00
   2  -2 -10  158.18   18.40
  -2   2  10  124.79   19.00
   0  -2 -10  -34.30   15.00
   0  -2 -10    7.20   10.70
   0   2  10  -18.50   17.10
  -2  -2 -10   10.90   15.60
  -2  -2 -10   23.00   11.60
   2   2  10   11.40   17.10
  -2   2 -10    8.00   12.70
  -4  -2 -10    6.60   15.60
  -4  -2 -10   25.20   11.90
   4   2  10    5.40   18.70
  -4   2 -10   11.70   12.70
  -6  -2 -10  130.19   18.40
  -6  -2 -10  117.79   14.40
  -6   2 -10  120.19   15.00
   6   2  10  170.18   21.70
  -8  -2 -10  -21.30   16.20
  -8  -2 -10   -2.50   12.80
   8   2  10   -1.00   19.60
  -8   2 -10    2.10   12.80
 -10  -2 -10  166.68   16.50
 -10  -2 -10  163.88   20.20
 -10   2 -10  160.58   16.90
  10   2  10  167.78   27.40
 -12  -2 -10   12.70   14.60
 -12  -2 -10   21.10   18.50
 -12   2 -10    5.30   15.00
  17  -3 -10    4.10   22.50
 -17   3  10   -6.50   21.30
  17   3 -10   28.00   16.70
  15  -3 -10  -20.50   21.10
  15   3 -10   15.90   15.50
 -15   3  10    2.60   20.10
  13  -3 -10  -33.00   19.10
 -13   3  10   -8.40   18.80
  13   3 -10   11.00   14.60
  11  -3 -10    7.30   20.00
 -11   3  10  -20.30   19.20
  11   3 -10   28.70   14.10
   9  -3 -10   32.50   19.30
  -9   3  10   29.20   20.00
   9   3 -10   29.90   14.50
   7  -3 -10   24.90   19.50
   7   3 -10    7.00   14.50
  -7   3  10   42.10   19.90
   5  -3 -10   45.90   19.80
   5   3 -10   75.39   16.60
  -5   3  10   91.99   21.20
   3  -3 -10   32.50   19.40
  -3   3  10  -14.20   19.20
   1  -3 -10   36.00   19.60
  -1   3  10   60.49   21.10
  -1  -3 -10  265.47   22.90
   1   3  10  243.28   24.50
  -3  -3 -10    8.10   18.00
   3   3  10   -0.90   20.40
  -5  -3 -10   -0.20   18.40
   5   3  10   15.30   21.60
  -5   3 -10  -29.60   13.60
  -7  -3 -10   14.20   18.40
   7   3  10   66.49   22.40
  -7   3 -10   24.10   14.40
  -9  -3 -10  -38.20   18.10
  -9  -3 -10   18.50   17.90
   9   3  10    5.30   22.20
  -9   3 -10    1.80   14.30
  12  -4 -10   55.29   23.20
 -12   4  10   25.50   22.10
  12   4 -10   58.39   17.70
  10  -4 -10   15.60   23.40
  10   4 -10   74.39   17.50
 -10   4  10   70.79   22.20
   8  -4 -10   -8.20   21.80
  -8   4  10    6.60   20.50
   8   4 -10   24.50   17.00
   6  -4 -10   27.40   22.60
  -6   4  10   19.10   21.70
   4  -4 -10   43.60   22.70
  -4   4  10   34.20   22.50
   2  -4 -10   99.99   23.60
  -2   4  10   94.19   23.50
   0  -4 -10   -5.40   21.30
   0   4  10  -14.20   22.40
  -2  -4 -10   11.10   21.20
   2   4  10   63.39   23.80
  -4  -4 -10    8.70   20.30
   4   4  10  -29.70   22.00
  22   0 -11   14.80   21.00
  22   0 -11   -1.30   17.40
  20   0 -11   68.19   17.90
  20   0 -11   28.30   19.70
  18   0 -11   47.90   16.00
  18   0 -11    5.10   18.20
  16   0 -11  -21.10   16.60
  16   0 -11   26.40   14.80
  14   0 -11   16.00   14.20
  14   0 -11    7.20   16.00
  12   0 -11  225.78   18.70
  12   0 -11  276.17   17.60
  10   0 -11   31.80   13.10
  10   0 -11   24.40   14.40
   8   0 -11   66.09   14.30
   8   0 -11   24.30   12.50
   6   0 -11  974.70   24.90
   6   0 -11  952.70   25.30
   4   0 -11   29.60   13.00
   4   0 -11    6.40   13.10
   2   0 -11   27.50   12.50
   2   0 -11   30.60   13.30
   0   0 -11  211.68   15.50
   0   0 -11  203.68   15.20
  -2   0 -11   -1.50   11.80
  -2   0 -11   10.50   12.70
  -4   0 -11   54.29   13.50
  -4   0 -11   53.29   13.80
  -6   0 -11  159.78   16.10
  -6   0 -11  146.09   15.60
  -8   0 -11  121.69   15.90
  -8   0 -11  152.28   16.00
 -10   0 -11  120.09   15.80
 -10   0 -11  112.39   16.50
 -12   0 -11   23.10   13.70
 -12   0 -11   46.00   16.10
 -14   0 -11   15.30   14.40
  21  -1 -11   45.80   18.20
  21  -1 -11   41.10   20.90
  21   1 -11   12.30   19.40
  21   1 -11   30.20   17.30
  19  -1 -11   39.30   19.50
  19  -1 -11   53.99   16.60
  19   1 -11   12.20   18.30
  19   1 -11   51.39   16.80
  17  -1 -11  151.98   17.00
  17  -1 -11  109.19   19.20
  17   1 -11   87.29   18.90
  17   1 -11  115.99   17.80
  15  -1 -11   19.50   18.60
  15  -1 -11   47.70   14.50
  15   1 -11   47.50   16.80
  15   1 -11   52.39   15.70
 -15   1  11   40.20   19.80
  13  -1 -11   20.70   17.20
  13  -1 -11   27.50   13.20
 -13   1  11   -3.20   17.90
  13   1 -11   22.90   14.30
  13   1 -11   18.90   14.50
  11  -1 -11  211.28   18.30
  11  -1 -11  288.17   19.20
 -11   1  11  291.57   21.50
  11   1 -11  208.68   17.30
   9  -1 -11  135.69   17.60
   9  -1 -11  152.68   22.50
   9   1 -11  180.88   16.00
  -9   1  11  178.08   21.30
   7  -1 -11    7.20   14.90
   7   1 -11   15.40   13.50
   5  -1 -11   54.59   15.60
   5   1 -11   89.19   15.30
   3  -1 -11    6.10   15.50
   3  -1 -11   16.40   12.30
   3   1 -11   35.40   14.80
   1  -1 -11  284.67   18.90
   1  -1 -11  323.77   20.20
   1   1 -11  265.47   17.90
  -1  -1 -11   71.79   12.90
  -1  -1 -11   55.09   15.90
  -1   1 -11   50.69   13.10
  -3  -1 -11  187.58   15.90
  -3  -1 -11  229.98   18.80
  -3   1 -11  204.98   16.20
  -5  -1 -11   -7.40   14.90
  -5  -1 -11   16.60   13.10
  -5   1 -11   19.00   12.80
  -7  -1 -11  112.59   17.60
  -7  -1 -11  107.99   15.10
  -7   1 -11   95.49   15.00
  -9  -1 -11    6.00   13.30
  -9  -1 -11   16.20   16.40
  -9   1 -11   -6.00   13.60
 -11  -1 -11   33.00   14.30
 -11  -1 -11   14.70   17.10
 -11   1 -11    1.50   13.80
 -13  -1 -11   20.20   18.20
 -13  -1 -11   30.30   14.60
 -13   1 -11    8.40   14.10
 -13   1 -11   18.20   12.80
  20  -2 -11  -25.90   20.40
  20   2 -11    4.50   16.30
  20   2 -11    2.90   16.10
  18  -2 -11    8.60   19.80
 -18   2  11   44.50   20.80
  18   2 -11   20.20   15.60
  18   2 -11   23.40   15.50
  16  -2 -11    0.50   19.90
 -16   2  11   36.40   20.60
  16   2 -11   11.80   14.90
  16   2 -11   14.60   14.80
  14  -2 -11  -19.20   18.80
 -14   2  11   -7.20   19.40
  14   2 -11   14.80   15.00
  12  -2 -11  185.98   19.90
  12   2 -11  156.18   17.30
 -12   2  11  179.78   21.40
  10  -2 -11   -1.60   17.30
 -10   2  11   -0.80   17.50
  10   2 -11    4.10   13.30
   8  -2 -11   41.00   17.90
   8   2 -11   37.30   14.60
  -8   2  11   59.49   18.40
   6  -2 -11  738.93   29.70
   6   2 -11  699.93   27.20
  -6   2  11  675.73   29.90
   4  -2 -11   10.80   17.60
   4   2 -11   15.50   15.60
  -4   2  11   -5.30   18.20
   2  -2 -11   18.60   17.50
   2  -2 -11   30.40   14.10
  -2   2  11   12.50   18.90
   0  -2 -11  147.29   14.20
   0  -2 -11  165.48   19.50
   0   2  11  210.28   21.90
  -2  -2 -11    2.60   16.10
  -2  -2 -11   -0.10   12.30
   2   2  11    4.20   19.40
  -2   2 -11    8.00   13.50
  -4  -2 -11   52.49   13.90
  -4  -2 -11   51.39   17.60
   4   2  11   10.00   21.50
  -4   2 -11   24.00   13.70
  -6  -2 -11  105.19   14.90
  -6  -2 -11   91.09   18.50
  -6   2 -11  125.19   15.90
  -8  -2 -11   80.19   14.80
  -8  -2 -11   88.79   19.30
  -8   2 -11   98.49   16.00
 -10  -2 -11  104.99   19.60
 -10  -2 -11  126.39   16.80
 -10   2 -11   79.29   15.70
  15  -3 -11   22.10   22.60
  15   3 -11   23.20   15.90
 -15   3  11   29.40   21.40
  13  -3 -11   35.80   20.60
  13   3 -11   12.70   14.60
 -13   3  11   42.60   20.80
  11  -3 -11  138.89   23.00
 -11   3  11  165.18   23.10
  11   3 -11  112.69   17.20
   9  -3 -11   96.39   21.10
   9   3 -11   91.49   17.60
  -9   3  11  112.49   22.40
   7  -3 -11   41.70   20.70
  -7   3  11  -13.00   20.80
   7   3 -11    8.00   15.30
   5  -3 -11   69.19   20.90
  -5   3  11   17.40   21.40
   5   3 -11   22.50   16.10
   3  -3 -11   51.99   21.40
  -3   3  11   37.20   21.60
   1  -3 -11   97.79   21.20
  -1   3  11  159.58   24.40
  -1  -3 -11   21.30   19.50
   1   3  11   -2.80   21.50
  -3  -3 -11   92.59   20.50
   3   3  11  134.39   23.80
  -5  -3 -11   -2.00   18.70
   5   3  11   18.90   22.50
  -7  -3 -11   39.80   19.80
  -7   3 -11   64.39   16.40
   7   3  11   72.49   24.40
   6  -4 -11  343.67   27.70
  -6   4  11  306.97   28.70
   4  -4 -11   32.10   22.60
  -4   4  11   -9.50   22.70
   2  -4 -11   25.10   23.40
  -2   4  11  -26.10   22.60
  20   0 -12   22.40   20.00
  20   0 -12   28.10   17.20
  18   0 -12   48.60   16.70
  18   0 -12   45.40   19.10
  16   0 -12   20.50   18.00
  16   0 -12   50.59   16.10
  14   0 -12   32.40   14.90
  14   0 -12   28.60   16.80
  12   0 -12   30.70   17.10
  12   0 -12   30.00   14.70
  10   0 -12    4.10   13.10
  10   0 -12   -0.70   15.10
   8   0 -12   60.09   15.00
   8   0 -12   72.89   14.50
   6   0 -12   44.50   14.80
   6   0 -12   44.10   14.70
   4   0 -12   91.39   14.70
   2   0 -12   45.20   14.30
   2   0 -12   54.29   14.10
   0   0 -12   50.49   14.40
   0   0 -12   43.40   13.90
  -2   0 -12   16.60   13.20
  -2   0 -12    6.40   13.60
  -4   0 -12   19.40   13.40
  -4   0 -12   31.10   13.70
  -6   0 -12    9.80   14.00
  -6   0 -12   24.50   14.30
  -8   0 -12   23.00   14.40
  -8   0 -12   15.20   14.30
 -10   0 -12   22.50   14.50
 -10   0 -12   17.10   14.90
  19  -1 -12   17.10   19.90
  19  -1 -12   79.19   16.90
  19   1 -12   30.30   19.00
  19   1 -12   57.49   17.70
  17  -1 -12   23.20   17.20
  17  -1 -12  -40.10   17.90
  17   1 -12   13.10   15.50
  17   1 -12   34.50   18.20
  15  -1 -12   -6.90   18.70
  15   1 -12    2.90   16.10
  15   1 -12   18.50   15.20
  13   1 -12  268.67   19.90
  11  -1 -12   -9.60   15.60
  11   1 -12   22.00   14.70
  11   1 -12   -5.00   13.40
   9  -1 -12   38.20   17.20
   9   1 -12   37.80   12.90
   9   1 -12   67.19   15.30
   7  -1 -12   45.40   16.50
   7   1 -12   18.90   15.60
   5  -1 -12    9.70   16.00
   5   1 -12  -10.00   15.10
   3  -1 -12    6.70   16.30
   1  -1 -12   60.89   16.70
   1  -1 -12   48.30   13.50
  -1  -1 -12   71.19   16.90
  -1  -1 -12   80.79   14.90
  -1   1 -12   67.89   15.00
  -3  -1 -12  289.87   20.10
  -3  -1 -12  241.28   17.90
  -3   1 -12  221.18   18.00
  -5  -1 -12   17.20   14.50
  -5  -1 -12    1.10   16.40
  -5   1 -12   -6.40   13.10
  -7  -1 -12   -2.60   15.70
  -7  -1 -12    2.60   14.30
  -7   1 -12  -11.10   12.90
  -9  -1 -12  142.39   19.30
  -9  -1 -12  139.49   17.20
  -9   1 -12  135.69   16.90
  18  -2 -12   -1.80   20.00
  18   2 -12   32.00   16.90
 -18   2  12   43.30   22.00
  18   2 -12   36.50   16.00
  16  -2 -12   38.20   21.10
  16   2 -12   18.50   14.40
 -16   2  12   57.29   22.10
  16   2 -12   36.20   16.40
  14  -2 -12   29.40   19.90
  14   2 -12   24.20   15.30
 -14   2  12   31.00   20.90
  12  -2 -12   20.60   18.30
  12   2 -12    9.00   14.40
 -12   2  12   30.90   19.70
  10  -2 -12   14.20   19.00
 -10   2  12   -8.10   19.40
  10   2 -12  -16.40   14.00
   8  -2 -12  -13.10   18.20
  -8   2  12   68.89   20.30
   8   2 -12   64.49   16.90
   6  -2 -12   42.50   19.20
   6   2 -12   36.30   16.40
  -6   2  12   66.19   20.80
   4  -2 -12   97.59   20.30
  -4   2  12   66.79   21.40
   2  -2 -12   43.50   18.90
   0  -2 -12   43.70   18.80
   0  -2 -12   27.50   14.70
  -2  -2 -12  -16.00   17.40
  -2  -2 -12   -4.90   13.10
  -2   2 -12   21.30   14.70
  -4  -2 -12   -7.40   13.60
  -4  -2 -12   -7.40   16.70
  -4   2 -12  -20.50   13.50
  -6  -2 -12   31.80   18.50
  -6  -2 -12   15.30   14.60
  -6   2 -12   15.00   14.30
  -8  -2 -12   44.60   15.30
  -8  -2 -12   55.69   18.40
  -8   2 -12   53.69   15.60
  13  -3 -12  125.29   22.70
 -13   3  12  240.18   25.00
  13   3 -12  126.79   18.10
  11  -3 -12  -26.60   21.20
  11   3 -12  -10.30   15.60
 -11   3  12  -43.10   20.90
   9  -3 -12   33.40   20.70
  -9   3  12   22.50   21.70
   9   3 -12   23.80   16.40
   7  -3 -12   29.60   20.80
   7   3 -12   39.10   16.90
  -7   3  12   -7.10   21.50
   5  -3 -12    7.10   20.40
  -5   3  12   23.60   22.10
   3  -3 -12  -24.50   20.50
  -3   3  12  -45.20   21.70
   1  -3 -12   46.10   21.10
  -1   3  12   29.80   22.80
  -1  -3 -12   50.99   21.20
   1   3  12   74.29   23.90
  -3  -3 -12  146.29   21.60
   3   3  12  230.58   26.60
  18   0 -13  -10.90   18.90
  18   0 -13   20.70   16.20
  16   0 -13   21.20   15.70
  16   0 -13    4.90   18.80
  14   0 -13   41.10   16.10
  14   0 -13   -6.10   16.90
  12   0 -13   10.70   14.70
  12   0 -13   23.90   17.60
  10   0 -13   -7.10   14.50
  10   0 -13   -4.10   16.10
   8   0 -13   53.99   15.50
   8   0 -13   74.29   16.40
   6   0 -13   40.00   16.00
   6   0 -13   14.80   14.80
   4   0 -13  104.49   15.60
   2   0 -13   44.40   14.50
   0   0 -13   -2.20   14.30
   0   0 -13    4.90   14.40
  -2   0 -13  123.29   16.00
  -2   0 -13   85.09   16.40
  -4   0 -13   53.99   14.70
  -4   0 -13   73.89   15.60
  -6   0 -13   35.20   14.00
  -6   0 -13   -1.00   13.90
  -8   0 -13   17.60   14.20
  -8   0 -13   46.40   15.30
  17  -1 -13   -6.20   18.60
  17   1 -13    4.70   16.30
  17   1 -13  -30.50   16.90
  15  -1 -13   50.39   20.50
  15   1 -13   19.90   16.10
  15   1 -13   58.39   17.10
  13  -1 -13   31.00   19.00
  13   1 -13   24.40   15.20
  13   1 -13   15.40   14.90
  11  -1 -13    6.40   17.10
  11   1 -13   31.00   14.40
  11   1 -13   42.40   15.90
   9  -1 -13    0.30   17.90
   9   1 -13   -4.80   16.00
   7  -1 -13   50.59   17.20
   7   1 -13   39.00   17.30
   5  -1 -13   22.80   17.10
   3  -1 -13   16.20   17.10
   1  -1 -13   18.20   15.10
   1  -1 -13   36.90   17.50
  -1  -1 -13   49.60   15.50
  -1  -1 -13   52.29   17.40
  -1   1 -13    9.40   15.10
  -3  -1 -13    3.00   14.60
  -3  -1 -13   -0.10   16.60
  -3   1 -13   -3.40   14.30
  -5  -1 -13   10.60   14.80
  -5  -1 -13    3.10   15.90
  -5   1 -13   25.60   14.60
  -7  -1 -13  114.19   17.60
  -7  -1 -13  101.19   18.80
  -7   1 -13   92.29   16.30
  14  -2 -13   44.20   20.80
  14   2 -13   60.59   16.20
  12  -2 -13   35.80   19.30
  12   2 -13    4.60   15.60
  10  -2 -13  -15.10   18.90
  10   2 -13  -25.70   15.90
   8  -2 -13   46.80   19.30
   8   2 -13   37.50   17.70
   6  -2 -13   41.80   19.50
   6   2 -13   13.70   17.50
   4  -2 -13  120.09   20.60
   2  -2 -13   28.20   19.70
   0  -2 -13   12.30   18.70
  -2  -2 -13   92.39   20.00
  -2  -2 -13   70.39   18.90
  -4  -2 -13   78.19   15.90
  -4  -2 -13   69.59   19.00
  -4   2 -13   36.90   16.00
   5  -3 -13   18.30   21.00
  -5   3  13   -1.10   23.30
  14   0 -14   25.00   15.90
  14   0 -14   12.80   16.90
  12   0 -14    5.70   15.70
  12   0 -14    2.60   17.90
  10   0 -14  -20.90   25.10
  10   0 -14    0.30   16.40
   8   0 -14    9.40   14.90
   6   0 -14   66.49   15.90
   4   0 -14   14.80   14.20
   2   0 -14  -13.80   13.90
   0   0 -14  195.78   16.90
   0   0 -14  200.48   19.70
  -2   0 -14   -6.70   14.90
  -2   0 -14  -29.90   14.00
  -4   0 -14   46.80   14.60
  -4   0 -14   91.79   17.30
  13  -1 -14   37.80   19.80
  13   1 -14   14.80   16.90
  13   1 -14   -9.40   14.50
  11  -1 -14  119.79   20.00
  11   1 -14  165.68   20.30
   9  -1 -14   -6.10   18.30
   9   1 -14   -2.80   17.20
   7  -1 -14    4.60   18.00
   7   1 -14  -17.80   17.30
   5  -1 -14  132.29   19.80
   3  -1 -14   35.30   18.00
   1  -1 -14   23.00   18.00
  -1  -1 -14   43.90   18.70
  -1  -1 -14   53.59   16.40
  -3  -1 -14   25.00   16.10
  -3  -1 -14   22.50   17.80
  -3   1 -14   16.10   15.70
   8  -2 -14   -9.40   18.90
   8   2 -14  -16.30   17.60
   6  -2 -14   90.29   21.10
   4  -2 -14   18.10   19.40
   2  -2 -14    4.80   19.90
   8   0 -15   17.80   15.50
   6   0 -15   10.80   14.70
   4   0 -15    5.50   14.90
   0   0   0    0.00    0.00



_computing_structure_solution     'SHELXT 2014/5 (Sheldrick, 2014)'
_computing_structure_solution     'SHELXT 2014/5 (Sheldrick, 2014)'
_computing_structure_solution     'SHELXT 2014/5 (Sheldrick, 2014)'
;
_shelx_hkl_checksum              69071
_olex2_submission_special_instructions 'No special instructions were received'
loop_
_space_group_symop_operation_xyz
'x, y, z'
'-x, y, -z'
'x+1/2, y+1/2, z'
'-x+1/2, y+1/2, -z'
'-x, -y, -z'
'x, -y, z'
'-x+1/2, -y+1/2, -z'
'x+1/2, -y+1/2, z'
loop_
_atom_site_label
_atom_site_type_symbol
_atom_site_fract_x
_atom_site_fract_y
_atom_site_fract_z
_atom_site_U_iso_or_equiv
_atom_site_adp_type
_atom_site_occupancy
_atom_site_site_symmetry_order
_atom_site_calc_flag
_atom_site_refinement_flags_posn
_atom_site_refinement_flags_adp
_atom_site_refinement_flags_occupancy
_atom_site_disorder_assembly
_atom_site_disorder_group
Cu1 Cu 0.57704(8) 0.5000 1.01549(14) 0.0218(3) Uani 1 2 d S T P . .
Cu2 Cu 0.51927(8) 0.0000 0.14887(14) 0.0209(3) Uani 1 2 d S T P . .
Cu3 Cu 0.61175(9) 0.5000 0.28490(14) 0.0271(4) Uani 1 2 d S T P . .
Cu4 Cu 0.70417(9) 0.0000 0.43507(18) 0.0316(4) Uani 1 2 d S T P . .
K1 K 0.5000 0.0000 0.5000 0.0255(8) Uani 1 4 d S T P . .
K2 K 0.67080(14) 0.0000 0.7755(3) 0.0254(6) Uani 1 2 d S T P . .
S1 S 0.47141(14) 0.5000 0.2142(2) 0.0140(5) Uani 1 2 d S T P . .
S2 S 0.65674(14) 0.5000 0.5160(2) 0.0146(5) Uani 1 2 d S T P . .
Te1 Te 0.66554(4) 0.0000 1.13500(7) 0.0163(2) Uani 1 2 d S T P . .
loop_
_atom_site_aniso_label
_atom_site_aniso_U_11
_atom_site_aniso_U_22
_atom_site_aniso_U_33
_atom_site_aniso_U_23
_atom_site_aniso_U_13
_atom_site_aniso_U_12
Cu1 0.0271(7) 0.0181(8) 0.0169(6) 0.000 -0.0025(5) 0.000
Cu2 0.0266(7) 0.0113(7) 0.0257(7) 0.000 0.0074(5) 0.000
Cu3 0.0353(8) 0.0240(9) 0.0179(7) 0.000 -0.0030(5) 0.000
Cu4 0.0331(8) 0.0150(8) 0.0492(10) 0.000 0.0141(7) 0.000
K1 0.0306(19) 0.022(2) 0.0222(16) 0.000 0.0010(13) 0.000
K2 0.0261(13) 0.0222(14) 0.0265(12) 0.000 0.0029(9) 0.000
S1 0.0165(11) 0.0082(13) 0.0162(11) 0.000 0.0013(8) 0.000
S2 0.0181(11) 0.0122(13) 0.0128(11) 0.000 0.0017(8) 0.000
Te1 0.0166(3) 0.0127(4) 0.0181(3) 0.000 0.0007(2) 0.000
loop_
_atom_type_symbol
_atom_type_description
_atom_type_scat_dispersion_real
_atom_type_scat_dispersion_imag
_atom_type_scat_source
Cu Cu 0.3201 1.2651 'International Tables Vol C Tables 4.2.6.8 and 6.1.1.4'
K K 0.2009 0.2494 'International Tables Vol C Tables 4.2.6.8 and 6.1.1.4'
S S 0.1246 0.1234 'International Tables Vol C Tables 4.2.6.8 and 6.1.1.4'
Te Te -0.5308 1.6751 'International Tables Vol C Tables 4.2.6.8 and 6.1.1.4'
loop_
_geom_angle_atom_site_label_1
_geom_angle_atom_site_label_2
_geom_angle_atom_site_label_3
_geom_angle
_geom_angle_site_symmetry_1
_geom_angle_site_symmetry_3
_geom_angle_publ_flag
Cu1 Cu1 Cu2 57.45(5) 5_667 5_666 ?
Cu1 Cu1 Cu2 57.45(5) 5_667 5_656 ?
Cu1 Cu1 K2 121.04(7) 5_667 1_565 ?
Cu1 Cu1 K2 121.04(7) 5_667 . ?
Cu2 Cu1 Cu1 64.09(6) 1_556 5_667 ?
Cu2 Cu1 Cu1 64.09(6) 1_566 5_667 ?
Cu2 Cu1 Cu2 121.54(8) 1_566 5_656 ?
Cu2 Cu1 Cu2 85.77(9) 5_656 5_666 ?
Cu2 Cu1 Cu2 62.27(8) 1_566 5_666 ?
Cu2 Cu1 Cu2 93.14(9) 1_566 1_556 ?
Cu2 Cu1 Cu2 121.54(8) 1_556 5_666 ?
Cu2 Cu1 Cu2 62.27(8) 1_556 5_656 ?
Cu2 Cu1 K2 65.45(8) 5_666 1_565 ?
Cu2 Cu1 K2 101.99(7) 1_566 1_565 ?
Cu2 Cu1 K2 107.09(9) 5_666 . ?
Cu2 Cu1 K2 164.74(5) 1_566 . ?
Cu2 Cu1 K2 164.74(5) 1_556 1_565 ?
Cu2 Cu1 K2 65.45(8) 5_656 . ?
Cu2 Cu1 K2 107.09(9) 5_656 1_565 ?
Cu2 Cu1 K2 101.99(7) 1_556 . ?
Cu3 Cu1 Cu1 97.30(8) 1_556 5_667 ?
Cu3 Cu1 Cu2 61.91(6) 1_556 1_556 ?
Cu3 Cu1 Cu2 124.18(6) 1_556 5_666 ?
Cu3 Cu1 Cu2 124.18(6) 1_556 5_656 ?
Cu3 Cu1 Cu2 61.91(6) 1_556 1_566 ?
Cu3 Cu1 K2 127.51(7) 1_556 . ?
Cu3 Cu1 K2 127.51(7) 1_556 1_565 ?
Cu3 Cu1 Te1 63.42(4) 1_556 1_565 ?
Cu3 Cu1 Te1 63.42(4) 1_556 . ?
K2 Cu1 K2 62.83(8) . 1_565 ?
S1 Cu1 Cu1 74.05(9) 5_666 5_667 ?
S1 Cu1 Cu2 51.24(5) 5_666 5_666 ?
S1 Cu1 Cu2 112.97(7) 5_666 1_556 ?
S1 Cu1 Cu2 112.97(7) 5_666 1_566 ?
S1 Cu1 Cu2 51.24(5) 5_666 5_656 ?
S1 Cu1 Cu3 171.35(10) 5_666 1_556 ?
S1 Cu1 K2 59.20(9) 5_666 1_565 ?
S1 Cu1 K2 59.20(8) 5_666 . ?
S1 Cu1 Te1 121.16(6) 5_666 1_565 ?
S1 Cu1 Te1 121.16(6) 5_666 . ?
Te1 Cu1 Cu1 123.50(6) 1_565 5_667 ?
Te1 Cu1 Cu1 123.50(6) . 5_667 ?
Te1 Cu1 Cu2 125.32(8) 1_565 1_556 ?
Te1 Cu1 Cu2 88.92(7) 1_565 5_666 ?
Te1 Cu1 Cu2 172.38(6) . 5_666 ?
Te1 Cu1 Cu2 60.02(7) . 1_556 ?
Te1 Cu1 Cu2 125.32(8) . 1_566 ?
Te1 Cu1 Cu2 88.92(7) . 5_656 ?
Te1 Cu1 Cu2 60.03(7) 1_565 1_566 ?
Te1 Cu1 Cu2 172.38(6) 1_565 5_656 ?
Te1 Cu1 K2 65.63(7) . . ?
Te1 Cu1 K2 65.63(7) 1_565 1_565 ?
Te1 Cu1 K2 111.15(8) . 1_565 ?
Te1 Cu1 K2 111.15(8) 1_565 . ?
Te1 Cu1 Te1 95.81(8) . 1_565 ?
Cu1 Cu2 Cu1 58.46(8) 1_544 5_656 ?
Cu1 Cu2 Cu1 117.73(8) 1_554 5_656 ?
Cu1 Cu2 Cu1 117.73(8) 1_544 5_666 ?
Cu1 Cu2 Cu1 93.14(9) 1_544 1_554 ?
Cu1 Cu2 Cu1 85.77(9) 5_656 5_666 ?
Cu1 Cu2 Cu1 58.46(8) 1_554 5_666 ?
Cu1 Cu2 Cu2 55.79(5) 5_656 5_655 ?
Cu1 Cu2 Cu2 61.94(6) 1_544 5_655 ?
Cu1 Cu2 Cu2 61.94(6) 1_554 5_655 ?
Cu1 Cu2 Cu2 55.79(5) 5_666 5_655 ?
Cu1 Cu2 Cu3 57.52(7) 1_544 1_545 ?
Cu1 Cu2 Cu3 120.29(9) 1_544 . ?
Cu1 Cu2 Cu3 120.29(9) 1_554 1_545 ?
Cu1 Cu2 Cu3 57.52(7) 1_554 . ?
Cu1 Cu2 K1 127.45(5) 1_544 . ?
Cu1 Cu2 K1 112.24(6) 5_656 . ?
Cu1 Cu2 K1 112.24(6) 5_666 . ?
Cu1 Cu2 K1 127.45(5) 1_554 . ?
Cu1 Cu2 K2 68.93(7) 5_666 5_656 ?
Cu1 Cu2 K2 68.93(7) 5_656 5_656 ?
Cu1 Cu2 K2 125.36(5) 1_554 5_656 ?
Cu1 Cu2 K2 125.36(5) 1_544 5_656 ?
Cu2 Cu2 K1 160.98(8) 5_655 . ?
Cu2 Cu2 K2 100.50(8) 5_655 5_656 ?
Cu3 Cu2 Cu1 91.18(7) . 5_666 ?
Cu3 Cu2 Cu1 91.18(7) 1_545 5_656 ?
Cu3 Cu2 Cu1 175.25(6) . 5_656 ?
Cu3 Cu2 Cu1 175.25(6) 1_545 5_666 ?
Cu3 Cu2 Cu2 119.46(6) 1_545 5_655 ?
Cu3 Cu2 Cu2 119.46(6) . 5_655 ?
Cu3 Cu2 Cu3 91.62(9) 1_545 . ?
Cu3 Cu2 K1 72.31(6) . . ?
Cu3 Cu2 K1 72.31(6) 1_545 . ?
Cu3 Cu2 K2 113.33(7) 1_545 5_656 ?
Cu3 Cu2 K2 113.33(7) . 5_656 ?
K1 Cu2 K2 60.48(5) . 5_656 ?
S1 Cu2 Cu1 74.19(9) . 1_554 ?
S1 Cu2 Cu1 121.66(10) . 5_656 ?
S1 Cu2 Cu1 165.84(8) 1_545 1_554 ?
S1 Cu2 Cu1 50.27(8) . 5_666 ?
S1 Cu2 Cu1 74.19(9) 1_545 1_544 ?
S1 Cu2 Cu1 121.66(10) 1_545 5_666 ?
S1 Cu2 Cu1 165.84(8) . 1_544 ?
S1 Cu2 Cu1 50.27(8) 1_545 5_656 ?
S1 Cu2 Cu2 105.58(8) . 5_655 ?
S1 Cu2 Cu2 105.58(8) 1_545 5_655 ?
S1 Cu2 Cu3 58.23(9) 1_545 1_545 ?
S1 Cu2 Cu3 58.24(9) . . ?
S1 Cu2 Cu3 134.43(10) . 1_545 ?
S1 Cu2 Cu3 134.43(10) 1_545 . ?
S1 Cu2 K1 66.52(7) 1_545 . ?
S1 Cu2 K1 66.52(7) . . ?
S1 Cu2 K2 61.01(7) . 5_656 ?
S1 Cu2 K2 61.01(7) 1_545 5_656 ?
S1 Cu2 S1 117.57(14) 1_545 . ?
S1 Cu2 Te1 116.84(7) . 1_554 ?
S1 Cu2 Te1 116.84(7) 1_545 1_554 ?
Te1 Cu2 Cu1 116.84(6) 1_554 5_666 ?
Te1 Cu2 Cu1 116.84(6) 1_554 5_656 ?
Te1 Cu2 Cu1 58.92(5) 1_554 1_544 ?
Te1 Cu2 Cu1 58.92(5) 1_554 1_554 ?
Te1 Cu2 Cu2 88.15(7) 1_554 5_655 ?
Te1 Cu2 Cu3 61.45(6) 1_554 . ?
Te1 Cu2 Cu3 61.45(6) 1_554 1_545 ?
Te1 Cu2 K1 110.87(5) 1_554 . ?
Te1 Cu2 K2 171.34(7) 1_554 5_656 ?
Cu1 Cu3 Cu2 60.58(5) 1_554 . ?
Cu1 Cu3 Cu2 60.58(5) 1_554 1_565 ?
Cu1 Cu3 Cu4 122.07(6) 1_554 . ?
Cu1 Cu3 Cu4 122.07(6) 1_554 1_565 ?
Cu1 Cu3 K1 122.66(6) 1_554 . ?
Cu1 Cu3 K1 122.66(6) 1_554 1_565 ?
Cu1 Cu3 Te1 58.78(5) 1_554 1_564 ?
Cu1 Cu3 Te1 58.78(5) 1_554 1_554 ?
Cu2 Cu3 Cu2 91.62(9) 1_565 . ?
Cu2 Cu3 Cu4 89.45(8) . . ?
Cu2 Cu3 Cu4 177.29(7) 1_565 . ?
Cu2 Cu3 Cu4 177.29(7) . 1_565 ?
Cu2 Cu3 Cu4 89.45(8) 1_565 1_565 ?
Cu2 Cu3 K1 64.26(7) . . ?
Cu2 Cu3 K1 107.92(8) 1_565 . ?
Cu2 Cu3 K1 107.92(8) . 1_565 ?
Cu2 Cu3 K1 64.26(7) 1_565 1_565 ?
Cu2 Cu3 Te1 58.17(7) 1_565 1_564 ?
Cu2 Cu3 Te1 58.17(7) . 1_554 ?
Cu2 Cu3 Te1 119.35(8) . 1_564 ?
Cu2 Cu3 Te1 119.35(8) 1_565 1_554 ?
Cu4 Cu3 Cu4 89.38(9) . 1_565 ?
Cu4 Cu3 K1 113.04(8) 1_565 . ?
Cu4 Cu3 K1 70.34(7) . . ?
Cu4 Cu3 K1 70.34(7) 1_565 1_565 ?
Cu4 Cu3 K1 113.04(8) . 1_565 ?
K1 Cu3 K1 62.33(6) 1_565 . ?
S1 Cu3 Cu1 72.94(8) . 1_554 ?
S1 Cu3 Cu2 51.91(5) . 1_565 ?
S1 Cu3 Cu2 51.91(5) . . ?
S1 Cu3 Cu4 127.42(6) . 1_565 ?
S1 Cu3 Cu4 127.42(6) . . ?
S1 Cu3 K1 61.54(7) . . ?
S1 Cu3 K1 61.54(7) . 1_565 ?
S1 Cu3 Te1 107.71(7) . 1_564 ?
S1 Cu3 Te1 107.71(7) . 1_554 ?
S2 Cu3 Cu1 173.04(11) . 1_554 ?
S2 Cu3 Cu2 123.20(6) . 1_565 ?
S2 Cu3 Cu2 123.20(6) . . ?
S2 Cu3 Cu4 54.25(6) . 1_565 ?
S2 Cu3 Cu4 54.25(6) . . ?
S2 Cu3 K1 62.92(8) . 1_565 ?
S2 Cu3 K1 62.92(8) . . ?
S2 Cu3 S1 114.02(11) . . ?
S2 Cu3 Te1 117.17(7) . 1_564 ?
S2 Cu3 Te1 117.17(7) . 1_554 ?
Te1 Cu3 Cu4 123.27(9) 1_564 . ?
Te1 Cu3 Cu4 63.29(7) 1_564 1_565 ?
Te1 Cu3 Cu4 123.27(9) 1_554 1_565 ?
Te1 Cu3 Cu4 63.29(7) 1_554 . ?
Te1 Cu3 K1 103.27(7) 1_564 1_565 ?
Te1 Cu3 K1 164.55(4) 1_564 . ?
Te1 Cu3 K1 103.27(7) 1_554 . ?
Te1 Cu3 K1 164.55(4) 1_554 1_565 ?
Te1 Cu3 Te1 90.40(9) 1_554 1_564 ?
Cu3 Cu4 Cu3 89.38(9) . 1_545 ?
Cu3 Cu4 K1 67.02(6) . . ?
Cu3 Cu4 K1 67.02(6) 1_545 . ?
Cu3 Cu4 K2 73.08(8) . 7_656 ?
Cu3 Cu4 K2 114.36(9) . 7_646 ?
Cu3 Cu4 K2 114.36(9) 1_545 7_656 ?
Cu3 Cu4 K2 107.69(7) 1_545 . ?
Cu3 Cu4 K2 73.08(8) 1_545 7_646 ?
Cu3 Cu4 K2 107.69(7) . . ?
Cu3 Cu4 Te1 57.94(5) . 1_554 ?
Cu3 Cu4 Te1 57.94(5) 1_545 1_554 ?
Cu4 Cu4 Cu3 88.76(8) 7_646 1_545 ?
Cu4 Cu4 Cu3 176.21(10) 7_646 . ?
Cu4 Cu4 Cu3 88.76(8) 7_656 . ?
Cu4 Cu4 Cu3 176.21(10) 7_656 1_545 ?
Cu4 Cu4 Cu4 92.89(12) 7_656 7_646 ?
Cu4 Cu4 K1 115.17(8) 7_656 . ?
Cu4 Cu4 K1 115.17(8) 7_646 . ?
Cu4 Cu4 K2 61.91(9) 7_646 7_646 ?
Cu4 Cu4 K2 61.91(9) 7_656 7_656 ?
Cu4 Cu4 K2 104.72(10) 7_656 7_646 ?
Cu4 Cu4 K2 76.04(9) 7_646 . ?
Cu4 Cu4 K2 104.72(10) 7_646 7_656 ?
Cu4 Cu4 K2 76.04(9) 7_656 . ?
Cu4 Cu4 Te1 118.31(8) 7_646 1_554 ?
Cu4 Cu4 Te1 118.31(8) 7_656 1_554 ?
K1 Cu4 K2 140.09(5) . 7_656 ?
K1 Cu4 K2 140.09(5) . 7_646 ?
K2 Cu4 K1 58.61(5) . . ?
K2 Cu4 K2 137.95(5) . 7_656 ?
K2 Cu4 K2 137.95(5) . 7_646 ?
K2 Cu4 K2 60.02(7) 7_646 7_656 ?
S2 Cu4 Cu3 125.03(7) 7_656 1_545 ?
S2 Cu4 Cu3 123.38(11) . 1_545 ?
S2 Cu4 Cu3 51.44(8) . . ?
S2 Cu4 Cu3 123.38(11) 1_545 . ?
S2 Cu4 Cu3 125.03(7) 7_656 . ?
S2 Cu4 Cu3 51.44(8) 1_545 1_545 ?
S2 Cu4 Cu4 57.48(9) 1_545 7_646 ?
S2 Cu4 Cu4 57.48(9) . 7_656 ?
S2 Cu4 Cu4 53.96(7) 7_656 7_646 ?
S2 Cu4 Cu4 53.96(7) 7_656 7_656 ?
S2 Cu4 Cu4 132.20(13) . 7_646 ?
S2 Cu4 Cu4 132.20(13) 1_545 7_656 ?
S2 Cu4 K1 60.86(7) . . ?
S2 Cu4 K1 159.47(9) 7_656 . ?
S2 Cu4 K1 60.86(7) 1_545 . ?
S2 Cu4 K2 61.69(7) 1_545 . ?
S2 Cu4 K2 153.46(7) 1_545 7_656 ?
S2 Cu4 K2 100.86(9) 7_656 . ?
S2 Cu4 K2 93.44(8) 1_545 7_646 ?
S2 Cu4 K2 54.74(7) 7_656 7_656 ?
S2 Cu4 K2 93.44(8) . 7_656 ?
S2 Cu4 K2 61.69(7) . . ?
S2 Cu4 K2 153.46(7) . 7_646 ?
S2 Cu4 K2 54.74(7) 7_656 7_646 ?
S2 Cu4 S2 113.09(14) . 1_545 ?
S2 Cu4 S2 111.43(8) . 7_656 ?
S2 Cu4 S2 111.43(8) 1_545 7_656 ?
S2 Cu4 Te1 109.07(8) . 1_554 ?
S2 Cu4 Te1 109.07(8) 1_545 1_554 ?
S2 Cu4 Te1 102.14(8) 7_656 1_554 ?
Te1 Cu4 K1 98.39(6) 1_554 . ?
Te1 Cu4 K2 59.37(6) 1_554 7_646 ?
Te1 Cu4 K2 157.00(8) 1_554 . ?
Te1 Cu4 K2 59.37(6) 1_554 7_656 ?
Cu2 K1 Cu2 180.0 5_656 . ?
Cu2 K1 K2 119.09(7) 5_656 5_656 ?
Cu2 K1 K2 60.91(7) . 5_656 ?
Cu2 K1 K2 60.91(7) 5_656 . ?
Cu2 K1 K2 119.09(7) . . ?
K2 K1 K2 180.0 5_656 . ?
S1 K1 Cu2 141.77(5) 5_666 . ?
S1 K1 Cu2 38.23(5) 5_656 5_656 ?
S1 K1 Cu2 38.23(5) 1_545 . ?
S1 K1 Cu2 141.77(5) . 5_656 ?
S1 K1 Cu2 38.23(5) . . ?
S1 K1 Cu2 141.77(5) 5_656 . ?
S1 K1 Cu2 38.23(5) 5_666 5_656 ?
S1 K1 Cu2 141.77(5) 1_545 5_656 ?
S1 K1 K2 54.74(6) 5_666 . ?
S1 K1 K2 125.26(6) 5_666 5_656 ?
S1 K1 K2 125.26(6) 5_656 5_656 ?
S1 K1 K2 54.74(6) . 5_656 ?
S1 K1 K2 125.26(6) . . ?
S1 K1 K2 54.74(6) 1_545 5_656 ?
S1 K1 K2 125.26(6) 1_545 . ?
S1 K1 K2 54.74(6) 5_656 . ?
S1 K1 S1 180.0 5_666 1_545 ?
S1 K1 S1 109.51(9) 1_545 5_656 ?
S1 K1 S1 70.49(9) 5_666 5_656 ?
S1 K1 S1 70.49(9) 1_545 . ?
S1 K1 S1 109.51(9) 5_666 . ?
S1 K1 S1 180.0 5_656 . ?
S1 K1 S2 108.57(6) 1_545 5_666 ?
S1 K1 S2 69.89(6) 5_666 . ?
S1 K1 S2 69.89(6) 1_545 5_656 ?
S1 K1 S2 110.11(6) 1_545 . ?
S1 K1 S2 108.57(6) 5_666 1_545 ?
S1 K1 S2 110.11(6) 5_666 5_656 ?
S1 K1 S2 69.89(6) 5_656 1_545 ?
S1 K1 S2 108.57(6) 5_656 . ?
S1 K1 S2 71.43(6) 1_545 1_545 ?
S1 K1 S2 110.11(6) 5_656 5_666 ?
S1 K1 S2 110.11(6) . 1_545 ?
S1 K1 S2 71.43(6) 5_666 5_666 ?
S1 K1 S2 71.43(6) 5_656 5_656 ?
S1 K1 S2 69.89(6) . 5_666 ?
S1 K1 S2 108.57(6) . 5_656 ?
S1 K1 S2 71.43(6) . . ?
S2 K1 Cu2 102.08(5) 1_545 5_656 ?
S2 K1 Cu2 77.93(5) 1_545 . ?
S2 K1 Cu2 77.92(5) 5_656 5_656 ?
S2 K1 Cu2 102.07(5) 5_666 . ?
S2 K1 Cu2 77.92(5) . . ?
S2 K1 Cu2 77.92(5) 5_666 5_656 ?
S2 K1 Cu2 102.08(5) . 5_656 ?
S2 K1 Cu2 102.07(5) 5_656 . ?
S2 K1 K2 53.83(6) 5_656 5_656 ?
S2 K1 K2 53.83(6) 5_666 5_656 ?
S2 K1 K2 126.17(6) 5_666 . ?
S2 K1 K2 53.83(6) . . ?
S2 K1 K2 126.17(6) . 5_656 ?
S2 K1 K2 126.17(6) 1_545 5_656 ?
S2 K1 K2 126.17(6) 5_656 . ?
S2 K1 K2 53.83(6) 1_545 . ?
S2 K1 S2 180.0 5_656 . ?
S2 K1 S2 109.96(9) 5_656 1_545 ?
S2 K1 S2 70.04(9) 5_656 5_666 ?
S2 K1 S2 70.04(9) 1_545 . ?
S2 K1 S2 109.96(9) 5_666 . ?
S2 K1 S2 180.0 5_666 1_545 ?
Cu1 K2 Cu1 62.83(8) 1_545 . ?
Cu2 K2 Cu1 45.62(4) 5_656 . ?
Cu2 K2 Cu1 45.62(4) 5_656 1_545 ?
Cu4 K2 Cu1 142.58(5) . 1_545 ?
Cu4 K2 Cu1 142.58(5) . . ?
Cu4 K2 Cu2 123.58(8) . 5_656 ?
Cu4 K2 K1 64.97(8) . . ?
Cu4 K2 Te1 171.98(8) . . ?
K1 K2 Cu1 93.05(9) . 1_545 ?
K1 K2 Cu1 93.05(9) . . ?
K1 K2 Cu2 58.61(8) . 5_656 ?
S1 K2 Cu1 36.72(6) 5_666 . ?
S1 K2 Cu1 80.07(9) 5_666 1_545 ?
S1 K2 Cu1 80.07(9) 5_656 . ?
S1 K2 Cu1 36.72(6) 5_656 1_545 ?
S1 K2 Cu2 38.12(6) 5_656 5_656 ?
S1 K2 Cu2 38.12(6) 5_666 5_656 ?
S1 K2 Cu4 109.11(8) 5_656 . ?
S1 K2 Cu4 109.11(8) 5_666 . ?
S1 K2 K1 58.65(7) 5_666 . ?
S1 K2 K1 58.65(7) 5_656 . ?
S1 K2 S1 74.25(11) 5_656 5_666 ?
S1 K2 Te1 77.13(7) 5_666 . ?
S1 K2 Te1 106.43(8) 5_666 7_657 ?
S1 K2 Te1 163.76(10) 5_666 7_647 ?
S1 K2 Te1 77.13(7) 5_656 . ?
S1 K2 Te1 163.76(10) 5_656 7_657 ?
S1 K2 Te1 106.43(8) 5_656 7_647 ?
S2 K2 Cu1 102.93(8) 1_545 1_545 ?
S2 K2 Cu1 149.45(10) . 1_545 ?
S2 K2 Cu1 102.93(8) . . ?
S2 K2 Cu1 149.45(10) 1_545 . ?
S2 K2 Cu2 104.53(8) 1_545 5_656 ?
S2 K2 Cu2 104.53(8) . 5_656 ?
S2 K2 Cu4 40.19(6) . . ?
S2 K2 Cu4 40.19(6) 1_545 . ?
S2 K2 K1 59.34(7) . . ?
S2 K2 K1 59.34(7) 1_545 . ?
S2 K2 S1 74.41(8) 1_545 5_656 ?
S2 K2 S1 117.99(10) . 5_656 ?
S2 K2 S1 74.41(8) . 5_666 ?
S2 K2 S1 117.99(10) 1_545 5_666 ?
S2 K2 S2 75.40(11) 1_545 . ?
S2 K2 Te1 117.56(9) . 7_647 ?
S2 K2 Te1 77.09(7) 1_545 7_647 ?
S2 K2 Te1 141.74(6) 1_545 . ?
S2 K2 Te1 117.56(9) 1_545 7_657 ?
S2 K2 Te1 141.74(6) . . ?
S2 K2 Te1 77.09(7) . 7_657 ?
Te1 K2 Cu1 42.02(4) . . ?
Te1 K2 Cu1 127.04(9) 7_657 1_545 ?
Te1 K2 Cu1 91.01(7) 7_647 1_545 ?
Te1 K2 Cu1 42.02(4) . 1_545 ?
Te1 K2 Cu1 127.04(9) 7_647 . ?
Te1 K2 Cu1 91.01(7) 7_657 . ?
Te1 K2 Cu2 136.38(7) 7_647 5_656 ?
Te1 K2 Cu2 64.44(5) . 5_656 ?
Te1 K2 Cu2 136.38(7) 7_657 5_656 ?
Te1 K2 Cu4 86.22(7) 7_657 . ?
Te1 K2 Cu4 86.22(7) 7_647 . ?
Te1 K2 K1 136.04(6) 7_657 . ?
Te1 K2 K1 136.04(6) 7_647 . ?
Te1 K2 K1 123.05(9) . . ?
Te1 K2 Te1 87.14(6) 7_657 . ?
Te1 K2 Te1 68.25(9) 7_657 7_647 ?
Te1 K2 Te1 87.14(6) 7_647 . ?
Cu1 S1 Cu2 78.50(8) 5_666 1_565 ?
Cu1 S1 Cu2 78.50(8) 5_666 . ?
Cu1 S1 Cu3 115.71(12) 5_666 . ?
Cu1 S1 K1 143.10(5) 5_666 1_565 ?
Cu1 S1 K1 143.10(5) 5_666 . ?
Cu1 S1 K2 84.08(9) 5_666 5_666 ?
Cu1 S1 K2 84.08(9) 5_666 5_656 ?
Cu2 S1 Cu2 117.57(14) . 1_565 ?
Cu2 S1 Cu3 69.85(7) . . ?
Cu2 S1 Cu3 69.85(7) 1_565 . ?
Cu2 S1 K1 137.08(10) 1_565 . ?
Cu2 S1 K1 75.25(8) . . ?
Cu2 S1 K1 75.24(8) 1_565 1_565 ?
Cu2 S1 K1 137.09(10) . 1_565 ?
Cu2 S1 K2 150.90(10) 1_565 5_656 ?
Cu2 S1 K2 80.87(8) . 5_656 ?
Cu2 S1 K2 80.87(8) 1_565 5_666 ?
Cu2 S1 K2 150.90(10) . 5_666 ?
Cu3 S1 K1 78.61(6) . 1_565 ?
Cu3 S1 K1 78.61(6) . . ?
Cu3 S1 K2 139.21(7) . 5_656 ?
Cu3 S1 K2 139.21(7) . 5_666 ?
K1 S1 K1 70.49(9) 1_565 . ?
K2 S1 K1 107.43(9) 5_656 1_565 ?
K2 S1 K1 66.61(6) 5_656 . ?
K2 S1 K1 66.61(6) 5_666 1_565 ?
K2 S1 K1 107.43(9) 5_666 . ?
K2 S1 K2 74.25(11) 5_656 5_666 ?
Cu3 S2 Cu4 74.32(8) . . ?
Cu3 S2 Cu4 109.12(12) . 7_656 ?
Cu3 S2 Cu4 74.32(8) . 1_565 ?
Cu3 S2 K1 80.91(7) . . ?
Cu3 S2 K1 80.91(7) . 1_565 ?
Cu3 S2 K2 139.88(7) . . ?
Cu3 S2 K2 139.88(7) . 1_565 ?
Cu4 S2 Cu4 68.57(8) . 7_656 ?
Cu4 S2 Cu4 68.57(8) 1_565 7_656 ?
Cu4 S2 Cu4 113.09(14) 1_565 . ?
Cu4 S2 K1 82.21(8) . . ?
Cu4 S2 K1 144.19(5) 7_656 . ?
Cu4 S2 K1 82.21(8) 1_565 1_565 ?
Cu4 S2 K1 145.30(10) 1_565 . ?
Cu4 S2 K1 144.19(5) 7_656 1_565 ?
Cu4 S2 K1 145.30(10) . 1_565 ?
Cu4 S2 K2 144.54(11) 1_565 . ?
Cu4 S2 K2 144.54(11) . 1_565 ?
Cu4 S2 K2 86.65(8) 7_656 1_565 ?
Cu4 S2 K2 78.12(9) . . ?
Cu4 S2 K2 78.12(9) 1_565 1_565 ?
Cu4 S2 K2 86.65(8) 7_656 . ?
K1 S2 K1 70.04(9) . 1_565 ?
K2 S2 K1 66.83(6) . . ?
K2 S2 K1 66.83(6) 1_565 1_565 ?
K2 S2 K1 107.96(9) 1_565 . ?
K2 S2 K1 107.96(9) . 1_565 ?
K2 S2 K2 75.40(11) 1_565 . ?
Cu1 Te1 Cu1 95.81(8) 1_545 . ?
Cu1 Te1 Cu2 61.06(5) 1_545 1_556 ?
Cu1 Te1 Cu2 61.06(5) . 1_556 ?
Cu1 Te1 Cu3 57.81(7) . 1_556 ?
Cu1 Te1 Cu3 121.35(8) 1_545 1_556 ?
Cu1 Te1 Cu3 121.35(8) . 1_546 ?
Cu1 Te1 Cu3 57.81(7) 1_545 1_546 ?
Cu1 Te1 Cu4 116.58(4) . 1_556 ?
Cu1 Te1 Cu4 116.58(4) 1_545 1_556 ?
Cu1 Te1 K2 95.33(8) 1_545 7_647 ?
Cu1 Te1 K2 95.33(8) . 7_657 ?
Cu1 Te1 K2 72.36(5) . . ?
Cu1 Te1 K2 72.36(5) 1_545 . ?
Cu1 Te1 K2 157.74(5) . 7_647 ?
Cu1 Te1 K2 157.74(5) 1_545 7_657 ?
Cu2 Te1 Cu3 60.38(4) 1_556 1_546 ?
Cu2 Te1 Cu3 60.38(4) 1_556 1_556 ?
Cu2 Te1 Cu4 88.08(6) 1_556 1_556 ?
Cu2 Te1 K2 140.91(5) 1_556 7_647 ?
Cu2 Te1 K2 106.91(6) 1_556 . ?
Cu2 Te1 K2 140.91(5) 1_556 7_657 ?
Cu3 Te1 Cu3 90.40(8) 1_556 1_546 ?
Cu3 Te1 Cu4 58.77(5) 1_546 1_556 ?
Cu3 Te1 Cu4 58.77(5) 1_556 1_556 ?
Cu3 Te1 K2 129.57(6) 1_556 7_647 ?
Cu3 Te1 K2 80.85(7) 1_556 7_657 ?
Cu3 Te1 K2 80.85(7) 1_546 7_647 ?
Cu3 Te1 K2 128.62(5) 1_546 . ?
Cu3 Te1 K2 128.62(5) 1_556 . ?
Cu3 Te1 K2 129.57(6) 1_546 7_657 ?
Cu4 Te1 K2 74.82(5) 1_556 7_647 ?
Cu4 Te1 K2 165.02(6) 1_556 . ?
Cu4 Te1 K2 74.82(5) 1_556 7_657 ?
K2 Te1 K2 68.25(9) 7_657 7_647 ?
K2 Te1 K2 92.86(6) 7_647 . ?
K2 Te1 K2 92.86(6) 7_657 . ?
loop_
_geom_bond_atom_site_label_1
_geom_bond_atom_site_label_2
_geom_bond_distance
_geom_bond_site_symmetry_2
_geom_bond_publ_flag
Cu1 Cu1 2.741(4) 5_667 ?
Cu1 Cu2 2.893(2) 5_656 ?
Cu1 Cu2 2.711(2) 1_556 ?
Cu1 Cu2 2.711(2) 1_566 ?
Cu1 Cu2 2.893(2) 5_666 ?
Cu1 Cu3 2.625(3) 1_556 ?
Cu1 K2 3.777(3) . ?
Cu1 K2 3.777(3) 1_565 ?
Cu1 S1 2.270(3) 5_666 ?
Cu1 Te1 2.6531(19) 1_565 ?
Cu1 Te1 2.6531(19) . ?
Cu2 Cu1 2.893(2) 5_666 ?
Cu2 Cu1 2.711(2) 1_554 ?
Cu2 Cu1 2.893(2) 5_656 ?
Cu2 Cu1 2.711(2) 1_544 ?
Cu2 Cu2 2.902(4) 5_655 ?
Cu2 Cu3 2.746(2) 1_545 ?
Cu2 Cu3 2.746(2) . ?
Cu2 K1 3.597(4) . ?
Cu2 K2 3.682(4) 5_656 ?
Cu2 S1 2.302(2) . ?
Cu2 S1 2.302(2) 1_545 ?
Cu2 Te1 2.684(3) 1_554 ?
Cu3 Cu1 2.626(3) 1_554 ?
Cu3 Cu2 2.746(2) 1_565 ?
Cu3 Cu4 2.799(2) . ?
Cu3 Cu4 2.799(2) 1_565 ?
Cu3 K1 3.804(3) . ?
Cu3 K1 3.804(3) 1_565 ?
Cu3 S1 2.487(4) . ?
Cu3 S2 2.273(4) . ?
Cu3 Te1 2.774(2) 1_564 ?
Cu3 Te1 2.774(2) 1_554 ?
Cu4 Cu3 2.799(2) 1_545 ?
Cu4 Cu4 2.716(3) 7_656 ?
Cu4 Cu4 2.716(3) 7_646 ?
Cu4 K1 3.891(4) . ?
Cu4 K2 3.578(5) . ?
Cu4 K2 3.936(4) 7_656 ?
Cu4 K2 3.936(4) 7_646 ?
Cu4 S2 2.461(4) 7_656 ?
Cu4 S2 2.360(2) 1_545 ?
Cu4 S2 2.360(2) . ?
Cu4 Te1 2.924(3) 1_554 ?
K1 Cu2 3.597(4) 5_656 ?
K1 K2 3.666(4) . ?
K1 K2 3.666(4) 5_656 ?
K1 S1 3.412(3) 1_545 ?
K1 S1 3.412(3) 5_656 ?
K1 S1 3.412(3) . ?
K1 S1 3.412(3) 5_666 ?
K1 S2 3.431(3) . ?
K1 S2 3.430(3) 5_666 ?
K1 S2 3.430(3) 5_656 ?
K1 S2 3.430(3) 1_545 ?
K2 Cu1 3.777(3) 1_545 ?
K2 Cu2 3.682(4) 5_656 ?
K2 S1 3.262(4) 5_666 ?
K2 S1 3.262(4) 5_656 ?
K2 S2 3.219(4) . ?
K2 S2 3.219(4) 1_545 ?
K2 Te1 3.509(3) 7_657 ?
K2 Te1 3.610(4) . ?
K2 Te1 3.509(3) 7_647 ?
S1 Cu1 2.270(3) 5_666 ?
S1 Cu2 2.302(2) 1_565 ?
S1 K1 3.412(3) 1_565 ?
S1 K2 3.262(4) 5_666 ?
S1 K2 3.262(4) 5_656 ?
S2 Cu4 2.360(2) 1_565 ?
S2 Cu4 2.461(4) 7_656 ?
S2 K1 3.431(3) 1_565 ?
S2 K2 3.219(4) 1_565 ?
Te1 Cu1 2.6531(19) 1_545 ?
Te1 Cu2 2.684(3) 1_556 ?
Te1 Cu3 2.774(2) 1_546 ?
Te1 Cu3 2.774(2) 1_556 ?
Te1 Cu4 2.924(3) 1_556 ?
Te1 K2 3.509(3) 7_657 ?
Te1 K2 3.509(3) 7_647 ?
