#------------------------------------------------------------------------------
#$Date: 2021-02-02 01:36:13 +0200 (Tue, 02 Feb 2021) $
#$Revision: 261357 $
#$URL: file:///home/coder/svn-repositories/cod/cif/4/00/38/4003856.cif $
#------------------------------------------------------------------------------
#
# This file is available in the Crystallography Open Database (COD),
# http://www.crystallography.net/
#
# All data on this site have been placed in the public domain by the
# contributors.
#
data_4003856
loop_
_publ_author_name
'Zhang, Keke'
'Sun, Changquan Calvin'
'Liu, Yu'
'Wang, Chenguang'
'Shi, Peng'
'Xu, Jun'
'Wu, Songgu'
'Gong, Junbo'
_publ_section_title
;
 Structural Origins of Elastic and 2D Plastic Flexibility of Molecular
 Crystals Investigated with Two Polymorphs of Conformationally Rigid
 Coumarin
;
_journal_name_full               'Chemistry of Materials'
_journal_paper_doi               10.1021/acs.chemmater.0c04560
_journal_year                    2021
_chemical_absolute_configuration ad
_chemical_formula_moiety         'C9 H6 O2'
_chemical_formula_sum            'C9 H6 O2'
_chemical_formula_weight         146.14
_space_group_crystal_system      monoclinic
_space_group_IT_number           4
_space_group_name_Hall           'P 2yb'
_space_group_name_H-M_alt        'P 1 21 1'
_atom_sites_solution_hydrogens   geom
_atom_sites_solution_primary     dual
_audit_creation_date             2019-12-26
_audit_creation_method
;
Olex2 1.2-ac3
(compiled 2017.08.10 svn.r3458 for OlexSys, GUI svn.r5381)
;
_cell_angle_alpha                90
_cell_angle_beta                 93.608(3)
_cell_angle_gamma                90
_cell_formula_units_Z            2
_cell_length_a                   3.87010(10)
_cell_length_b                   15.2836(5)
_cell_length_c                   5.8211(2)
_cell_measurement_reflns_used    1528
_cell_measurement_temperature    160.00(10)
_cell_measurement_theta_max      76.4580
_cell_measurement_theta_min      5.7630
_cell_volume                     343.630(19)
_computing_cell_refinement       'CrysAlisPro 1.171.39.45g (Rigaku OD, 2018)'
_computing_data_collection       'CrysAlisPro 1.171.39.45g (Rigaku OD, 2018)'
_computing_data_reduction        'CrysAlisPro 1.171.39.45g (Rigaku OD, 2018)'
_computing_molecular_graphics    'Olex2 (Dolomanov et al., 2009)'
_computing_publication_material  'Olex2 (Dolomanov et al., 2009)'
_computing_structure_refinement  'ShelXL (Sheldrick, 2015)'
_computing_structure_solution    'ShelXT (Sheldrick, 2015)'
_diffrn_ambient_environment      N~2~
_diffrn_ambient_temperature      160.00(10)
_diffrn_detector                 'CCD plate'
_diffrn_detector_type            HyPix
_diffrn_measured_fraction_theta_full 0.998
_diffrn_measured_fraction_theta_max 0.943
_diffrn_measurement_details
;
List of Runs (angles in degrees, time in seconds):

  # Type    Start    End  Width  t~exp~   \w     \q     \k     \f   Frames
--------------------------------------------------------------------------
  1  \w    -74.00  27.00   0.50    0.05    --  -46.12  87.00 166.00  202
  2  \w    -26.00  75.00   0.50    0.05    --   46.12 -87.00  49.00  202
  3  \w   -128.00 -27.00   0.50    0.20    -- -100.00  87.00 166.00  202
  4  \w     78.00 178.00   0.50    0.20    --  106.36  87.00 166.00  200
  5  \w     73.00 118.00   0.50    0.05    --   46.12 125.00  30.00   90
  6  \w     30.00 118.00   0.50    0.05    --   46.12  57.00  60.00  176
  7  \w   -174.00 -85.00   0.50    0.20    -- -100.00 -37.00 120.00  178
  8  \w   -173.00 -84.00   0.50    0.20    -- -100.00 -57.00  90.00  178
  9  \w   -124.00 -27.00   0.50    0.20    -- -100.00  77.00 -90.00  194
 10  \w   -173.00 -84.00   0.50    0.20    -- -100.00 -57.00 120.00  178
 11  \w     34.00 110.00   0.50    0.20    --  106.36 -99.00   0.00  152
 12  \w     34.00 135.00   0.50    0.20    --  106.36 -87.00  49.00  202
 13  \w     30.00 118.00   0.50    0.05    --   46.12  57.00 -60.00  176
 14  \w     23.00 118.00   0.50    0.05    --   46.12  77.00 -30.00  190
 15  \w     30.00 118.00   0.50    0.05    --   46.12  57.00-180.00  176
 16  \w     91.00 150.00   0.50    0.20    --  106.36  19.00 -90.00  118
;
_diffrn_measurement_device       'four-circle diffractometer'
_diffrn_measurement_device_type  'ROD, Synergy Custom system, HyPix'
_diffrn_measurement_method       '\w scans'
_diffrn_orient_matrix_type
'CrysAlisPro convention (1999,Acta A55,543-557)'
_diffrn_orient_matrix_UB_11      -0.3807684000
_diffrn_orient_matrix_UB_12      -0.0281295000
_diffrn_orient_matrix_UB_13      0.0126480000
_diffrn_orient_matrix_UB_21      -0.1188338000
_diffrn_orient_matrix_UB_22      0.0859403000
_diffrn_orient_matrix_UB_23      -0.1184900000
_diffrn_orient_matrix_UB_31      0.0113218000
_diffrn_orient_matrix_UB_32      -0.0445399000
_diffrn_orient_matrix_UB_33      -0.2367403000
_diffrn_radiation_monochromator  mirror
_diffrn_radiation_probe          x-ray
_diffrn_radiation_type           CuK\a
_diffrn_radiation_wavelength     1.54184
_diffrn_reflns_av_R_equivalents  0.0365
_diffrn_reflns_av_unetI/netI     0.0379
_diffrn_reflns_Laue_measured_fraction_full 0.998
_diffrn_reflns_Laue_measured_fraction_max 0.943
_diffrn_reflns_limit_h_max       4
_diffrn_reflns_limit_h_min       -4
_diffrn_reflns_limit_k_max       17
_diffrn_reflns_limit_k_min       -18
_diffrn_reflns_limit_l_max       6
_diffrn_reflns_limit_l_min       -7
_diffrn_reflns_number            3334
_diffrn_reflns_point_group_measured_fraction_full 0.887
_diffrn_reflns_point_group_measured_fraction_max 0.821
_diffrn_reflns_theta_full        67.684
_diffrn_reflns_theta_max         76.775
_diffrn_reflns_theta_min         5.790
_diffrn_source                   'Rotating-anode X-ray tube'
_diffrn_source_type              'Rigaku (Cu) X-ray Source'
_exptl_absorpt_coefficient_mu    0.827
_exptl_absorpt_correction_T_max  1.00000
_exptl_absorpt_correction_T_min  0.67285
_exptl_absorpt_correction_type   multi-scan
_exptl_absorpt_process_details
;
CrysAlisPro 1.171.39.45g (Rigaku Oxford Diffraction, 2018)
Empirical absorption correction using spherical harmonics,
 implemented in SCALE3 ABSPACK scaling algorithm.
;
_exptl_crystal_colour            colourless
_exptl_crystal_colour_primary    colourless
_exptl_crystal_density_diffrn    1.412
_exptl_crystal_description       plate
_exptl_crystal_F_000             152
_exptl_crystal_size_max          0.08
_exptl_crystal_size_mid          0.05
_exptl_crystal_size_min          0.05
_refine_diff_density_max         0.121
_refine_diff_density_min         -0.209
_refine_diff_density_rms         0.041
_refine_ls_abs_structure_details
;
 Flack x determined using 399 quotients [(I+)-(I-)]/[(I+)+(I-)]
 (Parsons, Flack and Wagner, Acta Cryst. B69 (2013) 249-259).
;
_refine_ls_abs_structure_Flack   0.04(17)
_refine_ls_extinction_method     none
_refine_ls_goodness_of_fit_ref   1.050
_refine_ls_hydrogen_treatment    constr
_refine_ls_matrix_type           full
_refine_ls_number_parameters     100
_refine_ls_number_reflns         1186
_refine_ls_number_restraints     1
_refine_ls_restrained_S_all      1.049
_refine_ls_R_factor_all          0.0396
_refine_ls_R_factor_gt           0.0343
_refine_ls_shift/su_max          0.000
_refine_ls_shift/su_mean         0.000
_refine_ls_structure_factor_coef Fsqd
_refine_ls_weighting_details
'w=1/[\s^2^(Fo^2^)+(0.0493P)^2^+0.0293P] where P=(Fo^2^+2Fc^2^)/3'
_refine_ls_weighting_scheme      calc
_refine_ls_wR_factor_gt          0.0870
_refine_ls_wR_factor_ref         0.0904
_reflns_Friedel_coverage         0.678
_reflns_Friedel_fraction_full    0.767
_reflns_Friedel_fraction_max     0.689
_reflns_number_gt                1060
_reflns_number_total             1186
_reflns_threshold_expression     'I > 2\s(I)'
_cod_data_source_file            cm0c04560_si_008.cif
_cod_data_source_block           031885_zkkxds_ra
_cod_database_code               4003856
_shelx_shelxl_version_number     2018/1
_shelx_space_group_comment
;
The symmetry employed for this shelxl refinement is uniquely defined
by the following loop, which should always be used as a source of
symmetry information in preference to the above space-group names.
They are only intended as comments.
;
_shelx_estimated_absorpt_t_max   0.960
_shelx_estimated_absorpt_t_min   0.937
_reflns_odcompleteness_completeness 99.84
_reflns_odcompleteness_iscentric 1
_reflns_odcompleteness_theta     66.49
_olex2_refinement_description
;
1. Fixed Uiso
 At 1.2 times of:
  All C(H) groups
2.a Aromatic/amide H refined with riding coordinates:
 C3(H3), C9(H9), C2(H2), C7(H7), C6(H6), C8(H8)
;
_shelx_res_file
;
TITL 031885_zkkxds_ra_a.res in P2(1)
    031885_zkkxds_ra.res
    created by SHELXL-2018/1 at 14:40:01 on 26-Dec-2019
REM Old TITL 031885_ZKKXDS_Ra in P2(1)/m
REM SHELXT solution in P2(1)
REM R1 0.147, Rweak 0.032, Alpha 0.002, Orientation as input
REM Flack x = 0.252 ( 0.215 ) from Parsons' quotients
REM Formula found by SHELXT: C9 O2
CELL 1.54184 3.8701 15.2836 5.8211 90 93.608 90
ZERR 2 0.0001 0.0005 0.0002 0 0.003 0
LATT -1
SYMM -X,0.5+Y,-Z
SFAC C H O
UNIT 18 12 4

L.S. 10
PLAN  20
SIZE 0.05 0.05 0.08
BOND $H
conf
list 4
fmap 2
acta
OMIT 4 -6 2
REM <olex2.extras>
REM <HklSrc "%.\\031885_ZKKXDS_Ra.hkl">
REM </olex2.extras>

WGHT    0.049300    0.029300
FVAR       1.82818
O1    3    0.457166    0.534542    0.085540    11.00000    0.03985    0.03726 =
         0.02188   -0.00025   -0.00277   -0.00379
O2    3    0.199509    0.658896   -0.009889    11.00000    0.05503    0.05572 =
         0.03877    0.01123   -0.00846    0.00754
C5    1    0.641989    0.481669    0.242470    11.00000    0.02958    0.03220 =
         0.02414    0.00098    0.00340   -0.00492
C3    1    0.682729    0.603781    0.510631    11.00000    0.03248    0.03407 =
         0.02448   -0.00440    0.00163   -0.00658
AFIX  43
H3    2    0.759971    0.627198    0.652128    11.00000   -1.20000
AFIX   0
C1    1    0.374779    0.619640    0.135540    11.00000    0.03384    0.03698 =
         0.02944    0.00468    0.00044   -0.00166
C4    1    0.758230    0.514347    0.458126    11.00000    0.02872    0.03089 =
         0.02249   -0.00194    0.00376   -0.00660
C9    1    0.937121    0.457060    0.610947    11.00000    0.03117    0.03887 =
         0.02672    0.00165    0.00010   -0.00463
AFIX  43
H9    2    1.018747    0.477035    0.755219    11.00000   -1.20000
AFIX   0
C2    1    0.502070    0.653652    0.357446    11.00000    0.03495    0.02955 =
         0.03440   -0.00416    0.00403   -0.00313
AFIX  43
H2    2    0.456927    0.711590    0.394121    11.00000   -1.20000
AFIX   0
C7    1    0.876538    0.341662    0.333476    11.00000    0.04401    0.03032 =
         0.04490   -0.00188    0.01429   -0.00170
AFIX  43
H7    2    0.917505    0.283915    0.292785    11.00000   -1.20000
AFIX   0
C6    1    0.700823    0.396473    0.178465    11.00000    0.04025    0.03645 =
         0.03025   -0.00593    0.00829   -0.00923
AFIX  43
H6    2    0.623528    0.376303    0.033493    11.00000   -1.20000
AFIX   0
C8    1    0.993198    0.371859    0.550161    11.00000    0.03617    0.03703 =
         0.03967    0.00665    0.00541    0.00021
AFIX  43
H8    2    1.109422    0.334154    0.653901    11.00000   -1.20000
AFIX   0
HKLF 4




REM  031885_zkkxds_ra_a.res in P2(1)
REM R1 =  0.0343 for    1060 Fo > 4sig(Fo)  and  0.0396 for all    1186 data
REM    100 parameters refined using      1 restraints

END

WGHT      0.0493      0.0293

REM Highest difference peak  0.121,  deepest hole -0.209,  1-sigma level  0.041
Q1    1   0.8561  0.5423  0.0928  11.00000  0.05    0.12
Q2    1   0.6650  0.2696  0.4170  11.00000  0.05    0.12
Q3    1   0.0738  0.5005  0.1158  11.00000  0.05    0.11
Q4    1   0.2707  0.5981  0.4785  11.00000  0.05    0.11
Q5    1   0.4278  0.7811  0.2686  11.00000  0.05    0.11
Q6    1   0.7768  0.4028  0.6585  11.00000  0.05    0.11
Q7    1   1.0199  0.2804  0.0066  11.00000  0.05    0.11
Q8    1   0.8789  0.2594  0.3139  11.00000  0.05    0.11
Q9    1   0.9039  0.5034  0.9464  11.00000  0.05    0.10
Q10   1   0.1296  0.6209  0.3426  11.00000  0.05    0.10
Q11   1   0.1531  0.6888  0.3900  11.00000  0.05    0.10
Q12   1   0.6009  0.7593  0.5904  11.00000  0.05    0.09
Q13   1   0.8750  0.3149  0.7055  11.00000  0.05    0.09
Q14   1   0.3720  0.4864  0.4305  11.00000  0.05    0.09
Q15   1   0.9051  0.3201 -0.1061  11.00000  0.05    0.09
Q16   1   0.5533  0.4576  0.6092  11.00000  0.05    0.09
Q17   1   0.5100  0.6736  0.8071  11.00000  0.05    0.09
Q18   1   0.4682  0.3013  0.2081  11.00000  0.05    0.09
Q19   1   0.8898  0.3824  0.2336  11.00000  0.05    0.09
Q20   1   0.3225  0.6356  0.5929  11.00000  0.05    0.09
;
_shelx_res_checksum              18187
_shelx_hkl_file
;
   0   0  -1  506.23   22.88
   0   0  -1  529.80   23.17
   0   0   1  550.62   22.46
   0   0  -2 1196.78   49.54
   0   0  -2 1106.60   49.74
   0   0   2 1142.60   48.21
   0   0  -3    5.47    4.44
   0   0   3    0.77    2.32
   0   0  -3   -1.61    4.25
   0   0  -4   -0.56    2.77
   0   0  -4    2.25    2.46
   0   0  -4    0.76    4.64
   0   0  -4   -3.50    2.50
   0   0  -4    6.47    4.92
   0   0  -4    0.25    3.00
   0   0  -5    2.33    2.88
   0   0  -5    1.19    2.83
   0   0  -5    2.39    3.42
   0   0  -5    2.11    5.50
   0   0  -6   14.87    3.45
   0   0  -6   13.96    3.26
   0   0  -6   17.90    3.73
   0   0  -7   11.17    2.47
   0   0  -7    9.06    1.99
   0   1   0   -0.59    0.73
   0  -1   0    0.17    0.73
   0   1  -1 2922.21  121.46
   0   1  -1 2957.06  120.61
   0  -1   1 2969.50  120.84
   0   1  -1 3029.29  121.29
   0   1  -2 1475.91   62.46
   0   1  -2 1464.05   62.01
   0  -1   2 1449.02   60.81
   0   1  -3  370.15   20.11
   0   1  -3  399.33   19.83
   0   1   3  351.68   17.16
   0  -1   3  343.95   17.20
   0   1  -4   50.45    7.41
   0   1  -4   46.85    7.85
   0   1  -4   50.42    4.11
   0   1  -4   54.46    4.20
   0   1  -4   44.23    4.29
   0   1  -4   35.91    3.06
   0   1  -4   39.88    4.69
   0   1  -5    3.11    3.56
   0   1  -5    2.12    5.34
   0   1  -5    3.96    3.04
   0   1  -5    1.41    3.04
   0   1  -6   22.89    3.37
   0   1  -6   24.23    3.88
   0   1  -7   22.30    2.58
   0   1  -7   18.54    2.20
   0  -2   0 3734.56  153.46
   0  -2   0 3778.59  153.66
   0   2   0 3826.69  153.51
   0   2  -1 1091.87   46.12
   0   2  -1 1107.75   45.37
   0   2  -1 1155.65   46.73
   0  -2   1 1120.37   46.28
   0   2  -1 1121.47   46.50
   0  -2  -1 1107.05   46.65
   0  -2  -1 1148.56   46.60
   0   2  -2 1438.93   60.02
   0   2  -2 1347.80   59.37
   0  -2  -2 1464.28   59.58
   0   2  -2 1380.45   58.00
   0  -2  -2 1348.83   59.79
   0  -2   2 1418.47   58.56
   0  -2   3  601.43   26.38
   0   2  -3  622.46   28.58
   0  -2  -3  569.17   28.78
   0   2  -3  608.19   29.03
   0   2   3  527.00   25.99
   0  -2  -3  570.29   28.48
   0  -2  -4    8.95    3.12
   0   2  -4    9.57    2.70
   0  -2  -4   12.94    2.73
   0   2  -4    3.22    4.75
   0  -2  -4    6.05    5.20
   0   2  -4    9.80    1.97
   0  -2  -4   11.75    4.99
   0  -2  -4   13.92    3.03
   0   2  -4   15.55    5.13
   0   2  -4   13.21    2.78
   0   2  -4   10.97    3.07
   0   2  -4    7.19    3.27
   0   2  -5   85.93    6.14
   0  -2  -5   92.96    6.26
   0  -2  -5   84.29   10.35
   0   2  -5   77.64    5.85
   0   2  -5   73.98   10.21
   0   2  -5   84.23    6.35
   0  -2  -5   79.52    6.01
   0   2  -6  141.40    8.36
   0  -2  -6  156.92    8.81
   0  -2  -6  161.69    8.65
   0   2  -6  158.57    8.74
   0   2  -7   15.97    2.33
   0   2  -7   13.34    1.93
   0  -2  -7   17.70    2.07
   0  -2  -7   13.54    2.26
   0   3   0    0.13    2.28
   0  -3   0   -0.13    2.05
   0  -3   0   -0.29    2.28
   0   3  -1  237.78   11.09
   0  -3  -1  239.38   11.08
   0  -3  -1  230.00   11.12
   0   3  -1  228.34   11.07
   0  -3   1  226.76   11.07
   0   3  -1  236.68   11.15
   0   3  -1  235.35   10.20
   0  -3  -2  504.92   23.94
   0  -3   2  522.92   23.41
   0   3  -2  525.11   22.98
   0  -3  -2  531.67   24.40
   0   3  -2  516.03   24.22
   0   3  -2  515.75   24.42
   0  -3  -3  718.97   34.33
   0  -3  -3  713.89   33.70
   0   3  -3  712.15   34.30
   0   3  -3  661.07   33.50
   0  -3   3  739.91   32.17
   0  -3  -4   17.13    5.99
   0   3  -4   27.69    3.54
   0  -3  -4   27.59    3.39
   0  -3  -4   23.51    3.17
   0   3  -4   37.41    6.77
   0   3  -4   24.67    6.01
   0   3  -4   26.34    3.29
   0   3  -4   29.00    2.71
   0   3  -4   30.88    3.60
   0  -3  -4   25.97    3.57
   0  -3  -4   17.87    5.38
   0   3  -5  685.80   30.20
   0   3  -5  680.00   29.98
   0   3  -5  660.59   37.38
   0  -3  -5  654.03   29.95
   0   3  -5  686.39   30.31
   0  -3  -5  707.32   30.27
   0  -3  -5  692.51   30.09
   0  -3  -5  700.79   37.29
   0   3  -6   67.30    5.14
   0  -3  -6   59.09    4.95
   0  -3  -6   71.90    5.26
   0   3  -6   67.23    4.90
   0  -3  -6   71.09    5.26
   0   3  -7   21.48    2.20
   0  -3  -7   22.66    2.19
   0   3  -7   27.45    2.49
   0   4   0 2003.25   84.78
   0  -4   0 2110.79   85.08
   0   4  -1   48.58    4.43
   0   4  -1   60.00    4.00
   0   4  -1   55.46    3.63
   0   4  -1   53.90    4.13
   0  -4  -1   64.39    4.13
   0  -4  -1   51.52    4.05
   0  -4  -1   48.63    5.32
   0  -4   1   61.64    4.59
   0   4  -2  220.27   12.34
   0  -4  -2  203.53   12.20
   0  -4  -2  235.98   12.52
   0  -4   2  224.68   11.88
   0   4  -2  224.53   12.29
   0   4  -2  231.82   11.52
   0  -4  -3  197.06   12.82
   0  -4   3  209.17   11.91
   0  -4  -3  222.96   13.54
   0   4  -3  207.39   13.19
   0   4  -3  195.29   13.37
   0  -4  -4   13.89    4.97
   0  -4  -4   10.36    2.91
   0  -4  -4   11.51    2.65
   0  -4  -4   12.26    3.05
   0   4  -4   13.14    2.86
   0   4  -4   12.61    2.68
   0   4  -4   10.18    2.76
   0   4  -4   10.92    5.08
   0  -4  -5  418.28   19.45
   0  -4  -5  400.38   19.10
   0   4  -5  421.58   25.92
   0  -4  -5  390.51   25.41
   0   4  -5  441.07   19.23
   0  -4  -5  406.74   19.12
   0   4  -5  411.75   19.08
   0  -4  -6  313.12   14.93
   0   4  -6  299.47   14.54
   0   4  -6  331.96   14.76
   0  -4  -6  313.14   14.72
   0  -4  -6  307.35   14.63
   0  -4  -7   13.36    1.74
   0   4  -7   11.74    1.76
   0   5   0   -1.39    3.17
   0  -5   0    1.03    3.14
   0  -5  -1  102.01    5.24
   0  -5  -1   87.61    7.25
   0  -5   1   80.53    6.09
   0   5  -1   85.49    5.20
   0   5   1   86.88    6.22
   0   5  -1   78.76    5.23
   0   5  -1   92.90    6.33
   0   5  -1   98.28    5.25
   0   5  -2  495.84   22.51
   0   5   2  460.29   22.22
   0  -5  -2  499.66   22.97
   0  -5   2  493.36   22.97
   0  -5  -2  442.19   22.88
   0   5  -2  498.86   23.03
   0   5  -2  508.64   22.97
   0   5  -3  360.57   19.03
   0  -5   3  348.40   18.18
   0   5   3  325.47   16.72
   0   5  -3  354.66   19.39
   0  -5  -3  373.61   19.24
   0   5  -3  323.20   16.90
   0  -5  -3  359.62   19.29
   0   5  -4   98.21   10.49
   0  -5  -4  118.97   11.23
   0   5   4  107.68    8.98
   0  -5  -4  112.22    6.57
   0   5  -4  115.26    6.68
   0   5  -4  115.24    6.73
   0  -5  -4  116.92    7.17
   0  -5  -4  113.64    6.81
   0   5  -5  283.16   13.56
   0  -5   5  277.91   12.94
   0  -5  -5  278.85   13.53
   0   5  -5  278.39   13.56
   0  -5  -5  264.02   13.71
   0  -5  -5  281.63   13.55
   0  -5  -6   30.79    3.48
   0   5  -6   29.08    3.34
   0  -5  -6   33.42    3.57
   0  -5  -6   25.95    3.13
   0   5  -6   27.60    3.14
   0  -6   0 2207.41   90.44
   0   6   0 2206.97   92.74
   0  -6   0 2319.27   93.26
   0   6  -1   96.01    5.89
   0  -6  -1   79.88    7.58
   0   6  -1   94.78    6.90
   0  -6   1   88.97    6.83
   0   6   1   93.68    6.80
   0   6  -2  206.76   11.17
   0   6   2  174.69   10.82
   0  -6   2  187.31   11.59
   0  -6  -2  198.01   10.93
   0   6  -2  199.71   11.08
   0   6  -2  209.94   11.40
   0  -6   3  790.55   34.88
   0  -6  -3  779.55   35.23
   0   6  -3  780.52   35.18
   0   6  -3  727.90   33.20
   0  -6  -3  710.00   30.93
   0  -6   3  724.04   30.76
   0   6   3  701.84   32.93
   0  -6  -4   15.76    3.03
   0  -6   4   19.77    2.63
   0   6  -4   23.21    3.26
   0   6  -4   26.95    5.86
   0   6  -4   23.01    3.18
   0  -6   4   22.11    2.99
   0  -6  -4   17.37    3.34
   0   6   4   18.35    4.75
   0  -6  -4   22.14    5.56
   0   6  -4   21.31    2.70
   0  -6  -4   20.55    2.87
   0  -6  -5   37.71    3.90
   0  -6  -5   35.78    4.22
   0   6  -5   37.74    4.07
   0   6  -5   26.10    3.54
   0  -6  -5   35.58    3.68
   0  -6   5   36.86    3.39
   0  -6  -6   18.02    2.94
   0   6  -6   20.02    2.73
   0   6  -6   13.55    2.39
   0  -6  -6   15.69    2.38
   0  -6  -6   15.73    2.68
   0   7   0    1.03    3.11
   0  -7   0    1.61    3.30
   0  -7  -1  490.99   25.38
   0   7  -1  533.03   23.18
   0   7  -1  520.37   24.40
   0   7   1  475.49   23.98
   0  -7   2  104.04    5.64
   0   7  -2  103.33    7.81
   0   7   2   97.22    7.72
   0  -7  -2  100.32    6.75
   0  -7   2  100.93    8.48
   0   7  -3  287.74   16.36
   0  -7  -3  295.44   16.36
   0  -7   3  278.20   16.79
   0  -7  -3  284.00   13.12
   0   7   3  278.53   15.29
   0   7  -3  283.95   15.46
   0   7  -3  282.41   12.99
   0  -7   3  294.99   13.17
   0  -7  -3  285.24   13.67
   0  -7   3  269.71   12.86
   0  -7  -4    1.41    2.15
   0  -7  -4    2.12    3.01
   0   7  -4    2.30    2.28
   0  -7   4    1.54    2.10
   0   7   4    2.57    4.08
   0  -7   4    4.57    2.28
   0   7  -5   10.74    2.78
   0  -7  -5   11.30    3.08
   0   7  -5   10.13    2.65
   0  -7  -5   12.47    2.72
   0  -7  -5    9.45    2.60
   0  -7   5   12.27    2.54
   0  -7   6   12.81    2.17
   0  -7  -6   16.90    2.56
   0   8   0 1201.10   52.55
   0  -8   0 1190.14   53.49
   0  -8   1 1277.19   53.98
   0  -8  -1 1158.57   54.16
   0   8  -1 1150.72   52.66
   0   8  -1 1199.23   51.41
   0   8   1 1207.63   52.75
   0   8   2  219.23   13.52
   0  -8   2  234.33   10.83
   0   8  -2  226.34   13.64
   0  -8   2  235.64   14.50
   0  -8   2  225.87   10.63
   0  -8   3  330.45   14.96
   0   8   3  332.47   17.82
   0  -8  -3  318.23   15.12
   0   8  -3  328.27   15.10
   0  -8   3  327.70   19.68
   0  -8   3  347.87   15.20
   0  -8  -3  321.84   15.60
   0   8  -3  347.18   18.13
   0  -8   4   47.01    3.88
   0  -8  -4   37.75    4.40
   0   8  -4   41.24    3.93
   0  -8   4   56.23    4.21
   0   8   4   37.62    6.52
   0  -8   5   24.02    2.90
   0  -8  -5   17.74    3.27
   0  -8   6    2.33    1.64
   0  -8  -6    5.07    1.97
   0  -9   0   -2.93    4.32
   0   9   0   -1.70    3.16
   0   9   0   -3.34    3.99
   0  -9   1  184.61   12.45
   0   9   1  191.16   11.84
   0   9  -1  169.57   11.50
   0   9  -1  168.55   10.06
   0  -9  -1  180.06   13.11
   0  -9   1  159.09    8.25
   0  -9   1  166.86    8.22
   0   9  -2  139.00   10.14
   0   9   2  134.36    9.97
   0  -9   2  128.89    6.83
   0  -9   2  122.87    6.88
   0  -9  -3  412.82   19.68
   0   9  -3  436.91   22.99
   0  -9   3  467.12   19.83
   0  -9   3  445.45   19.65
   0  -9  -3  434.18   20.17
   0   9  -3  457.13   19.83
   0   9  -4  138.14    7.67
   0  -9   4  136.85    7.59
   0  -9   4  143.07    7.56
   0   9   4  120.54   11.25
   0  -9  -4  136.07    8.07
   0  -9  -5    0.55    2.45
   0  -9   5   -0.15    2.10
   0  -9   6   15.43    1.88
   0  -9  -6   -0.79    1.25
   0 -10   0   99.33    5.43
   0  10   0  103.20    8.78
   0 -10   0   97.56    9.63
   0 -10   0   95.48    5.48
   0  10   0   91.73    8.31
   0  10   1   57.76    6.49
   0 -10  -1   53.34    3.73
   0  10  -1   49.68    3.67
   0 -10   1   55.47    7.29
   0 -10   1   47.04    3.41
   0  10  -1   49.07    5.19
   0 -10   1   51.69    3.85
   0 -10  -1   46.38    3.53
   0  10  -1   59.21    7.00
   0 -10   1   53.78    3.83
   0  10  -2   32.46    5.86
   0 -10   2   37.35    3.37
   0 -10   2   35.73    7.01
   0  10   2   27.45    5.37
   0 -10  -2   30.98    3.59
   0  10  -2   36.71    3.40
   0  10  -3  662.67   28.78
   0 -10   3  673.29   28.63
   0  10  -3  645.29   32.44
   0 -10  -3  648.81   28.69
   0 -10   3  680.82   28.73
   0 -10  -3  638.79   29.00
   0  10   3  684.73   34.61
   0 -10   4  201.14    9.89
   0  10  -4  188.78    9.88
   0 -10  -4  184.03   10.05
   0 -10   4  196.49    9.84
   0 -10  -5  132.24    7.03
   0 -10   5  133.38    6.84
   0 -10   5  121.35    7.03
   0 -10   6    5.24    1.40
   0 -11   0    0.91    2.17
   0  11   0   -1.05    1.92
   0 -11   0   -4.82    5.35
   0  11   0    0.56    3.44
   0 -11   0    1.03    1.94
   0  11   0   -1.27    3.96
   0 -11   1    9.97    2.43
   0  11   1    3.22    4.06
   0  11  -1    2.99    2.56
   0  11   1    2.65    4.47
   0 -11  -1    4.82    2.18
   0 -11   1   10.42    1.95
   0 -11   1    5.84    2.34
   0 -11   1    0.80    4.71
   0 -11  -1    5.72    2.22
   0  11  -1    8.48    4.51
   0  11  -1    5.13    2.26
   0  11   2   68.89    7.99
   0 -11   2   80.32    5.15
   0 -11   2   78.19    9.54
   0  11  -2   66.73    4.95
   0 -11  -2   72.99    5.19
   0  11  -2   76.42    8.29
   0 -11   2   77.02    4.85
   0 -11  -3  211.67   10.78
   0  11  -3  204.69   10.80
   0  11   3  213.67   15.80
   0 -11   3  207.77   10.66
   0 -11   3  214.29   16.19
   0 -11   3  217.54   10.74
   0  11  -3  228.87   14.39
   0 -11  -3  218.93   10.94
   0 -11   4   93.07    5.76
   0 -11   4   95.44    5.84
   0 -11  -4   82.99    5.64
   0 -11   4   91.14    5.74
   0  11  -4   86.57    5.79
   0 -11   5    8.50    2.07
   0 -11  -5    1.02    1.17
   0 -12   0   30.58    3.45
   0 -12   0   23.77    6.87
   0  12   0   38.15    6.54
   0  12   0   36.66    3.28
   0  12   0   36.33    5.83
   0 -12   0   32.55    3.36
   0  12  -1  107.61   10.26
   0 -12   1  105.14    5.69
   0  12   1  120.01   10.43
   0 -12  -1  107.52    6.14
   0 -12   1  101.60    6.20
   0 -12   1  104.32    6.31
   0  12  -1   95.78    6.02
   0 -12   1   95.67   11.01
   0 -12  -1   99.98    5.93
   0  12   1  110.45   10.33
   0 -12   2  193.98   15.93
   0 -12   2  216.56   10.13
   0  12  -2  211.01   10.46
   0  12   2  195.24   14.33
   0  12  -2  202.59   14.46
   0 -12  -2  200.59   10.73
   0 -12   2  193.95   10.34
   0 -12   3  119.04    7.08
   0 -12  -3  125.82    7.20
   0 -12  -3  119.33    6.90
   0  12   3  101.51   11.00
   0 -12   3  128.48    7.02
   0 -12   3  118.57    7.11
   0 -12   4   56.97    3.69
   0 -12   4   60.36    3.82
   0 -12   4   57.27    3.72
   0 -12   5  109.20    5.76
   0 -12   5  106.11    5.64
   0  13   0    2.60    3.87
   0 -13   0    5.03    4.99
   0  13   0    1.43    2.10
   0 -13   0    1.12    2.49
   0  13   0    3.95    4.36
   0 -13   0   -0.74    2.46
   0  13   1   78.17    9.24
   0 -13   1   91.07   10.64
   0  13  -1   79.72    5.45
   0  13  -1   77.50    9.17
   0 -13  -1   84.45    5.34
   0  13   1   88.59    9.46
   0 -13   1   81.53    5.65
   0 -13  -1   88.99    5.54
   0 -13   1   84.78    5.65
   0  13  -2  525.53   28.46
   0  13  -2  525.53   23.40
   0 -13  -2  532.48   23.75
   0 -13   2  518.65   30.12
   0 -13   2  539.11   22.94
   0 -13   2  511.48   23.32
   0  13   2  479.52   29.04
   0  13   2  519.96   28.38
   0 -13   3   15.94    3.12
   0 -13   3   10.44    2.85
   0 -13   3   12.77    2.45
   0 -13  -3    9.78    2.64
   0 -13   4   24.76    2.97
   0 -13   4   25.11    3.01
   0 -13   4   26.60    2.89
   0 -13   5    6.65    1.51
   0 -13   5    5.93    1.50
   0  14   0  140.54   12.02
   0 -14   0  128.49    7.19
   0 -14   0  123.28    7.20
   0  14   0  114.27    6.80
   0  14  -1   67.33    5.07
   0 -14   1   63.88    9.57
   0  14  -1   66.23    8.48
   0  14   1   76.97    9.29
   0  14   1   87.55    9.31
   0 -14  -1   74.51    4.96
   0 -14   1   78.54    5.46
   0 -14   1   71.17    5.26
   0 -14  -2  257.00   12.93
   0 -14   2  244.63   12.54
   0  14  -2  260.94   12.68
   0 -14   2  267.19   12.08
   0 -14   3   44.44    3.55
   0 -14  -3   42.18    3.79
   0 -14   3   49.59    4.10
   0 -14   4   13.16    2.15
   0 -14   4   13.72    2.41
   0 -14   4   10.91    2.41
   0 -15   0    0.73    2.49
   0 -15   0    1.69    2.48
   0  15   0   -1.15    2.07
   0 -15   1   65.78    4.95
   0 -15   1   63.65    4.98
   0  15  -1   59.48    4.66
   0  15  -2   15.83    3.02
   0 -15  -2   21.75    3.25
   0 -15   2   23.56    3.38
   0 -15   2   14.32    3.00
   0 -15  -3    4.25    1.82
   0 -15   3    1.14    2.30
   0 -15   3    4.75    1.72
   0 -15   4    9.96    2.05
   0 -15   4    9.13    1.53
   0 -15   4    8.23    1.90
   0 -16   0  131.56    7.24
   0 -16   0  129.80    7.24
   0 -16  -1   16.99    3.20
   0 -16   1   22.67    3.13
   0 -16   1   16.19    2.97
   0 -16  -2    1.77    2.15
   0 -16   2    0.16    2.25
   0 -16   2    0.33    2.40
   0 -16   3   68.62    4.45
   0 -17   0    0.74    2.01
   0 -17   0   -0.89    2.09
   0 -17  -1    5.49    2.42
   0 -17   1    6.12    2.24
   0 -17   1    6.54    2.31
   0 -17   2    8.67    2.24
   0 -17   2    6.20    2.19
   0 -17  -2    6.04    1.86
   0 -17   3    4.64    1.76
   0 -18   0   18.55    2.71
   0 -18  -1    3.84    1.82
   0 -18   1    2.21    1.60
   0 -18   1    2.49    1.71
   0 -18   2    4.54    1.64
   1   0  -7   -2.89    1.75
   1   0  -6   -0.14    1.84
   1   0  -6    1.48    2.82
   1   0  -6   -0.63    3.28
   1   0  -5   11.03    3.45
   1   0  -5    8.06    5.80
   1   0  -5   11.17    3.26
   1   0  -5   14.72    2.73
  -1   0   5    8.52    5.03
   1   0  -5   13.62    3.64
   1   0  -4  118.90    6.60
   1   0  -4  122.44    7.15
   1   0  -4  119.66    6.79
   1   0  -4  110.35    6.99
   1   0  -4   95.16   10.73
  -1   0   4  114.26   10.29
   1   0  -3  610.16   30.33
   1   0  -2  173.36   11.81
  -1   0   2  222.45   11.53
  -1   0   1 3435.26  132.79
   1   0  -1 3293.23  133.58
   1   0  -1 3187.95  130.81
  -1   0   0  364.70   16.40
   1   0   0  347.13   16.07
   1   0   0  350.44   16.20
   1   0   1  179.32    9.15
  -1   0  -1  197.51   12.01
   1   0   2    3.54    2.06
  -1   0  -2    2.66    4.58
   1   0   2    2.27    3.32
  -1   0  -3   -1.46    4.82
  -1   0  -3   -0.30    2.12
   1   0   3    2.39    3.44
  -1   0  -4    1.63    2.51
  -1   0  -4   -1.78    3.05
  -1   0  -4    3.38    2.58
  -1   0  -4    3.88    5.77
   1   0   4    2.20    3.27
  -1   0  -4    2.18    3.24
  -1   0  -5  245.89   14.79
  -1   0  -5  288.96   20.88
  -1   0  -5  289.77   14.34
  -1   0  -5  308.52   14.00
  -1   0  -5  274.94   14.05
  -1   0  -6   14.64    3.40
  -1   0  -6   23.34    3.23
  -1   0  -6   17.60    3.09
  -1   0  -7  121.53    5.85
   1   1  -7    8.39    1.87
   1   1  -7    7.91    2.20
   1   1  -6   31.92    3.80
   1  -1  -6   26.47    2.73
   1   1  -6   29.92    4.07
   1  -1  -5   12.84    2.79
   1   1  -5    9.42    2.57
   1  -1  -5    9.85    3.12
   1   1  -5   11.11    3.39
   1   1  -5    8.94    5.92
   1   1  -5   11.99    3.70
   1  -1  -5   20.32    6.97
  -1  -1   5   13.67    5.86
  -1   1   5    3.89    4.80
   1   1  -4  168.01    8.72
  -1   1   4  171.40   12.61
  -1  -1   4  185.95   13.64
   1   1  -4  184.60    9.22
   1  -1  -4  168.94    8.72
   1   1  -4  177.83   13.74
   1  -1  -4  171.78    8.93
   1   1  -4  175.13    9.08
   1   1  -4  151.01    8.96
  -1   1   3 1620.27   67.39
   1   1  -3 1464.17   68.02
  -1   1   2  180.40   10.51
   1   1  -2  185.72   11.53
  -1  -1   2  188.21   10.95
   1  -1  -1 9999.00  397.23
  -1  -1   1 9518.81  398.87
   1   1  -1 9097.36  399.64
   1   1  -1 9947.56  398.83
  -1   1   1 9835.30  398.75
   1   1   0 3128.76  128.07
   1  -1   0 3003.74  128.01
   1  -1   0 3206.21  127.91
  -1   1   0 3161.92  128.29
  -1   1  -1  226.22   12.26
   1   1   1  225.95   11.20
  -1  -1  -1  233.64   11.99
  -1   1  -1  201.68   13.09
   1  -1   1  236.61   10.85
  -1   1  -2    1.06    4.47
   1   1   2    0.58    2.15
   1  -1   2    0.59    1.61
   1   1   2   -0.38    3.78
   1  -1   2    0.74    3.22
  -1   1  -3   97.89    9.76
  -1   1  -3  102.71    5.78
   1  -1   3   95.20    8.19
   1   1   3   95.66    8.32
  -1   1  -4  184.22   10.72
   1  -1   4  187.38   12.68
  -1   1  -4  220.93   16.59
  -1   1  -4  201.83   10.45
  -1   1  -4  208.45   10.14
  -1  -1  -4  203.82   10.27
  -1   1  -4  198.21   10.20
  -1   1  -5  226.63   11.23
  -1   1  -5  200.44   12.28
  -1   1  -5  226.25   11.66
  -1   1  -5  215.27   17.72
  -1  -1  -5  229.53   11.49
  -1   1  -5  203.53   11.25
  -1   1  -6   15.65    3.46
  -1   1  -6   10.99    2.71
  -1  -1  -6   12.28    2.90
  -1   1  -6   16.99    2.89
  -1   1  -7  109.49    5.30
   1  -2  -7   17.87    2.19
   1   2  -7   25.43    2.55
   1  -2  -7   22.26    2.45
   1   2  -7   23.96    2.27
   1  -2  -6   60.89    4.96
   1   2  -6   64.48    5.05
   1   2  -6   50.45    4.55
   1  -2  -6   53.46    4.69
   1  -2  -6   51.84    3.70
   1   2  -5    6.05    3.02
   1  -2  -5    0.66    2.75
  -1  -2   5    6.64    5.30
   1  -2  -5    2.35    2.36
   1   2  -5    3.44    2.39
   1   2  -5    6.85    5.18
   1  -2  -5    6.11    3.13
   1   2  -5    0.46    3.15
   1  -2  -5    1.02    5.61
   1  -2  -5    1.93    3.02
   1   2  -4  139.94    7.74
   1  -2  -4  132.56    7.39
   1   2  -4  131.42    7.32
  -1   2   4  137.95   10.75
   1  -2  -4  155.36   12.75
   1  -2  -4  139.62    7.78
   1  -2  -4  137.08    7.47
   1   2  -4  131.41    7.67
   1  -2  -4  132.58    7.76
   1   2  -4  138.03   11.83
   1  -2  -3  118.05    6.46
   1  -2  -3  125.86    6.42
   1   2  -3  115.48    6.47
   1  -2  -3  113.76    9.94
  -1   2   3  123.06    8.91
   1   2  -3  134.16   10.13
   1   2  -3  118.52    6.34
  -1   2   2    4.21    3.09
   1  -2  -2    0.80    3.92
   1   2  -2    6.87    2.94
  -1  -2   2   10.78    3.96
   1   2  -2    4.26    3.68
   1  -2  -1 5153.51  210.18
   1   2  -1 5217.54  209.81
   1  -2  -1 5159.44  208.58
   1   2  -1 5140.15  210.28
  -1   2   1 5085.21  209.68
   1  -2  -1 5010.36  210.70
   1   2  -1 5184.40  210.72
   1  -2   0 3964.13  162.85
  -1   2   0 3982.33  162.94
  -1  -2   0 4072.26  162.88
   1   2   0 3952.56  162.69
   1   2   0 4004.19  162.95
   1  -2   0 3938.27  162.72
  -1   2  -1  459.92   23.20
  -1  -2  -1  458.22   23.15
  -1  -2  -1  462.40   21.57
   1  -2   1  470.27   20.43
   1   2   1  469.15   20.14
   1   2   1  477.52   21.23
   1  -2   2  284.18   14.68
  -1  -2  -2  244.62   15.53
  -1   2  -2  253.95   15.88
   1   2   2  260.97   13.07
   1   2   3   12.07    4.19
  -1   2  -3   11.62    5.80
  -1  -2  -3   12.30    5.23
   1   2   3   12.04    2.86
  -1   2  -3   12.56    2.44
   1  -2   3   18.38    4.40
  -1  -2  -3   12.44    2.35
  -1  -2  -4  445.09   21.96
  -1  -2  -4  487.32   21.35
  -1  -2  -4  471.34   28.15
  -1   2  -4  456.26   21.42
   1  -2   4  442.99   24.23
  -1  -2  -4  440.68   21.46
  -1   2  -4  487.86   21.21
  -1   2  -4  518.32   21.42
  -1  -2  -4  488.92   21.54
  -1   2  -4  453.23   21.95
   1   2   4  455.44   24.54
  -1  -2  -5  341.09   24.45
  -1   2  -5  422.87   25.65
  -1   2  -5  392.76   18.12
  -1  -2  -5  383.99   17.83
  -1  -2  -5  422.28   18.26
  -1   2  -5  384.38   17.66
  -1   2  -5  363.65   17.75
  -1  -2  -5  391.55   18.17
  -1  -2  -5  352.72   18.68
  -1   2  -5  340.73   18.63
  -1   2  -6   13.99    2.56
  -1  -2  -6    9.37    2.65
  -1  -2  -6    5.92    3.03
  -1   2  -6    9.42    3.11
  -1  -2  -6   16.99    3.03
  -1   2  -7   15.25    1.69
  -1  -2  -7   12.31    1.63
   1   3  -7   81.31    4.39
   1  -3  -7   78.20    4.36
   1  -3  -6   32.67    2.84
   1   3  -6   32.22    3.89
   1  -3  -6   37.93    3.94
   1   3  -6   33.85    3.70
   1  -3  -6   31.61    3.71
   1   3  -5   15.49    3.19
   1   3  -5   16.15    3.62
   1   3  -5   15.50    2.83
  -1  -3   5    5.74    5.59
   1  -3  -5   13.04    6.40
   1   3  -5    6.75    5.42
   1  -3  -5   14.72    3.37
   1  -3  -5   12.08    3.19
   1  -3  -5   17.48    2.91
   1  -3  -5   14.69    3.34
   1  -3  -4    5.74    2.67
   1  -3  -4    7.51    2.37
   1   3  -4   10.12    5.00
   1   3  -4    7.95    2.50
  -1   3   4    9.56    3.96
   1   3  -4    8.18    2.97
   1  -3  -4    5.39    2.81
   1  -3  -4    6.46    4.64
   1  -3  -4    8.44    2.51
   1   3  -4    8.42    2.67
   1  -3  -3   29.59    2.96
   1   3  -3   32.08    2.85
   1   3  -3   26.98    5.34
  -1   3   3   34.70    4.78
   1  -3  -3   19.92    5.03
   1   3  -3   29.63    2.85
   1  -3  -3   23.40    2.86
   1   3  -2   81.93    5.75
   1   3  -2   77.41    6.54
  -1   3   2   70.13    5.64
   1   3  -2   67.68    6.60
   1  -3  -2   73.76    7.06
   1  -3  -1  618.05   27.54
   1  -3  -1  604.37   25.84
   1   3  -1  620.56   26.81
   1   3  -1  582.66   27.12
  -1  -3   1  592.38   27.09
   1   3  -1  590.40   27.59
  -1   3   1  598.41   26.44
   1  -3  -1  608.72   27.55
  -1   3   0 1013.58   44.33
  -1  -3   0 1069.76   44.13
   1   3   0 1028.91   44.22
   1  -3   0 1055.73   44.28
  -1   3  -1 1160.42   53.89
  -1  -3  -1 1282.57   52.54
   1   3   1 1242.36   51.63
   1   3   1 1238.04   52.65
  -1  -3  -1 1244.65   54.29
  -1   3  -2 1718.74   76.42
   1   3   2 1739.69   74.21
   1  -3   2 1858.68   75.39
  -1  -3  -2 1753.61   76.62
  -1   3  -2 1760.45   72.08
   1   3   3   15.73    4.48
  -1   3  -3   15.54    2.54
  -1  -3  -3   16.04    2.50
   1   3   3   13.36    3.40
   1  -3   3    6.05    3.82
  -1   3  -3   28.38    5.86
  -1  -3  -3   21.31    5.76
  -1  -3  -4  731.72   31.14
  -1   3  -4  676.56   31.35
  -1  -3  -4  666.12   31.26
   1   3   4  707.43   34.55
  -1   3  -4  697.62   30.78
  -1   3  -4  790.38   38.39
  -1  -3  -4  669.12   30.82
  -1  -3  -4  733.70   38.01
  -1   3  -4  718.59   30.49
  -1   3  -4  750.39   30.73
  -1  -3  -4  726.79   30.60
   1  -3   4  625.57   33.71
   1  -3   5  213.73   10.57
  -1   3  -5  209.45   12.31
  -1  -3  -5  217.42   12.33
  -1   3  -5  242.84   17.97
  -1   3  -5  205.35   11.28
  -1   3  -5  220.41   11.59
  -1  -3  -5  247.88   12.03
  -1  -3  -5  224.39   11.32
  -1   3  -5  225.39   11.25
  -1  -3  -5  231.40   11.87
  -1  -3  -5  233.89   18.05
  -1   3  -6   -0.16    2.23
  -1   3  -6    2.59    2.58
  -1  -3  -6    2.61    2.32
  -1  -3  -6   -0.91    2.43
  -1  -3  -6    2.78    2.93
   1   4  -6  282.40   12.90
   1  -4  -6  281.63   12.86
   1  -4  -6  283.64   12.97
   1   4  -6  295.25   12.96
  -1  -4   6  265.32   12.00
   1  -4  -5   33.34    4.04
   1  -4  -5   35.80    3.93
   1  -4  -5   36.07    3.69
   1   4  -5   38.61    3.69
  -1  -4   5   31.08    6.72
   1  -4  -5   19.46    6.93
   1   4  -5   40.91    4.10
   1   4  -5   48.19    7.99
   1   4  -5   34.39    4.36
   1  -4  -5   31.93    4.07
   1   4  -4   -0.58    2.44
   1  -4  -4   -0.20    2.46
   1   4  -4    1.47    2.40
   1  -4  -4    0.37    2.31
   1   4  -4    0.54    2.11
  -1  -4   4   -0.83    4.31
   1  -4  -4    3.22    4.79
   1   4  -4    4.72    4.84
   1  -4  -4    1.06    2.22
   1  -4  -4    0.92    2.71
   1  -4  -3    7.79    2.24
   1   4  -3    9.68    2.23
  -1   4   3    9.79    3.14
   1  -4  -3   10.82    4.09
   1   4  -3    5.60    4.24
   1  -4  -3   15.71    2.37
   1   4  -3    8.35    2.22
  -1   4   2   11.91    2.94
   1   4  -2   11.76    2.98
   1   4  -2   11.38    3.64
   1  -4  -2   11.51    3.83
   1   4  -2    6.69    3.50
  -1  -4   2    8.51    3.96
   1  -4  -1  270.31   13.73
   1   4  -1  236.63   12.27
  -1   4   1  215.33   11.54
  -1  -4   1  237.54   10.84
   1  -4  -1  237.17   12.87
   1   4  -1  260.54   13.00
   1  -4  -1  238.05   11.73
   1   4  -1  237.64   13.04
  -1  -4   1  256.07   12.69
   1  -4   0  115.52    7.86
  -1   4   0   97.78    6.54
   1   4   0  101.99    6.75
  -1  -4   0  106.99    6.39
   1  -4   0  105.25    6.99
  -1   4  -1  353.91   15.80
  -1  -4  -1  352.82   16.09
   1   4   1  344.83   15.66
   1   4   1  334.39   16.62
  -1  -4  -1  307.35   17.44
  -1   4  -1  292.91   17.20
   1  -4   2 1397.37   60.42
   1   4   2 1427.11   59.88
  -1   4  -2 1399.06   57.84
  -1   4  -2 1300.63   61.14
  -1  -4  -2 1416.87   61.78
  -1   4  -3   51.27    3.88
  -1  -4  -3   49.34    3.80
   1  -4   3   50.76    6.33
  -1   4  -3   56.67    7.44
  -1  -4  -3   50.86    7.25
   1   4   3   48.12    5.45
  -1   4  -4  225.20   16.28
  -1  -4  -4  244.97   16.77
  -1   4  -4  205.07   11.28
  -1  -4  -4  194.34   11.19
   1   4   4  206.01   14.16
  -1   4  -4  224.02   10.90
  -1   4  -4  199.42   10.34
  -1   4  -4  209.12   10.61
  -1  -4  -4  206.17   10.78
  -1  -4  -4  221.49   11.30
  -1  -4  -4  210.49   10.66
   1  -4   4  189.31   13.43
  -1   4  -5   73.07    6.29
  -1  -4  -5   69.87    6.32
  -1  -4  -5   87.92    6.30
   1  -4   5   75.39    4.99
  -1   4  -5   88.11    6.06
  -1  -4  -5   83.25    5.91
  -1   4  -5   81.58    5.49
  -1  -4  -5   81.43    5.64
  -1  -4  -6   21.21    2.74
  -1  -4  -6   22.40    3.07
  -1   4  -6   19.14    2.63
  -1   4  -6   29.04    3.22
  -1  -4  -6   23.20    3.23
   1  -5  -6  275.34   12.93
   1   5  -6  287.91   12.96
   1  -5  -6  276.92   12.90
   1   5  -6  276.29   12.89
  -1  -5   6  260.83   12.21
   1  -5  -5  119.67    7.07
   1  -5  -5  114.38    6.60
  -1  -5   5  103.96   11.23
   1   5  -5  112.56    7.01
   1   5  -5  101.05    6.76
   1  -5  -5  122.87    7.11
   1  -5  -5  100.43    6.66
   1  -5  -4   78.07    5.46
   1  -5  -4   85.48    9.32
  -1  -5   4   83.54    5.21
   1   5  -4   76.37    5.35
   1   5  -4   87.15    5.67
   1  -5  -4   83.17    5.61
   1   5  -4   90.51    5.68
   1  -5  -4   81.29    5.55
   1  -5  -4   88.09    5.41
   1   5  -4   72.44    9.21
   1  -5  -3   18.43    2.81
   1   5  -3   22.80    2.64
   1  -5  -3   17.34    2.48
   1   5  -3   20.05    4.96
   1  -5  -3   15.93    4.76
   1   5  -3   17.46    2.63
  -1   5   2  141.88    8.13
  -1  -5   2  155.36   10.23
   1   5  -2  157.05    8.86
   1   5  -2  143.69    9.83
   1   5  -2  142.21    9.74
   1  -5  -2  154.04   10.04
  -1  -5   1  881.39   36.62
   1   5  -1  859.73   36.58
   1  -5  -1  830.95   38.02
  -1  -5   1  824.47   35.00
   1  -5  -1  799.38   36.30
   1   5  -1  833.60   36.31
  -1   5   1  770.59   35.21
   1   5  -1  877.16   36.94
  -1  -5   0  317.94   14.71
   1   5   0  288.95   15.21
   1   5   0  300.26   15.29
   1  -5   0  287.94   15.14
   1  -5   0  322.21   15.79
   1  -5   0  342.73   16.74
  -1   5  -1   39.92    5.20
  -1  -5  -1   40.47    5.55
   1   5   1   46.85    4.45
   1   5   1   54.43    5.53
  -1   5  -1   52.51    4.78
  -1  -5  -1   46.70    4.15
  -1  -5  -2 1262.73   56.93
   1   5   2 1264.49   53.86
  -1   5  -2 1294.27   54.01
  -1   5  -2 1244.51   56.64
   1   5   2 1355.07   56.25
   1  -5   2 1272.84   56.35
  -1  -5  -3  156.32   12.30
   1   5   3  153.88   10.63
  -1   5  -3  154.79   12.02
  -1  -5  -3  157.04    8.79
   1  -5   3  142.22   11.09
  -1   5  -3  156.54    7.96
  -1  -5  -3  152.97    8.04
  -1   5  -4   54.02    7.75
  -1   5  -4   44.10    4.80
  -1  -5  -4   49.17    7.64
  -1  -5  -4   40.17    4.61
  -1   5  -4   44.11    4.11
  -1  -5  -4   44.10    4.30
  -1  -5  -4   40.66    4.75
  -1   5  -4   44.31    4.00
  -1  -5  -4   46.63    4.13
   1  -5   4   42.08    6.38
   1   5   4   42.94    6.64
   1  -5   5  150.54    8.13
  -1   5  -5  153.77    8.64
  -1  -5  -5  161.25    8.75
  -1  -5  -5  159.04    9.09
  -1   5  -5  148.92    8.39
  -1  -5  -5  154.01    8.39
  -1   5  -6    8.32    2.11
  -1  -5  -6    8.12    2.03
  -1   5  -6   12.89    2.50
  -1  -5  -6   10.35    2.52
  -1  -5  -6   11.78    2.54
   1   6  -6  127.56    5.20
   1   6  -6  128.04    5.14
   1  -6  -6  124.51    5.16
  -1  -6   6  130.65    4.61
   1  -6  -5   77.15    5.29
  -1  -6   5   78.14    4.96
   1   6  -5   86.76    5.82
   1  -6  -5   88.24    5.80
   1   6  -5   91.05    5.78
   1  -6  -5   80.36    5.59
   1  -6  -5   84.85    5.49
   1  -6  -4  230.07   11.29
   1   6  -4  212.90   15.96
   1  -6  -4  186.89   15.14
   1   6  -4  219.68   11.02
  -1  -6   4  207.04   16.06
  -1  -6   4  227.29   10.87
   1   6  -4  233.33   11.13
   1  -6  -4  219.67   11.03
   1  -6  -4  214.84   10.87
   1  -6  -4  221.37   10.96
   1  -6  -3  257.56   11.91
   1   6  -3  221.18   15.06
   1   6  -3  274.22   15.47
  -1  -6   3  245.41   16.01
   1  -6  -3  232.97   11.35
   1  -6  -3  239.13   15.08
   1   6  -2  333.35   15.11
   1   6  -2  365.33   18.39
  -1  -6   2  350.77   18.19
   1   6  -2  324.04   16.54
   1  -6  -2  318.33   17.40
   1   6  -2  371.89   18.04
  -1  -6   1  800.10   35.13
   1  -6  -1  812.21   35.76
  -1   6   1  757.96   34.68
  -1  -6   1  896.28   36.40
   1   6  -1  793.45   36.19
   1   6  -1  883.10   37.16
   1   6  -1  874.40   36.11
   1  -6  -1  804.26   38.10
   1   6   0   10.56    3.54
  -1   6   0    8.41    3.13
  -1  -6   0    9.48    2.50
   1   6   0   12.65    3.61
   1   6   0    6.67    2.92
   1  -6   0   11.98    2.84
   1  -6   0   12.24    3.79
  -1  -6   0    5.45    3.16
  -1   6  -1  164.78   10.34
  -1   6  -1  203.45   10.68
   1   6   1  172.15   10.17
   1   6   1  191.37   11.46
  -1  -6  -1  167.57   10.54
  -1  -6  -2   52.80    6.18
   1  -6   2   57.66    3.77
   1   6   2   66.90    5.06
  -1   6  -2   49.47    4.62
  -1   6  -2   63.10    6.37
   1  -6   2   55.66    6.30
   1   6   2   55.94    6.28
  -1   6  -3   12.20    2.27
  -1  -6  -3    9.59    2.38
  -1   6  -3    8.65    2.05
   1  -6   3    9.54    2.14
  -1  -6  -3    6.12    2.51
   1   6   3   10.52    4.06
   1  -6   3    8.65    1.94
   1  -6   3    3.11    3.88
  -1   6  -3    9.24    4.69
  -1  -6  -3    4.73    3.75
  -1  -6  -4   21.40    3.38
  -1   6  -4   28.75    3.28
  -1  -6  -4   22.54    3.20
  -1   6  -4   24.17    3.74
  -1   6  -4   32.65    3.63
   1   6   4   22.39    5.06
   1  -6   4   25.60    3.00
  -1  -6  -4   36.65    6.72
  -1   6  -4   24.02    5.95
  -1  -6  -4   17.84    3.75
   1  -6   4   10.31    4.34
  -1  -6  -5   79.92    5.41
  -1  -6  -5   66.81    4.88
  -1   6  -5   77.19    5.21
   1  -6   5   65.51    4.80
  -1   6  -5   74.87    5.10
  -1  -6  -6    3.24    1.67
   1  -6   6    3.89    1.48
  -1   6  -6    2.22    1.51
  -1   6  -6    5.94    1.89
  -1  -6  -6    1.85    1.47
  -1  -7   6    8.59    1.65
   1  -7  -5   32.18    3.41
   1  -7  -5   30.67    3.23
   1   7  -5   33.06    3.43
   1   7  -5   32.17    3.54
  -1  -7   5   36.51    3.68
   1  -7  -5   30.74    3.40
  -1  -7   5   30.81    2.91
   1  -7  -5   27.08    3.01
   1  -7  -4  228.33   11.51
   1  -7  -4  213.96   11.03
  -1  -7   4  244.80   11.30
  -1  -7   4  211.84   16.68
   1  -7  -4  229.43   11.22
   1   7  -3  529.05   27.42
   1  -7  -3  522.49   23.60
   1  -7  -3  487.93   26.79
  -1  -7   3  553.15   28.50
  -1  -7   3  543.61   23.25
   1   7  -3  540.53   27.44
   1   7  -2  245.05   12.70
  -1  -7   2  236.55   14.09
   1   7  -2  260.91   14.75
   1   7  -2  231.12   13.46
   1  -7  -2  234.22   11.36
   1  -7  -2  222.57   13.09
   1  -7  -1  831.24   37.73
  -1  -7   1  748.97   33.95
  -1  -7   1  778.05   34.65
   1   7  -1  826.63   36.03
   1   7  -1  800.61   35.13
   1  -7  -1  739.94   33.62
  -1  -7   0  135.30    7.50
   1  -7   0  130.28    7.21
   1   7   0  146.60    9.59
   1   7   0  170.87    9.85
   1  -7   0  133.88    9.56
  -1  -7   0  107.23    7.46
   1   7   1   97.59    8.26
   1   7   1  107.83    7.73
  -1   7  -1  103.02    7.77
  -1  -7  -1   99.27    6.90
   1   7   2   71.98    7.58
   1  -7   2   71.08    4.45
   1  -7   2   57.83    7.33
  -1   7  -2   79.84    6.06
  -1   7  -2   77.06    6.72
  -1  -7  -2   70.40    6.55
   1   7   2   72.03    5.85
   1  -7   2   72.93    4.48
   1  -7   2   68.99    4.35
   1  -7   3   10.94    2.27
   1  -7   3    4.05    2.02
  -1  -7  -3    4.98    3.29
  -1   7  -3    6.90    2.23
  -1  -7  -3    8.30    3.67
   1   7   3    5.61    4.16
   1  -7   3    6.82    4.07
   1  -7   3    6.80    2.02
   1  -7   4    5.07    2.14
   1  -7   4    4.22    2.23
  -1  -7  -4    6.37    2.41
  -1  -7  -4    3.32    2.74
  -1   7  -4    4.13    2.07
  -1  -7  -4    6.77    2.63
   1  -7   4   -0.73    4.07
   1   7   4    2.08    3.62
  -1  -7  -5   14.02    2.46
   1  -7   5   16.62    2.69
  -1   7  -5   12.54    2.68
  -1  -7  -5   17.35    2.72
   1  -7   6   15.81    1.82
  -1  -8   6    9.27    1.58
   1  -8  -5   44.93    3.82
  -1  -8   5   51.20    3.75
   1  -8  -4  672.88   30.15
  -1  -8   4  715.52   30.03
  -1  -8   4  667.25   36.44
   1  -8  -3  266.87   13.14
  -1  -8   3  267.73   17.28
   1   8  -3  264.31   16.83
  -1  -8   3  265.27   12.69
  -1  -8   2  105.40    8.38
   1   8  -2  104.95    7.22
   1   8  -2  100.79    5.85
   1  -8  -2   91.73    5.44
   1  -8  -2  104.89    6.37
   1   8  -2  101.97    9.11
   1  -8  -2  107.56    6.17
   1  -8  -2   98.41    6.17
  -1  -8   1   81.60    6.38
  -1  -8   1   79.27    6.39
   1  -8  -1   98.69    5.47
   1   8  -1   71.60    6.98
  -1  -8   1   94.21    5.17
   1   8  -1   89.88    8.05
   1  -8  -1   94.17    5.52
  -1   8   0  578.12   26.48
   1   8   0  517.31   25.88
   1  -8   0  524.62   22.71
   1  -8   0  517.22   26.46
   1   8   0  512.12   25.94
   1  -8   1    9.19    2.24
   1  -8   1    3.40    4.66
   1  -8   1    6.32    1.83
   1  -8   1    5.60    2.01
   1   8   1    7.30    3.56
  -1   8  -1    5.77    3.43
  -1   8  -2   19.92    3.73
   1  -8   2   20.42    2.66
  -1   8  -2   15.28    2.47
   1   8   2   27.00    5.33
   1   8   2   14.81    3.67
   1  -8   2   19.93    5.17
   1  -8   2   19.40    2.54
  -1   8  -3    3.08    2.13
   1  -8   3    2.43    2.16
   1   8   3   -1.37    4.11
   1  -8   3    1.13    2.10
  -1  -8  -3    3.93    3.33
   1  -8   3    2.25    4.09
   1  -8   3    2.99    1.97
   1   8   4   27.18    5.76
   1  -8   4   31.47    3.43
  -1   8  -4   35.18    3.29
  -1  -8  -4   29.84    4.35
   1  -8   4   22.69    5.67
   1  -8   4   30.55    3.16
   1  -8   5   20.19    2.88
  -1  -8  -5   22.34    3.59
   1  -8   6   -0.88    1.24
  -1  -8  -6    0.98    1.71
  -1  -9   6   41.30    2.56
  -1  -9   5   32.15    2.91
   1  -9  -5   28.80    2.97
  -1  -9   5   32.58    3.29
   1  -9  -4  392.52   18.93
  -1  -9   4  358.98   24.29
  -1  -9   4  418.72   18.78
  -1  -9   4  449.71   19.30
   1  -9  -3  115.74    7.28
  -1  -9   3  118.00   10.62
  -1  -9   3  129.29    7.03
   1   9  -3  115.76   10.61
   1  -9  -2  107.04    6.75
   1   9  -2  103.88    6.22
  -1  -9   2  112.40    8.72
   1   9  -2  106.35    9.85
   1  -9  -2  114.08    6.50
  -1   9   2  110.05    9.82
   1  -9  -2   97.80    6.40
   1  -9  -1  116.12    6.45
   1  -9  -1  102.90    5.78
   1   9  -1  114.43    8.72
  -1  -9   1  114.88    6.10
   1   9  -1  109.61    9.43
  -1   9   1  121.66   10.03
  -1  -9   1  120.10    6.08
   1  -9  -1   99.59    6.33
  -1  -9   1   92.12    7.12
  -1   9   0  522.70   26.37
   1  -9   0  523.77   22.13
   1  -9   0  509.10   22.34
  -1  -9   0  512.74   21.94
   1  -9   0  504.95   22.35
   1   9   0  513.55   26.07
   1   9   0  509.94   26.02
   1  -9   1   15.13    2.53
   1  -9   1   21.93    6.02
   1   9   1   15.42    4.26
   1  -9   1   16.79    2.33
  -1   9  -1   16.15    2.39
  -1   9  -1   12.76    4.09
   1  -9   1   16.13    2.62
   1  -9   2  374.77   16.22
  -1   9  -2  335.78   16.03
   1   9   2  343.50   20.56
   1   9   2  357.93   18.96
  -1   9  -2  382.84   19.29
   1  -9   2  359.89   16.22
   1  -9   2  324.74   21.07
   1  -9   2  361.39   16.15
   1   9   3  109.31   10.24
  -1   9  -3   99.18    5.94
   1  -9   3   97.29    6.05
   1  -9   3  106.32    6.12
   1  -9   3   83.66    9.94
  -1  -9  -3   98.15    7.11
   1  -9   3   98.96    5.91
  -1   9  -4  117.86    6.69
   1  -9   4  130.15    7.00
   1  -9   4  119.49    6.95
  -1  -9  -4  113.20    7.73
   1  -9   4  117.27    6.67
   1  -9   5   24.04    2.89
  -1  -9  -5   17.77    3.21
  -1  -9  -6    1.86    1.37
  -1 -10   5   15.22    2.22
   1 -10  -5   12.19    2.23
   1 -10  -4   41.20    4.05
  -1 -10   4   40.76    3.85
  -1 -10   4   46.96    4.32
   1 -10  -3   10.21    3.28
   1  10  -3    9.09    4.99
  -1 -10   3   20.17    5.35
  -1 -10   3   13.89    3.06
  -1  10   3   15.66    5.40
  -1 -10   3   16.93    3.21
  -1  10   2   19.88    5.59
   1 -10  -2   12.68    3.11
   1 -10  -2   14.33    3.42
   1  10  -2   14.28    2.90
   1  10  -2    9.54    4.90
  -1 -10   2   21.43    3.03
   1 -10  -2   22.29    3.29
  -1 -10   2   18.24    2.98
   1 -10  -1    8.31    2.89
  -1 -10   1   15.29    2.54
   1  10  -1   12.33    4.17
   1  10  -1   14.59    4.95
   1 -10  -1   10.45    2.16
   1 -10  -1   15.44    2.95
  -1  10   1   10.43    5.03
  -1 -10   1   11.64    2.29
   1  10  -1   11.25    2.51
   1 -10   0  260.93   18.13
   1  10   0  255.18   16.13
  -1  10   0  241.04   12.02
  -1 -10   0  273.77   12.05
   1  10   0  275.76   16.51
   1 -10   0  272.56   12.23
  -1  10   0  281.20   16.83
   1 -10   0  268.03   12.53
   1 -10   0  260.45   12.53
   1  10   1  149.61   11.41
   1 -10   1  171.95   13.76
   1  10   1  147.16   11.97
   1 -10   1  163.74    8.19
  -1  10  -1  156.56   11.36
   1 -10   1  159.51    8.35
   1 -10   1  146.40    8.20
  -1  10  -1  163.71    8.14
   1 -10   2  419.53   26.23
   1  10   2  429.62   24.31
   1  10   2  422.80   22.19
  -1  10  -2  425.35   22.46
   1 -10   2  413.20   19.07
   1 -10   2  428.91   19.01
   1 -10   2  395.24   24.79
   1 -10   2  431.92   19.07
   1 -10   3  101.42    6.28
   1  10   3  103.85   10.24
  -1  10  -3  101.60    6.15
   1 -10   3   98.14   10.81
  -1 -10  -3  100.61    7.29
   1 -10   3  102.43    6.15
  -1  10  -4  101.13    6.02
   1 -10   4   99.92    6.21
   1 -10   4  107.28    6.18
  -1 -10  -4   93.54    6.86
   1 -10   4  102.86    6.01
   1 -10   5   21.00    2.58
  -1 -10  -5   14.82    2.95
   1 -11  -5    9.42    1.77
  -1 -11   5    7.97    1.86
  -1 -11   5    7.67    2.02
   1 -11  -4   25.89    3.29
  -1 -11   4   30.99    3.32
  -1 -11   4   24.92    3.46
   1 -11  -3   21.97    3.66
   1  11  -3   24.87    5.67
  -1  11   3   21.41    5.50
  -1 -11   3   26.61    3.55
  -1 -11   3   21.30    3.31
   1 -11  -2    3.49    2.97
   1 -11  -2    2.77    3.12
  -1  11   2   -1.61    4.45
  -1 -11   2    0.56    2.35
   1  11  -2   -1.58    4.76
  -1 -11   2   -0.36    2.34
   1 -11  -1   38.29    8.35
   1 -11  -1   33.75    3.25
   1  11  -1   54.02    6.24
  -1 -11   1   42.67    3.65
   1  11  -1   44.64    7.00
  -1  11   1   48.81    7.52
   1 -11  -1   40.41    4.11
  -1 -11   1   40.37    3.44
   1 -11  -1   44.78    4.23
   1 -11   0  123.17   12.42
  -1  11   0  113.95    6.42
   1  11   0  112.56   10.41
   1  11   0  124.43   10.29
   1 -11   0  114.23    6.47
  -1  11   0  123.07   10.82
   1 -11   0  123.76    6.89
  -1 -11   0  121.35    6.32
   1 -11   0  109.65    6.87
   1 -11   1  235.60   17.94
   1 -11   1  264.81   12.09
   1 -11   1  262.83   12.35
  -1  11  -1  236.44   11.92
   1  11   1  257.66   16.02
  -1  11  -1  261.27   16.21
   1  11   1  218.33   16.09
   1 -11   2  834.25   44.87
   1 -11   2  848.58   37.09
   1  11   2  840.07   42.67
  -1  11  -2  870.36   41.19
   1 -11   2  892.27   37.31
   1 -11   2  883.55   37.27
   1 -11   3  485.05   29.62
  -1  11  -3  497.75   21.77
   1 -11   3  479.31   21.84
   1  11   3  448.11   26.97
   1 -11   3  497.25   21.89
  -1 -11  -3  485.78   22.81
   1 -11   3  490.55   21.77
   1 -11   4   71.88    4.85
  -1  11  -4   61.49    4.55
   1 -11   4   59.84    4.60
  -1 -11  -4   72.11    5.43
   1 -11   4   64.01    4.55
   1 -11   5   19.73    2.31
  -1 -11  -5   19.46    2.70
  -1 -12   5   25.43    2.40
  -1 -12   5   28.23    2.35
  -1 -12   5   31.92    2.55
   1 -12  -4    4.45    2.35
  -1 -12   4    4.93    2.27
   1 -12  -3   24.50    3.88
  -1 -12   3   31.10    3.61
  -1 -12   3   22.83    3.34
   1 -12  -2    2.47    3.02
   1 -12  -2    3.67    3.20
   1  12  -2    4.93    5.06
  -1  12   2    0.84    5.26
  -1 -12   2    4.74    2.66
  -1 -12   2    2.58    2.51
   1 -12  -1   27.79    3.96
   1 -12  -1   31.20    7.89
   1  12  -1   33.65    5.32
   1  12  -1   36.90    6.81
  -1 -12   1   35.98    3.51
  -1  12   1   27.27    6.67
   1 -12  -1   33.36    4.01
  -1 -12   1   34.87    3.29
   1 -12   0   21.15    3.48
   1 -12   0   22.39    7.34
   1 -12   0   11.35    2.41
   1  12   0   18.31    5.16
  -1  12   0   16.37    5.48
  -1 -12   0   21.70    2.67
   1 -12   0   20.17    3.30
   1  12   0   14.63    5.11
  -1  12   0   19.78    2.77
   1 -12   1  564.80   34.02
  -1  12  -1  586.96   26.24
   1  12   1  545.20   31.27
   1 -12   1  639.46   26.35
   1  12   1  583.82   30.99
  -1  12  -1  625.69   31.39
   1 -12   2  228.02   18.19
  -1  12  -2  217.09   11.27
   1 -12   2  237.28   11.61
   1  12   2  217.56   16.04
   1 -12   2  237.61   11.41
  -1 -12  -2  206.74   11.98
   1 -12   2  236.48   11.65
   1 -12   3   59.46    4.58
  -1  12  -3   57.99    4.55
   1 -12   3   59.83    4.79
  -1 -12  -3   55.71    5.42
   1 -12   3   50.60    4.51
   1 -12   4    1.04    2.08
  -1 -12  -4   -0.57    2.60
  -1  12  -4    2.15    2.17
   1 -12   4    4.19    2.32
   1 -12   5   55.65    3.52
  -1 -12  -5   57.19    3.51
  -1 -13   5   27.70    2.19
  -1 -13   4   15.26    2.21
  -1 -13   4   17.98    2.59
   1 -13  -4   19.47    2.59
   1 -13  -3  160.90    8.79
  -1 -13   3  141.77    7.64
  -1 -13   3  164.20    8.34
   1 -13  -2  140.98    8.83
   1 -13  -2  146.31    8.43
   1  13  -2  152.64   12.99
  -1 -13   2  145.78    8.01
  -1  13   2  156.25   12.80
  -1 -13   2  145.29    7.94
  -1 -13   1   72.03    4.99
   1  13  -1   67.14    8.68
  -1  13   1   71.27    9.02
   1 -13  -1   78.70    5.70
  -1 -13   1   74.98    4.89
   1 -13  -1   66.50    5.52
   1 -13   0    2.26    2.90
   1 -13   0    2.28    6.22
   1  13   0    3.48    4.42
  -1  13   0    3.90    2.27
   1  13   0   -3.09    4.38
  -1  13   0    2.45    4.32
   1 -13   0    1.79    2.92
   1 -13   0    2.65    1.99
  -1 -13   0    3.18    2.05
   1 -13   1  158.13   15.18
  -1  13  -1  166.95    8.81
   1  13   1  146.06   12.72
   1 -13   1  175.71    8.78
   1  13   1  169.62   12.98
  -1  13  -1  156.98   12.79
   1 -13   2   95.15    5.73
  -1  13  -2   81.02    5.78
   1 -13   2   87.38    6.08
  -1 -13  -2   85.26    6.47
   1 -13   2   79.62    5.92
  -1  13  -3   61.34    4.65
   1 -13   3   59.45    4.49
   1 -13   3   66.54    4.78
  -1 -13  -3   63.32    5.29
   1 -13   3   60.79    4.71
   1 -13   4   25.59    2.84
   1 -13   4   29.13    2.84
  -1  13  -4   24.18    2.75
   1 -13   4   28.05    3.01
  -1 -13  -4   26.02    3.00
  -1 -14   4   21.15    1.97
   1 -14  -4   22.09    2.35
  -1 -14   4   26.45    2.64
   1 -14  -3  237.00   11.98
  -1 -14   3  245.56   11.55
   1 -14  -2   55.82    4.93
  -1 -14   2   48.99    4.14
  -1 -14   2   42.96    3.95
   1 -14  -2   50.31    4.47
   1 -14  -1   40.14    4.50
  -1 -14   1   36.64    3.71
   1 -14  -1   51.94    4.71
  -1 -14   1   47.21    3.80
  -1  14   0   44.29    3.78
  -1 -14   0   46.50    3.64
   1 -14   0   47.82    4.70
   1 -14   0   47.17    4.71
  -1  14  -1   40.87    3.83
   1 -14   1   44.44    3.71
   1 -14   1   42.59    4.51
   1 -14   2   35.48    3.93
  -1  14  -2   33.39    3.72
   1 -14   2   26.48    3.13
   1 -14   2   27.35    3.77
  -1 -14  -2   26.19    3.82
   1 -14   3    2.50    2.43
   1 -14   3    4.30    2.00
   1 -14   3   -0.34    2.41
  -1 -14  -3    0.71    2.47
   1 -14   4   18.34    2.18
   1 -14   4   18.81    2.11
   1 -14   4   18.63    2.28
  -1 -15   4   45.85    2.98
  -1 -15   4   40.39    2.89
   1 -15  -3  141.89    7.45
  -1 -15   3  136.30    7.12
   1 -15  -2  174.09    9.65
  -1 -15   2  180.80    9.12
  -1 -15   2  180.39    8.97
  -1 -15   1   52.85    4.23
   1 -15  -1   59.38    4.88
  -1 -15   1   63.14    4.15
   1 -15   0   23.87    3.66
  -1  15   0   21.99    2.85
   1 -15   0   23.61    3.73
   1 -15   1    6.06    3.06
  -1  15  -1    8.82    2.59
   1 -15   1    4.44    1.95
   1 -15   1    9.31    3.20
  -1 -15  -1    0.82    2.66
  -1  15  -2   36.97    3.73
   1 -15   2   36.47    3.20
   1 -15   2   44.83    4.14
  -1 -15  -2   39.97    3.99
   1 -15   2   37.22    3.91
   1 -15   3    1.79    2.27
  -1 -15  -3   -0.35    1.34
   1 -15   3    2.42    1.71
  -1 -16   3   21.08    2.28
   1 -16  -3   18.88    2.27
  -1 -16   3   22.43    2.54
  -1 -16   2   24.45    2.72
   1 -16  -2   29.39    3.41
  -1 -16   2   24.25    2.84
   1 -16  -1    7.66    2.74
  -1 -16   1   11.26    2.40
   1 -16   0   42.82    4.45
  -1  16   0   50.55    3.56
   1 -16   0   54.54    4.56
   1 -16   0   43.23    4.35
   1 -16   1   28.84    3.49
  -1 -16  -1   27.99    2.83
  -1  16  -1   36.04    3.04
   1 -16   1   40.01    3.78
  -1  16  -2    2.03    2.13
  -1 -16  -2    1.15    0.82
   1 -16   2    4.32    1.56
   1 -16   3   19.92    2.47
   1 -16   3   21.12    1.87
   1 -16   3   19.35    2.55
   1 -17  -2    5.96    2.05
  -1 -17   2    0.70    1.78
   1 -17  -1   18.42    2.54
  -1 -17   1   20.42    2.30
   1 -17   0   30.47    3.40
   1 -17   0   28.11    3.35
   1 -17   0   32.78    3.37
   1 -17   1   11.00    2.56
   1 -17   1    7.69    2.35
  -1  17  -1    6.14    1.92
   1 -17   1    9.07    2.69
   1 -17   2   13.63    2.04
  -1  17  -2   15.90    2.11
   1 -18   0   24.95    2.65
   1 -18   1   11.33    2.01
   1 -18   1    9.79    1.88
   1 -18   1   12.07    2.14
   2   0  -6    1.21    2.36
   2   0  -6    2.66    1.87
   2   0  -6    3.44    2.77
   2   0  -5    5.84    3.36
   2   0  -5   10.03    2.93
   2   0  -5    7.86    3.77
   2   0  -4  785.79   33.77
  -2   0   4  752.76   38.89
   2   0  -4  775.34   34.11
   2   0  -3    0.93    2.29
  -2   0   3    3.71    3.84
   2   0  -3   -0.84    5.17
   2   0  -2  104.19    5.94
  -2   0   2  121.32    9.17
   2   0  -2  116.78   10.79
  -2   0   1  102.76    7.87
   2   0  -1   90.56    7.99
   2   0  -1   80.15    5.17
   2   0  -1   86.44    9.01
  -2   0   0    6.02    3.93
   2   0   0   15.83    4.29
   2   0   0   14.01    3.31
  -2   0  -1   13.35    6.11
   2   0   1   16.66    3.75
   2   0   1    9.17    3.92
  -2   0  -2    8.13    6.24
  -2   0  -2    0.65    2.17
   2   0   2    4.56    2.85
  -2   0  -3  406.14   18.76
  -2   0  -3  381.94   25.14
  -2   0  -3  395.91   18.24
   2   0   3  387.17   22.80
  -2   0  -4   96.03    7.10
  -2   0  -4   88.84    5.94
   2   0   4  105.03   10.01
  -2   0  -4   97.61    6.55
  -2   0  -4   75.01   10.92
  -2   0  -5   39.50    4.10
  -2   0  -5   41.64    4.50
  -2   0  -5   34.02    4.68
  -2   0  -5   36.46    3.49
  -2   0  -6  233.63   10.88
   2   1  -6    3.26    2.48
   2  -1  -6    5.58    2.08
   2   1  -6    5.52    2.07
   2   1  -6    2.91    2.87
   2  -1  -5   47.79    4.42
   2   1  -5   49.28    4.34
   2   1  -5   46.84    5.00
   2   1  -5   41.71    4.85
   2   1  -4   60.30    4.91
  -2  -1   4   40.46    7.62
  -2   1   4   50.46    7.52
   2   1  -4   67.35    5.42
   2   1  -4   63.35    5.48
   2   1  -4   59.92    9.36
   2  -1  -3   55.39    4.40
   2   1  -3   65.34    4.52
   2   1  -3   51.49    4.80
   2   1  -3   46.34    7.90
  -2  -1   3   58.81    7.22
  -2   1   3   48.36    6.79
   2   1  -2  423.97   21.15
   2  -1  -2  409.15   17.27
   2   1  -2  387.12   17.18
  -2  -1   2  377.15   20.63
   2  -1  -2  369.35   17.35
   2   1  -2  380.59   22.63
  -2   1   2  360.52   20.35
  -2  -1   1  624.82   27.74
   2   1  -1  615.18   29.86
  -2   1   1  601.72   27.63
   2  -1  -1  640.02   28.36
   2  -1  -1  558.42   24.84
   2  -1   0   43.37    3.93
  -2   1   0   43.65    5.80
   2  -1   0   37.16    5.26
   2   1   0   45.57    5.39
   2   1   0   46.13    5.04
   2  -1   0   40.95    4.65
  -2   1  -1   38.84    8.06
   2  -1   1   46.31    5.19
  -2   1  -1   59.75    6.99
   2   1   1   52.28    5.54
  -2  -1  -1   59.69    6.60
   2  -1   1   42.54    5.63
   2   1   1   47.07    5.81
  -2   1  -2   69.21    9.75
  -2   1  -2   78.98    5.26
  -2   1  -3  300.04   14.87
  -2   1  -3  314.29   21.36
  -2  -1  -3  293.62   14.22
   2  -1   3  295.65   18.72
  -2   1  -3  305.15   14.35
   2   1   3  322.04   19.41
  -2   1  -4 1063.83   45.72
  -2   1  -4 1041.35   53.58
  -2  -1  -4 1045.59   44.70
   2  -1   4  950.68   49.44
   2   1   4 1027.23   50.04
  -2   1  -4 1089.60   44.85
  -2   1  -5    3.32    2.47
  -2   1  -5    2.51    3.24
  -2   1  -5    1.09    3.40
  -2  -1  -5    2.56    2.42
  -2   1  -6   51.47    3.75
   2   2  -6    4.35    2.41
   2  -2  -6    4.16    2.28
   2  -2  -6    3.96    1.93
   2  -2  -6   -0.16    2.71
   2   2  -6    3.28    2.82
   2   2  -5   -1.20    2.86
   2  -2  -5   -0.24    3.20
   2  -2  -5    2.35    2.46
   2   2  -5    2.30    2.52
   2  -2  -5    3.19    3.28
   2   2  -5    1.61    3.25
   2   2  -4   80.86   10.27
   2  -2  -4   86.81   11.18
  -2   2   4   66.32    8.49
   2   2  -4   93.52    6.03
   2  -2  -4   84.13    6.32
   2   2  -4   91.43    6.41
  -2  -2   4   97.02   10.05
   2   2  -4   74.76    6.07
   2  -2  -4   89.29    6.34
   2  -2  -3   38.39    3.67
   2   2  -3   32.51    3.56
   2  -2  -3   43.14    4.26
   2   2  -3   35.76    7.35
   2  -2  -3   34.33    7.36
  -2   2   3   40.76    6.17
   2   2  -3   29.19    4.06
  -2  -2   3   36.66    6.33
   2  -2  -2 1505.35   61.07
   2   2  -2 1499.90   61.01
   2   2  -2 1495.13   64.94
   2  -2  -2 1440.30   61.20
  -2   2   2 1437.73   64.53
   2   2  -2 1426.58   66.90
   2  -2  -2 1515.79   67.19
  -2  -2   2 1385.15   64.79
   2  -2  -1 1074.67   50.83
  -2   2   1 1138.82   49.09
   2   2  -1 1154.19   51.27
   2  -2  -1 1107.10   46.49
   2   2  -1 1062.39   47.06
   2  -2   0  104.37    7.13
  -2   2   0   98.48    8.36
   2   2   0  106.56    8.23
   2  -2   0  102.75    8.20
   2  -2   0  110.38    7.52
  -2  -2   0   96.65    7.94
  -2   2  -1  433.94   23.01
  -2  -2  -1  453.62   22.56
   2  -2   1  445.35   21.45
  -2   2  -1  409.37   24.92
  -2  -2  -1  366.70   24.46
   2  -2   1  431.39   22.04
   2   2   1  435.34   22.37
   2   2   1  457.46   21.87
  -2   2  -2  200.57   15.93
   2  -2   2  190.22    9.19
   2   2   2  184.04   11.78
  -2  -2  -2  174.09   15.17
  -2   2  -2  215.84   10.03
  -2  -2  -2  203.65    9.79
  -2   2  -3  266.66   13.70
  -2  -2  -3  271.96   13.80
  -2   2  -3  277.74   20.08
  -2  -2  -3  271.73   20.02
  -2  -2  -3  275.94   13.41
   2  -2   3  267.94   17.61
  -2   2  -3  261.62   13.15
   2   2   3  313.13   18.91
  -2  -2  -3  284.25   13.24
  -2   2  -4  266.01   14.12
  -2  -2  -4  269.12   13.99
  -2  -2  -4  252.84   13.48
  -2   2  -4  280.96   20.65
  -2  -2  -4  269.89   20.16
  -2   2  -4  263.73   13.65
  -2  -2  -4  272.80   13.42
   2  -2   4  282.35   17.90
   2   2   4  271.55   17.81
  -2   2  -4  264.99   13.18
  -2  -2  -4  280.16   13.24
  -2  -2  -5    4.36    3.44
  -2   2  -5   -1.87    2.45
  -2  -2  -5    2.27    2.43
  -2   2  -5    2.16    3.32
  -2  -2  -5    1.50    3.31
  -2   2  -5    1.37    3.17
  -2  -2  -5    2.15    2.37
  -2   2  -6   62.92    3.96
  -2  -2  -6   68.04    4.01
   2   3  -6    3.15    2.21
   2  -3  -6    1.87    2.30
   2  -3  -6    1.17    1.87
   2  -3  -6    4.35    2.53
   2   3  -6    4.82    2.51
   2   3  -5   20.05    3.48
   2  -3  -5   14.63    3.56
   2  -3  -5   14.02    3.05
   2   3  -5   18.93    3.09
   2   3  -5   15.80    3.69
   2  -3  -5   16.13    3.60
   2   3  -4   57.30    4.68
   2   3  -4   71.10    9.34
   2  -3  -4   53.91    9.08
   2  -3  -4   46.14    4.90
  -2  -3   4   43.51    7.39
   2   3  -4   48.82    4.92
   2  -3  -4   55.68    4.94
   2   3  -4   53.78    4.93
   2  -3  -3    7.24    2.64
   2   3  -3   12.49    2.72
  -2  -3   3    2.06    4.15
  -2   3   3    4.81    3.98
   2   3  -3   14.64    6.11
   2  -3  -3    5.20    5.11
   2   3  -3    6.76    3.01
   2  -3  -3   11.76    3.16
   2  -3  -2 1591.05   65.85
   2   3  -2 1549.89   65.70
  -2   3   2 1593.29   69.43
   2   3  -2 1613.30   71.89
   2  -3  -2 1681.54   72.10
   2   3  -2 1653.97   69.82
   2  -3  -1 1110.50   51.26
  -2   3   1 1196.11   52.04
  -2  -3   1 1136.74   51.90
   2  -3  -1 1187.75   48.79
   2   3  -1 1251.91   54.41
   2  -3  -1 1225.88   54.15
   2   3  -1 1139.66   52.02
   2  -3  -1 1159.45   49.67
   2  -3   0   28.54    4.43
  -2   3   0   37.36    5.45
   2   3   0   33.90    5.34
  -2  -3   0   28.31    4.79
   2  -3   0   37.42    4.50
  -2  -3  -1  160.26   10.77
   2   3   1  136.39    9.94
  -2   3  -1  154.44   13.13
  -2  -3  -1  145.44   13.18
   2  -3   1  150.23   10.43
  -2   3  -2  126.40    7.43
  -2  -3  -2  129.11    7.44
   2   3   2  115.47    8.89
   2  -3   2  125.67    6.49
  -2   3  -2  117.79   12.32
  -2  -3  -2  120.69   12.11
  -2   3  -2  131.23    6.97
  -2  -3  -2  123.92    6.77
  -2   3  -3  182.66    9.98
  -2  -3  -3  174.59    9.90
  -2   3  -3  161.15   15.03
  -2  -3  -3  180.88   15.85
  -2  -3  -3  177.98    9.62
   2  -3   3  174.33   13.43
  -2   3  -3  171.78    9.12
  -2  -3  -3  170.79    9.16
   2   3   3  207.57   14.97
   2  -3   3  167.00    8.48
  -2   3  -4    6.52    2.82
  -2  -3  -4    6.48    2.74
  -2   3  -4    6.14    3.56
  -2  -3  -4    6.47    3.57
  -2   3  -4   13.48    3.74
  -2  -3  -4    6.38    3.35
  -2  -3  -4    7.54    3.12
   2  -3   4    8.45    4.58
  -2   3  -4    5.53    5.60
  -2  -3  -4    1.11    5.04
   2   3   4   10.49    4.58
  -2  -3  -5    2.37    3.44
  -2   3  -5    6.67    2.34
  -2  -3  -5    4.26    2.28
  -2   3  -5    5.74    2.88
  -2  -3  -5    0.82    3.09
  -2  -3  -5    2.21    2.49
  -2   3  -5    5.27    3.40
  -2   3  -6   24.87    2.50
  -2  -3  -6   21.62    2.46
  -2  -3  -6   18.34    1.96
   2   4  -6    5.50    2.18
   2  -4  -6    3.61    2.09
   2  -4  -6    4.45    1.80
   2  -4  -6    7.19    2.34
   2   4  -6    3.97    2.37
   2   4  -5    5.84    2.85
   2  -4  -5    0.67    2.82
   2  -4  -5    3.14    2.64
  -2  -4   5    0.70    1.92
   2  -4  -5   -0.21    3.01
   2   4  -5    2.06    3.06
   2   4  -4    4.65    2.68
   2  -4  -4    6.83    5.53
  -2  -4   4    3.39    5.21
   2   4  -4    1.94    5.06
   2   4  -4    2.18    3.20
   2  -4  -4    3.21    3.10
   2   4  -4    1.65    2.71
   2  -4  -4    4.03    2.79
   2  -4  -3   17.18    2.99
   2   4  -3   16.89    3.02
  -2   4   3   22.34    4.98
   2   4  -3   17.16    6.22
   2  -4  -3   26.64    6.61
   2   4  -3   16.76    3.40
   2  -4  -3   19.09    3.39
   2   4  -3   17.70    3.35
   2  -4  -3   16.09    3.34
   2  -4  -2   51.46    4.04
   2   4  -2   48.92    7.55
   2   4  -2   52.35    3.88
   2  -4  -2   44.76    7.75
  -2   4   2   45.25    6.08
   2  -4  -2   50.28    4.28
   2   4  -2   48.05    6.30
  -2  -4   2   55.63    6.83
   2  -4  -1 1259.15   59.09
  -2   4   1 1388.39   59.25
   2  -4  -1 1377.47   55.90
  -2  -4   1 1318.20   59.20
   2   4  -1 1353.07   59.30
   2   4  -1 1337.48   61.29
   2  -4  -1 1332.56   61.05
   2  -4  -1 1366.41   57.23
   2  -4  -1 1325.13   56.06
   2  -4   0   20.32    4.24
   2  -4   0   28.33    2.86
   2   4   0   26.72    4.77
  -2   4   0   30.50    5.15
  -2  -4   0   33.44    5.02
   2  -4   0   30.11    3.52
   2  -4   0   29.02    4.18
   2  -4   1 1850.36   76.26
  -2  -4  -1 1898.59   80.18
   2   4   1 1835.65   79.80
   2  -4   1 1890.53   76.60
  -2   4  -1 1746.43   83.44
  -2  -4  -1 1718.45   82.91
   2  -4   1 1892.65   80.22
  -2   4  -2    4.50    5.30
  -2  -4  -2    3.66    5.25
  -2   4  -2    6.65    2.22
   2  -4   2    5.81    2.04
  -2   4  -2    5.62    2.63
  -2  -4  -2    6.56    2.69
  -2  -4  -2    6.15    2.11
   2   4   2    4.87    3.48
  -2   4  -3   29.40    7.25
  -2  -4  -3   40.29    7.38
   2  -4   3   32.18    3.07
  -2  -4  -3   28.95    3.44
  -2   4  -3   33.56    4.03
  -2   4  -3   34.53    2.86
  -2  -4  -3   30.03    4.21
  -2   4  -3   34.52    3.71
   2  -4   3   31.64    6.55
  -2  -4  -3   34.88    4.18
   2   4   3   35.59    7.21
  -2   4  -4   26.12    3.24
  -2  -4  -4   23.12    3.25
  -2   4  -4   14.77    3.63
  -2   4  -4   12.74    3.83
  -2  -4  -4   21.34    3.92
   2  -4   4   18.15    2.55
  -2  -4  -4   19.45    3.89
  -2  -4  -4   19.22    3.74
  -2   4  -4   30.30    6.88
   2  -4   4   25.50    5.79
  -2  -4  -4   14.04    5.51
   2   4   4   12.34    5.18
  -2  -4  -5    4.41    2.33
  -2  -4  -5    0.99    3.00
  -2   4  -5    6.87    2.37
  -2   4  -5    3.80    2.92
  -2  -4  -5    4.00    2.91
  -2  -4  -5    3.33    2.57
  -2   4  -5    4.42    3.15
  -2   4  -6    6.94    1.83
  -2  -4  -6    6.18    1.77
  -2  -4  -6    5.44    1.47
   2  -5  -6   50.46    3.39
   2  -5  -6   45.36    3.54
   2   5  -6   48.65    3.66
   2   5  -6   56.31    3.56
   2  -5  -6   43.33    3.52
  -2  -5   6   57.45    3.37
   2  -5  -5   44.47    4.10
  -2  -5   5   43.26    3.48
   2   5  -5   49.36    4.26
   2  -5  -5   42.12    4.22
   2  -5  -5   35.96    4.23
   2   5  -5   52.73    4.61
   2   5  -4  128.04    7.59
   2  -5  -4  124.29    7.68
   2   5  -4  122.91    7.64
   2  -5  -4  135.54    7.85
   2   5  -4  111.38   11.94
   2  -5  -4  128.81   12.81
   2   5  -4  132.42    7.86
   2  -5  -3   57.60    4.60
   2   5  -3   55.09    4.44
   2   5  -3   50.35    4.59
  -2  -5   3   59.63    7.72
   2  -5  -3   50.62    4.41
   2   5  -3   51.23    4.63
   2  -5  -3   56.38    4.57
   2   5  -3   50.23    8.33
   2  -5  -3   58.43    8.51
   2  -5  -2  440.92   19.29
   2   5  -2  432.87   19.02
  -2   5   2  371.94   21.42
  -2  -5   2  423.90   23.17
   2  -5  -2  428.22   19.31
   2   5  -2  439.52   22.85
   2   5  -2  410.59   24.16
   2  -5  -2  467.40   24.99
   2  -5  -1   29.63    3.56
   2  -5  -1   34.08    5.78
   2  -5  -1   31.03    3.09
  -2   5   1   35.33    4.80
  -2  -5   1   38.27    5.19
   2   5  -1   28.45    4.96
   2   5  -1   46.21    6.88
   2  -5  -1   35.10    6.38
   2  -5  -1   35.52    4.06
   2  -5   0  169.19   11.40
   2  -5   0  154.59    7.82
  -2   5   0  151.84   10.81
   2   5   0  129.80   11.53
  -2  -5   0  161.54   10.61
   2  -5   0  145.42   11.75
   2   5   0  145.88   10.81
   2   5   0  151.79   10.27
   2  -5   0  160.49    8.39
   2  -5   0  181.68   10.59
   2  -5   0  146.60    7.95
  -2  -5  -1  204.05   12.89
   2   5   1  212.84   13.36
   2  -5   1  228.30   10.42
   2  -5   1  199.84    9.96
  -2   5  -1  200.41   15.16
  -2  -5  -1  193.13   15.10
   2  -5   1  207.47   13.34
   2  -5   1  204.99    9.94
   2  -5   2   71.04    4.88
  -2   5  -2   53.37    8.40
  -2   5  -2   66.94    4.94
  -2  -5  -2   76.28    5.17
   2  -5   2   64.76    4.56
   2   5   2   67.75    7.11
  -2  -5  -2   80.04    9.81
  -2   5  -3   22.04    6.66
  -2  -5  -3   44.15    7.80
  -2  -5  -3   34.82    3.71
  -2   5  -3   36.25    3.09
  -2   5  -3   35.91    4.13
  -2  -5  -3   33.90    4.29
   2  -5   3   35.33    3.32
   2   5   3   40.14    5.66
  -2  -5  -3   36.02    4.63
  -2   5  -3   39.45    3.70
   2  -5   3   25.57    6.64
   2   5   3   40.00    7.65
  -2  -5  -4    7.46    2.63
  -2  -5  -4    7.41    3.47
   2  -5   4    8.07    2.34
  -2   5  -4    3.18    3.22
  -2   5  -4   11.02    2.63
  -2   5  -4   10.67    3.12
  -2  -5  -4   11.15    3.11
  -2  -5  -4   11.98    3.52
  -2  -5  -4   14.04    5.62
   2  -5   4    1.57    5.04
   2   5   4    3.32    5.28
  -2  -5  -5    6.19    2.92
  -2   5  -5    4.95    3.03
  -2   5  -5    9.05    2.77
  -2  -5  -5    8.51    2.76
  -2  -5  -5    5.40    2.56
  -2  -5  -6    1.00    1.34
   2  -6  -6   47.95    2.48
  -2  -6   6   53.49    2.47
   2  -6  -5  131.93    7.46
   2  -6  -5  117.56    7.17
  -2  -6   5  126.84    6.77
   2   6  -5  135.68    7.34
   2   6  -5  130.36    7.21
   2  -6  -5  127.42    7.21
   2  -6  -4  100.72    6.61
  -2  -6   4   98.64   10.37
   2   6  -4  114.65    6.76
   2   6  -4  105.94    6.71
   2  -6  -4  111.20    6.79
   2  -6  -4  103.37   11.17
   2  -6  -3   54.52    4.70
   2   6  -3   51.87    4.42
  -2  -6   3   68.91    8.06
   2   6  -3   49.64    4.34
   2  -6  -3   54.02    4.46
   2  -6  -3   58.27    4.46
   2   6  -3   53.87    4.64
   2   6  -3   47.94    7.68
   2  -6  -3   63.79    8.38
   2  -6  -2  431.46   18.83
   2   6  -2  431.63   18.62
  -2  -6   2  399.92   22.52
   2  -6  -2  398.66   18.72
   2   6  -2  416.47   22.28
   2   6  -2  391.27   23.25
   2  -6  -2  362.01   22.87
   2  -6  -2  411.45   18.46
   2  -6  -1   68.19    4.64
   2  -6  -1   52.41    7.04
  -2   6   1   55.61    5.93
   2  -6  -1   65.97    4.57
   2   6  -1   70.32    7.32
   2   6  -1   65.48    7.47
  -2  -6   1   63.79    6.67
   2  -6  -1   47.25    5.25
   2   6  -1   55.93    7.46
   2  -6  -1   69.00    7.78
   2  -6  -1   72.92    5.12
   2  -6   0   36.77    3.22
   2  -6   0   30.15    5.71
  -2   6   0   29.68    6.59
  -2  -6   0   29.31    6.52
  -2  -6   0   33.07    4.95
   2   6   0   33.87    5.90
   2  -6   0   34.93    6.21
   2   6   0   40.53    5.35
   2  -6   0   31.27    3.80
   2  -6   0   40.10    3.46
   2  -6   0   35.03    4.98
   2  -6   0   36.84    3.65
   2  -6   1  130.03   10.62
   2  -6   1  107.08    6.22
   2   6   1  121.77    9.82
   2   6   1  115.90    8.19
  -2  -6  -1  106.22    8.70
  -2   6  -1  126.23    8.43
   2  -6   1  114.28    6.61
  -2   6  -1  114.15   10.76
  -2  -6  -1   96.46   10.28
   2  -6   1  120.57    9.85
   2  -6   1  104.27    6.28
   2   6   2  113.49    9.69
  -2  -6  -2  114.40    6.83
   2  -6   2  119.68    6.53
  -2   6  -2  109.68   10.86
   2  -6   2  120.22    6.79
  -2  -6  -2   98.00   10.70
   2  -6   2  122.63   10.56
   2  -6   2  111.26    6.32
  -2   6  -3    1.64    2.16
  -2  -6  -3    5.05    2.94
   2  -6   3    6.01    2.28
  -2   6  -3   -0.68    2.84
   2   6   3    4.92    3.91
  -2  -6  -3    1.57    2.44
  -2  -6  -3    3.21    3.47
   2  -6   3    2.48    4.50
  -2   6  -3   -0.89    4.61
  -2   6  -3    4.93    2.50
  -2  -6  -3    8.42    4.81
   2   6   3    9.43    5.48
  -2   6  -4   73.68    5.72
  -2  -6  -4   65.63    5.57
   2  -6   4   80.95    5.01
  -2   6  -4   71.81    5.27
  -2  -6  -4   72.56    5.48
  -2  -6  -4   60.29    5.66
  -2   6  -4   76.50    5.13
  -2  -6  -4   74.40    5.08
  -2  -6  -5   60.67    4.30
  -2  -6  -5   57.67    4.61
  -2   6  -5   70.64    4.40
  -2  -6  -6    4.72    1.20
  -2  -7   6   94.08    4.70
   2  -7  -5  212.30    6.37
  -2  -7   5  201.61    5.36
   2   7  -5  183.37    5.53
   2  -7  -5  185.83    5.47
   2  -7  -4  444.54   20.46
   2   7  -4  460.15   20.60
   2   7  -4  452.37   20.56
   2  -7  -4  468.82   20.66
  -2  -7   4  474.50   20.65
   2  -7  -3   17.37    3.41
  -2  -7   3   20.56    5.30
   2  -7  -3   17.21    2.91
   2  -7  -3   18.70    2.91
   2  -7  -2   17.36    3.22
   2   7  -2   12.43    4.81
  -2  -7   2   19.51    4.85
   2  -7  -2   22.70    3.25
   2   7  -2   21.58    4.97
   2  -7  -2   18.32    5.10
   2  -7  -1    5.52    2.99
   2  -7  -1   -0.59    4.09
   2  -7  -1   -1.53    4.50
   2  -7  -1    4.41    2.38
  -2  -7   1    4.61    3.36
   2  -7  -1    6.50    2.54
   2   7  -1    3.48    3.97
   2   7  -1    3.70    4.00
   2  -7  -1    4.08    3.22
   2   7  -1    2.95    4.22
   2  -7   0   19.36    3.18
   2  -7   0   10.74    4.88
   2  -7   0   20.53    2.81
  -2   7   0   21.22    5.72
  -2  -7   0   18.25    4.98
   2   7   0   22.39    4.56
   2   7   0   10.50    4.24
   2  -7   0   35.31    3.83
   2  -7   0   21.28    5.10
  -2  -7   0   16.85    3.84
   2  -7   0   21.23    4.81
   2  -7   1   82.71    9.35
  -2  -7  -1   74.13    6.88
   2  -7   1   80.31    5.25
   2   7   1   74.46    8.20
   2   7   1   92.07    7.46
  -2   7  -1   83.02    7.14
   2  -7   1   90.62    5.74
  -2   7  -1   73.03    8.49
  -2  -7  -1   79.67    8.66
   2  -7   1  107.72    9.40
   2  -7   1   80.16    5.35
   2  -7   2    1.82    2.31
  -2  -7  -2   -2.35    4.21
   2  -7   2    0.53    2.07
   2   7   2    1.32    4.32
   2  -7   2    4.85    2.72
  -2   7  -2    1.89    2.20
   2  -7   2    0.76    4.17
   2   7   3   85.44   10.22
  -2  -7  -3   76.95    5.51
  -2   7  -3   76.94    4.97
   2  -7   3   85.06    5.35
   2   7   3   73.40    7.98
  -2  -7  -3   69.71    5.22
  -2  -7  -3   82.87    6.32
   2  -7   3   78.34    9.66
  -2   7  -4  132.37    5.88
  -2  -7  -4  136.78    5.94
   2  -7   4  154.81    5.45
  -2   7  -4  154.05    5.43
  -2  -7  -4  140.88    5.44
  -2  -7  -4  141.66    6.50
   2  -7   5   18.45    2.00
  -2  -7  -5   16.30    2.76
   2  -8  -5  220.49   10.73
  -2  -8   5  208.19   10.19
  -2  -8   5  238.70   10.72
  -2  -8   4   17.61    3.02
   2  -8  -3   15.06    3.37
  -2  -8   3   13.99    4.85
   2  -8  -2   26.30    4.18
   2  -8  -2   24.32    3.56
  -2  -8   2   21.98    4.90
   2  -8  -2   26.79    3.54
   2   8  -2   26.52    5.11
   2  -8  -1    4.14    3.06
   2  -8  -1    7.85    4.75
   2  -8  -1    6.78    2.70
   2  -8  -1    3.56    2.48
   2   8  -1    2.51    4.11
   2   8  -1    3.39    4.03
   2  -8  -1    6.60    3.63
  -2  -8   1   -0.52    2.93
   2  -8   0   25.73    3.65
   2  -8   0   22.03    6.25
   2  -8   0   29.18    3.33
  -2  -8   0   26.11    4.34
   2  -8   0   25.48    3.02
   2   8   0   31.06    5.62
   2   8   0   36.29    5.75
  -2  -8   0   27.64    2.66
   2  -8   0   38.16    4.12
   2  -8   0   17.25    5.00
   2  -8   1    0.19    2.61
   2  -8   1    0.84    4.75
   2  -8   1    0.18    2.31
   2   8   1    2.06    4.17
   2   8   1    6.64    3.59
  -2   8  -1    1.58    3.06
   2  -8   1    5.33    2.97
   2  -8   1    3.63    4.12
   2  -8   2    6.00    2.47
   2  -8   2    6.90    5.15
  -2   8  -2    7.36    2.48
   2  -8   2    6.59    2.60
   2   8   2   15.05    5.49
   2  -8   2   10.52    3.13
   2  -8   2    6.51    4.38
   2  -8   3   58.47    4.64
   2   8   3   66.91    7.75
   2  -8   3   65.79    5.01
  -2   8  -3   65.69    4.51
  -2  -8  -3   64.09    5.85
   2  -8   3   63.76    8.81
  -2   8  -4    3.14    1.68
   2  -8   4    7.64    2.32
  -2  -8  -4    5.19    3.25
   2  -8   5   13.97    1.89
  -2  -8  -5   10.15    2.42
   2  -9  -5   12.80    2.40
  -2  -9   5    8.77    1.89
  -2  -9   5    8.79    2.20
  -2  -9   4   70.23    5.01
   2  -9  -3   14.04    3.51
  -2  -9   3   16.56    5.22
   2  -9  -2   15.34    4.01
   2  -9  -2   17.15    3.53
  -2  -9   2    7.28    4.08
   2  -9  -2   11.38    3.04
   2   9  -2    9.81    4.20
   2   9  -2   14.46    5.48
  -2  -9   2   13.47    2.93
   2  -9  -1  141.76   13.61
   2  -9  -1  138.04    8.56
   2  -9  -1  156.72    8.51
   2   9  -1  138.66   11.57
  -2  -9   1  156.77    8.10
   2   9  -1  162.49   12.58
   2  -9  -1  168.23    9.39
  -2  -9   1  159.68    7.93
   2  -9   0   70.80    5.19
   2  -9   0   72.77    9.69
   2  -9   0   65.65    4.99
   2   9   0   68.80    8.28
   2   9   0   95.27    8.77
  -2   9   0   81.63    8.43
   2  -9   0   83.48    6.00
   2  -9   0   88.24    8.83
   2  -9   0   81.28    5.73
   2  -9   1  243.05   17.75
   2   9   1  228.28   16.33
  -2   9  -1  252.86   15.49
   2  -9   1  246.07   12.75
   2   9   1  258.46   15.54
   2  -9   1  249.90   17.37
   2  -9   1  265.48   12.60
   2  -9   2   21.16    3.21
   2  -9   2   19.29    6.31
  -2   9  -2   21.07    3.14
   2  -9   2   24.53    3.37
   2   9   2   23.53    5.87
   2  -9   2   24.71    3.66
   2  -9   2   15.52    5.87
  -2   9  -3  120.11    6.82
   2  -9   3  117.66    7.11
   2  -9   3  133.71    7.56
  -2  -9  -3  121.21    8.19
   2  -9   3  123.04    6.97
   2  -9   4   15.99    2.60
  -2   9  -4   12.42    2.06
  -2  -9  -4   13.66    3.34
   2  -9   5   20.86    2.08
  -2  -9  -5   22.21    2.55
   2 -10  -5    2.25    1.68
  -2 -10   5   -1.07    1.39
  -2 -10   4   62.64    4.47
  -2 -10   4   65.92    4.62
   2 -10  -3    2.95    2.98
  -2 -10   3    2.60    2.59
   2 -10  -2   38.05    4.96
   2 -10  -2   36.16    4.42
   2 -10  -2   30.69    3.90
  -2 -10   2   43.48    3.99
   2  10  -2   35.39    7.18
  -2  10   2   43.13    7.32
  -2 -10   2   43.78    3.81
   2 -10  -1  284.47   14.51
   2 -10  -1  309.48   14.41
   2  10  -1  273.45   18.11
  -2 -10   1  317.50   14.05
   2  10  -1  307.70   19.45
  -2  10   1  296.61   19.11
   2 -10  -1  300.70   15.11
   2 -10   0  238.32   19.59
   2 -10   0  246.36   12.91
   2  10   0  257.85   17.44
   2 -10   0  269.12   12.89
   2  10   0  287.45   17.40
  -2  10   0  313.98   18.05
   2 -10   0  271.93   13.39
   2 -10   1  689.55   38.53
  -2  10  -1  736.98   31.35
   2 -10   1  702.40   31.33
  -2  10  -1  680.99   34.98
   2 -10   1  800.23   32.18
   2 -10   1  699.42   37.92
   2 -10   1  709.02   31.64
   2 -10   2   22.66    3.39
   2 -10   2   20.72    6.23
  -2  10  -2   28.21    3.30
   2 -10   2   21.28    3.29
   2  10   2   18.71    5.47
   2 -10   2   24.86    3.88
   2 -10   2   17.94    6.05
  -2  10  -3   92.76    5.74
   2 -10   3   96.54    6.04
   2 -10   3  106.57    6.39
  -2 -10  -3   96.53    7.15
   2 -10   3   88.14    5.79
  -2  10  -4    2.57    1.80
   2 -10   4    2.76    2.02
  -2 -10  -4    1.61    2.86
  -2 -10  -5    3.50    1.72
   2 -11  -5    3.16    1.46
  -2 -11   5    2.76    1.27
   2 -11  -4   11.12    2.68
  -2 -11   4   10.30    2.45
  -2 -11   4    8.78    2.45
   2 -11  -3   12.51    3.31
  -2 -11   3    9.66    2.70
   2 -11  -2   25.08    4.42
   2 -11  -2   25.04    3.82
   2 -11  -2   24.87    3.45
  -2  11   2   25.22    6.31
  -2 -11   2   30.37    3.59
  -2 -11   2   32.51    3.32
   2 -11  -1  116.33    7.43
   2 -11  -1   99.45   12.36
  -2  11   1  120.10    6.64
   2 -11  -1  116.65    7.14
   2  11  -1   97.63   10.15
   2  11  -1  132.11   11.71
  -2 -11   1  119.62    6.69
  -2  11   1  107.47   10.80
   2 -11  -1  132.21    8.15
   2 -11   0  314.16   22.06
   2 -11   0  293.78   14.86
  -2  11   0  307.57   14.48
   2 -11   0  320.33   14.75
   2  11   0  325.87   19.77
   2  11   0  334.19   19.67
  -2  11   0  325.25   19.59
   2 -11   0  305.51   15.22
   2 -11   1   37.45    3.84
   2 -11   1   39.72    8.45
  -2  11  -1   46.93    4.03
   2 -11   1   47.83    4.20
   2 -11   1   49.12    4.82
   2 -11   1   41.37    4.54
   2 -11   2  192.96   10.17
   2 -11   2  177.33    9.69
   2 -11   3   18.05    2.90
  -2  11  -3   25.52    2.97
   2 -11   3   21.09    2.99
   2 -11   3   19.37    3.46
  -2  11  -4   22.89    2.33
   2 -11   4   27.13    2.63
   2 -12  -4    1.47    2.00
  -2 -12   4    2.19    1.85
  -2 -12   4    3.94    1.87
   2 -12  -3    5.43    2.64
  -2 -12   3    1.21    2.37
  -2 -12   3    5.06    2.18
   2 -12  -2   20.27    3.77
   2 -12  -2   18.17    2.94
  -2 -12   2   21.32    3.11
  -2 -12   2   26.91    2.83
   2 -12  -1    5.70    3.53
   2 -12  -1    5.41    2.95
  -2  12   1    2.90    2.25
   2 -12  -1    4.24    2.66
  -2 -12   1    8.58    2.42
   2 -12   0  125.14    7.76
   2 -12   0  110.62   13.25
  -2  12   0  142.09    7.51
   2 -12   0  130.97    7.56
   2  12   0  150.96   12.04
   2  12   0  139.70   11.62
  -2  12   0  133.52   11.48
   2 -12   0  129.81    8.26
  -2  12  -1  385.70   17.18
   2 -12   1  398.51   17.44
   2 -12   1  408.04   18.21
   2 -12   1  371.34   17.68
   2 -12   2  371.02   16.73
   2 -12   2  382.01   17.09
   2 -12   2  332.90   16.61
   2 -12   3    3.24    2.21
   2 -12   3    3.97    2.31
  -2  12  -3    0.98    2.07
   2 -12   3    6.01    2.89
   2 -12   4    5.65    1.74
  -2  12  -4    7.68    1.48
   2 -13  -4   16.94    2.20
  -2 -13   4   18.71    2.16
  -2 -13   4   17.59    2.04
   2 -13  -3   26.47    3.27
  -2 -13   3   25.75    2.92
  -2 -13   3   24.95    2.66
   2 -13  -2   60.16    5.14
  -2 -13   2   71.75    4.76
  -2 -13   2   68.76    4.28
   2 -13  -1   14.56    3.69
   2 -13  -1   13.21    3.24
  -2  13   1   13.17    2.34
   2 -13  -1   11.31    2.77
  -2 -13   1   11.67    2.44
   2 -13   0   18.77    3.82
   2 -13   0   17.29    3.30
  -2  13   0   16.70    2.87
   2 -13   0   13.11    2.82
   2 -13   0   15.90    3.90
   2 -13   1  104.52    6.74
  -2  13  -1  127.27    6.94
   2 -13   1  134.68    7.23
   2 -13   1  128.47    7.88
   2 -13   1  116.34    7.49
  -2  13  -2  141.86    7.44
   2 -13   2  143.07    7.57
   2 -13   2  148.33    8.05
  -2 -13  -2  130.40    8.33
   2 -13   2  120.72    7.55
   2 -13   3    9.03    2.25
  -2  13  -3    8.84    2.19
   2 -13   3    7.88    2.62
  -2 -13  -3   13.41    2.99
   2 -13   4   34.20    2.42
  -2 -13  -4   30.53    2.61
  -2 -14   3   37.83    3.02
  -2 -14   3   35.41    2.66
   2 -14  -2   33.61    3.66
  -2 -14   2   34.56    3.08
   2 -14  -1   20.43    3.92
   2 -14  -1   23.36    3.27
   2 -14  -1   20.71    2.75
  -2 -14   1   24.11    2.60
   2 -14   0    7.52    2.69
  -2  14   0    4.16    2.16
   2 -14   0    9.52    2.52
   2 -14   0    9.09    3.65
   2 -14   1   19.84    3.49
   2 -14   1   18.53    2.75
  -2  14  -1   20.06    2.69
   2 -14   1   20.14    2.86
   2 -14   1   24.18    4.00
   2 -14   2   23.25    3.26
  -2  14  -2   33.66    3.13
   2 -14   2   33.65    3.03
   2 -14   2   33.31    3.85
  -2 -14  -2   27.24    3.89
  -2  14  -3   26.40    2.47
   2 -14   3   22.41    2.36
  -2 -14  -3   26.21    2.87
  -2 -15   3  112.39    5.58
   2 -15  -2    4.75    2.25
  -2 -15   2    6.96    1.80
   2 -15  -1   14.60    3.28
   2 -15  -1   20.46    2.95
   2 -15   0    2.59    2.31
  -2  15   0    2.83    1.94
   2 -15   0   -0.40    2.01
   2 -15   1   17.60    3.19
   2 -15   1   15.38    2.30
  -2  15  -1   16.44    2.35
   2 -15   1    9.77    2.25
  -2 -15  -1   20.18    3.34
   2 -15   2    3.44    2.16
  -2  15  -2    5.63    1.95
   2 -15   2    6.33    1.88
   2 -15   2    6.41    2.53
  -2 -15  -2    9.76    2.63
  -2  15  -3    2.89    1.34
  -2 -15  -3    2.38    1.43
   2 -16  -2    0.65    1.64
   2 -16  -1   -1.68    1.85
   2 -16   0    3.95    2.56
   2 -16   0    2.43    1.82
  -2  16   0    2.05    1.53
   2 -16   1   -1.11    2.18
  -2  16  -1    2.08    1.64
   2 -16   1    1.45    1.36
  -2 -16  -1    1.28    2.25
   2 -16   2   15.11    2.20
  -2 -16  -2   19.89    2.27
  -2 -17   0   32.05    2.45
   3   0  -5    4.04    2.19
   3   0  -4    2.41    2.39
   3   0  -3   38.32    3.79
  -3   0   3   33.56    6.25
   3   0  -2   11.36    2.47
  -3   0   2    0.76    4.41
  -3   0   1    8.83    4.59
   3   0  -1    9.95    2.80
  -3   0   1   10.09    2.84
  -3   0   0   17.97    7.34
  -3   0   0   16.79    5.52
   3   0   0   22.51    2.97
   3   0   0   28.75    6.04
  -3   0   0   19.86    3.50
   3   0   0   24.45    4.08
  -3   0  -1  298.34   13.98
   3   0   1  268.71   16.89
   3   0   1  256.07   16.66
  -3   0  -2   60.40   10.57
  -3   0  -2   72.73    5.89
   3   0   2   61.48    7.84
  -3   0  -3  920.46   40.21
  -3   0  -4   72.56    5.56
  -3   0  -4   68.41    5.41
  -3   0  -5    2.63    2.23
  -3   0  -5    1.25    2.02
   3  -1  -5   47.31    3.68
   3   1  -5   46.86    3.68
   3   1  -5   42.65    4.26
   3   1  -5   51.75    4.21
   3  -1  -4   25.42    3.37
   3   1  -4   24.45    3.25
   3   1  -4   14.56    3.91
   3   1  -4   19.32    3.71
   3  -1  -3    3.42    2.45
   3   1  -3    2.19    2.37
   3  -1  -3    3.33    5.52
  -3   1   3   -3.17    4.31
  -3  -1   3    4.89    4.79
   3   1  -3    6.38    3.50
   3   1  -2    9.00    6.79
   3  -1  -2   13.47    6.84
   3  -1  -2   12.27    2.43
   3   1  -2   11.59    2.40
  -3   1   2    6.86    4.66
  -3  -1   2   14.64    5.16
  -3   1   1   16.45    5.10
  -3  -1   1   18.57    5.06
   3   1  -1   16.41    6.07
   3  -1  -1   21.12    3.38
  -3   1   1   24.20    3.39
   3   1  -1   16.77    7.97
  -3   1   0   42.60    9.33
  -3   1   0   73.80    5.32
   3  -1   0   56.76    4.61
  -3   1   0   69.21    8.55
   3   1   0   57.53   10.03
   3   1   0   59.23    8.06
   3   1   0   69.26    6.46
  -3  -1  -1   65.04    8.28
  -3   1  -1   47.29    9.38
  -3   1  -1   45.53    4.58
   3   1   1   39.39    6.36
   3  -1   1   48.92    6.51
   3   1   1   57.03    6.88
  -3   1  -2  190.30   10.41
  -3   1  -2  174.07   16.98
   3  -1   2  180.69   13.58
   3   1   2  173.50   13.52
  -3   1  -3  424.92   20.11
  -3   1  -4   31.86    4.19
  -3   1  -4   30.59    3.87
  -3   1  -5   57.06    4.14
  -3   1  -5   60.64    3.90
   3  -2  -5   79.88    5.06
   3   2  -5   82.38    5.00
   3  -2  -5   85.95    5.54
   3   2  -5   76.98    5.46
   3   2  -5   90.05    5.57
   3  -2  -5   81.30    5.47
   3  -2  -4   39.50    3.91
   3   2  -4   45.19    4.03
   3   2  -4   47.04    4.64
   3  -2  -4   40.76    4.67
   3   2  -4   45.79    4.69
   3  -2  -4   37.20    4.48
   3  -2  -3  183.15    9.44
   3   2  -3  187.51    9.44
  -3   2   3  147.99   13.01
  -3  -2   3  166.16   13.81
   3  -2  -3  183.87   10.18
   3   2  -3  182.08   10.27
   3   2  -3  156.88   15.85
   3  -2  -3  156.95   15.58
   3   2  -2   86.50   11.27
   3  -2  -2   89.63   11.78
   3  -2  -2   82.98    5.26
   3   2  -2   82.13    5.11
  -3   2   2   87.01    9.15
   3  -2  -2   75.14    5.79
  -3  -2   2   73.51    8.95
  -3   2   1    2.30    4.57
   3  -2  -1    0.85    2.70
   3   2  -1   -1.55    4.87
  -3   2   1    7.02    2.68
  -3  -2   1    1.33    2.61
   3   2  -1    4.44    5.96
   3  -2  -1   -3.32    5.86
  -3   2   0  194.98   10.11
  -3  -2   0  198.98   10.28
  -3   2   0  180.91   14.27
   3   2   0  171.09   16.09
  -3  -2   0  185.20   13.88
   3  -2   0  175.73    9.47
   3  -2   0  164.94   16.07
   3   2   0  191.81   14.03
  -3   2   0  164.63   16.16
  -3  -2   0  142.49   15.57
   3   2   0  194.86   12.21
  -3   2  -1  102.82   13.01
  -3   2  -1  135.33    8.13
  -3  -2  -1  137.75    8.28
  -3  -2  -1  135.23   11.90
   3  -2   1  126.38    7.14
   3   2   1  139.88   11.24
  -3  -2  -1  135.94   14.61
   3  -2   1  134.73   10.76
   3   2   1  123.73   10.65
  -3   2  -2   25.83    7.88
  -3  -2  -2   33.12    8.62
  -3   2  -2   42.98    4.50
  -3  -2  -2   36.25    4.52
   3  -2   2   38.34    6.50
   3   2   2   36.91    6.39
  -3   2  -3  131.08    8.23
  -3  -2  -3  128.81    8.36
  -3   2  -4   35.66    4.06
  -3  -2  -4   27.29    4.00
  -3   2  -4   32.14    3.75
  -3  -2  -4   23.93    3.77
  -3   2  -5   46.79    3.86
  -3  -2  -5   55.38    3.96
  -3   2  -5   55.01    3.70
  -3  -2  -5   60.17    3.77
   3   3  -5   27.70    3.19
   3  -3  -5   29.48    3.05
   3  -3  -5   32.28    3.51
   3  -3  -5   32.70    3.36
   3   3  -5   25.77    3.50
   3  -3  -4    8.32    2.72
   3   3  -4   11.11    2.80
   3  -3  -4    8.74    3.43
   3   3  -4   12.79    3.47
   3   3  -4   15.71    3.25
   3  -3  -4   14.67    3.35
   3  -3  -3   64.26    4.77
   3   3  -3   64.50    4.69
  -3   3   3   45.47    7.65
  -3  -3   3   78.54    9.09
   3   3  -3   64.56   10.62
   3  -3  -3   46.77    9.01
   3  -3  -3   64.16    5.56
   3   3  -3   60.66    5.71
   3  -3  -2  533.65   23.69
   3   3  -2  561.31   23.61
  -3   3   2  570.18   29.83
   3  -3  -2  536.39   24.44
   3   3  -2  558.47   29.79
   3   3  -2  466.42   31.42
   3  -3  -2  477.23   31.65
  -3   3   1   22.17    5.75
  -3  -3   1   14.68    5.25
   3  -3  -1   12.00    3.07
  -3   3   1   19.54    3.20
  -3  -3   1   23.00    3.40
   3   3  -1   20.79    7.59
   3  -3  -1   21.94    6.79
  -3   3   0  154.63    8.49
  -3  -3   0  158.37    8.70
  -3   3   0  166.31   13.03
  -3  -3   0  135.77   11.98
   3  -3   0  139.78    8.00
   3   3   0  146.39   14.50
   3  -3   0  135.92   14.48
   3   3   0  156.19   12.47
  -3   3   0  122.41   14.13
  -3  -3   0  124.58   13.91
   3   3   0  130.80   10.47
  -3   3  -1   62.97   10.12
  -3  -3  -1   52.63   10.17
  -3   3  -1   65.90    5.18
  -3  -3  -1   67.92    5.47
   3  -3   1   55.43    4.31
  -3  -3  -1   50.72    7.70
   3   3   1   54.44    7.37
   3  -3   1   58.55    7.02
   3   3   1   61.98    7.49
  -3   3  -2   13.41    6.55
  -3  -3  -2    7.50    6.11
  -3   3  -2    0.53    3.14
  -3  -3  -2    8.46    3.38
   3  -3   2    6.11    2.14
   3  -3   2    8.29    4.79
   3   3   2    4.82    4.50
  -3   3  -3    9.38    3.36
  -3  -3  -3    4.65    3.13
  -3   3  -4   13.98    3.26
  -3  -3  -4   15.01    3.48
  -3   3  -4   17.79    3.50
  -3  -3  -4   17.23    3.46
  -3   3  -5   13.72    2.34
  -3  -3  -5   14.55    2.31
  -3   3  -5   17.22    2.16
  -3  -3  -5   13.56    2.18
   3  -4  -5   70.56    4.51
  -3  -4   5   70.95    4.04
   3   4  -5   68.40    4.63
   3  -4  -5   71.59    4.68
   3  -4  -4   19.70    3.20
   3   4  -4   18.68    2.86
   3  -4  -4   17.26    3.49
   3   4  -4   15.60    3.47
   3   4  -4   17.23    3.38
   3  -4  -4   20.79    3.38
   3  -4  -3  527.39   23.45
   3   4  -3  525.69   23.27
  -3  -4   3  448.95   28.38
   3  -4  -3  531.51   23.87
   3   4  -3  550.16   24.07
   3  -4  -2  481.71   22.30
   3   4  -2  538.34   22.27
  -3   4   2  521.69   28.39
  -3  -4   2  463.73   27.93
   3  -4  -2  505.21   23.19
   3   4  -2  533.55   28.45
   3   4  -2  477.08   30.47
   3  -4  -2  503.80   30.85
  -3   4   1   17.78    5.82
  -3  -4   1   28.02    5.91
   3  -4  -1   24.63    3.72
  -3   4   1   26.62    3.50
  -3  -4   1   27.99    3.62
   3   4  -1   30.91    7.98
   3  -4  -1   19.22    7.19
  -3   4   0   21.35    7.23
  -3  -4   0   34.47    8.44
  -3   4   0   40.07    7.14
  -3  -4   0   30.71    6.10
   3  -4   0   30.34    3.54
   3   4   0   21.12    5.84
  -3   4   0   29.46    3.92
  -3  -4   0   31.17    3.78
   3   4   0    9.54    6.97
   3  -4   0   32.55    8.00
  -3   4  -1    4.84    5.82
  -3  -4  -1   13.78    7.28
  -3  -4  -1    4.04    4.65
   3   4   1    7.70    6.16
   3  -4   1    4.26    6.04
   3  -4   1    9.31    2.53
  -3   4  -1    8.35    3.13
  -3  -4  -1   12.77    3.42
   3   4   1    7.85    4.68
   3  -4   1    4.01    3.85
   3   4   1    9.96    4.80
  -3   4  -2   -2.38    5.50
  -3  -4  -2    3.66    5.53
  -3   4  -2    3.40    3.01
  -3  -4  -2    2.15    3.06
   3  -4   2    1.01    2.09
   3   4   2    1.94    3.42
  -3  -4  -2    1.96    2.54
   3  -4   2    0.76    4.11
   3   4   2   -0.83    4.38
  -3   4  -3   72.70    5.14
  -3  -4  -3   67.22    4.97
  -3  -4  -3   60.43    3.76
  -3   4  -4    3.27    2.79
  -3  -4  -4    3.13    2.67
  -3   4  -4    3.35    2.75
  -3  -4  -4    7.19    2.88
  -3   4  -5   15.61    1.73
  -3  -4  -5   14.62    1.78
   3  -5  -5  122.70    6.61
  -3  -5   5  128.31    6.21
   3   5  -5  125.65    6.53
   3  -5  -5  128.02    6.57
   3  -5  -4    7.39    2.65
   3   5  -4   10.57    2.78
   3  -5  -4    3.83    2.70
   3  -5  -3   17.23    3.07
   3   5  -3   17.49    3.45
   3  -5  -3   16.34    3.32
   3  -5  -2  309.33   14.27
  -3   5   2  300.88   14.54
  -3  -5   2  288.12   14.46
  -3  -5   2  313.01   19.73
   3  -5  -2  316.68   15.13
   3   5  -2  312.08   19.54
   3   5  -2  272.17   20.70
   3  -5  -2  307.12   21.28
  -3   5   1   33.72    6.61
  -3  -5   1   29.22    6.07
   3  -5  -1   31.62    4.10
   3   5  -1   31.34    6.30
  -3   5   1   33.37    3.89
  -3  -5   1   32.03    3.84
   3   5  -1   42.68    8.75
   3  -5  -1   45.31    8.62
  -3   5   0   99.55   12.26
  -3  -5   0   80.13   11.73
  -3   5   0  108.57    6.89
  -3  -5   0  117.76    7.05
   3  -5   0  118.96    6.89
   3   5   0   99.82   10.13
  -3  -5   0  110.74   10.47
   3   5   0   72.32   11.05
   3  -5   0   90.67   11.87
  -3   5  -1   33.59    8.48
  -3  -5  -1   42.37    9.12
  -3   5  -1   48.23    4.66
  -3  -5  -1   47.09    4.81
   3  -5   1   51.67    4.20
   3   5   1   57.30    9.57
   3  -5   1   44.85    8.82
   3   5   1   51.52    7.43
   3  -5   1   39.92    6.18
   3   5   1   38.33    6.45
  -3   5  -2    1.11    5.23
  -3  -5  -2   -5.71    6.30
  -3   5  -2   -3.49    3.00
  -3  -5  -2    2.30    3.22
   3  -5   2   -1.79    2.32
   3   5   2   -1.34    3.79
  -3  -5  -2    1.26    2.67
   3  -5   2    1.53    4.05
   3   5   2    5.97    4.58
  -3   5  -3    4.66    1.75
  -3   5  -3    8.66    3.02
  -3  -5  -3    9.95    3.19
   3  -5   3   12.67    2.26
  -3  -5  -3    9.64    2.60
  -3   5  -4    2.28    2.35
  -3  -5  -4   -0.37    2.35
  -3   5  -4    2.88    2.37
  -3  -5  -4    3.84    2.57
  -3  -5  -4    1.35    1.80
   3  -6  -5  130.12    4.06
  -3  -6   5  110.10    3.17
   3  -6  -4    4.71    2.38
   3   6  -4    0.16    2.18
   3  -6  -4    1.61    2.22
   3  -6  -3    7.07    2.57
   3   6  -3    7.27    2.74
   3  -6  -3    2.82    2.61
   3  -6  -2   55.25    4.35
   3  -6  -2   43.49    8.24
  -3   6   2   65.64    4.89
  -3  -6   2   56.00    4.67
  -3  -6   2   50.65    7.65
   3   6  -2   58.18    7.98
  -3   6   1   14.94    7.25
  -3  -6   1   19.36    6.96
  -3  -6   1   17.12    5.05
   3  -6  -1   15.05    3.44
   3   6  -1   19.07    5.93
  -3   6   1   15.02    3.08
  -3  -6   1   18.72    3.06
   3   6  -1   21.90    6.44
   3  -6  -1    0.96    5.80
  -3   6   0  251.12   12.09
  -3  -6   0  268.15   12.26
  -3  -6   0  223.08   15.85
   3  -6   0  232.49   11.95
   3   6   0  227.09   16.21
   3   6   0  176.48   16.46
   3  -6   0  220.19   17.79
  -3   6   0  190.44   17.48
  -3  -6   0  221.66   18.35
  -3  -6  -1   40.54    8.35
   3  -6   1   38.13    3.90
  -3   6  -1   35.29    3.91
  -3  -6  -1   35.28    4.02
   3   6   1   40.30    7.93
   3   6   1   34.22    6.28
   3  -6   1   20.95    7.20
   3  -6   1   34.26    6.52
   3   6   1   41.94    6.98
  -3   6  -2   43.39    4.21
   3  -6   2   38.11    3.70
  -3  -6  -2   39.02    4.22
  -3  -6  -2   34.91    4.09
  -3   6  -3   46.52    4.45
  -3  -6  -3   59.35    4.73
  -3   6  -3   53.47    3.57
   3  -6   3   56.27    3.96
  -3  -6  -3   44.94    4.26
  -3   6  -4    6.72    2.21
  -3  -6  -4    2.37    1.78
  -3   6  -4    9.69    2.17
  -3  -6  -4   -1.73    1.80
  -3  -6  -4    9.35    1.91
   3  -7  -5   28.12    2.44
  -3  -7   5   25.69    2.01
  -3  -7   5   23.35    2.24
   3  -7  -4   -0.85    2.26
  -3  -7   4   -0.14    1.31
  -3  -7   4    3.68    2.21
   3  -7  -3   14.00    2.75
  -3  -7   3   11.84    2.56
   3   7  -3    7.88    2.42
   3  -7  -3   15.72    2.67
   3  -7  -2   21.09    3.02
   3  -7  -2   19.16    3.79
  -3  -7   2   20.78    3.06
  -3  -7   1    2.14    3.88
   3  -7  -1    3.04    3.22
   3   7  -1    3.22    4.96
  -3  -7   1   -0.21    2.49
  -3  -7   0   78.29    5.45
   3  -7   0   76.22    5.67
  -3  -7   0   62.21    7.86
   3   7   0   64.31    8.27
  -3  -7  -1   75.98    5.35
   3  -7   1   73.90    5.26
   3   7   1   63.15    8.32
   3  -7   1   71.92    8.62
   3  -7   1   65.26    5.12
   3   7   1   72.97    8.58
  -3  -7  -2   77.04    5.37
  -3   7  -2   78.67    5.00
   3  -7   2   71.68    5.16
  -3  -7  -2   67.30    5.53
  -3   7  -3   57.40    3.03
   3  -7   3   54.73    3.48
  -3  -7  -3    0.72    2.13
  -3  -7  -3    0.30    2.08
  -3  -7  -3   51.85    3.84
  -3  -7  -4   35.90    2.84
   3  -8  -5   23.23    1.99
   3  -8  -4    3.03    2.20
  -3  -8   4    4.37    2.05
   3  -8  -3   13.48    2.78
   3  -8  -2   20.39    3.16
   3  -8  -2   29.26    3.97
   3  -8  -1   21.04    2.84
   3   8  -1   26.64    6.06
   3  -8   0  267.06   13.37
   3  -8   0  274.02   13.74
   3  -8   1   18.49    3.34
   3  -8   1   24.96    3.40
  -3   8  -2   95.90    5.62
   3  -8   2   93.77    5.82
  -3  -8  -2   80.28    6.21
  -3   8  -3   57.19    3.66
   3  -8   3   51.33    3.83
  -3  -8  -3   54.32    4.45
  -3  -8  -4   25.83    2.35
   3  -9  -4   20.04    2.51
  -3  -9   4   23.19    2.50
  -3  -9   4   23.69    2.46
   3  -9  -3   11.81    2.61
  -3  -9   3   15.41    2.82
  -3  -9   3   14.26    2.46
   3  -9  -2    6.89    2.43
   3  -9  -2    6.98    2.89
  -3  -9   2    7.76    2.62
   3  -9  -1  144.89    7.88
   3  -9  -1  132.16    8.62
   3  -9   0  221.57   11.14
   3  -9   0  200.13   11.24
   3  -9   1   36.24    4.11
   3  -9   1   36.78    4.00
  -3   9  -2   13.03    2.59
   3  -9   2   17.74    2.79
  -3  -9  -2   19.29    3.50
  -3   9  -3    1.02    1.69
   3  -9   3    0.26    1.82
  -3  -9  -3    1.15    2.51
  -3  -9  -4   30.00    2.34
   3 -10  -4   11.22    1.92
  -3 -10   4    6.56    1.58
   3 -10  -3    5.97    2.20
  -3 -10   3    6.03    2.17
  -3 -10   3    7.94    1.85
   3 -10  -2   28.85    3.16
  -3  10   2   28.22    2.69
   3 -10  -2   29.66    3.63
  -3 -10   2   30.39    3.14
   3 -10  -1   19.34    2.76
   3 -10  -1   24.62    3.59
  -3 -10   1   22.06    2.61
  -3  10   0  201.42    9.82
   3 -10   0  188.79   10.53
   3 -10   1    0.20    2.78
   3 -10   1    2.53    2.60
  -3  10  -2   11.08    2.39
   3 -10   2   10.44    2.60
  -3 -10  -2   12.99    3.03
  -3  10  -3    8.17    1.72
   3 -10   3    6.45    1.93
  -3 -10  -3    8.10    2.40
   3 -11  -3   41.50    3.23
  -3 -11   3   41.68    3.22
   3 -11  -2   69.54    4.76
   3 -11  -2   75.26    5.10
  -3 -11   2   86.20    4.77
   3 -11  -1  113.70    6.61
  -3  11   1  135.21    6.74
   3 -11  -1  129.11    7.42
  -3  11   0   54.06    4.05
   3 -11   0   53.53    4.48
   3 -11   1   14.55    3.05
  -3  11  -1   11.63    2.47
   3 -11   1   13.27    2.77
  -3  11  -2    6.00    2.09
   3 -11   2    3.78    2.10
  -3 -11  -2    5.07    2.73
  -3  11  -3    2.90    1.38
   3 -11   3    1.34    1.55
  -3 -11  -3    1.15    1.80
   3 -12  -3   22.57    2.26
  -3 -12   3   25.28    2.26
   3 -12  -2   44.35    3.47
  -3 -12   2   53.82    3.31
   3 -12  -1   14.81    2.18
  -3  12   1   17.04    2.21
   3 -12  -1   18.31    2.83
  -3  12   0   58.50    3.96
   3 -12   0   63.50    4.61
  -3  12  -1  126.75    6.46
  -3 -12  -1  115.89    7.08
  -3  12  -2   52.78    3.47
   3 -12   2   50.50    3.61
  -3 -12  -2   48.06    3.94
  -3  12  -3    2.91    1.06
  -3 -12  -3    2.53    1.52
   3 -13  -2    6.97    1.59
  -3  13   1    9.59    1.70
   3 -13  -1    8.67    2.26
  -3  13   0   29.10    2.54
   3 -13   0   25.12    2.99
  -3  13  -1  158.72    7.38
   3 -13   1  149.72    7.67
  -3 -13  -1  144.08    7.97
   3 -13   2    5.81    1.73
  -3 -13  -2    4.54    1.85
  -3  14   0   40.50    2.62
   3 -14   0   40.19    3.04
  -3 -14   0   34.16    3.26
  -3  14  -1  114.91    5.53
   3 -14   1  115.45    5.83
  -3 -14  -1  114.60    6.15
  -3 -14  -2   42.25    2.69
  -4   0   4   -0.24    1.80
  -4   0   3   -0.35    2.48
  -4   0   2    1.08    2.74
  -4   0   1   84.23    6.21
  -4   0   0   14.09    3.31
  -4   0  -1    4.06    2.88
  -4   0  -2  239.50   11.92
  -4   0  -3   10.91    2.35
   4   1  -4   20.68    2.41
   4  -1  -4   22.44    2.49
  -4   1   3   14.69    2.84
   4   1  -3   18.10    3.09
  -4   1   2   13.26    3.15
  -4   1   1   23.78    3.68
  -4   1   0  183.44   10.12
  -4   1  -1   11.18    3.03
  -4   1  -2  144.06    8.04
  -4   1  -3   19.79    2.64
  -4   2   4   10.46    2.18
  -4  -2   4   14.46    2.19
   4   2  -4   26.04    2.49
   4  -2  -4   24.68    2.40
  -4   2   3   37.03    3.62
  -4  -2   3   39.27    3.60
   4   2  -3   41.49    3.87
   4  -2  -3   33.59    3.62
  -4   2   2    1.61    2.70
  -4  -2   2    2.25    2.56
  -4   2   1   11.85    3.12
  -4  -2   1   13.19    3.25
  -4   2   0    3.78    2.93
  -4  -2   0    7.69    2.97
  -4   2  -1    7.81    2.89
  -4  -2  -1    9.53    3.11
  -4   2  -2  124.86    5.15
  -4  -2  -2  133.55    5.32
  -4   2  -3   92.82    5.31
  -4  -2  -3   92.21    5.38
  -4   3   4   11.98    2.16
  -4  -3   4   18.87    2.28
   4   3  -4   31.40    2.42
   4  -3  -4   34.87    2.42
  -4   3   3   66.61    4.58
  -4  -3   3   67.88    4.71
   4   3  -3   64.06    4.56
   4  -3  -3   68.73    4.63
  -4   3   2   10.02    2.74
  -4  -3   2   10.91    2.86
  -4   3   1    2.27    2.59
  -4  -3   1    1.92    2.66
  -4   3   0    1.46    2.63
  -4  -3   0   -1.96    2.48
   4  -3   0    0.92    2.07
  -4   3  -1    2.57    2.58
  -4  -3  -1    0.83    2.65
  -4   3  -2   83.27    4.16
  -4  -3  -2   87.89    4.40
  -4   3  -3   36.11    3.00
  -4   3  -3   28.09    2.71
  -4  -3  -3   27.51    2.85
  -4  -4   4   28.82    1.90
  -4  -4   4   11.08    1.77
  -4   4   3   58.94    4.31
  -4  -4   3   65.48    4.46
   4   4  -3   67.33    4.48
   4  -4  -3   71.52    4.46
  -4   4   2   12.78    2.61
  -4  -4   2   11.40    2.72
  -4   4   1    9.58    2.75
  -4  -4   1    9.72    2.74
  -4   4   0   -0.20    2.58
  -4  -4   0    2.21    2.57
   4  -4   0    2.10    2.25
  -4   4  -1   10.46    2.73
  -4  -4  -1    8.11    2.62
  -4   4  -2   23.11    2.69
  -4  -4  -2   26.37    2.88
  -4   4  -3    2.61    1.50
  -4  -4  -3    5.13    1.69
  -4   4  -3    4.31    1.58
  -4  -4  -3    1.85    1.52
  -4  -5   3  157.69    7.68
   4   5  -3  159.95    7.55
   4  -5  -3  166.61    7.52
  -4   5   2   45.83    3.86
  -4  -5   2   55.30    4.03
  -4   5   1   14.38    2.81
  -4  -5   1   17.99    2.90
  -4   5   0   13.75    2.81
  -4  -5   0   14.44    2.86
   4  -5   0   11.33    2.49
  -4   5  -1   10.90    2.54
  -4  -5  -1   14.35    2.61
   4  -5   1   11.80    2.17
  -4   5  -2   60.23    3.24
  -4  -5  -2   59.22    3.40
  -4  -6   3   -1.14    0.92
  -4  -6   3  143.70    3.94
  -4   6   2   41.63    3.04
   4   6  -2   48.85    3.09
   4  -6  -2   49.47    2.98
  -4   6   1   12.76    2.41
  -4  -6   1   11.29    2.40
   4  -6  -1   14.61    2.73
  -4   6   0   79.17    5.06
  -4  -6   0   82.52    5.06
   4  -6   0   76.11    5.07
  -4   6  -1   18.07    2.49
  -4  -6  -1   10.41    2.23
   4  -6   1   14.22    2.35
  -4   6  -2   25.35    1.65
  -4  -6  -2   -0.30    1.10
  -4  -7   3   18.84    1.97
  -4  -7   2    3.28    1.65
   4  -7  -1  198.43    5.65
  -4  -7   1    0.23    0.67
  -4  -7   0    0.35    0.76
   4  -7   0   -0.15    2.19
  -4   7  -1   27.45    2.56
   4  -7   1   26.50    2.67
  -4   7  -2   11.63    1.40
  -4   8   2   26.01    2.09
  -4   8   0  127.56    6.16
   4  -8   0  103.14    6.21
  -4   8  -1   21.26    2.21
   4  -8   1   13.90    2.15
  -4   8  -2    6.22    1.03
  -4   9   1  127.35    6.17
  -4   9   0    0.19    1.67
   4  -9   0    1.75    1.79
  -4   9  -1    1.35    1.49
   4  -9   1    1.98    1.47
  -4  10   1   12.59    1.48
  -4  10   0    5.32    1.45
   4 -10   0    2.58    1.57
   0   0   0    0.00    0.00


TITL 031885_ZKKXDS_Ra in P2(1)/m
REM P2(1)/m (#11 in standard setting)
CELL 1.54184   3.870095  15.283579   5.821076  90.0000  93.6085  90.0000
ZERR    2.00   0.000142   0.000505   0.000178   0.0000   0.0030   0.0000
LATT  1
SYMM -x, y+1/2,-z
SFAC C H N O
UNIT 22.00 20.00 2.00 2.00
TREF
HKLF 4
END
_computing_structure_solution     'SHELXT 2014/5 (Sheldrick, 2014)'
;
_shelx_hkl_checksum              29821
_olex2_submission_special_instructions 'No special instructions were received'
_oxdiff_exptl_absorpt_empirical_details
;
Empirical correction (ABSPACK) includes:
- Absorption correction using spherical harmonics
- Frame scaling
;
_oxdiff_exptl_absorpt_empirical_full_max 1.566
_oxdiff_exptl_absorpt_empirical_full_min 0.697
loop_
_space_group_symop_operation_xyz
'x, y, z'
'-x, y+1/2, -z'
loop_
_atom_site_label
_atom_site_type_symbol
_atom_site_fract_x
_atom_site_fract_y
_atom_site_fract_z
_atom_site_U_iso_or_equiv
_atom_site_adp_type
_atom_site_occupancy
_atom_site_site_symmetry_order
_atom_site_calc_flag
_atom_site_refinement_flags_posn
_atom_site_refinement_flags_adp
_atom_site_refinement_flags_occupancy
_atom_site_disorder_assembly
_atom_site_disorder_group
O1 O 0.4572(5) 0.53454(11) 0.0855(3) 0.0332(5) Uani 1 1 d . . . . .
O2 O 0.1995(6) 0.65890(14) -0.0099(4) 0.0503(6) Uani 1 1 d . . . . .
C5 C 0.6420(7) 0.48167(15) 0.2425(4) 0.0286(6) Uani 1 1 d . . . . .
C3 C 0.6827(7) 0.60378(17) 0.5106(4) 0.0304(6) Uani 1 1 d . . . . .
H3 H 0.759971 0.627198 0.652128 0.036 Uiso 1 1 calc R . . . .
C1 C 0.3748(7) 0.61964(16) 0.1355(4) 0.0335(6) Uani 1 1 d . . . . .
C4 C 0.7582(7) 0.51435(15) 0.4581(4) 0.0273(6) Uani 1 1 d . . . . .
C9 C 0.9371(7) 0.45706(18) 0.6109(4) 0.0323(6) Uani 1 1 d . . . . .
H9 H 1.018747 0.477035 0.755219 0.039 Uiso 1 1 calc R . . . .
C2 C 0.5021(7) 0.65365(18) 0.3574(5) 0.0329(6) Uani 1 1 d . . . . .
H2 H 0.456927 0.711590 0.394121 0.039 Uiso 1 1 calc R . . . .
C7 C 0.8765(8) 0.34166(18) 0.3335(5) 0.0393(7) Uani 1 1 d . . . . .
H7 H 0.917505 0.283915 0.292785 0.047 Uiso 1 1 calc R . . . .
C6 C 0.7008(7) 0.39647(16) 0.1785(5) 0.0354(7) Uani 1 1 d . . . . .
H6 H 0.623528 0.376303 0.033493 0.042 Uiso 1 1 calc R . . . .
C8 C 0.9932(7) 0.37186(18) 0.5502(5) 0.0375(6) Uani 1 1 d . . . . .
H8 H 1.109422 0.334154 0.653901 0.045 Uiso 1 1 calc R . . . .
loop_
_atom_site_aniso_label
_atom_site_aniso_U_11
_atom_site_aniso_U_22
_atom_site_aniso_U_33
_atom_site_aniso_U_23
_atom_site_aniso_U_13
_atom_site_aniso_U_12
O1 0.0398(11) 0.0373(11) 0.0219(8) -0.0003(7) -0.0028(7) -0.0038(8)
O2 0.0550(13) 0.0557(14) 0.0388(11) 0.0112(10) -0.0085(9) 0.0075(11)
C5 0.0296(14) 0.0322(14) 0.0241(11) 0.0010(10) 0.0034(10) -0.0049(11)
C3 0.0325(14) 0.0341(14) 0.0245(12) -0.0044(11) 0.0016(10) -0.0066(12)
C1 0.0338(14) 0.0370(16) 0.0294(13) 0.0047(12) 0.0004(11) -0.0017(12)
C4 0.0287(13) 0.0309(13) 0.0225(11) -0.0019(10) 0.0038(9) -0.0066(11)
C9 0.0312(15) 0.0389(15) 0.0267(12) 0.0016(11) 0.0001(10) -0.0046(11)
C2 0.0349(14) 0.0296(12) 0.0344(13) -0.0042(11) 0.0040(10) -0.0031(12)
C7 0.0440(17) 0.0303(15) 0.0449(15) -0.0019(12) 0.0143(13) -0.0017(12)
C6 0.0403(16) 0.0365(16) 0.0302(13) -0.0059(11) 0.0083(11) -0.0092(12)
C8 0.0362(14) 0.0370(15) 0.0397(15) 0.0067(13) 0.0054(11) 0.0002(13)
loop_
_atom_type_symbol
_atom_type_description
_atom_type_scat_dispersion_real
_atom_type_scat_dispersion_imag
_atom_type_scat_source
C C 0.0181 0.0091 'International Tables Vol C Tables 4.2.6.8 and 6.1.1.4'
H H 0.0000 0.0000 'International Tables Vol C Tables 4.2.6.8 and 6.1.1.4'
O O 0.0492 0.0322 'International Tables Vol C Tables 4.2.6.8 and 6.1.1.4'
loop_
_geom_angle_atom_site_label_1
_geom_angle_atom_site_label_2
_geom_angle_atom_site_label_3
_geom_angle
_geom_angle_site_symmetry_1
_geom_angle_site_symmetry_3
_geom_angle_publ_flag
C1 O1 C5 121.98(18) . . ?
O1 C5 C4 120.5(2) . . ?
C6 C5 O1 117.4(2) . . ?
C6 C5 C4 122.1(2) . . ?
C4 C3 H3 119.8 . . ?
C2 C3 H3 119.8 . . ?
C2 C3 C4 120.4(2) . . ?
O1 C1 C2 117.2(2) . . ?
O2 C1 O1 116.6(2) . . ?
O2 C1 C2 126.1(2) . . ?
C5 C4 C3 118.2(2) . . ?
C5 C4 C9 117.7(2) . . ?
C9 C4 C3 124.0(2) . . ?
C4 C9 H9 119.7 . . ?
C8 C9 C4 120.7(2) . . ?
C8 C9 H9 119.7 . . ?
C3 C2 C1 121.6(2) . . ?
C3 C2 H2 119.2 . . ?
C1 C2 H2 119.2 . . ?
C6 C7 H7 119.7 . . ?
C6 C7 C8 120.7(3) . . ?
C8 C7 H7 119.7 . . ?
C5 C6 C7 118.7(2) . . ?
C5 C6 H6 120.6 . . ?
C7 C6 H6 120.6 . . ?
C9 C8 C7 120.1(3) . . ?
C9 C8 H8 119.9 . . ?
C7 C8 H8 119.9 . . ?
loop_
_geom_bond_atom_site_label_1
_geom_bond_atom_site_label_2
_geom_bond_distance
_geom_bond_site_symmetry_2
_geom_bond_publ_flag
O1 C5 1.385(3) . ?
O1 C1 1.375(3) . ?
O2 C1 1.210(3) . ?
C5 C4 1.399(3) . ?
C5 C6 1.377(3) . ?
C3 H3 0.9300 . ?
C3 C4 1.435(4) . ?
C3 C2 1.337(4) . ?
C1 C2 1.450(4) . ?
C4 C9 1.400(3) . ?
C9 H9 0.9300 . ?
C9 C8 1.370(4) . ?
C2 H2 0.9300 . ?
C7 H7 0.9300 . ?
C7 C6 1.379(4) . ?
C7 C8 1.391(4) . ?
C6 H6 0.9300 . ?
C8 H8 0.9300 . ?
loop_
_geom_torsion_atom_site_label_1
_geom_torsion_atom_site_label_2
_geom_torsion_atom_site_label_3
_geom_torsion_atom_site_label_4
_geom_torsion
_geom_torsion_site_symmetry_1
_geom_torsion_site_symmetry_2
_geom_torsion_site_symmetry_3
_geom_torsion_site_symmetry_4
_geom_torsion_publ_flag
O1 C5 C4 C3 -0.4(3) . . . . ?
O1 C5 C4 C9 178.6(2) . . . . ?
O1 C5 C6 C7 -178.4(2) . . . . ?
O1 C1 C2 C3 -2.1(4) . . . . ?
O2 C1 C2 C3 177.2(3) . . . . ?
C5 O1 C1 O2 -176.8(2) . . . . ?
C5 O1 C1 C2 2.5(3) . . . . ?
C5 C4 C9 C8 -0.4(4) . . . . ?
C3 C4 C9 C8 178.6(2) . . . . ?
C1 O1 C5 C4 -1.3(3) . . . . ?
C1 O1 C5 C6 177.8(2) . . . . ?
C4 C5 C6 C7 0.8(4) . . . . ?
C4 C3 C2 C1 0.4(4) . . . . ?
C4 C9 C8 C7 0.9(4) . . . . ?
C2 C3 C4 C5 0.8(4) . . . . ?
C2 C3 C4 C9 -178.1(2) . . . . ?
C6 C5 C4 C3 -179.5(3) . . . . ?
C6 C5 C4 C9 -0.5(3) . . . . ?
C6 C7 C8 C9 -0.6(4) . . . . ?
C8 C7 C6 C5 -0.2(4) . . . . ?
