#------------------------------------------------------------------------------
#$Date: 2020-06-03 01:22:27 +0300 (Wed, 03 Jun 2020) $
#$Revision: 252543 $
#$URL: file:///home/coder/svn-repositories/cod/cif/4/00/35/4003566.cif $
#------------------------------------------------------------------------------
#
# This file is available in the Crystallography Open Database (COD),
# http://www.crystallography.net/
#
# All data on this site have been placed in the public domain by the
# contributors.
#
data_4003566
loop_
_publ_author_name
'Liu, Kun'
'Lei, Yilong'
'Fu, Hongbing'
_publ_section_title
;
 A General Synthetic Strategy to a Library of Luminescent All-Organic
 Core--Shell Microstructures
;
_journal_name_full               'Chemistry of Materials'
_journal_paper_doi               10.1021/acs.chemmater.0c01184
_journal_year                    2020
_chemical_formula_sum            'C23 H12 N4'
_chemical_formula_weight         344.37
_space_group_crystal_system      triclinic
_space_group_IT_number           1
_space_group_name_Hall           'P 1'
_space_group_name_H-M_alt        'P 1'
_atom_sites_solution_hydrogens   geom
_audit_creation_method           SHELXL-2018/3
_cell_angle_alpha                73.81(3)
_cell_angle_beta                 83.70(3)
_cell_angle_gamma                88.39(3)
_cell_formula_units_Z            1
_cell_length_a                   7.1834(14)
_cell_length_b                   7.7893(16)
_cell_length_c                   7.9495(16)
_cell_measurement_reflns_used    1210
_cell_measurement_temperature    113(2)
_cell_measurement_theta_max      27.8585
_cell_measurement_theta_min      2.8529
_cell_volume                     424.58(16)
_computing_cell_refinement       crystalclear
_computing_data_collection       crystalclear
_computing_data_reduction        crystalclear
_computing_molecular_graphics    'Bruker SHELXTL'
_computing_publication_material  'Bruker SHELXTL'
_computing_structure_refinement  'SHELXL-97 (Sheldrick, 1997)'
_computing_structure_solution    'SHELXS-97 (Sheldrick, 1990)'
_diffrn_ambient_temperature      113(2)
_diffrn_measured_fraction_theta_full 0.997
_diffrn_measured_fraction_theta_max 0.991
_diffrn_measurement_device_type  'rigaku saturn'
_diffrn_measurement_method       '\w scans'
_diffrn_radiation_type           MoK\a
_diffrn_radiation_wavelength     0.71073
_diffrn_reflns_av_R_equivalents  0.0285
_diffrn_reflns_av_unetI/netI     0.0629
_diffrn_reflns_Laue_measured_fraction_full 0.997
_diffrn_reflns_Laue_measured_fraction_max 0.991
_diffrn_reflns_limit_h_max       9
_diffrn_reflns_limit_h_min       -9
_diffrn_reflns_limit_k_max       10
_diffrn_reflns_limit_k_min       -10
_diffrn_reflns_limit_l_max       10
_diffrn_reflns_limit_l_min       -10
_diffrn_reflns_number            5065
_diffrn_reflns_point_group_measured_fraction_full 0.997
_diffrn_reflns_point_group_measured_fraction_max 0.991
_diffrn_reflns_theta_full        25.242
_diffrn_reflns_theta_max         27.817
_diffrn_reflns_theta_min         2.683
_diffrn_standards_decay_%        0
_diffrn_standards_interval_count 0
_diffrn_standards_interval_time  0
_diffrn_standards_number         0
_exptl_absorpt_coefficient_mu    0.083
_exptl_absorpt_correction_T_max  1
_exptl_absorpt_correction_T_min  0.6079
_exptl_absorpt_correction_type   multi-scan
_exptl_absorpt_process_details   crystalclear
_exptl_crystal_density_diffrn    1.347
_exptl_crystal_F_000             178
_exptl_crystal_size_max          0.200
_exptl_crystal_size_mid          0.180
_exptl_crystal_size_min          0.120
_refine_diff_density_max         0.170
_refine_diff_density_min         -0.176
_refine_diff_density_rms         0.039
_refine_ls_abs_structure_details
;
 Refined as a perfect inversion twin.
;
_refine_ls_abs_structure_Flack   0.5
_refine_ls_extinction_method     none
_refine_ls_goodness_of_fit_ref   1.032
_refine_ls_hydrogen_treatment    constr
_refine_ls_matrix_type           full
_refine_ls_number_parameters     313
_refine_ls_number_reflns         3585
_refine_ls_number_restraints     633
_refine_ls_restrained_S_all      0.981
_refine_ls_R_factor_all          0.0671
_refine_ls_R_factor_gt           0.0435
_refine_ls_shift/su_max          0.001
_refine_ls_shift/su_mean         0.000
_refine_ls_structure_factor_coef Fsqd
_refine_ls_weighting_details
'w=1/[\s^2^(Fo^2^)+(0.0464P)^2^] where P=(Fo^2^+2Fc^2^)/3'
_refine_ls_weighting_scheme      calc
_refine_ls_wR_factor_gt          0.0969
_refine_ls_wR_factor_ref         0.1045
_reflns_Friedel_coverage         1.000
_reflns_Friedel_fraction_full    0.997
_reflns_Friedel_fraction_max     0.991
_reflns_number_gt                2439
_reflns_number_total             3585
_reflns_threshold_expression     'I > 2\s(I)'
_cod_data_source_file            cm0c01184_si_009.cif
_cod_data_source_block           shelxl
_cod_database_code               4003566
_shelx_shelxl_version_number     2018/3
_shelx_space_group_comment
;
The symmetry employed for this shelxl refinement is uniquely defined
by the following loop, which should always be used as a source of
symmetry information in preference to the above space-group names.
They are only intended as comments.
;
_shelx_estimated_absorpt_t_min   0.984
_shelx_estimated_absorpt_t_max   0.990
_shelx_res_file
;
TITL shelxl in P-1
    shelxl.res
    created by SHELXL-2018/3 at 09:09:05 on 04-Dec-2018
CELL 0.71073   7.1834   7.7893   7.9495  73.807  83.700  88.388
ZERR    1.00   0.0014   0.0016   0.0016   0.030   0.030   0.030
LATT -1
SFAC C  H  N
UNIT 23 12 4
L.S. 50
acta
conf
htab
size 0.20 0.18 0.12
temp -160
twin
isor 0.01 c1 > c13'
simu 0.01 c1 > c13'
BOND $h
FMAP 2
PLAN 20
WGHT    0.046400
FVAR       1.96939
PART   1
C1    1    0.858355    0.975002    0.271361    10.50000    0.02084    0.03901 =
         0.03064   -0.00872   -0.00254   -0.00136
AFIX  23
H1A   2    0.965988    0.985252    0.335832    10.50000   -1.20000
H1B   2    0.750785    1.042800    0.309027    10.50000   -1.20000
AFIX  66
C2    1    0.909320    1.035213    0.072251    10.50000    0.01570    0.02087 =
         0.02955   -0.00229   -0.00457   -0.00462
C3    1    0.973528    1.201672   -0.032139    10.50000    0.02256    0.02548 =
         0.03812   -0.00326   -0.00164   -0.00042
AFIX  43
H3A   2    0.994195    1.293959    0.020618    10.50000   -1.20000
AFIX  65
C4    1    1.007499    1.233101   -0.213721    10.50000    0.02961    0.02861 =
         0.04251   -0.00031   -0.00736    0.00017
AFIX  43
H4A   2    1.051382    1.346869   -0.285066    10.50000   -1.20000
AFIX  65
C5    1    0.977264    1.098071   -0.290914    10.50000    0.02989    0.04323 =
         0.02516    0.00893   -0.00241   -0.00265
AFIX  43
H5A   2    1.000482    1.119553   -0.415017    10.50000   -1.20000
AFIX  65
C6    1    0.913055    0.931611   -0.186525    10.50000    0.02881    0.03348 =
         0.02382   -0.00236    0.00025   -0.00164
AFIX  43
H6A   2    0.892390    0.839324   -0.239284    10.50000   -1.20000
AFIX  65
C7    1    0.879082    0.900180   -0.004943    10.50000    0.02476    0.02871 =
         0.01846   -0.00790   -0.00183   -0.00077
AFIX  66
C8    1    0.813878    0.744110    0.136399    10.50000    0.02420    0.02491 =
         0.02680   -0.00588   -0.00200   -0.00196
C9    1    0.759530    0.573591    0.138524    10.50000    0.02547    0.02584 =
         0.03022   -0.00971    0.00049   -0.00208
AFIX  43
H9A   2    0.762196    0.541798    0.031274    10.50000   -1.20000
AFIX  65
C10   1    0.701283    0.449590    0.297571    10.50000    0.02954    0.02527 =
         0.04125    0.00481    0.00474   -0.00233
AFIX  43
H10A  2    0.664139    0.333048    0.299023    10.50000   -1.20000
AFIX  65
C11   1    0.697382    0.496106    0.454494    10.50000    0.03623    0.03467 =
         0.03460    0.00739    0.00891   -0.00066
AFIX  43
H11A  2    0.657572    0.411356    0.563196    10.50000   -1.20000
AFIX  65
C12   1    0.751729    0.666625    0.452371    10.50000    0.03161    0.04778 =
         0.02715   -0.00253   -0.00371   -0.00158
AFIX  43
H12A  2    0.749063    0.698416    0.559622    10.50000   -1.20000
AFIX  65
C13   1    0.809977    0.790628    0.293325    10.50000    0.02243    0.02878 =
         0.02038   -0.00680   -0.00536    0.00032
AFIX   0
PART   2
C1'   1    0.837750    0.715799   -0.061258    10.50000    0.02804    0.03020 =
         0.03695   -0.01770   -0.00112   -0.00126
AFIX  23
H1'A  2    0.725459    0.707761   -0.120617    10.50000   -1.20000
H1'B  2    0.938063    0.640270   -0.098602    10.50000   -1.20000
AFIX  66
C2'   1    0.904272    0.913507   -0.102093    10.50000    0.02507    0.02787 =
         0.02380   -0.00148   -0.00109    0.00032
C3'   1    0.965521    1.040769   -0.258011    10.50000    0.03324    0.03863 =
         0.01881   -0.00471    0.00122   -0.00105
AFIX  43
H3'A  2    0.973128    1.011577   -0.366888    10.50000   -1.20000
AFIX  65
C4'   1    1.015639    1.210744   -0.254627    10.50000    0.02923    0.03589 =
         0.02978    0.00365   -0.00283    0.00443
AFIX  43
H4'A  2    1.057501    1.297721   -0.361190    10.50000   -1.20000
AFIX  65
C5'   1    1.004507    1.253458   -0.095324    10.50000    0.02418    0.02118 =
         0.03556    0.00730   -0.00105   -0.00526
AFIX  43
H5'A  2    1.038761    1.369628   -0.093012    10.50000   -1.20000
AFIX  65
C6'   1    0.943258    1.126198    0.060596    10.50000    0.02087    0.02707 =
         0.03135    0.00515    0.00141   -0.00201
AFIX  43
H6'A  2    0.935651    1.155392    0.169472    10.50000   -1.20000
AFIX  65
C7'   1    0.893140    0.956222    0.057214    10.50000    0.01707    0.02064 =
         0.02316   -0.00666   -0.00333   -0.00173
AFIX  66
C8'   1    0.826840    0.803964    0.199168    10.50000    0.02179    0.03028 =
         0.02084   -0.00134   -0.00278   -0.00058
C9'   1    0.792225    0.783307    0.379219    10.50000    0.01951    0.03689 =
         0.02640    0.00013   -0.00577   -0.00413
AFIX  43
H9'A  2    0.814555    0.879881    0.425653    10.50000   -1.20000
AFIX  65
C10'  1    0.724938    0.621349    0.491331    10.50000    0.02912    0.04318 =
         0.02653    0.01117   -0.00089   -0.00553
AFIX  43
H10B  2    0.701280    0.607232    0.614389    10.50000   -1.20000
AFIX  65
C11'  1    0.692265    0.480047    0.423393    10.50000    0.03367    0.03300 =
         0.04598    0.01298   -0.00241   -0.00875
AFIX  43
H11B  2    0.646277    0.369356    0.500018    10.50000   -1.20000
AFIX  65
C12'  1    0.726879    0.500701    0.243342    10.50000    0.02776    0.02117 =
         0.04117    0.00181    0.00521   -0.00689
AFIX  43
H12B  2    0.704548    0.404127    0.196910    10.50000   -1.20000
AFIX  65
C13'  1    0.794167    0.662658    0.131228    10.50000    0.02403    0.02270 =
         0.03519   -0.00281    0.00319   -0.00071
AFIX   0
PART   0
N1    3    0.510988    1.363440   -0.097082    11.00000    0.04597    0.02639 =
         0.02641    0.00635   -0.00044   -0.01228
N2    3    0.485868    1.047785   -0.418320    11.00000    0.05454    0.02696 =
         0.01477   -0.00161    0.00371   -0.00884
N3    3    0.194873    0.344930    0.294428    11.00000    0.04263    0.02886 =
         0.03940   -0.01695   -0.00137    0.00064
N4    3    0.219347    0.660668    0.615555    11.00000    0.03358    0.04065 =
         0.03552   -0.01258   -0.00030   -0.00529
C14   1    0.465944    1.212814   -0.041804    11.00000    0.02410    0.02946 =
         0.02420   -0.01500   -0.00552    0.00269
C15   1    0.410712    1.031269    0.030030    11.00000    0.01262    0.02532 =
         0.02078   -0.00346   -0.00310    0.00167
C16   1    0.400441    0.925961   -0.082437    11.00000    0.02581    0.01536 =
         0.02573    0.00431   -0.00008   -0.00411
C17   1    0.336845    0.743555   -0.011662    11.00000    0.03236    0.01254 =
         0.03050   -0.00643   -0.00527   -0.00281
AFIX  43
H17A  2    0.323490    0.670921   -0.087806    11.00000   -1.20000
AFIX   0
C18   1    0.295996    0.676452    0.166498    11.00000    0.03142    0.01236 =
         0.02278   -0.00504   -0.00118   -0.00348
C19   1    0.313881    0.788340    0.279503    11.00000    0.01496    0.02882 =
         0.01270   -0.01157   -0.00310    0.00413
C20   1    0.365543    0.960161    0.212763    11.00000    0.02043    0.03097 =
         0.01102   -0.00620   -0.00038    0.00051
AFIX  43
H20A  2    0.371653    1.034025    0.289041    11.00000   -1.20000
AFIX   0
C21   1    0.440979    0.990865   -0.266580    11.00000    0.03139    0.01764 =
         0.04187   -0.01517   -0.00341   -0.00283
C22   1    0.236099    0.489649    0.239103    11.00000    0.03382    0.02005 =
         0.01697    0.00081    0.00258   -0.00498
C23   1    0.258629    0.711349    0.469519    11.00000    0.02116    0.02842 =
         0.00837    0.00240   -0.00037   -0.00276

HKLF 4




REM  shelxl in P-1
REM wR2 = 0.1045, GooF = S = 1.032, Restrained GooF = 0.981 for all data
REM R1 = 0.0435 for 2439 Fo > 4sig(Fo) and 0.0671 for all 3585 data
REM 313 parameters refined using 633 restraints

END

WGHT      0.0582      0.0000

REM No hydrogen bonds found for HTAB generation

REM Highest difference peak  0.170,  deepest hole -0.176,  1-sigma level  0.039
Q1    1   0.6069  0.3394  0.6099  11.00000  0.05    0.17
Q2    1   1.1031  1.3927 -0.4139  11.00000  0.05    0.15
Q3    1   0.4520  0.9726 -0.0219  11.00000  0.05    0.15
Q4    1   1.1125  1.4667 -0.5242  11.00000  0.05    0.15
Q5    1   1.0593  1.3578 -0.5210  11.00000  0.05    0.14
Q6    1   0.6012  0.2331  0.7085  11.00000  0.05    0.14
Q7    1   0.6484  0.5513  0.7705  11.00000  0.05    0.14
Q8    1   0.6606  0.3445  0.7156  11.00000  0.05    0.13
Q9    1   0.4807  1.0899  0.0081  11.00000  0.05    0.13
Q10   1   1.0958  1.5428 -0.1872  11.00000  0.05    0.13
Q11   1   1.0641  1.1535 -0.5753  11.00000  0.05    0.13
Q12   1   0.6438  0.7556  0.3424  11.00000  0.05    0.13
Q13   1   0.2450  0.7389  0.2166  11.00000  0.05    0.13
Q14   1   0.5985  0.9860  0.0655  11.00000  0.05    0.12
Q15   1   0.6287  0.1618  0.3808  11.00000  0.05    0.12
Q16   1   0.5427  1.0082 -0.3012  11.00000  0.05    0.12
Q17   1   0.5454  1.1812 -0.3229  11.00000  0.05    0.12
Q18   1   0.0536  0.6702  0.5891  11.00000  0.05    0.12
Q19   1   0.7250  0.5048  0.6752  11.00000  0.05    0.12
Q20   1   0.2187  0.6223  0.1987  11.00000  0.05    0.12
;
_shelx_res_checksum              66858
_shelx_hkl_file
;
   0   0   1 2766.18   14.00
   0   0   2   54.71    6.21
   0   0  -2   51.48    4.63
   0   0  -2   56.14    2.27
   0   0   2   52.40    2.25
   0   0  -2   54.99    3.67
   0   0   2   59.01    2.92
   0   0   3 1429.05   17.96
   0   0  -3 1439.54   16.34
   0   0  -3 1385.10    8.85
   0   0   3 1357.77    9.89
   0   0   4  745.79   23.35
   0   0  -4  801.59   19.23
   0   0   4  738.53   18.44
   0   0  -4  781.43   20.95
   0   0   5   33.80    9.40
   0   0  -5   27.61    3.84
   0   0   5   24.85    2.20
   0   0  -5   20.14    4.17
   0   0   6  360.15   18.54
   0   0  -6  365.64   13.85
   0   0   7  212.87   16.35
   0   0  -7  193.77   10.37
   0   0   8    4.88    5.35
   0   0  -8    0.34    2.87
   0   0  -9   53.00    6.25
   0   1  -9   45.43    8.13
   0  -1   8   26.37    7.71
   0   1  -8   27.26    5.07
   0  -1   7   33.60    7.87
   0   1  -7   39.59    5.69
   0  -1   6  527.10   17.75
   0   1  -6  520.37    6.96
   0   1  -6  534.84   15.37
   0  -1   5    5.41    8.78
   0   1  -5    0.78    1.35
   0  -1   5    1.89    1.59
   0   1  -5    4.13    4.25
   0  -1   4  503.52   17.73
   0   1  -4  498.43   13.00
   0  -1   4  506.74   12.68
   0   1  -4  558.27   16.51
   0  -1   3  435.27   15.38
   0   1  -3  427.33   13.76
   0   1  -3  432.78   11.55
   0  -1   3  434.39   11.07
   0   1  -3  482.15   13.93
   0   1  -2  549.48   10.37
   0  -1   1 2422.50   16.86
   0   1  -1 2324.15   15.77
   0   1   0 2315.17   11.71
   0  -1  -2  346.02    6.97
   0   1   2  345.65    6.01
   0   1   2  385.04    5.84
   0  -1  -2  353.88    5.41
   0   1   2  367.12    4.67
   0   1   3 1478.24   13.35
   0   1   3 1494.52   18.33
   0  -1  -3 1413.99   12.52
   0   1   3 1417.17   10.40
   0   1   4  387.96   14.26
   0   1   4  373.93   10.68
   0  -1  -4  365.41   11.34
   0   1   5  355.14   15.99
   0   1   5  332.62    8.93
   0   1   5  357.78    8.61
   0  -1  -5  361.01   11.89
   0   1   6  308.00   16.43
   0   1   6  293.47    9.61
   0   1   6  305.34    9.12
   0  -1  -6  276.96   11.99
   0   1   7    8.05    6.02
   0   1   7    6.65    2.20
   0  -1  -7    5.41    6.27
   0   1   8   82.24   10.78
   0  -1  -8   75.44    7.08
   0   1   9    3.78    5.74
   0  -1  -9    3.84    3.21
   0  -1 -10    5.11    4.75
   0   2  -9  110.76    9.82
   0   2  -8  108.98    9.55
   0  -2   7    3.68    5.12
   0   2  -7    1.87    3.83
   0  -2   6  403.32   18.29
   0   2  -6  454.05   19.19
   0  -2   5   16.47    6.97
   0   2  -5   17.06    2.61
   0  -2   5   16.67    1.69
   0   2  -5   17.47    4.40
   0  -2   4  138.70    8.98
   0   2  -4  137.73    5.54
   0  -2   4  141.27    4.15
   0   2  -4  151.21    7.91
   0  -2   3  551.56   17.95
   0   2  -3  580.30   15.76
   0  -2   3  561.73   14.37
   0   2  -3  514.11   16.08
   0  -2   2  732.72   12.82
   0   2  -2  750.30   13.47
   0   2  -2  751.16    9.67
   0  -2   2  802.43    8.06
   0  -2   1  890.65   13.30
   0   2  -1  852.05   13.20
   0   2  -1  899.33   10.52
   0  -2   1  856.39    8.43
   0   2  -1  908.14    9.79
   0  -2   0   47.05    4.74
   0   2   0   44.54    3.38
   0   2   0   52.04    6.43
   0  -2   0   49.32    4.54
   0   2   0   49.07    3.25
   0  -2   0   46.93    3.06
   0  -2  -1  254.99    5.55
   0   2   1  265.58    5.76
   0   2   1  277.45    7.21
   0  -2  -1  258.77    5.87
   0   2   1  278.84    4.57
   0  -2  -1  254.59    5.72
   0  -2  -3  827.39   12.51
   0   2   3  803.50    9.45
   0   2   3  774.03    7.25
   0  -2  -4  230.23    9.37
   0   2   4  222.15    7.72
   0  -2  -4  224.44    8.03
   0   2   4  238.14    7.24
   0   2   5  939.13   25.44
   0   2   5  881.90   18.52
   0  -2  -5  927.20   21.11
   0   2   6  875.14   29.91
   0   2   6  833.42   21.88
   0  -2  -6  828.19   23.92
   0   2   7   65.77   10.19
   0   2   7   68.94    5.42
   0  -2  -7   56.21    5.85
   0   2   8   57.30    9.39
   0  -2  -8   56.91    6.13
   0   2   9    8.49    6.24
   0  -2  -9    2.68    3.12
   0  -2 -10    2.60    3.09
   0   3  -8    7.29    7.74
   0  -3   7   38.75    8.17
   0   3  -7   26.00    6.95
   0  -3   6    0.92    5.22
   0   3  -6    2.45    4.83
   0  -3   5    5.54    5.23
   0   3  -5    0.40    2.00
   0   3  -5    3.52    4.39
   0  -3   4    0.74    6.57
   0   3  -4    1.93    2.56
   0   3  -4    0.64    3.99
   0  -3   3  136.54    8.23
   0   3  -3  131.07    7.19
   0   3  -3  139.39    7.05
   0  -3   2  484.75   16.31
   0   3  -2  466.06   14.22
   0   3  -2  515.13   15.36
   0  -3   1  474.68   15.17
   0   3  -1  456.36   14.09
   0   3  -1  466.67   13.24
   0  -3   0 1995.65   18.17
   0  -3  -1 1711.54   16.28
   0   3   1 1628.57   15.87
   0   3   1 1706.98   11.21
   0  -3  -1 1661.96   13.59
   0  -3  -2  427.93    8.75
   0   3   2  421.72    8.57
   0   3   2  420.26    6.30
   0  -3  -2  388.32    6.49
   0  -3  -3  140.80    6.91
   0   3   3  134.32    6.46
   0   3   3  128.80    4.57
   0   3   3  138.14    5.61
   0  -3  -4  569.02   17.42
   0   3   4  627.98   17.61
   0   3   4  598.73   15.01
   0   3   4  592.86   16.58
   0  -3  -5  137.00    7.44
   0   3   5  150.91    7.06
   0   3   6   -2.01    6.28
   0   3   6   -0.24    2.55
   0  -3  -6    1.56    2.14
   0   3   7  920.84   33.70
   0   3   7  939.71   28.76
   0  -3  -7  874.40   27.93
   0   3   8    2.90    6.33
   0  -3  -8    1.92    2.63
   0   3   9   25.67   10.29
   0  -3  -9   28.28    5.23
   0   4  -8   42.18    7.53
   0   4  -7  114.33    9.91
   0  -4   6    4.57    5.87
   0   4  -6    3.26    5.33
   0  -4   5  118.20    9.40
   0   4  -5  113.91    8.75
   0  -4   4 1052.09   29.40
   0   4  -4 1119.41   22.01
   0   4  -4 1180.94   24.39
   0  -4   3   87.96    8.35
   0   4  -3   89.03    6.18
   0   4  -3   87.84    6.03
   0  -4   2   49.35    7.03
   0   4  -2   54.49    8.77
   0   4  -2   46.17    5.15
   0  -4   1  607.10   17.05
   0   4  -1  651.08   17.33
   0   4  -1  658.10   16.07
   0  -4   0 1125.02   29.84
   0   4   0 1186.91   31.12
   0   4   0 1179.70   29.10
   0  -4  -1   40.41    4.72
   0   4   1   39.46    6.11
   0   4   1   36.52    3.48
   0  -4  -2  385.12   13.14
   0   4   2  396.84   13.74
   0   4   2  409.58   11.13
   0  -4  -2  353.86   11.00
   0  -4  -3  357.68   12.72
   0   4   3  384.58   13.90
   0   4   3  350.22    9.92
   0  -4  -3  340.55   10.26
   0  -4  -4    7.59    3.54
   0   4   4    8.54    7.04
   0   4   4    6.40    1.31
   0   4   4    6.27    2.50
   0  -4  -5   70.42   16.53
   0   4   5   66.62    6.50
   0   4   5   67.82    2.88
   0   4   5   65.27    5.90
   0  -4  -6  173.46   16.48
   0   4   6  187.85   10.06
   0   4   6  155.90    7.81
   0   4   7   39.45   10.67
   0   4   7   30.52    4.53
   0   4   7   35.93    6.47
   0   4   8   51.83    8.99
   0   4   8   56.16    6.23
   0   4   9    4.98    6.36
   0   4  10   11.60    6.41
   0   5  -7   17.54    7.06
   0  -5   6    7.08    5.33
   0   5  -6   12.34    7.58
   0  -5   5  173.70   10.23
   0   5  -5  186.63   10.32
   0  -5   4  136.50    9.53
   0   5  -4  151.66    9.61
   0   5  -4  134.50    9.06
   0  -5   3  159.91    9.63
   0   5  -3  160.88    9.11
   0   5  -3  159.43    9.87
   0  -5   2   27.15    5.95
   0   5  -2   27.92    5.12
   0   5  -2   24.70    3.95
   0  -5   1  120.47    8.68
   0   5  -1  130.04    9.63
   0   5  -1  126.33    7.50
   0  -5   0    7.27    5.35
   0   5   0    5.04    4.54
   0   5   0    9.97    4.20
   0  -5  -1  444.76   14.12
   0   5   1  470.33   16.28
   0   5   1  468.25   11.99
   0  -5  -2  714.94   19.09
   0   5   2  733.73   21.37
   0   5   2  758.83   16.03
   0  -5  -3   30.49    5.85
   0   5   3   31.45    6.65
   0   5   3   33.47    2.53
   0  -5  -3   26.88    3.58
   0  -5  -4   27.38    4.43
   0   5   4   27.20    5.87
   0   5   4   20.42    5.66
   0   5   4   26.10    2.87
   0  -5  -5    3.55    3.96
   0   5   5    3.98    5.16
   0   5   5    6.14    2.63
   0  -5  -6   17.31   13.20
   0   5   6    7.80    4.87
   0   5   6   14.41    3.70
   0  -5  -7    1.62    3.80
   0   5   7    2.74    3.77
   0   5   8    8.89    7.41
   0   5   8   15.19    5.00
   0   5   9  168.32   15.87
   0   5  10   30.07    9.61
   0   6  -6   29.25    6.53
   0  -6   5   55.27    7.86
   0   6  -5   53.74    7.71
   0  -6   4   -0.10    4.10
   0   6  -4    2.82    5.55
   0   6  -4    0.47    4.52
   0  -6   3    0.53    4.83
   0   6  -3    4.75    7.00
   0   6  -3   -4.10    3.68
   0  -6   2  161.64   10.88
   0   6  -2  157.79   12.64
   0   6  -2  162.16   18.29
   0  -6   1  537.52   16.37
   0   6  -1  514.35   17.18
   0   6  -1  554.67   14.73
   0  -6   0   95.03    8.08
   0   6   0   96.79   11.25
   0   6   0   99.33    6.96
   0  -6  -1  418.53   16.40
   0   6   1  427.80   18.43
   0   6   1  429.59   14.63
   0  -6  -2  914.33   27.87
   0   6   2  950.44   20.92
   0   6   2  935.81   14.08
   0  -6  -3    2.78    3.72
   0   6   3    6.10    6.21
   0   6   3    5.17    1.81
   0  -6  -4   60.08    6.85
   0   6   4   61.64    8.58
   0   6   4   63.00    3.35
   0  -6  -5  201.93   11.80
   0   6   5  204.60   13.90
   0  -6  -6    8.14    6.91
   0   6   6    7.98    6.74
   0  -6  -7   82.63    9.32
   0   6   7   77.50    7.51
   0  -6  -8   19.28    6.31
   0   6   8    7.33    4.19
   0   6   9   82.67   15.90
   0   6   9   68.57    8.94
   0   7  -5    2.96    5.57
   0  -7   4   33.31    6.63
   0   7  -4   26.45    7.69
   0   7  -4   34.56    7.33
   0  -7   3   20.00    4.95
   0   7  -3   21.85    6.23
   0   7  -3   22.24    5.35
   0  -7   2    3.39    4.16
   0   7  -2    0.94    5.58
   0   7  -2    0.32    3.41
   0  -7   1   14.61    3.89
   0   7  -1   16.90    5.41
   0   7  -1   15.46    4.94
   0  -7   0  377.63   14.10
   0   7   0  378.69   16.29
   0   7   0  377.17   11.75
   0  -7  -1    8.32    4.08
   0   7   1    7.79    6.44
   0   7   1    9.49    3.16
   0  -7  -2  388.59   17.69
   0   7   2  401.25   19.04
   0   7   2  408.85   14.79
   0  -7  -3  827.21   29.69
   0   7   3  810.24   29.57
   0   7   3  785.51   23.55
   0  -7  -4   82.07    8.20
   0   7   4   76.95   10.97
   0  -7  -5    0.81    3.81
   0   7   5    3.91    5.50
   0  -7  -6  116.73    9.27
   0   7   6  129.32   10.42
   0  -7  -7   81.41   18.18
   0   7   7   82.80    8.37
   0  -7  -8    3.14    4.49
   0   7   8    6.03    4.62
   0  -7  -9    8.95    4.85
   0   7   9   13.59    5.26
   0  -8   3    0.74    3.64
   0   8  -3    4.62    5.30
   0   8  -3    1.77    4.07
   0  -8   2   45.77    6.89
   0   8  -2   49.98    9.56
   0   8  -2   55.18    7.77
   0  -8   1    5.82    4.32
   0   8  -1    3.62    5.56
   0   8  -1    6.10    3.57
   0  -8   0    8.50    4.53
   0   8   0    4.72    7.19
   0   8   0    2.01    2.70
   0  -8  -1    4.91    4.03
   0   8   1   11.16    8.64
   0   8   1    8.11    2.48
   0  -8  -2   29.12    5.58
   0   8   2   34.18   10.45
   0   8   2   38.74    5.05
   0  -8  -3   13.68    5.72
   0   8   3   19.19   11.07
   0  -8  -4   89.12    9.40
   0   8   4   83.41   10.59
   0  -8  -5   44.68    8.63
   0   8   5   43.20    9.69
   0  -8  -6   30.30    7.34
   0   8   6   28.35    8.73
   0  -8  -7    7.81   13.43
   0   8   7    5.54    5.00
   0  -8  -8    2.21    2.85
   0   8   8    1.37    4.71
   0  -9   2   88.34    7.48
   0   9  -2   97.17   12.68
   0   9  -2   90.78    7.75
   0  -9   1    7.70    5.62
   0   9  -1    8.02    6.15
   0   9  -1   10.28    4.92
   0  -9   0   75.01    8.47
   0   9   0  106.24   11.52
   0   9   0   76.70    6.99
   0  -9  -1    9.27    4.27
   0   9   1   20.59    9.04
   0   9   1    9.98    3.61
   0  -9  -2    5.62    4.53
   0   9   2    0.50    6.63
   0  -9  -3   64.72    7.37
   0   9   3   67.48   12.20
   0  -9  -4    6.02    4.07
   0   9   4   13.38    9.98
   0  -9  -5  155.54   12.93
   0   9   5  165.01   14.80
   0  -9  -6  105.65   10.34
   0   9   6  112.98   11.91
   0  -9  -7   -0.40    4.32
   0   9   7    5.02    6.01
   0 -10  -1   21.79    5.08
   0  10   1   31.33    9.77
   0 -10  -2   24.35    6.17
   0  10   2   11.80    8.12
   0 -10  -3   15.50    6.29
   0  10   3   17.07    6.81
   0 -10  -4   23.92    7.19
   0  10   4   27.63   12.08
   1 -10  -4    4.00    3.99
   1 -10  -3   19.30    6.19
  -1  10   3   32.48   13.80
   1 -10  -2   90.32   10.44
  -1  10   2  103.65   13.21
   1  -9  -6    3.55    5.25
  -1   9   6    4.69    6.30
   1  -9  -5   55.10    8.99
  -1   9   5   65.67   12.06
   1  -9  -4   54.03    7.96
  -1   9   4   54.05   10.62
   1  -9  -3   42.22    8.04
  -1   9   3   28.32    8.03
   1  -9  -2   -0.75    3.24
  -1   9   2    4.94    6.70
   1  -9  -1   27.42    6.33
  -1   9   1   28.80   10.73
   1  -9   0    3.00    3.81
  -1   9   0    8.76    6.22
  -1   9   0    3.40    3.85
   1  -9   1    6.15    3.48
  -1   9  -1    3.97    6.61
  -1   9  -1    3.47    3.00
   1  -9   2    1.06    3.05
  -1   9  -2    1.72    6.02
  -1   9  -2    2.40    4.51
   1  -8  -8   52.58    7.82
  -1   8   8   49.37    7.73
   1  -8  -7    5.16    4.41
  -1   8   7    5.71    5.91
   1  -8  -6    2.26    3.72
  -1   8   6    6.42   10.42
   1  -8  -5    9.96    4.77
  -1   8   5    9.46    7.31
   1  -8  -4    1.37    3.62
  -1   8   4    0.73    6.98
   1  -8  -3  124.91   10.26
  -1   8   3  124.09   12.13
   1  -8  -2   34.29    5.96
  -1   8   2   34.28   11.72
   1  -8  -1    4.38    4.58
  -1   8   1   -0.02    6.19
  -1   8   1   -0.99    2.24
   1  -8   0    0.71    3.54
  -1   8   0   10.57    7.61
  -1   8   0    6.13    4.40
   1  -8   1    4.15    4.99
  -1   8  -1    3.43    5.89
  -1   8  -1    2.00    3.12
   1  -8   2    2.29    3.36
  -1   8  -2    3.70    5.42
  -1   8  -2    3.24    3.98
   1  -8   3    1.40    2.47
  -1   8  -3    6.89    9.17
  -1   8  -3    1.11    3.27
  -1   7   9   28.56   11.92
   1  -7  -8   47.56    7.98
  -1   7   8   47.26    8.03
   1  -7  -7   24.22   20.78
  -1   7   7   34.63    9.52
   1  -7  -6   24.75   18.15
  -1   7   6   35.78    8.14
   1  -7  -5    2.30    4.55
  -1   7   5    4.61    6.07
   1  -7  -4    5.88    5.68
  -1   7   4   10.88    7.36
   1  -7  -3  298.00   13.39
  -1   7   3  310.76   15.06
   1  -7  -2  417.99   17.98
  -1   7   2  449.03   22.03
  -1   7   2  427.74   14.62
   1  -7  -1   40.70    6.53
  -1   7   1   32.86    8.67
  -1   7   1   38.19    4.12
   1  -7   0    2.57    4.00
  -1   7   0    5.40    6.09
  -1   7   0    5.93    3.48
   1  -7   1  112.39    8.41
  -1   7  -1  107.78   12.01
  -1   7  -1  111.61    8.52
   1  -7   2  130.48    8.09
  -1   7  -2  129.03   11.98
  -1   7  -2  133.03    8.69
   1  -7   3   83.35    7.27
  -1   7  -3  104.81   10.50
  -1   7  -3  102.04    9.01
   1  -7   4    6.58    3.20
  -1   7  -4    7.32    5.48
  -1   7  -4    2.65    4.71
  -1   7  -5   52.81    7.42
  -1   6   9   31.91   10.02
  -1   6   8    6.35   12.05
  -1   6   8    5.04    4.00
   1  -6  -7   17.16    5.23
  -1   6   7   23.98    5.55
   1  -6  -6   77.39    7.73
  -1   6   6   83.13    9.50
   1  -6  -5    0.54    2.92
  -1   6   5    1.90    6.13
   1  -6  -4  246.72   11.92
  -1   6   4  246.90   11.94
   1  -6  -3   36.22    6.38
  -1   6   3   26.90    6.38
  -1   6   3   31.16    2.04
   1  -6  -3   29.90    3.23
   1  -6  -2  348.01   14.11
  -1   6   2  371.48   16.49
  -1   6   2  348.64   10.57
   1  -6  -1   60.22    5.59
  -1   6   1   65.13    8.24
  -1   6   1   57.98    3.72
   1  -6   0  116.18    8.06
  -1   6   0  123.22   12.53
  -1   6   0  122.14    7.62
   1  -6   1  203.51    8.53
  -1   6  -1  193.05   10.35
  -1   6  -1  206.14    8.75
   1  -6   2   -0.08    3.63
  -1   6  -2    4.10    5.52
  -1   6  -2    3.49    5.63
   1  -6   3   91.56    6.86
  -1   6  -3   87.42    9.59
  -1   6  -3   91.28    8.12
   1  -6   4   34.57    4.79
  -1   6  -4   38.17    6.63
  -1   6  -4   34.72    6.83
  -1   6  -5   12.16    7.32
  -1   6  -6    9.41    7.36
  -1   5   9   42.29   12.19
  -1   5   8  121.64   15.39
  -1   5   8  122.82    8.33
  -1   5   7  115.71   12.61
  -1   5   7  106.60    8.19
   1  -5  -6    2.68    5.87
  -1   5   6    4.05    5.97
   1  -5  -5  131.15   13.43
  -1   5   5  143.84   10.41
   1  -5  -4   -1.92    3.16
  -1   5   4   -1.27    5.99
   1  -5  -3   71.91    7.32
  -1   5   3   73.92    7.67
  -1   5   3   72.08    1.95
   1  -5  -3   72.45    2.96
   1  -5  -2   22.54    4.79
  -1   5   2   19.37    8.02
  -1   5   2   15.15    4.92
   1  -5  -2   16.26    3.64
   1  -5  -1    0.54    3.31
  -1   5   1    5.22    6.84
  -1   5   1    0.21    1.04
   1  -5   0  141.93    7.40
  -1   5   0  156.21    9.85
  -1   5   0  155.49    6.02
   1  -5   1   16.58    4.41
  -1   5  -1   20.94    7.55
  -1   5  -1   22.70    4.34
   1  -5   2  203.69    9.75
  -1   5  -2  220.85   12.88
  -1   5  -2  212.21   10.54
   1  -5   3  212.07    8.90
  -1   5  -3  185.65   10.86
  -1   5  -3  193.31    9.54
   1  -5   4  447.92   12.67
  -1   5  -4  468.76   15.41
  -1   5  -4  421.51   14.41
   1  -5   5   11.24    4.51
  -1   5  -5   11.14    5.07
  -1   5  -5   10.98    4.59
  -1   5  -6    1.49    5.05
  -1   5  -7   84.32    9.77
  -1   4  10    8.10    7.86
  -1   4   9   74.13   14.02
  -1   4   8   51.80   12.15
  -1   4   7   64.71   10.56
  -1   4   7   65.22    6.01
   1  -4  -6   23.54    5.11
  -1   4   6   49.05    5.92
  -1   4   6   39.01    3.15
   1  -4  -5   98.95    9.29
  -1   4   5  107.40    8.43
  -1   4   5   97.97    2.07
   1  -4  -4   19.77   12.64
  -1   4   4   19.66    5.87
   1  -4  -3    1.61    3.23
  -1   4   3    1.90    4.87
   1  -4  -2 1259.98   32.82
  -1   4   2 1275.60   33.78
  -1   4   2 1241.33   28.58
   1  -4  -2 1205.25   28.44
   1  -4  -1   73.86    5.52
  -1   4   1   76.82    7.98
  -1   4   1   78.37    3.66
   1  -4  -1   81.08    3.66
   1  -4   0  263.92    9.76
  -1   4   0  237.74   10.06
  -1   4   0  264.03    8.54
   1  -4   1  155.24    6.64
  -1   4  -1  144.84    7.97
  -1   4  -1  156.89    6.98
   1  -4   2   62.49    6.36
  -1   4  -2   56.79    7.66
  -1   4  -2   51.52    5.07
   1  -4   3   17.14    3.90
  -1   4  -3   16.80    6.00
  -1   4  -3   18.03    4.66
   1  -4   4  529.06   13.92
  -1   4  -4  526.42   16.81
  -1   4  -4  507.92   16.96
   1  -4   5  288.45    9.32
  -1   4  -5  273.41   12.34
  -1   4  -5  279.41   12.60
  -1   4  -6   31.13    6.10
  -1   4  -7    2.02    4.67
  -1   4  -8  215.90   14.27
  -1   3  10  202.53   20.37
  -1   3   9    8.39    7.07
  -1   3   8   60.13    9.91
   1  -3  -8   59.69    5.57
  -1   3   7  706.31   30.85
  -1   3   7  685.00   21.37
   1  -3  -7  649.99   21.50
  -1   3   6  604.41   25.73
  -1   3   6  600.88   17.65
   1  -3  -6  617.06   18.30
  -1   3   5   10.18    7.09
  -1   3   5    5.32    4.35
   1  -3  -5    4.52    2.66
  -1   3   5    3.17    1.04
   1  -3  -4  508.75   15.33
  -1   3   4  537.02   13.84
  -1   3   4  574.63   10.79
  -1   3   4  530.39   11.27
   1  -3  -3    6.05    4.62
  -1   3   3    3.32    3.56
   1  -3  -2  166.74    6.46
  -1   3   2  150.12    6.23
   1  -3  -1  459.83    9.24
  -1   3   1  454.37    9.82
  -1   3   1  430.67    5.13
   1  -3  -1  415.97    4.69
  -1   3   0 1571.06   17.94
  -1   3   0 1634.66   14.22
   1  -3   0 1572.24   11.08
   1  -3   1   46.41    3.12
  -1   3  -1   37.36    4.84
  -1   3  -1   35.21    3.37
   1  -3   2  102.70    5.40
  -1   3  -2  109.11    7.16
  -1   3  -2  107.02    5.95
   1  -3   3  135.22    5.84
  -1   3  -3  117.73    6.88
  -1   3  -3  108.15    6.62
   1  -3   4   25.11    4.92
  -1   3  -4   29.65    5.78
  -1   3  -4   16.70    3.89
   1  -3   5  443.56   12.20
  -1   3  -5  433.00   13.63
  -1   3  -5  401.88   13.60
   1  -3   6  177.92    8.82
  -1   3  -6  153.84    8.25
  -1   3  -6  152.44   10.14
  -1   3  -7   46.08    7.36
  -1   3  -8    6.74    5.21
  -1   2  10   56.79   11.86
  -1   2   9   72.66   12.48
   1  -2  -9   77.56    6.79
  -1   2   8   -3.84    7.96
   1  -2  -8    1.16    2.20
  -1   2   7   48.73   11.55
  -1   2   7   42.62    3.44
   1  -2  -7   42.75    4.75
  -1   2   6  433.07   19.80
  -1   2   6  442.52   12.64
   1  -2  -6  421.42   13.90
  -1   2   5  125.50   13.21
  -1   2   5  123.81    5.51
   1  -2  -5  109.85    4.84
  -1   2   4   -2.86    6.77
  -1   2   4    1.22    1.41
  -1   2   4    3.35    3.72
   1  -2  -4    0.38    1.29
  -1   2   4    2.23    1.45
   1  -2  -3   24.37    2.28
   1  -2  -3   24.44    1.60
   1  -2  -2  572.08   10.13
  -1   2   2  501.38    9.06
   1  -2  -2  546.41    7.67
   1  -2  -1  187.02    5.01
  -1   2   1  184.42    4.62
  -1   2   1  193.94    7.32
   1  -2  -1  193.09    5.16
  -1   2   1  177.33    2.72
   1  -2  -1  178.20    2.31
   1  -2   0 1200.71   10.83
  -1   2   0 1205.44   10.80
  -1   2   0 1198.12   14.25
   1  -2   0 1249.40   12.31
  -1   2   0 1208.78    9.67
   1  -2   0 1200.74    8.39
   1  -2   1    2.91    1.78
  -1   2  -1    0.73    2.43
  -1   2  -1    3.74    4.13
   1  -2   1    1.06    2.33
  -1   2  -1    4.25    3.15
   1  -2   1    0.94    1.34
   1  -2   2   27.71    2.40
  -1   2  -2   23.48    3.03
  -1   2  -2   23.32    3.62
  -1   2  -2   24.00    2.67
   1  -2   3   92.25    5.39
  -1   2  -3  108.50    6.97
  -1   2  -3  102.55    7.94
  -1   2  -3   99.42    6.41
   1  -2   4   83.69    5.40
  -1   2  -4   73.79    5.43
  -1   2  -4   85.29    6.85
   1  -2   5  412.90   14.94
  -1   2  -5  389.18   13.40
  -1   2  -5  394.13   14.97
   1  -2   6    2.94    4.93
  -1   2  -6    2.25    2.14
  -1   2  -6    3.64    4.55
  -1   2  -7   49.03    7.05
  -1   2  -8   13.46    6.67
  -1   2  -9   26.90    5.74
   1  -1 -10   18.08    4.41
  -1   1   9   64.77   11.85
   1  -1  -9   54.62    6.73
  -1   1   8   71.13   11.08
   1  -1  -8   56.70    5.83
  -1   1   7   39.04   10.93
   1  -1  -7   38.77    4.99
  -1   1   6   14.07   10.82
  -1   1   6    2.08    0.91
  -1   1   6    2.71    1.17
   1  -1  -6    2.55    2.93
  -1   1   5  384.22   17.61
  -1   1   5  340.34    8.00
  -1   1   5  348.76    7.93
   1  -1  -5  336.19    9.89
  -1   1   4  611.44   21.89
  -1   1   4  601.87   15.56
  -1   1   4  595.12   14.83
   1  -1  -4  601.51   15.95
  -1   1   3 1263.96   20.17
  -1   1   3 1201.17    9.11
   1  -1  -3 1235.29    9.90
  -1   1   3 1248.69    9.53
  -1   1   2 2730.65   21.16
  -1   1   1  599.08    7.59
  -1   1   1  580.25    7.45
   1  -1  -1  560.69    6.65
   1  -1   0   13.77    1.46
  -1   1   0   14.78    1.51
  -1   1   0   14.16    3.41
   1  -1   0   13.48    1.89
  -1   1   0   13.76    1.52
   1  -1   0   14.07    1.52
   1  -1   1  163.82    2.62
  -1   1  -1  157.02    3.48
  -1   1  -1  146.74    6.74
   1  -1   1  161.37    5.67
  -1   1  -1  147.30    4.83
   1  -1   1  146.09    4.00
   1  -1   2   11.93    1.71
  -1   1  -2   12.01    2.31
  -1   1  -2   13.25    4.50
   1  -1   2   11.77    2.02
  -1   1  -2   13.75    3.02
   1  -1   3  115.53    5.85
  -1   1  -3  109.65    4.93
  -1   1  -3  110.70    5.58
   1  -1   3  118.95    5.47
  -1   1  -3  110.60    5.54
   1  -1   4   51.55    4.21
  -1   1  -4   51.86    3.92
  -1   1  -4   54.90    4.34
   1  -1   4   54.58    3.66
  -1   1  -4   55.34    4.58
   1  -1   5   77.45    7.80
  -1   1  -5   75.36    5.01
  -1   1  -5   69.11    6.61
   1  -1   6   11.81    7.53
  -1   1  -6    4.76    3.24
  -1   1  -6    3.93    4.27
   1  -1   7   28.54    7.36
  -1   1  -7   26.57    6.93
  -1   1  -8    4.77    5.09
  -1   1  -9    8.19    4.48
  -1   0   9    9.05    6.88
   1   0  -9    6.42    3.85
  -1   0   8   -0.84    8.18
   1   0  -8    2.85    3.42
  -1   0   7   13.41   10.49
   1   0  -7    5.04    3.74
  -1   0   6   18.70   12.46
   1   0  -6    6.45    4.53
  -1   0   5    1.70    9.18
   1   0  -5    4.27    3.37
  -1   0   4    1.56    7.68
   1   0  -4    4.87    2.01
  -1   0   3 1125.99   21.07
   1   0  -3 1089.15   11.51
  -1   0   2  553.87   13.53
   1   0  -2  527.57   10.38
   1   0  -2  526.99    3.03
   1   0  -2  549.62    7.61
  -1   0   2  567.85    7.27
  -1   0   1   20.22    6.33
   1   0  -1   20.61    3.83
  -1   0   1   19.58    2.09
   1   0  -1   20.13    1.58
   1   0  -1   23.66    2.52
  -1   0   1   23.69    2.59
  -1   0   0   67.77    7.32
   1   0   0   55.69    4.79
  -1   0   0   65.38    5.06
   1   0   0   50.31    3.12
  -1   0   0   43.16    2.86
   1   0   0   54.01    4.81
   1   0   1   97.12    2.30
  -1   0  -1   97.49    4.40
   1   0   1   98.27    3.93
  -1   0  -1  101.57    4.47
   1   0   1  102.09    3.26
   1   0   2 1184.42    5.47
   1   0   2 1162.38    7.65
  -1   0  -2 1153.39   12.71
   1   0   2 1171.89   13.21
  -1   0  -2 1225.11   13.53
   1   0   2 1221.57   11.75
   1   0   3 2760.66   13.51
   1   0   3 2689.84   17.21
  -1   0  -3 2715.39   22.35
   1   0   4  628.35   16.75
   1   0   4  682.78   19.98
  -1   0  -4  653.53   17.91
   1   0   4  653.04   18.36
  -1   0  -4  628.15   18.41
   1   0   5  188.67    9.87
  -1   0  -5  195.95    7.63
  -1   0  -5  177.72    8.74
   1   0   6   21.41    6.51
  -1   0  -6   23.41    3.13
  -1   0  -6   24.68   14.35
   1   0   7   61.49    8.82
  -1   0  -7   65.36    4.26
  -1   0  -7   60.01    7.02
  -1   0  -8   23.04    5.09
  -1   0  -9   39.04    7.17
  -1   0 -10   -1.16    4.49
   1   1  -9   41.31    6.78
  -1  -1   8   12.03    9.30
   1   1  -8    5.10    3.53
  -1  -1   7    2.74    7.32
   1   1  -7    0.49    3.60
  -1  -1   6   22.54    8.83
   1   1  -6    9.12    3.96
  -1  -1   5  201.70   13.23
   1   1  -5  233.60   11.39
  -1  -1   4  267.35   14.07
   1   1  -4  291.34    9.91
  -1  -1   3  387.11   16.15
   1   1  -3  364.01   11.37
  -1  -1   2   14.35    5.23
   1   1  -2   14.72    1.34
   1   1  -2   14.46    1.08
   1   1  -2   15.49    3.42
  -1  -1   1   62.34    7.72
   1   1  -1   72.31    7.29
  -1  -1   1   77.24    2.80
   1   1  -1   69.96    2.67
   1   1  -1   72.02    5.18
  -1  -1   1   65.81    4.37
  -1  -1   0  183.72    7.37
   1   1   0  198.88    5.53
  -1  -1   0  172.25    4.20
   1   1   0  173.15    4.13
  -1  -1   0  172.30    5.09
   1   1   0  187.95    6.54
  -1  -1  -1  336.96    5.91
   1   1   1  332.43    6.35
  -1  -1  -1  342.12    6.64
   1   1   1  328.45    5.91
   1   1   1  339.89    7.40
  -1  -1  -1  331.59    7.52
  -1  -1  -2   93.98    2.88
   1   1   2  100.00    3.24
  -1  -1  -2  105.01    6.20
   1   1   2   99.24    4.91
  -1  -1  -2   88.91    5.43
   1   1   2   96.50    4.27
  -1  -1  -3  495.63    7.11
   1   1   3  522.42    6.26
  -1  -1  -3  526.32    9.53
   1   1   3  513.09    9.67
  -1  -1  -3  486.71    9.30
   1   1   4  178.49    5.93
   1   1   4  195.21    9.37
  -1  -1  -4  178.20    7.14
  -1  -1  -4  172.30    7.98
   1   1   5   56.46    6.36
  -1  -1  -5   53.06    3.97
  -1  -1  -5   48.20    4.68
   1   1   6   14.90    6.84
  -1  -1  -6   14.47    3.12
  -1  -1  -6   16.52    5.20
   1   1   7   56.82    7.69
  -1  -1  -7   60.89    4.53
  -1  -1  -7   62.13    7.56
   1   1   8   -1.79    4.83
  -1  -1  -8    1.03    3.56
  -1  -1  -9   12.58    4.68
  -1  -1 -10   50.90    9.35
   1   2  -9   35.86    8.45
  -1  -2   8    9.99    8.35
   1   2  -8    6.19    4.40
  -1  -2   7    5.02    7.08
   1   2  -7    3.08    4.66
  -1  -2   6  327.71   17.86
   1   2  -6  359.70   16.05
  -1  -2   5  491.80   21.39
   1   2  -5  568.48   19.15
  -1  -2   4  115.69   12.51
   1   2  -4  101.83    2.48
   1   2  -4  118.55    6.87
  -1  -2   3   72.35    7.30
   1   2  -3   82.19    3.15
   1   2  -3   85.94    3.75
   1   2  -3   85.36    5.43
  -1  -2   2   18.21    5.45
   1   2  -2   24.53    1.99
   1   2  -2   24.15    2.00
   1   2  -2   26.54    3.97
  -1  -2   1   -1.44    6.17
   1   2  -1    0.29    0.63
   1   2  -1   -0.11    1.80
   1   2  -1    1.07    2.23
   1   2   0  853.26   13.55
   1   2   0  843.94    9.43
   1   2   0  831.53   11.25
   1   2   0  803.01   11.68
  -1  -2   0  800.31   11.23
  -1  -2  -1 2454.43   18.33
   1   2   1 2506.09   19.47
  -1  -2  -2  845.26   10.01
   1   2   2  811.65    9.88
  -1  -2  -2  880.52   16.87
   1   2   2  861.44   13.88
  -1  -2  -2  828.74   12.34
  -1  -2  -3   34.67    2.73
   1   2   3   40.78    2.58
  -1  -2  -3   48.05    4.12
   1   2   3   38.78    3.21
   1   2   3   43.70    5.52
  -1  -2  -4  586.26   17.91
  -1  -2  -4  641.99   18.51
  -1  -2  -4  521.34   15.82
  -1  -2  -5   93.87    5.29
  -1  -2  -5  117.49    6.16
  -1  -2  -5  118.62    7.55
   1   2   6  701.48   24.62
  -1  -2  -6  724.37   20.25
  -1  -2  -6  702.29   22.33
   1   2   7  652.05   20.40
  -1  -2  -7  607.41   16.45
   1   2   8    4.14    7.46
   1   2   8    2.95    2.86
  -1  -2  -8    0.30    2.33
  -1  -2  -9    7.54    8.84
  -1  -2 -10  201.59   13.35
   1   3  -8   91.86   10.06
  -1  -3   7    4.24    8.73
   1   3  -7   13.42    4.85
  -1  -3   6   58.46   10.16
   1   3  -6   50.14    5.54
  -1  -3   5   37.71    9.12
   1   3  -5   33.23    5.14
  -1  -3   4  571.83   25.44
   1   3  -4  519.02   13.35
   1   3  -4  536.23   15.12
   1   3  -4  614.80   19.91
  -1  -3   3   56.29    9.90
   1   3  -3   65.77    3.45
   1   3  -3   65.23    4.13
   1   3  -3   70.25    6.25
  -1  -3   2   18.82    6.16
   1   3  -2   23.00    3.94
   1   3  -2   24.54    3.64
  -1  -3   1  382.06   14.18
   1   3  -1  407.00   12.62
   1   3  -1  420.60   13.05
   1   3   0  888.83   12.16
   1   3   0  867.42   12.01
  -1  -3  -1  688.43   11.99
   1   3   1  669.82   11.21
   1   3   1  658.18   11.98
  -1  -3  -2  706.02   11.29
   1   3   2  722.32   11.37
   1   3   2  704.02   11.61
  -1  -3  -2  680.17   11.63
  -1  -3  -3    7.89    2.77
   1   3   3    4.97    1.48
   1   3   3    5.72    3.40
  -1  -3  -4   31.55    4.67
  -1  -3  -5    0.53    1.51
   1   3   5    0.90    4.92
  -1  -3  -6   18.13    4.38
   1   3   6   18.71    4.78
   1   3   6   26.96    7.89
   1   3   7  413.52   19.82
   1   3   7  378.22   16.24
  -1  -3  -7  345.20   14.38
   1   3   8   31.25    6.99
   1   3   8   24.95    3.45
  -1  -3  -8   22.57    4.75
   1   3   9  129.64   11.51
  -1  -3  -9  110.04    7.62
  -1  -4   7  289.83   16.86
   1   4  -7  304.82   17.96
  -1  -4   6    0.03    7.02
   1   4  -6    1.88    5.04
  -1  -4   5    2.84    6.79
   1   4  -5    9.77    7.10
  -1  -4   4 1245.14   30.97
   1   4  -4 1259.49   20.98
  -1  -4   3  251.29   14.08
   1   4  -3  245.76    9.82
   1   4  -3  260.08   11.95
  -1  -4   2    3.81    7.35
   1   4  -2   12.62    3.08
   1   4  -2   22.85    5.83
  -1  -4   1  181.58   11.05
   1   4  -1  173.13    7.93
   1   4  -1  189.38    9.71
  -1  -4   0    2.52    5.32
   1   4   0    2.39    4.00
   1   4   0    3.51    4.14
  -1  -4  -1   33.05    5.80
   1   4   1   65.25    6.21
   1   4   1   65.36    5.07
  -1  -4  -2    5.35    4.04
   1   4   2    3.10    4.75
   1   4   2    3.69    2.87
  -1  -4  -3  869.01   24.28
   1   4   3  907.42   24.99
   1   4   3  913.23   25.46
  -1  -4  -4   -0.66    2.24
   1   4   4    4.35    4.77
   1   4   4    0.72    4.61
  -1  -4  -5   63.67    4.82
   1   4   5   62.55    6.18
   1   4   5   59.61    6.65
  -1  -4  -6   87.81    8.53
   1   4   6   97.58    6.55
   1   4   6   94.68    8.76
  -1  -4  -7  114.53    7.92
   1   4   7  115.57    7.04
   1   4   7  125.86   10.72
   1   4   8  122.47   11.94
   1   4   8   96.24    6.73
   1   4   8  104.53   10.78
   1   4   9   49.83    7.88
   1   5  -7    4.51    6.81
  -1  -5   6    4.22    5.09
   1   5  -6    2.71    4.62
  -1  -5   5   42.00    8.09
   1   5  -5   53.32    9.07
  -1  -5   4    5.76    6.74
   1   5  -4   10.48    5.65
   1   5  -4   11.57    4.49
  -1  -5   3   11.07    8.80
   1   5  -3    5.53    5.21
   1   5  -3    5.69    5.28
  -1  -5   2  207.56   13.10
   1   5  -2  225.64   12.15
   1   5  -2  228.81   11.41
  -1  -5   1  417.02   14.17
   1   5  -1  447.41   13.48
   1   5  -1  430.91   11.75
  -1  -5   0   33.22    7.23
   1   5   0   29.04    6.56
   1   5   0   33.12    5.99
  -1  -5  -1  566.68   17.54
   1   5   1  557.66   16.52
   1   5   1  582.99   14.90
  -1  -5  -2  395.33   14.34
   1   5   2  377.77   15.31
   1   5   2  367.81   10.98
  -1  -5  -3   43.94    5.58
   1   5   3   38.58    7.39
   1   5   3   40.81    4.46
  -1  -5  -4  314.67   11.05
   1   5   4  308.45   12.00
   1   5   4  330.04   11.68
  -1  -5  -5    5.32    2.98
   1   5   5    7.24    5.01
   1   5   5    5.86    4.64
  -1  -5  -6  109.12    7.64
   1   5   6  108.08    8.34
   1   5   6   97.03    7.64
  -1  -5  -7    2.58    4.16
   1   5   7    7.47    5.52
   1   5   7    3.30    3.88
  -1  -5  -8   17.33    5.64
   1   5   8   13.12    4.58
   1   5   9  113.01   12.84
   1   5   9  123.11    8.71
  -1  -6   6   37.96    8.34
   1   6  -6   35.37    8.82
  -1  -6   5    2.08    4.60
   1   6  -5    3.88    4.93
  -1  -6   4    1.71    5.05
   1   6  -4    3.48    3.28
   1   6  -4    0.78    4.56
  -1  -6   3   95.83   28.35
   1   6  -3   96.46    7.89
   1   6  -3  115.78    9.31
  -1  -6   2  461.86   17.24
   1   6  -2  462.59   15.73
   1   6  -2  490.95   13.94
  -1  -6   1   56.34    8.55
   1   6  -1   54.57    7.46
   1   6  -1   52.40    7.12
  -1  -6   0  126.87   10.15
   1   6   0  149.94   11.18
   1   6   0  141.47    9.55
  -1  -6  -1   -1.97    5.37
   1   6   1    1.30    6.33
   1   6   1    1.70    3.15
  -1  -6  -2  343.35   14.57
   1   6   2  319.63   15.05
   1   6   2  319.70   11.71
  -1  -6  -3  288.73   12.98
   1   6   3  289.93   14.30
   1   6   3  287.37   10.59
  -1  -6  -4    5.01    4.49
   1   6   4    7.31    5.72
   1   6   4    5.51    4.02
  -1  -6  -5   51.30    6.71
   1   6   5   47.97    6.98
   1   6   5   43.31    5.13
  -1  -6  -6    4.03    3.72
   1   6   6    2.90    4.68
   1   6   6    4.74    4.56
  -1  -6  -7   59.57    6.57
   1   6   7   61.41    7.56
  -1  -6  -8   11.68    8.75
   1   6   8   12.77    5.13
  -1  -6  -9   48.47    6.68
   1   6   9   53.82    6.39
  -1  -7   5   14.29    5.67
   1   7  -5    7.26    4.92
  -1  -7   4  341.61   18.03
   1   7  -4  376.70   19.63
  -1  -7   3   14.11    6.31
   1   7  -3   15.63    5.39
   1   7  -3   19.42    6.09
  -1  -7   2   13.46    5.97
   1   7  -2    7.72    5.94
   1   7  -2    0.62    4.02
  -1  -7   1   27.75    6.89
   1   7  -1   27.43    7.93
   1   7  -1   26.35    5.29
  -1  -7   0   33.71    7.03
   1   7   0   28.62    7.51
   1   7   0   41.55    6.89
  -1  -7  -1    8.82    5.82
   1   7   1    8.24    8.09
   1   7   1    9.68    3.90
  -1  -7  -2   82.27    7.94
   1   7   2   79.70   10.78
   1   7   2   80.32    6.80
  -1  -7  -3  821.60   29.28
   1   7   3  790.29   29.24
   1   7   3  773.69   23.82
  -1  -7  -4   46.61    6.11
   1   7   4   45.99    9.70
   1   7   4   46.62    3.86
   1   7   5   18.95    8.30
  -1  -7  -6   48.68    6.28
   1   7   6   62.03    8.34
  -1  -7  -7   40.50    6.65
   1   7   7   50.33    7.57
  -1  -7  -8   15.02   15.20
   1   7   8   17.14    6.38
  -1  -7  -9   33.54    6.49
   1   7   9   47.61    8.41
  -1  -8   3   31.86    7.02
   1   8  -3   26.60    7.39
   1   8  -3   37.90    7.69
  -1  -8   2    5.64    4.97
   1   8  -2   11.08    5.52
   1   8  -2    3.94    4.14
  -1  -8   1    7.53    5.89
   1   8  -1    7.45    4.68
   1   8  -1   12.51    5.35
  -1  -8   0    2.78    4.22
   1   8   0    1.14    5.61
   1   8   0    0.71    1.64
  -1  -8  -1   93.95    8.19
   1   8   1  107.99   11.76
   1   8   1  109.59    8.35
  -1  -8  -2    4.44    4.14
   1   8   2    7.08    7.83
   1   8   2   10.07    4.12
  -1  -8  -3   13.52    5.27
   1   8   3   19.49   10.28
   1   8   3   15.55    3.72
  -1  -8  -4   29.40    7.56
   1   8   4   36.31    8.87
  -1  -8  -5    9.00    4.14
   1   8   5   19.85    9.04
  -1  -8  -6   -0.61    3.84
   1   8   6    2.35    5.81
  -1  -8  -7   19.61    6.28
   1   8   7   16.83    8.27
  -1  -8  -8   18.14   17.93
   1   8   8   26.65    6.89
  -1  -9   1    4.15    4.11
   1   9  -1    5.49    6.07
   1   9  -1    4.76    3.37
  -1  -9   0    3.29    4.69
   1   9   0    7.58    5.82
   1   9   0    3.14    3.31
  -1  -9  -1   11.70    5.01
   1   9   1    7.21    5.80
   1   9   1    9.18    4.07
  -1  -9  -2   22.84    5.66
   1   9   2   24.60    9.46
   1   9   2   22.16    3.68
  -1  -9  -3   -0.24    4.37
   1   9   3   -0.64    6.18
  -1  -9  -4   21.08    7.36
   1   9   4   12.48   10.22
  -1  -9  -5   96.33    9.40
   1   9   5  101.00   12.12
  -1  -9  -6   31.30    8.07
   1   9   6   29.92    9.97
  -1  -9  -7    1.10    4.20
   1   9   7    5.76    6.30
  -1 -10  -2   29.99    7.63
   1  10   2   24.46    7.33
  -1 -10  -3  250.90   14.89
   1  10   3  242.94   16.38
  -1 -10  -4    8.48    4.94
   1  10   4   18.20    9.38
   2  -9  -6    7.20    7.16
  -2   9   6    6.17    7.79
   2  -9  -5    6.00    5.61
  -2   9   5   11.09    7.56
   2  -9  -4  165.21   14.70
  -2   9   4  166.58   14.05
   2  -9  -3    1.99    3.50
  -2   9   3    7.78    8.54
   2  -9  -2    3.55    3.67
  -2   9   2    2.09    6.30
   2  -9  -1    9.91    4.77
  -2   9   1    2.07    8.07
   2  -9   0    5.54    3.98
  -2   9   0    0.18    7.19
   2  -9   1   32.63    6.37
  -2   9  -1   33.40    7.83
  -2   9  -1   35.80    5.02
   2  -8  -7   43.72    7.34
  -2   8   7   46.53    9.55
   2  -8  -6    4.31    5.58
  -2   8   6    1.59    5.26
   2  -8  -5   23.53   12.40
  -2   8   5   35.20    9.75
   2  -8  -4   62.53    7.41
  -2   8   4   69.86   12.74
   2  -8  -3   87.09    9.07
  -2   8   3   91.29   11.52
   2  -8  -2   48.28    8.70
  -2   8   2   44.78    9.48
   2  -8  -1   31.61    6.17
  -2   8   1   38.83   11.82
   2  -8   0   34.00    6.91
  -2   8   0   29.69    8.20
  -2   8   0   37.00    4.75
   2  -8   1    1.47    2.82
  -2   8  -1    4.94    6.79
  -2   8  -1    3.91    3.10
   2  -8   2    2.16    2.64
  -2   8  -2    2.60    5.91
  -2   8  -2    2.24    3.23
  -2   8  -3    3.22    6.78
  -2   8  -3    0.00    3.57
  -2   7   8    6.93    9.24
  -2   7   8    2.33    4.61
   2  -7  -7   32.83    7.97
  -2   7   7   30.03    7.04
   2  -7  -6   28.84   10.68
  -2   7   6   24.58    7.07
   2  -7  -5  210.36   26.40
  -2   7   5  202.11   13.49
   2  -7  -4   18.61    8.10
  -2   7   4   21.34    9.16
   2  -7  -3   51.45    7.61
  -2   7   3   58.63    9.11
   2  -7  -2 1045.34   24.26
  -2   7   2 1073.76   26.95
   2  -7  -1  283.19   11.86
  -2   7   1  282.45   16.91
  -2   7   1  248.96    8.46
   2  -7   0    2.20    2.84
  -2   7   0    6.40    6.27
  -2   7   0    2.03    2.75
   2  -7   1  495.37   16.73
  -2   7  -1  538.98   23.79
  -2   7  -1  513.48   18.41
   2  -7   2   60.18    5.26
  -2   7  -2   58.33   10.21
  -2   7  -2   52.36    5.94
   2  -7   3    1.25    2.39
  -2   7  -3    3.48    5.39
  -2   7  -3    1.04    3.87
  -2   7  -4   11.09    6.03
  -2   7  -4   10.45    5.85
  -2   7  -5    2.97    4.86
  -2   6   9   36.18   12.87
  -2   6   8   -6.88    8.46
  -2   6   8    2.12    3.67
  -2   6   7    7.68    9.16
  -2   6   7    1.03    4.60
   2  -6  -6   19.82    7.12
  -2   6   6   23.94    6.86
   2  -6  -5    7.15    7.43
  -2   6   5    7.91    5.65
   2  -6  -4   36.26    7.18
  -2   6   4   36.76    8.59
   2  -6  -3   30.73    6.51
  -2   6   3   27.38    7.26
   2  -6  -2  195.86    9.81
  -2   6   2  212.17   14.16
  -2   6   2  201.34    6.10
   2  -6  -1   -0.60    3.20
  -2   6   1   -0.54    5.89
  -2   6   1   -0.05    2.17
   2  -6   0  100.08    6.74
  -2   6   0  104.04   13.13
  -2   6   0   97.44    5.80
   2  -6   1   10.95    4.45
  -2   6  -1   16.50    9.26
  -2   6  -1   13.30    4.24
   2  -6   2   34.86    4.55
  -2   6  -2   32.38    8.20
  -2   6  -2   27.66    4.43
   2  -6   3    2.57    2.54
  -2   6  -3    5.56    8.34
  -2   6  -3   -0.04    4.14
  -2   6  -4   52.10    6.56
  -2   6  -4   12.87    6.20
  -2   6  -5   53.88    8.20
  -2   6  -6   63.99    9.68
  -2   5   9   10.02    7.27
  -2   5   8   95.35   12.67
  -2   5   7   77.09   12.54
  -2   5   7   59.15    6.48
  -2   5   6   69.72   11.06
  -2   5   6   68.91    6.55
   2  -5  -5   28.46    5.28
  -2   5   5   30.68    6.51
   2  -5  -4    1.82    2.63
  -2   5   4    6.02    5.63
   2  -5  -3   45.53    6.54
  -2   5   3   46.83    7.90
   2  -5  -2  155.31    7.73
  -2   5   2  140.68    8.82
  -2   5   2  151.04    4.47
   2  -5  -2  150.09    4.21
   2  -5  -1   81.12    6.28
  -2   5   1   74.64    7.99
  -2   5   1   75.09    9.66
   2  -5   0  725.48   14.00
  -2   5   0  732.34   19.73
  -2   5   0  725.56   13.44
   2  -5   1  174.68    8.53
  -2   5  -1  182.57   13.66
  -2   5  -1  178.35    9.08
   2  -5   2   28.55    3.83
  -2   5  -2   35.61    8.04
  -2   5  -2   28.10    5.14
   2  -5   3  151.86    7.57
  -2   5  -3  138.94   12.13
  -2   5  -3  138.69    9.77
   2  -5   4  690.73   17.77
  -2   5  -4  709.23   24.06
  -2   5  -4  672.36   22.72
  -2   5  -5   32.24    7.62
  -2   5  -5   25.24    7.19
  -2   5  -6   41.47    8.66
  -2   5  -7   32.89    7.03
  -2   4   9   43.73   10.20
  -2   4   8   11.10   12.87
  -2   4   7  188.09   15.81
  -2   4   7  193.33    9.24
  -2   4   6   24.36   12.43
  -2   4   6   34.19    5.78
  -2   4   5  110.44   11.74
  -2   4   5   98.98    8.07
   2  -4  -4   21.98    4.25
  -2   4   4   18.22    5.75
   2  -4  -3    1.70    2.49
  -2   4   3    1.88    5.70
   2  -4  -2  267.15   10.43
  -2   4   2  288.19   12.59
   2  -4  -2  283.61    5.98
   2  -4  -2  279.30    7.28
   2  -4  -1  591.69   16.14
  -2   4   1  650.61   19.85
  -2   4   1  627.60   14.15
   2  -4  -1  615.97   12.41
   2  -4   0  680.62   16.55
  -2   4   0  689.59   19.93
  -2   4   0  627.81   15.18
   2  -4   1  233.47    7.90
  -2   4  -1  227.67   11.49
  -2   4  -1  225.61    9.01
   2  -4   2  301.69    7.59
  -2   4  -2  285.26   12.00
  -2   4  -2  290.83   10.27
   2  -4   3   33.78    3.39
  -2   4  -3   33.21    7.75
  -2   4  -3   38.41    4.93
   2  -4   4   38.32    2.91
  -2   4  -4   34.76    7.98
  -2   4  -4   30.30    5.76
  -2   4  -5  235.31   13.33
  -2   4  -5  228.65   11.88
  -2   4  -6   19.43    5.89
  -2   4  -6   23.08    5.43
  -2   4  -7    8.12    4.95
  -2   3   9   38.43   14.54
  -2   3   8   24.03   10.64
  -2   3   7   96.06   11.38
  -2   3   7   76.02    4.86
   2  -3  -7   91.86    5.25
  -2   3   6 1026.60   31.19
  -2   3   6 1102.90   19.78
   2  -3  -6 1022.56   16.43
  -2   3   5  116.09   12.64
  -2   3   5  121.84    7.11
   2  -3  -5  110.85    4.39
  -2   3   5  115.10    5.40
  -2   3   4   37.97   11.05
  -2   3   4   36.26    4.75
  -2   3   4   33.76    2.08
   2  -3  -3  775.85   23.45
  -2   3   3  840.20   23.66
   2  -3  -2 1697.00   45.77
  -2   3   2 1845.13   46.08
   2  -3  -2 1648.33   36.89
   2  -3  -1  133.95    6.75
  -2   3   1  135.48    7.87
  -2   3   1  130.55    4.94
   2  -3  -1  142.81    4.51
   2  -3   0   17.17    2.70
  -2   3   0   21.21    6.10
  -2   3   0   15.72    2.59
   2  -3   1   26.41    3.01
  -2   3  -1   31.76    6.41
  -2   3  -1   25.67    3.57
   2  -3   2  485.41   11.30
  -2   3  -2  513.27   13.01
  -2   3  -2  491.51   16.03
  -2   3  -2  488.79   13.94
   2  -3   3  104.42    3.74
  -2   3  -3   90.30    6.44
  -2   3  -3  103.09    9.45
  -2   3  -3   98.14    6.95
   2  -3   4    1.48    2.00
  -2   3  -4    1.44    2.77
  -2   3  -4    2.13    4.74
  -2   3  -4    8.17    5.03
   2  -3   5    3.45    1.50
  -2   3  -5    4.63    3.92
  -2   3  -5    4.03    4.02
  -2   3  -6  204.35   11.03
  -2   3  -6  220.58   22.63
  -2   3  -7   10.90    5.69
  -2   3  -8    7.07    4.82
  -2   2   9    0.89    8.72
  -2   2   8   33.82    9.06
   2  -2  -8   35.79    9.33
  -2   2   7   78.62   12.91
   2  -2  -7   73.30    5.30
  -2   2   6  294.07   19.05
  -2   2   6  261.39    7.33
   2  -2  -6  251.31    7.66
  -2   2   5    8.49    7.38
  -2   2   5   13.58    2.89
   2  -2  -5   10.80    1.97
  -2   2   4 1251.16   33.50
  -2   2   4 1173.74   24.19
   2  -2  -4 1227.06   22.90
  -2   2   4 1290.36   25.12
  -2   2   3  470.94   19.32
  -2   2   3  438.62   13.29
   2  -2  -3  454.27   11.13
  -2   2   3  465.14   12.60
  -2   2   2  234.64   10.73
  -2   2   2  207.83    6.86
   2  -2  -2  219.92    4.02
  -2   2   2  214.77    5.23
   2  -2  -1  200.64    6.25
  -2   2   1  215.58    7.73
   2  -2  -1  217.34    4.29
   2  -2  -1  220.95    6.33
   2  -2   0  399.85    7.62
  -2   2   0  391.78    6.74
  -2   2   0  376.63    9.31
  -2   2   0  382.80    9.31
   2  -2   0  386.95    6.37
   2  -2   1  441.61    6.56
  -2   2  -1  469.25   11.64
  -2   2  -1  456.31    9.39
   2  -2   2  797.85   19.11
  -2   2  -2  791.90   19.47
  -2   2  -2  769.10   23.71
  -2   2  -2  833.51   23.57
   2  -2   3  438.91    8.95
  -2   2  -3  444.38   10.58
  -2   2  -3  422.28   15.29
  -2   2  -3  425.04   12.99
   2  -2   4  401.89    5.77
  -2   2  -4  369.49    7.29
  -2   2  -4  360.45   12.20
  -2   2  -4  384.40   13.08
   2  -2   5   31.96    2.81
  -2   2  -5   26.81    2.96
  -2   2  -5   24.19    4.67
  -2   2  -5   30.86    4.91
  -2   2  -6  293.75   13.12
  -2   2  -6  301.21   15.80
  -2   2  -7   91.00    6.94
  -2   2  -7   93.27    9.82
  -2   2  -8   16.46    7.67
  -2   2  -9   38.40    8.37
  -2   1   9   24.48   11.94
   2  -1  -9   28.89    5.79
  -2   1   8    9.11    8.64
   2  -1  -8    0.82    2.40
  -2   1   7   13.57   12.39
   2  -1  -7   14.69    3.54
  -2   1   6  297.90   19.98
   2  -1  -6  276.28    8.55
  -2   1   5   11.44    8.72
  -2   1   5   16.65    1.41
  -2   1   5   15.76    2.43
   2  -1  -5   19.86    3.02
  -2   1   4  731.56   24.23
  -2   1   4  723.27   15.18
   2  -1  -4  718.26   13.81
   2  -1  -4  730.46   15.71
  -2   1   3  167.45   11.21
  -2   1   3  161.93    6.40
   2  -1  -3  157.12    5.18
   2  -1  -3  163.52    5.67
  -2   1   3  165.37    6.88
  -2   1   2  582.02   13.87
   2  -1  -2  560.20    8.05
  -2   1   2  577.21    8.66
  -2   1   1 2312.08   24.04
  -2   1   1 2266.93   19.15
   2  -1  -1 2302.99   17.10
   2  -1  -1 2172.76   16.33
  -2   1   1 2208.56   16.71
  -2   1  -1   27.24    1.65
  -2   1  -1   28.86    2.53
  -2   1  -1   26.64    6.60
  -2   1  -1   23.95    3.06
   2  -1   1   27.97    2.56
  -2   1  -2  267.07   11.01
  -2   1  -2  276.86    7.96
  -2   1  -3  266.44   11.20
  -2   1  -3  288.75   11.46
   2  -1   4  265.81    5.42
  -2   1  -4  243.87   10.79
  -2   1  -4  237.18   10.51
   2  -1   5    9.09    1.10
   2  -1   5    8.88    4.06
  -2   1  -5    8.08    3.95
  -2   1  -5    7.34    5.81
   2  -1   6   81.28    4.44
  -2   1  -6   85.77    6.40
  -2   1  -6   78.85    9.79
  -2   1  -7  407.01   13.88
  -2   1  -7  404.96   17.34
  -2   1  -8    1.08    4.28
  -2   1  -9   62.47    8.36
  -2   0   9   24.59   12.18
   2   0  -9    6.24    3.91
  -2   0   8   38.09   10.67
   2   0  -8   49.35    5.23
  -2   0   7   21.26    8.26
   2   0  -7   28.71    5.00
  -2   0   6  532.68   26.21
   2   0  -6  498.86   13.45
  -2   0   5  198.07   16.18
   2   0  -5  221.68    7.54
  -2   0   4  216.65   14.78
   2   0  -4  232.62    8.06
  -2   0   3  495.36   19.87
  -2   0   3  449.25   11.39
   2   0  -3  452.03   10.92
   2   0  -3  525.08   14.64
  -2   0   2  117.75    9.28
  -2   0   2  116.90    4.01
   2   0  -2  123.57    3.78
   2   0  -2  122.20    4.69
  -2   0   2  129.43    6.11
  -2   0   1 1515.94   20.61
  -2   0   1 1594.16   14.57
   2   0  -1 1553.77   14.78
   2   0  -1 1617.31   18.21
  -2   0   1 1624.40   16.23
  -2   0   0 6092.94  139.41
   2   0   0 6261.55  142.24
  -2   0   0 5917.14   30.13
   2   0   0 6080.77   34.00
  -2   0   0 5888.98   31.14
   2   0   2  621.79    5.36
  -2   0  -2  593.66   11.94
  -2   0  -2  595.72   11.25
  -2   0  -3  121.73    6.84
  -2   0  -3  123.12    7.46
   2   0   4  138.96    4.94
  -2   0  -4  142.39    8.29
  -2   0  -4  152.96    9.03
   2   0   5  518.54    5.74
   2   0   5  529.61    9.99
  -2   0  -5  519.46   12.50
  -2   0  -5  526.25   16.43
   2   0   6  386.31   12.54
  -2   0  -6  412.35   14.41
  -2   0  -6  419.99   18.29
  -2   0  -7   19.25    4.75
  -2   0  -7   12.28    5.05
  -2   0  -8    9.78    5.76
  -2   0  -9    3.56    4.40
  -2  -1   9   30.46    9.78
   2   1  -9   42.84    7.86
  -2  -1   8  185.95   16.85
   2   1  -8  194.54   10.97
  -2  -1   7    7.62   12.71
   2   1  -7    4.68    3.58
  -2  -1   6  372.25   21.74
   2   1  -6  383.40   14.98
  -2  -1   5   75.49   10.54
   2   1  -5   86.75    7.50
  -2  -1   4  344.47   19.04
   2   1  -4  376.20   11.73
  -2  -1   3  663.39   25.19
   2   1  -3  607.09   14.30
   2   1  -3  683.69   18.99
  -2  -1   2  231.86   11.46
  -2  -1   2  249.73    7.19
   2   1  -2  254.09    7.54
   2   1  -2  292.67   10.03
  -2  -1   1 1618.40   22.07
  -2  -1   1 1613.08   13.39
  -2  -1   0  934.06   16.38
   2   1   0  860.22   17.12
  -2  -1   0  939.40   12.85
   2   1   0  921.67   11.55
   2   1   0  905.94   13.98
  -2  -1   0  917.51   13.38
  -2  -1  -1  560.43   10.72
   2   1   1  522.48   10.88
  -2  -1  -1  556.02   10.71
   2   1   1  542.24   10.00
   2   1   1  574.21   13.85
  -2  -1  -1  549.71   10.88
  -2  -1  -2 2798.07   15.15
  -2  -1  -2 2806.07   24.45
  -2  -1  -3    0.91    0.79
   2   1   3    3.30    2.03
  -2  -1  -3    1.57    2.61
  -2  -1  -3    1.10    2.84
  -2  -1  -4  748.16   18.61
   2   1   4  789.59   19.24
  -2  -1  -4  773.23   22.25
  -2  -1  -4  781.83   23.24
   2   1   5  623.58   12.95
   2   1   5  621.70   15.68
  -2  -1  -5  621.25   17.79
  -2  -1  -5  605.66   18.21
   2   1   6   93.32    7.12
  -2  -1  -6  101.25    6.61
  -2  -1  -6   92.17   22.52
   2   1   7   38.62    5.88
  -2  -1  -7   36.17    9.43
  -2  -1  -7   35.45    5.38
  -2  -1  -8   44.41    8.89
  -2  -1  -8   42.74    6.12
  -2  -1  -9   12.65   12.06
  -2  -1 -10    2.36    3.89
  -2  -2   8   32.35   13.38
   2   2  -8   32.98    5.82
  -2  -2   7   11.20   10.19
   2   2  -7    2.76    4.33
  -2  -2   6   18.26   13.18
   2   2  -6    9.21    3.92
  -2  -2   5  143.89   11.91
   2   2  -5  174.78    9.53
  -2  -2   4    6.94   10.62
   2   2  -4    2.57    4.18
  -2  -2   3   13.70    7.73
   2   2  -3   11.76    1.76
   2   2  -3   12.83    2.06
   2   2  -3   10.05    3.71
  -2  -2   2  755.37   25.38
   2   2  -2  686.68   17.73
   2   2  -2  810.56   19.89
   2   2  -2  738.23   20.79
  -2  -2   1  267.97   10.78
  -2  -2   1  290.04    5.96
   2   2  -1  276.26    6.57
   2   2  -1  317.13    9.00
  -2  -2   0  444.27   13.51
  -2  -2   0  403.47    8.43
   2   2   0  428.99   10.25
  -2  -2  -1 1628.11   16.62
   2   2   1 1640.12   19.97
  -2  -2  -2  497.82    9.83
  -2  -2  -2  491.24   10.26
   2   2   2  507.29   13.42
  -2  -2  -3 1435.43   34.42
  -2  -2  -3 1418.32   36.04
   2   2   3 1413.55   38.14
  -2  -2  -4  899.24   22.87
  -2  -2  -4  951.22   25.97
   2   2   4  966.01   29.67
  -2  -2  -5    7.67    4.54
  -2  -2  -5    5.04    3.46
  -2  -2  -5    5.73    3.72
   2   2   6  216.47   11.19
  -2  -2  -6  207.26    9.46
  -2  -2  -6  190.01   10.79
   2   2   7 1202.25   37.39
  -2  -2  -7 1267.04   41.45
  -2  -2  -7 1056.47   43.63
   2   2   8   11.68    5.51
  -2  -2  -8    6.68    5.34
  -2  -2  -8    6.38    6.42
  -2  -2  -9    0.51    3.81
  -2  -2 -10   53.02    7.28
  -2  -3   8   14.95    9.82
   2   3  -8    7.16    4.60
  -2  -3   7   36.98   10.63
   2   3  -7   42.86    7.78
  -2  -3   6   85.64   12.95
   2   3  -6   82.65    7.24
  -2  -3   5   33.15    7.90
   2   3  -5   39.53    6.26
  -2  -3   4  455.57   24.77
   2   3  -4  477.72   13.19
   2   3  -4  555.25   20.86
  -2  -3   3   10.86    9.51
   2   3  -3    7.03    1.76
   2   3  -3    9.16    2.33
   2   3  -3    9.80    5.01
  -2  -3   2   15.87    6.84
   2   3  -2   15.27    3.24
   2   3  -2   18.81    5.28
  -2  -3   1  607.43   22.65
   2   3  -1  614.38   17.13
   2   3  -1  611.76   18.30
  -2  -3   0 1158.40   32.95
  -2  -3   0 1119.47   28.77
   2   3   0 1004.78   26.89
  -2  -3  -1  244.16   11.31
  -2  -3  -1  228.20    8.87
   2   3   1  236.47   10.96
  -2  -3  -2  654.45   18.70
  -2  -3  -2  635.54   18.29
   2   3   2  639.23   20.85
  -2  -3  -3  374.35   11.89
  -2  -3  -3  381.89   14.12
   2   3   3  338.62   13.99
  -2  -3  -4   16.56    2.50
  -2  -3  -4   25.39    9.34
   2   3   4   30.00    7.67
  -2  -3  -5    4.31    2.02
  -2  -3  -5    7.62    3.14
   2   3   5   16.23    9.61
  -2  -3  -6  301.47   11.37
  -2  -3  -6  303.09   12.62
   2   3   6  295.82   19.88
  -2  -3  -7   28.05    3.79
  -2  -3  -7   42.44   13.12
   2   3   7   39.92    7.20
   2   3   8   35.30    7.94
  -2  -3  -8   43.08    6.24
   2   3   8   45.05    8.71
   2   3   9    9.22    8.82
   2   3  10    6.19    5.71
  -2  -4   7   97.72   14.04
   2   4  -7  113.37   10.27
  -2  -4   6   18.07    9.29
   2   4  -6   12.37    4.81
  -2  -4   5   89.32   11.42
   2   4  -5  118.22    9.86
  -2  -4   4  549.23   27.28
   2   4  -4  542.48   17.25
   2   4  -4  611.87   22.53
  -2  -4   3  630.49   27.37
   2   4  -3  656.71   19.18
   2   4  -3  717.88   22.26
  -2  -4   2   69.44   27.60
   2   4  -2   66.95    5.35
   2   4  -2   77.09    6.94
  -2  -4   1  495.74   17.52
   2   4  -1  529.50   15.18
   2   4  -1  518.58   15.02
  -2  -4   0  240.58   12.05
   2   4   0  217.96    8.92
   2   4   0  232.67   10.34
  -2  -4  -1  938.85   27.80
   2   4   1  962.94   26.05
   2   4   1  915.34   25.92
  -2  -4  -2 1047.57   25.22
   2   4   2 1054.86   26.25
  -2  -4  -3   44.33    5.00
  -2  -4  -3   50.18    6.75
   2   4   3   34.17    7.08
  -2  -4  -4   48.01    4.08
  -2  -4  -4   49.93    7.78
   2   4   4   43.31    8.52
  -2  -4  -5    1.20    2.46
  -2  -4  -5    0.54    3.71
   2   4   5    7.23    7.16
  -2  -4  -6   38.30    4.82
  -2  -4  -6   36.33    5.63
   2   4   6   23.00    8.65
  -2  -4  -7   29.24   10.60
   2   4   7   31.01    8.20
   2   4   8   21.11    4.69
   2   4   8   27.68    7.84
   2   4   9  189.88    8.91
   2   4   9  174.20   13.46
  -2  -5   6   24.87   10.42
   2   5  -6   28.88    5.57
  -2  -5   5   45.39   11.83
   2   5  -5   44.78    6.89
  -2  -5   4   56.94    8.04
   2   5  -4   67.12    7.04
  -2  -5   3   29.29    8.64
   2   5  -3   27.27    5.49
   2   5  -3   21.20    6.05
  -2  -5   2   14.73    8.99
   2   5  -2   26.38    4.85
   2   5  -2   34.51    7.47
  -2  -5   1  134.52   11.96
   2   5  -1  141.31    8.74
   2   5  -1  136.27    9.37
  -2  -5   0   51.85    9.33
   2   5   0   53.98    6.23
   2   5   0   53.89    6.18
  -2  -5  -1   59.23    9.34
   2   5   1   60.15    6.91
   2   5   1   58.03    6.93
  -2  -5  -2  192.19   10.81
   2   5   2  170.12    8.88
   2   5   2  171.04    8.99
  -2  -5  -3   33.23    8.65
   2   5   3   36.54    7.22
   2   5   3   38.00    8.83
  -2  -5  -4   41.20    6.35
   2   5   4   33.71    7.26
   2   5   4   29.74    7.43
  -2  -5  -5  127.85    7.54
   2   5   5  110.75    8.50
   2   5   5  123.71   10.14
  -2  -5  -6    0.10    2.69
   2   5   6    1.20    5.20
   2   5   6    6.19    6.17
  -2  -5  -7   88.06   10.17
   2   5   7   76.04    6.96
   2   5   7   72.83    7.58
  -2  -5  -8   20.93   15.87
   2   5   8   31.19    4.91
   2   5   8   26.44    7.92
   2   5   9   42.27    9.07
   2   5   9   42.79    5.29
  -2  -6   5   50.60    8.03
   2   6  -5   46.98    8.13
  -2  -6   4    2.93    7.13
   2   6  -4   -2.21    3.96
  -2  -6   3   56.89    8.01
   2   6  -3   61.99    6.46
   2   6  -3   62.49    7.46
  -2  -6   2   30.24    6.96
   2   6  -2   28.71    5.75
   2   6  -2   31.64    5.46
  -2  -6   1  143.07   12.31
   2   6  -1  134.19    9.53
   2   6  -1  144.28    9.35
  -2  -6   0  650.69   23.53
   2   6   0  582.81   15.23
   2   6   0  584.29   15.74
  -2  -6  -1  115.71   11.70
   2   6   1  117.13    9.76
   2   6   1  118.25    7.12
  -2  -6  -2  845.66   27.24
   2   6   2  828.97   26.88
   2   6   2  792.54   24.32
  -2  -6  -3 1137.56   25.21
   2   6   3 1095.77   23.57
   2   6   3 1081.68   22.26
  -2  -6  -4    1.16    4.26
   2   6   4    1.70    5.91
   2   6   4    1.99    4.16
  -2  -6  -5   44.19    6.48
   2   6   5   39.48    7.61
   2   6   5   39.07    7.18
  -2  -6  -6  176.79    9.84
   2   6   6  155.57    9.26
   2   6   6  164.47    9.27
  -2  -6  -7   58.05    6.86
   2   6   7   55.87    6.36
   2   6   7   56.43    7.71
  -2  -6  -8    3.48    4.25
   2   6   8    4.88    5.99
  -2  -6  -9    5.29    3.46
   2   6   9    4.71    4.17
  -2  -7   4  111.41   12.43
   2   7  -4  136.21   12.10
  -2  -7   3   12.79    7.88
   2   7  -3   12.75    5.13
   2   7  -3   18.47    7.47
  -2  -7   2   14.59    6.54
   2   7  -2    9.46    3.77
   2   7  -2   19.33    7.14
  -2  -7   1   12.32    6.30
   2   7  -1    2.88    4.92
   2   7  -1    5.18    3.65
  -2  -7   0   -0.29    5.89
   2   7   0    7.27    8.02
   2   7   0    3.40    3.26
  -2  -7  -1   36.11    8.67
   2   7   1   32.61    7.41
   2   7   1   38.04    5.92
  -2  -7  -2   61.48    8.32
   2   7   2   59.56    8.51
   2   7   2   61.41    6.42
  -2  -7  -3  253.49   12.43
   2   7   3  257.82   15.00
   2   7   3  250.61    9.08
  -2  -7  -4   13.63    5.24
   2   7   4    8.87    5.74
   2   7   4   14.54    6.44
  -2  -7  -5  173.02   10.87
   2   7   5  158.38   11.12
   2   7   5  136.84    8.01
  -2  -7  -6    0.83    4.14
   2   7   6    2.60    4.81
  -2  -7  -7    7.60    4.14
   2   7   7    7.62    5.22
  -2  -7  -8   19.67   14.58
   2   7   8   22.48    6.27
  -2  -7  -9    7.15    8.65
   2   7   9   11.91    5.91
  -2  -8   3   57.04    8.50
   2   8  -3   68.55    7.30
  -2  -8   2   34.42    8.33
   2   8  -2   31.76    5.82
   2   8  -2   30.89    5.76
  -2  -8   1   99.71   12.67
   2   8  -1  121.01   11.60
   2   8  -1   94.89    9.50
  -2  -8   0   41.99    9.59
   2   8   0   42.04    7.61
   2   8   0   44.72    6.12
  -2  -8  -1    3.50    4.85
   2   8   1    1.48    6.16
   2   8   1    1.04    2.94
  -2  -8  -2    4.83    5.63
   2   8   2    1.59    5.13
   2   8   2    3.67    4.05
  -2  -8  -3   22.85    9.56
   2   8   3   13.50    8.77
   2   8   3   17.75    3.67
  -2  -8  -4   46.67    6.35
   2   8   4   41.11    9.23
   2   8   4   39.62    4.92
  -2  -8  -5  205.11   12.97
   2   8   5  217.06   13.76
  -2  -8  -6   10.20    4.40
   2   8   6    4.08    5.91
  -2  -8  -7   24.58    6.25
   2   8   7   27.41    8.54
  -2  -8  -8   31.12    9.81
   2   8   8   34.05    6.80
  -2  -9   1   83.27   10.01
   2   9  -1   91.25   12.62
   2   9  -1   87.97    8.74
  -2  -9   0    1.21    4.72
   2   9   0    3.42    4.92
   2   9   0    3.81    4.33
  -2  -9  -1   84.71   14.68
   2   9   1   98.02   11.05
   2   9   1   88.49    8.41
  -2  -9  -2   35.16    6.38
   2   9   2   50.60    9.59
   2   9   2   38.98    4.95
  -2  -9  -3   11.18    5.26
   2   9   3    9.29    6.06
   2   9   3   12.74    3.96
  -2  -9  -4   86.51    9.15
   2   9   4   81.58   10.52
  -2  -9  -5   22.21    7.24
   2   9   5   22.35    9.56
  -2  -9  -6   29.43    7.59
   2   9   6   34.76   11.05
  -2  -9  -7  127.03   11.57
   2   9   7  114.24   10.80
  -2 -10  -3   13.75    8.78
   2  10   3   14.80    7.25
   3  -9  -5    1.47    4.06
  -3   9   5    3.63    6.96
   3  -9  -4   16.93   10.38
  -3   9   4   29.24    8.65
   3  -9  -3    4.03    3.00
  -3   9   3   11.40    9.10
   3  -9  -2    0.26    2.94
  -3   9   2    5.42    8.91
   3  -9  -1    3.54    3.30
  -3   9   1    2.20    6.80
   3  -9   0   14.92    5.35
  -3   9   0    9.14    8.61
   3  -9   1    3.47    3.72
  -3   9  -1   -0.30    6.30
  -3   8   7   13.63   14.50
  -3   8   7    5.75    5.22
   3  -8  -6   24.18    6.52
  -3   8   6   24.70    8.31
   3  -8  -5    3.65    4.33
  -3   8   5    4.01   10.27
   3  -8  -4   15.16   11.54
  -3   8   4   13.56    8.40
   3  -8  -3  132.17   32.62
  -3   8   3  138.79   13.65
   3  -8  -2  163.37   16.30
  -3   8   2  192.10   16.68
   3  -8  -1   82.12    9.49
  -3   8   1   75.17   13.59
   3  -8   0    3.96    4.14
  -3   8   0   16.25   10.57
   3  -8   1   17.86    5.23
  -3   8  -1   27.53   10.46
  -3   8  -1   19.18    4.66
  -3   8  -2   14.89    7.34
  -3   8  -2   20.03    6.16
  -3   8  -3   25.78    8.17
  -3   8  -3   18.31    5.77
  -3   7   8   12.98   11.66
  -3   7   7    3.99   10.08
  -3   7   7    5.45    5.53
   3  -7  -6   48.19    8.39
  -3   7   6   67.19   10.55
   3  -7  -5    2.29    3.76
  -3   7   5   -1.58    5.97
   3  -7  -4   52.78    8.38
  -3   7   4   49.48    9.59
   3  -7  -3   -1.00    3.53
  -3   7   3   -0.11    7.44
   3  -7  -2  395.68   16.67
  -3   7   2  413.63   20.73
   3  -7  -1    6.48    4.07
  -3   7   1    8.22    8.42
  -3   7   1   11.41    3.48
   3  -7   0   23.68    5.58
  -3   7   0   27.17    9.31
  -3   7   0   19.78    4.05
   3  -7   1   17.17    4.18
  -3   7  -1   13.41    7.78
  -3   7  -1   22.73    4.36
   3  -7   2   55.62    5.01
  -3   7  -2   67.51   12.69
  -3   7  -2   57.06    6.87
  -3   7  -3   56.42    8.17
  -3   7  -3   64.38    8.90
  -3   7  -4   74.19   12.26
  -3   7  -4   70.42    8.21
  -3   6   8   69.00   13.15
  -3   6   7   22.99   12.67
  -3   6   7   27.65    7.48
  -3   6   6   41.29   10.48
  -3   6   6   29.96    5.72
   3  -6  -5   73.03    8.86
  -3   6   5   74.73    8.88
   3  -6  -4   24.21   13.70
  -3   6   4   16.97    8.53
   3  -6  -3    5.19    4.08
  -3   6   3   11.62    6.28
   3  -6  -2    3.94    4.56
  -3   6   2    0.25    7.74
  -3   6   2    3.23    1.59
   3  -6  -1   13.92    4.78
  -3   6   1   12.57    7.16
  -3   6   1    8.52    5.81
   3  -6   0   76.77    7.06
  -3   6   0   90.99   11.82
  -3   6   0   65.85    5.53
   3  -6   1   32.65    3.62
  -3   6  -1   38.29    9.74
  -3   6  -1   34.25    5.22
   3  -6   2  183.64    9.55
  -3   6  -2  196.60   15.51
  -3   6  -2  192.90   11.66
   3  -6   3   22.34    3.93
  -3   6  -3   21.88    8.61
  -3   6  -3   12.93    6.53
  -3   6  -4   42.25   10.20
  -3   6  -4   46.49    7.18
  -3   6  -5   10.34    7.69
  -3   6  -5    8.42    4.57
  -3   5   9   13.73    9.86
  -3   5   8  114.33   15.57
  -3   5   7    1.09    8.96
  -3   5   7    2.68    3.61
  -3   5   6   99.14   16.40
  -3   5   6   54.81    6.13
  -3   5   5   49.93   12.20
  -3   5   5   54.92    7.95
   3  -5  -4   63.93    8.88
  -3   5   4   63.52    8.43
   3  -5  -3   10.99    5.68
  -3   5   3   14.75    9.97
   3  -5  -2  421.59   16.61
  -3   5   2  400.39   18.12
   3  -5  -2  417.24   10.77
   3  -5  -2  416.28   13.26
  -3   5   1   27.66   10.28
   3  -5   0   67.03    5.47
  -3   5   0   72.91    9.78
  -3   5   0   74.28    5.19
   3  -5   1   -0.02    1.95
  -3   5  -1   -0.45    7.79
  -3   5  -1    0.24    3.05
   3  -5   2   45.89    3.90
  -3   5  -2   47.17    7.75
  -3   5  -2   43.88    5.12
   3  -5   3   23.19    3.28
  -3   5  -3   29.85    9.54
  -3   5  -3   20.57    5.36
  -3   5  -4  385.54   19.99
  -3   5  -4  393.45   16.58
  -3   5  -5  241.47   16.03
  -3   5  -5  243.51   13.73
  -3   5  -6    6.27    6.41
  -3   5  -6    1.09    5.10
  -3   4   9   -1.45    8.64
  -3   4   8   58.10   10.76
  -3   4   7  139.89   15.20
  -3   4   6  196.93   19.65
  -3   4   6  195.07   10.67
  -3   4   5    9.38    8.90
  -3   4   5    4.71    4.83
  -3   4   4   27.98   10.59
  -3   4   4   34.03    6.59
   3  -4  -3   21.14    5.40
  -3   4   3   25.74    7.26
   3  -4  -2   67.36    5.43
  -3   4   2   70.32    8.20
   3  -4  -2   71.09    2.39
   3  -4  -2   67.85    4.63
   3  -4  -1   15.64   11.31
  -3   4   1   23.97    8.51
  -3   4   1   15.83    3.08
   3  -4   0  636.33   13.35
  -3   4   0  637.46   19.08
  -3   4   0  636.97   12.95
   3  -4   1    9.91    2.87
  -3   4  -1   16.77    8.70
  -3   4  -1    8.76    3.42
   3  -4   2   88.13    4.75
  -3   4  -2   83.86    9.53
  -3   4  -2   95.08    8.43
   3  -4   3    4.21    1.56
  -3   4  -3   10.91    6.84
  -3   4  -3    5.26    4.22
   3  -4   4    0.61    0.81
  -3   4  -4    3.30    5.31
  -3   4  -4    0.06    4.07
  -3   4  -5  361.13   18.07
  -3   4  -5  392.21   17.63
  -3   4  -6    4.52    3.92
  -3   4  -6    3.65    4.68
  -3   4  -7   75.05   10.54
  -3   3   9  164.25   19.88
  -3   3   8   11.94   15.53
  -3   3   7    8.92    7.43
  -3   3   6  907.25   31.09
  -3   3   6  910.67   16.73
   3  -3  -6  920.08   11.27
  -3   3   5  135.80   12.61
  -3   3   5  157.95    7.90
   3  -3  -5  151.14    4.28
  -3   3   4   23.81   12.21
  -3   3   4   16.59    5.73
   3  -3  -4   17.30    1.56
  -3   3   4   18.82    2.98
  -3   3   3  239.26   16.11
  -3   3   3  256.50   11.27
   3  -3  -3  257.49    6.36
   3  -3  -3  276.36    6.38
  -3   3   2   54.25    8.48
  -3   3   2   55.53    9.18
   3  -3  -2   58.95    2.81
   3  -3  -2   56.99    4.01
   3  -3  -1    0.12    2.75
  -3   3   1    2.54    5.68
   3  -3  -1    0.88    1.09
   3  -3  -1    3.47    4.89
   3  -3   0  440.37   15.50
  -3   3   0  425.77   15.42
  -3   3   0  423.53   20.48
   3  -3   1  217.96    7.66
  -3   3  -1  237.12   13.14
  -3   3  -1  243.71    9.82
   3  -3   2    2.08    2.36
  -3   3  -2    4.79    2.57
  -3   3  -2    5.85    4.95
  -3   3  -2    6.00    5.19
   3  -3   3   57.62    2.94
  -3   3  -3   70.04   10.00
  -3   3  -3   63.90    6.22
   3  -3   4    0.00    0.44
  -3   3  -4    0.51    1.24
  -3   3  -4    2.76    4.80
  -3   3  -4   -0.65    4.54
  -3   3  -5  281.21   14.86
  -3   3  -5  273.31   12.94
  -3   3  -6    3.09    3.37
  -3   3  -6    7.28    5.37
  -3   3  -7   62.44    5.85
  -3   3  -7   71.84    8.79
  -3   3  -8    0.63    4.71
  -3   2   9   66.00   14.46
  -3   2   8   19.62   11.72
  -3   2   7   39.56    9.63
   3  -2  -7   38.25    4.02
  -3   2   6    7.30   10.54
  -3   2   6    0.58    1.52
   3  -2  -6    0.89    2.04
  -3   2   5   22.55    8.89
  -3   2   5   22.45    4.07
   3  -2  -5   17.16    2.29
  -3   2   4   26.80   12.85
  -3   2   4   15.13    4.01
   3  -2  -4   11.77    2.09
  -3   2   3  116.31   13.61
  -3   2   3  109.75    6.41
   3  -2  -3  113.80    4.17
  -3   2   3  106.29    5.47
  -3   2   2  466.45   18.93
  -3   2   2  466.34   15.76
   3  -2  -2  454.66   13.56
  -3   2   2  457.91   13.93
  -3   2   1  965.29   28.53
  -3   2   1  946.96   26.92
   3  -2  -1  979.52   24.89
   3  -2  -1  870.87   23.95
  -3   2   0   -1.10    4.39
  -3   2   0    1.33    4.70
   3  -2   0    4.07    4.64
  -3   2  -1    1.26    0.97
  -3   2  -1    0.59    2.91
  -3   2  -1    1.41    5.39
  -3   2  -1    2.81    2.91
  -3   2  -2   93.70    3.66
  -3   2  -2   80.79    4.30
  -3   2  -2   85.67    7.91
  -3   2  -2   83.31    6.40
  -3   2  -3    1.78    1.34
  -3   2  -3    0.90    1.21
  -3   2  -3    4.44    4.55
  -3   2  -3    2.96    3.77
  -3   2  -4   22.70    7.23
  -3   2  -4   16.53    5.55
  -3   2  -5   59.19    7.72
  -3   2  -5   57.33    7.99
  -3   2  -6   79.06    7.42
  -3   2  -6   83.42   11.00
  -3   2  -7   30.03    5.95
  -3   2  -7   23.36   13.90
  -3   2  -8   -0.29    4.89
  -3   1   9   22.32   10.46
  -3   1   8    9.85   10.19
   3  -1  -8    2.15    2.59
  -3   1   7    2.48   10.50
   3  -1  -7    6.97    3.07
  -3   1   6   12.05   11.56
   3  -1  -6    8.65    5.09
  -3   1   5   -0.62   10.20
  -3   1   5    0.51    1.13
   3  -1  -5    0.48    1.03
   3  -1  -5    1.84    2.17
  -3   1   4  204.98   16.16
  -3   1   4  210.45    7.95
   3  -1  -4  217.99    5.27
   3  -1  -4  247.17    7.40
  -3   1   3  922.15   29.83
  -3   1   3  881.75   20.88
   3  -1  -3  984.25   20.73
  -3   1   2  202.14   11.54
  -3   1   2  209.40    9.82
   3  -1  -2  201.84    8.59
  -3   1   1  418.58   15.87
  -3   1   1  403.50   14.94
   3  -1  -1  458.52   15.15
  -3   1   0    4.53    4.72
  -3   1   0    8.21    5.12
   3  -1   0   -0.83    5.76
  -3   1  -1   89.25    5.04
  -3   1  -1   81.37    5.56
  -3   1  -1   80.62    7.17
   3  -1   1   83.05    7.88
  -3   1  -2    2.75    0.80
  -3   1  -2    2.42    1.91
  -3   1  -2    1.25    4.43
  -3   1  -2    4.64    2.62
  -3   1  -3  882.30   23.31
  -3   1  -3  813.57   23.70
  -3   1  -4   75.54    8.98
  -3   1  -4   83.48    8.74
  -3   1  -5   25.20    6.33
  -3   1  -5   24.36   14.18
  -3   1  -6    1.00    4.27
  -3   1  -6   -1.22    4.49
  -3   1  -7   80.93    8.05
  -3   1  -7  101.20   11.80
  -3   1  -8    0.72    3.26
  -3   1  -9    2.17    7.36
  -3   0   9   29.54   11.80
   3   0  -9   40.72    6.68
  -3   0   8    5.64   10.71
   3   0  -8   -0.42    2.96
  -3   0   7    2.44    9.83
   3   0  -7    3.56    3.90
  -3   0   6   57.91   16.16
   3   0  -6   46.13    5.13
  -3   0   5   83.26   15.43
   3   0  -5   82.54    5.51
  -3   0   4  102.03   15.05
  -3   0   4  102.83    3.29
   3   0  -4  110.95    3.14
   3   0  -4  130.38    7.28
  -3   0   3  188.16   13.17
  -3   0   3  170.98    6.04
   3   0  -3  163.77    5.59
   3   0  -3  187.68    7.77
  -3   0   2  202.32   14.98
  -3   0   2  196.40    8.31
   3   0  -2  205.00    7.78
   3   0  -2  199.64    9.45
  -3   0   1   -1.89    7.00
  -3   0   1    1.52    4.45
   3   0  -1   -0.77    4.93
  -3   0   0    3.77    5.76
  -3   0   0    1.61    3.92
   3   0   0    6.78    6.63
  -3   0  -1    0.51    3.63
   3   0   1    1.98    2.71
  -3   0  -1   -1.88    4.09
   3   0   1   -1.38    6.95
  -3   0  -2    0.64    1.72
   3   0   2    2.19    1.91
  -3   0  -2   -0.67    4.43
   3   0   2    0.09    6.52
  -3   0  -3  338.85   13.46
  -3   0  -3  289.48   11.82
  -3   0  -4  758.42   22.18
  -3   0  -4  732.16   20.91
  -3   0  -5  213.94   11.75
  -3   0  -5  212.67   11.29
  -3   0  -6    6.88    3.54
  -3   0  -6    8.44    9.04
  -3   0  -7   11.32    4.87
  -3   0  -7    6.83    7.71
  -3   0  -8    1.48    2.42
  -3   0  -8    2.45    7.64
  -3   0  -9   -0.80    4.50
  -3  -1   8    3.91   10.58
   3   1  -8    1.19    3.81
  -3  -1   7   13.38    9.88
   3   1  -7    7.90    3.86
  -3  -1   6  152.87   16.55
   3   1  -6  163.32    8.64
  -3  -1   5  248.38   19.52
   3   1  -5  316.52   11.37
  -3  -1   4  114.03   17.64
   3   1  -4   58.43    6.06
  -3  -1   3    5.24    9.75
  -3  -1   3    1.08    1.65
   3   1  -3    2.63    2.00
   3   1  -3    2.56    3.44
  -3  -1   2   59.40   10.18
  -3  -1   2   63.78    4.45
   3   1  -2   55.56    4.24
   3   1  -2   65.80    5.72
  -3  -1   1  113.35    9.41
  -3  -1   1  129.11    6.35
   3   1  -1  114.29    7.71
  -3  -1   0   65.83    6.08
  -3  -1   0   69.64    5.44
   3   1   0   77.88    8.84
  -3  -1  -1  822.17   15.59
  -3  -1  -1  857.22   14.90
   3   1   1  828.99   16.70
  -3  -1  -2 1005.10   25.80
   3   1   2 1022.19   26.53
  -3  -1  -2  987.05   27.85
   3   1   2  945.04   28.06
  -3  -1  -3   14.05    2.23
   3   1   3   11.41    3.47
  -3  -1  -3   15.23    5.27
   3   1   3   11.85    7.47
  -3  -1  -4   33.07    2.02
   3   1   4   30.86    3.31
  -3  -1  -4   36.36    5.89
   3   1   4   30.98   10.11
   3   1   5   70.53    4.08
   3   1   5   77.43    4.42
  -3  -1  -5   63.17    7.06
  -3  -1  -5   62.57    6.59
   3   1   6  115.64    5.30
  -3  -1  -6  126.12    9.18
  -3  -1  -6  122.83   10.07
  -3  -1  -7  212.84   10.55
  -3  -1  -7  197.19   18.68
  -3  -1  -8   49.16    5.75
  -3  -1  -8   36.74    6.86
  -3  -1  -9   -0.78    4.03
  -3  -1 -10   84.61   10.12
  -3  -2   8    1.70    7.68
   3   2  -8    3.99    3.98
  -3  -2   7    8.14    9.81
   3   2  -7    7.54    3.47
  -3  -2   6    1.54    9.50
   3   2  -6   -0.83    3.95
  -3  -2   5   39.84   10.49
   3   2  -5   46.82    5.98
  -3  -2   4  597.08   26.62
   3   2  -4  604.75   14.51
   3   2  -4  652.10   21.05
  -3  -2   3    4.25    8.86
   3   2  -3    3.95    2.31
   3   2  -3    5.99    2.00
   3   2  -3    2.85    4.08
  -3  -2   2  108.43   12.64
  -3  -2   2  112.00    8.45
   3   2  -2  115.18    6.47
  -3  -2   1   84.68   10.03
  -3  -2   1   76.57    4.63
   3   2  -1   77.61    7.02
  -3  -2   0  595.17   21.75
  -3  -2   0  595.38   17.57
   3   2   0  633.68   21.89
  -3  -2  -1  241.07   11.09
  -3  -2  -1  244.88   10.41
   3   2   1  222.00   11.53
  -3  -2  -2    3.58    4.18
  -3  -2  -2    1.88    3.40
   3   2   2    6.97    7.22
  -3  -2  -3   16.99    2.99
  -3  -2  -3   15.71    5.59
   3   2   3   10.62    6.20
  -3  -2  -4  104.48    4.42
  -3  -2  -4  100.66    7.69
   3   2   4  104.44   11.98
  -3  -2  -5   72.37    3.84
  -3  -2  -5   75.87    7.36
   3   2   5   84.95   12.43
  -3  -2  -6   86.26    4.36
  -3  -2  -6   92.31    8.30
   3   2   6   97.97   15.45
   3   2   7  747.96   15.68
  -3  -2  -7  796.34   18.56
   3   2   7  845.19   28.07
  -3  -2  -8  115.89    7.33
  -3  -2  -9   39.82   10.84
  -3  -2  -9   20.69    5.98
  -3  -3   7  235.22   21.44
   3   3  -7  244.84   13.59
  -3  -3   6   54.76   12.75
   3   3  -6   68.16    7.46
  -3  -3   5   22.80    8.54
   3   3  -5   31.51    5.73
  -3  -3   4  918.50   40.98
   3   3  -4  928.61   25.46
   3   3  -4  907.62   30.27
  -3  -3   3   65.14   16.07
   3   3  -3   60.75    3.88
   3   3  -3   62.14    7.47
  -3  -3   2   30.73   12.65
   3   3  -2   27.53    3.27
   3   3  -2   26.78    6.89
  -3  -3   1   41.60   13.12
  -3  -3   1   35.31    6.60
   3   3  -1   38.01    7.45
  -3  -3   0   97.54   11.08
  -3  -3   0  109.20    6.68
   3   3   0   97.14    9.31
  -3  -3  -1  277.16   12.78
  -3  -3  -1  273.74   10.87
   3   3   1  278.35   14.83
  -3  -3  -2   72.03    6.56
  -3  -3  -2   72.47    7.74
   3   3   2   60.68    8.08
  -3  -3  -3  993.47   22.48
  -3  -3  -3  983.55   25.15
   3   3   3  976.03   28.57
  -3  -3  -4   35.03    4.04
  -3  -3  -4   39.39    5.08
   3   3   4   32.44   11.28
  -3  -3  -5   36.48    3.50
  -3  -3  -5   44.81    6.54
   3   3   5   35.89   10.53
  -3  -3  -6   73.16    5.37
  -3  -3  -6   75.85   15.19
   3   3   6   70.41   10.72
  -3  -3  -7   76.02    5.36
  -3  -3  -7   76.10    8.45
   3   3   7   78.07   12.59
  -3  -3  -8    1.02    2.83
   3   3   8    5.13    7.16
  -3  -3  -9    2.96    2.23
   3   3   9    7.48    6.83
   3   3  10   15.24    7.07
  -3  -4   7   25.25   10.98
   3   4  -7   11.77    7.34
  -3  -4   6   39.23   12.76
   3   4  -6   45.06    8.40
  -3  -4   5   38.79   12.51
   3   4  -5   25.77    5.93
  -3  -4   4   41.33    9.29
   3   4  -4   55.28    7.40
  -3  -4   3  348.78   17.45
   3   4  -3  378.07    9.62
   3   4  -3  419.25   14.64
  -3  -4   2  244.22   17.79
   3   4  -2  269.03   10.57
   3   4  -2  256.90   12.12
  -3  -4   1   86.31   10.98
   3   4  -1  100.58    7.60
   3   4  -1   94.28    9.00
  -3  -4   0   20.61    7.67
  -3  -4   0   22.18    3.83
   3   4   0   21.07    7.21
  -3  -4  -1  407.87   16.59
  -3  -4  -1  411.30   13.59
   3   4   1  366.22   17.62
  -3  -4  -2  326.52   13.35
  -3  -4  -2  302.07   11.69
   3   4   2  323.86   19.79
  -3  -4  -3   86.21    8.42
  -3  -4  -3   83.39   15.87
   3   4   3  101.68   12.59
  -3  -4  -4   30.20    5.01
  -3  -4  -4   29.22   19.40
   3   4   4   24.06    7.78
  -3  -4  -5   32.91    3.97
  -3  -4  -5   39.61    7.33
   3   4   5   32.42   11.02
  -3  -4  -6   35.25    4.11
  -3  -4  -6   29.21   17.41
   3   4   6   44.02   10.77
  -3  -4  -7   18.75   10.44
  -3  -4  -7   15.03   12.00
   3   4   7   16.52    8.57
  -3  -4  -8   30.82    4.35
  -3  -4  -8   51.31    7.65
   3   4   8   32.50   10.27
   3   4   9  215.21   15.72
   3   4  10    4.21    5.97
  -3  -5   6   10.86   11.57
   3   5  -6    6.85    5.04
  -3  -5   5   10.40    8.60
   3   5  -5    3.76    4.54
  -3  -5   4   21.49   17.88
   3   5  -4   34.62    5.91
  -3  -5   3   33.58   10.95
   3   5  -3   34.62    4.71
   3   5  -3   32.61    6.42
  -3  -5   2  321.18   21.04
   3   5  -2  349.02   13.84
   3   5  -2  352.08   16.20
  -3  -5   1   47.14    9.82
   3   5  -1   52.51    7.50
   3   5  -1   49.16    7.37
  -3  -5   0  390.76   20.19
   3   5   0  357.10   13.17
   3   5   0  349.45   16.53
  -3  -5  -1    0.00    6.75
   3   5   1    5.62    6.73
   3   5   1    2.39    5.16
  -3  -5  -2    6.38    6.27
   3   5   2    2.93    6.40
  -3  -5  -3  154.21   10.40
  -3  -5  -3  172.04   10.95
   3   5   3  151.63   12.14
  -3  -5  -4    4.33    3.71
  -3  -5  -4    3.57    4.51
   3   5   4   12.12    7.86
  -3  -5  -5  250.54    9.50
  -3  -5  -5  263.73   13.39
   3   5   5  233.72   15.67
  -3  -5  -6   10.75    4.87
  -3  -5  -6    4.17    4.47
   3   5   6    4.98    5.86
  -3  -5  -7  103.92    7.73
   3   5   7   87.85   13.40
  -3  -5  -8    1.93    3.31
   3   5   8    5.21    4.12
   3   5   8    5.33    6.25
   3   5   9   41.05    8.04
   3   5   9   43.52   10.79
  -3  -6   5   11.69    7.97
   3   6  -5   18.66    5.59
  -3  -6   4  174.97   15.71
   3   6  -4  186.55   11.87
  -3  -6   3   66.45    9.84
   3   6  -3   71.18    6.62
   3   6  -3   72.67    7.44
  -3  -6   2   12.16    9.20
   3   6  -2   10.34    5.05
   3   6  -2    6.01    5.71
  -3  -6   1  217.78   16.11
   3   6  -1  223.75   12.99
   3   6  -1  215.38   11.83
  -3  -6   0   93.70   11.71
   3   6   0  100.96    7.97
   3   6   0   99.57    8.46
  -3  -6  -1    8.37    5.74
   3   6   1   16.98    4.76
   3   6   1   14.08    4.98
  -3  -6  -2   20.17    9.45
   3   6   2   17.99    7.64
   3   6   2   14.70    5.75
  -3  -6  -3 1081.08   26.15
   3   6   3 1036.10   23.19
   3   6   3 1053.95   25.81
  -3  -6  -4   26.92    4.60
   3   6   4   23.58    5.32
   3   6   4   26.34    8.60
  -3  -6  -5    4.12    3.66
   3   6   5    0.57    6.34
   3   6   5   -0.33    4.76
  -3  -6  -6   39.19    5.47
   3   6   6   41.31    7.19
   3   6   6   48.43    8.03
  -3  -6  -7   29.24    5.36
   3   6   7   29.14    6.75
   3   6   7   33.37    6.84
  -3  -6  -8    2.37    2.40
   3   6   8    3.13    4.33
   3   6   8    5.06    5.41
  -3  -6  -9   10.88    9.14
   3   6   9   17.68    5.41
  -3  -7   4   10.09    6.02
   3   7  -4   13.80    4.67
  -3  -7   3  136.26   13.13
   3   7  -3  156.48   14.05
  -3  -7   2    6.65    7.28
   3   7  -2    2.88    4.99
   3   7  -2    0.42    4.50
  -3  -7   1    0.34    6.35
   3   7  -1    2.02    3.72
   3   7  -1    2.60    3.52
  -3  -7   0    2.73    6.02
   3   7   0    1.62    4.17
   3   7   0   -0.49    3.67
  -3  -7  -1   37.57    9.95
   3   7   1   44.82    8.78
   3   7   1   43.97    6.00
  -3  -7  -2   68.44   10.14
   3   7   2   58.86    8.23
   3   7   2   64.99    8.30
  -3  -7  -3    7.21    4.94
   3   7   3    6.34    5.03
   3   7   3    4.55    4.41
  -3  -7  -4   44.96    7.41
   3   7   4   42.18    8.15
   3   7   4   38.40    6.69
  -3  -7  -5    5.68    4.69
   3   7   5    9.51    5.60
   3   7   5    9.68    6.62
  -3  -7  -6    1.61    3.33
   3   7   6    6.22    8.09
   3   7   6    6.25    5.76
  -3  -7  -7    4.90    3.02
   3   7   7    6.03    5.39
  -3  -7  -8    2.71    3.43
   3   7   8    3.88    5.94
  -3  -8   2   16.51    8.17
   3   8  -2   16.98    7.40
   3   8  -2   14.03    4.12
  -3  -8   1   24.85    9.22
   3   8  -1   23.15    5.00
   3   8  -1   24.48    6.39
  -3  -8   0    0.89    5.68
   3   8   0   -1.59    4.13
   3   8   0    1.10    3.43
  -3  -8  -1    4.07    5.81
   3   8   1    0.36    5.06
   3   8   1    2.42    3.32
  -3  -8  -2   18.23    6.71
   3   8   2   27.58   10.90
   3   8   2   22.35    5.15
  -3  -8  -3    1.18    2.54
   3   8   3    1.13    4.82
   3   8   3    1.23    2.95
  -3  -8  -4   15.04    4.71
   3   8   4    7.48    5.81
   3   8   4    9.79    3.73
  -3  -8  -5  193.89   12.47
   3   8   5  171.73   12.34
   3   8   5  168.65    9.86
  -3  -8  -6   22.05    5.55
   3   8   6   16.61    8.35
  -3  -8  -7    3.93    3.39
   3   8   7    7.79    5.24
  -3  -8  -8   65.16    8.17
   3   8   8   61.80   10.99
  -3  -9   0    1.97    5.99
   3   9   0    4.05    5.43
   3   9   0    2.29    3.30
  -3  -9  -1    5.08    5.48
   3   9   1   -2.53    5.21
   3   9   1    2.17    3.03
  -3  -9  -2   24.02    8.06
   3   9   2   16.84    7.10
   3   9   2   24.18    6.02
  -3  -9  -3  226.97   15.10
   3   9   3  215.34   15.74
   3   9   3  212.23   11.34
  -3  -9  -4    2.52    4.95
   3   9   4    4.69    4.88
   3   9   4    0.29    2.83
  -3  -9  -5   26.23    8.42
   3   9   5   27.92   14.86
  -3  -9  -6   12.08    5.40
   3   9   6   11.46    8.25
   4  -9  -3    3.26    2.69
  -4   9   3    1.88    7.62
   4  -9  -2    5.57    7.43
  -4   9   2    2.94    9.45
   4  -9  -1    2.88    3.82
  -4   9   1   10.84    8.08
  -4   8   6   61.79   16.01
  -4   8   6   37.86   10.08
   4  -8  -5   61.49   10.52
  -4   8   5   55.83    9.99
   4  -8  -4    6.27    4.30
  -4   8   4   10.52    7.40
   4  -8  -3   64.87    8.25
  -4   8   3   79.02   14.15
   4  -8  -2  376.92   17.61
  -4   8   2  395.37   22.07
   4  -8  -1   25.21   20.67
  -4   8   1   44.92   12.79
   4  -8   0   12.56   13.40
  -4   8   0   33.58    9.17
   4  -8   1  136.41    9.78
  -4   8  -1  177.57   18.55
  -4   8  -2    3.71    6.21
  -4   8  -2    2.18    3.23
  -4   7   7    6.35   10.67
  -4   7   7    3.63    6.48
  -4   7   6   25.07    9.03
  -4   7   6   22.66    7.50
  -4   7   5   15.27   10.71
  -4   7   5   23.42    9.05
   4  -7  -4   72.28    9.60
  -4   7   4   85.56   12.84
   4  -7  -3   22.50    5.46
  -4   7   3   28.64    9.90
   4  -7  -2  128.94   10.99
  -4   7   2  131.16   14.55
   4  -7  -1  174.83   16.34
  -4   7   1  201.28   15.88
   4  -7   0  128.47    8.53
  -4   7   0  119.24   12.27
  -4   7   0  116.88    7.46
   4  -7   1   15.86   11.19
  -4   7  -1   21.13   11.21
  -4   7  -1   14.85   16.14
  -4   7  -2  176.82   15.00
  -4   7  -2  172.32   11.61
  -4   7  -3   28.86   10.36
  -4   7  -3   35.38    8.27
  -4   7  -4    9.41    6.83
  -4   7  -4    8.53    4.49
  -4   6   7   48.02   12.25
  -4   6   7   48.09    9.38
  -4   6   6   32.93   10.65
  -4   6   6   31.73    8.41
  -4   6   5   11.71   13.64
  -4   6   5    6.98    5.85
  -4   6   4    3.11    8.11
  -4   6   4    0.80    5.57
   4  -6  -3    5.15    3.65
  -4   6   3    6.76    6.25
   4  -6  -2   21.68   13.04
  -4   6   2   26.30    8.01
   4  -6  -1   48.25    6.44
  -4   6   1   55.47    9.39
   4  -6   0  165.75   10.99
  -4   6   0  200.85   16.18
  -4   6   0  181.69   13.42
   4  -6   1    0.69    1.76
  -4   6  -1    0.72    6.49
  -4   6  -1    1.68    3.98
   4  -6   2    2.82    3.37
  -4   6  -2    8.46   10.11
  -4   6  -2    1.20    3.75
  -4   6  -3   29.61   12.28
  -4   6  -3   26.62   16.63
  -4   6  -4  121.53   12.26
  -4   6  -4  130.48   10.78
  -4   6  -5    2.84    5.89
  -4   6  -5    2.36    4.49
  -4   5   8   35.92   15.44
  -4   5   7   56.43   11.49
  -4   5   6    2.68    9.04
  -4   5   6    9.00    7.28
  -4   5   5   44.64   14.86
  -4   5   5   45.26    8.26
  -4   5   4    0.91    7.71
  -4   5   4    8.87    8.09
  -4   5   3    3.30    7.53
  -4   5   3    9.84    7.35
   4  -5  -2   48.91    6.79
  -4   5   2   52.09    8.30
   4  -5  -2   59.06    6.86
   4  -5  -1  279.91   11.88
  -4   5   1  272.86   15.39
   4  -5  -1  299.06   12.07
   4  -5   0  124.96    7.53
  -4   5   0  123.01    9.86
  -4   5   0  116.22    8.19
   4  -5   1  202.51    9.93
  -4   5  -1  208.36   15.84
  -4   5  -1  192.08   10.85
   4  -5   2  149.34    6.57
  -4   5  -2  154.79   13.05
  -4   5  -2  151.83    9.34
  -4   5  -3   12.56    7.24
  -4   5  -3    8.45    3.94
  -4   5  -4  107.23   12.92
  -4   5  -4  109.81   10.28
  -4   5  -5  379.40   21.41
  -4   5  -5  365.64   18.61
  -4   5  -6    3.68    4.97
  -4   5  -6    6.04    5.89
  -4   4   8   14.32   10.47
  -4   4   7   47.79   13.35
  -4   4   6  410.35   23.28
  -4   4   6  411.89   14.55
  -4   4   5   10.67   10.13
  -4   4   5   14.41    4.99
  -4   4   4   49.08   10.96
  -4   4   4   62.12    7.92
  -4   4   3  137.23   15.93
  -4   4   3  156.70   12.03
   4  -4  -3  131.14    4.44
  -4   4   2  255.47   16.65
  -4   4   2  244.18   15.53
   4  -4  -2  263.04   11.11
  -4   4   1    0.74    6.95
  -4   4   1    9.21    9.70
   4  -4  -1    5.56    4.46
   4  -4   0   18.96    4.85
  -4   4   0   15.72    6.32
   4  -4   1  124.48    6.68
  -4   4  -1  145.75   11.74
  -4   4  -1  126.55    7.99
   4  -4   2  137.45    6.50
  -4   4  -2  143.01   16.74
  -4   4  -2  136.66    8.48
   4  -4   3   26.60    2.83
  -4   4  -3   30.11    8.41
  -4   4  -3   32.40    6.63
  -4   4  -4    4.03    5.68
  -4   4  -4    2.83    4.16
  -4   4  -5    4.38    5.47
  -4   4  -5    6.84    5.65
  -4   4  -6    9.97    6.06
  -4   4  -6   16.17    8.14
  -4   4  -7   21.09    6.91
  -4   3   8    0.43    8.67
  -4   3   7   48.18   15.83
  -4   3   6  345.29   23.01
  -4   3   6  321.40   13.18
  -4   3   5  252.81   18.37
  -4   3   5  247.38   12.54
   4  -3  -5  265.34    8.72
  -4   3   4  467.93   22.84
  -4   3   4  485.61   15.93
   4  -3  -4  507.02    8.75
  -4   3   3    4.69    9.56
  -4   3   3    0.53    4.96
   4  -3  -3   -0.33    0.85
   4  -3  -3    1.73    2.72
  -4   3   2  473.10   19.39
  -4   3   2  494.50   18.13
   4  -3  -2  493.51   12.04
  -4   3   1  466.70   16.69
  -4   3   1  476.85   17.86
   4  -3  -1  484.63   13.38
  -4   3   0  204.04   11.22
  -4   3   0  186.00   14.74
   4  -3   0  180.29   11.24
  -4   3  -1   65.70    7.27
  -4   3  -1   65.00   10.60
  -4   3  -1   54.08    5.23
  -4   3  -2   90.69    6.54
  -4   3  -2   87.41   10.88
  -4   3  -2   96.40    8.20
  -4   3  -3  264.68    7.38
  -4   3  -3  271.46   19.08
  -4   3  -3  285.15   12.56
  -4   3  -4   77.89    9.57
  -4   3  -4  102.39   10.11
  -4   3  -5    7.49    5.32
  -4   3  -5    7.22    9.02
  -4   3  -6  124.16   10.68
  -4   3  -6  128.54   29.09
  -4   3  -7  104.33   10.74
  -4   3  -7  106.38   11.84
  -4   3  -8    2.71    3.34
  -4   2   8    4.95    9.82
  -4   2   7    1.51   10.21
  -4   2   6   44.21   17.54
   4  -2  -6   38.10    3.67
  -4   2   5   28.56   10.42
  -4   2   5   32.33    5.53
   4  -2  -5   35.69    3.60
  -4   2   4   93.87   13.73
  -4   2   4   85.59    7.58
   4  -2  -4   90.18    4.95
  -4   2   3  145.51   15.10
  -4   2   3  159.43   13.34
   4  -2  -3  148.82    5.86
  -4   2   2  399.68   18.58
  -4   2   2  418.54   17.32
   4  -2  -2  402.80   13.82
  -4   2   1  137.56   10.91
  -4   2   1  146.98   10.18
   4  -2  -1  161.97   11.42
  -4   2   0 3333.35   67.01
  -4   2   0 3537.54   70.43
   4  -2   0 3462.85   69.07
  -4   2  -1   26.63    5.02
  -4   2  -1   34.03    9.50
   4  -2   1   31.13    7.18
  -4   2  -2   36.90    2.46
  -4   2  -2   33.29    4.57
  -4   2  -2   40.73    8.82
  -4   2  -2   31.41    5.31
  -4   2  -3    1.09    2.20
  -4   2  -4  128.04   13.16
  -4   2  -4  130.96   11.26
  -4   2  -5   82.48    9.23
  -4   2  -5   66.07    8.59
  -4   2  -6    2.42    4.94
  -4   2  -6    1.87    3.24
  -4   2  -7  317.04   15.70
  -4   2  -7  333.53   18.02
  -4   2  -8    0.89    3.20
  -4   1   8   66.67   17.61
  -4   1   7    5.88   10.52
   4  -1  -7    4.21    2.30
  -4   1   6  150.45   18.22
   4  -1  -6  143.50    7.23
  -4   1   5  409.80   27.54
  -4   1   5  359.50   12.58
   4  -1  -5  402.23   14.25
  -4   1   4  144.12   19.67
  -4   1   4  127.79    7.67
   4  -1  -4  147.24    7.02
  -4   1   3  445.11   21.59
  -4   1   3  420.16   11.89
   4  -1  -3  450.40   10.74
  -4   1   2  133.37   12.53
  -4   1   2  137.24    9.73
   4  -1  -2  131.58    9.79
  -4   1   1    6.39    6.93
  -4   1   1   11.52    4.33
   4  -1  -1   17.72    9.94
  -4   1   0 3791.83   38.30
  -4   1   0 3603.55   88.54
   4  -1   0 3736.57   40.37
  -4   1  -1 9689.24  169.56
  -4   1  -1 9999.98   62.74
   4  -1   1 9923.35   65.51
  -4   1  -2    5.36    3.15
  -4   1  -2    5.76    5.44
  -4   1  -2    9.09    6.20
   4  -1   2    6.15   10.38
  -4   1  -3    5.87    4.91
  -4   1  -3    8.08    4.17
  -4   1  -4  180.33   12.14
  -4   1  -4  186.45   11.73
  -4   1  -5  186.72   11.38
  -4   1  -5  188.33   12.68
  -4   1  -6  203.50   14.61
  -4   1  -6  190.78   12.61
  -4   1  -7    4.44    4.08
  -4   1  -7    1.48    4.69
  -4   1  -8   11.16    5.44
  -4   1  -8    7.68    7.15
  -4   1  -9    2.30    3.80
  -4   0   8  115.56   17.42
   4   0  -8  115.40    8.43
  -4   0   7    1.32   12.24
   4   0  -7   -0.60    2.67
  -4   0   6  283.81   21.69
   4   0  -6  324.18   12.09
  -4   0   5  108.15   21.18
   4   0  -5  128.67    7.79
  -4   0   4   79.10   16.60
  -4   0   4   67.53    4.06
   4   0  -4   76.91    6.32
  -4   0   3  199.15   17.07
  -4   0   3  192.41    7.78
   4   0  -3  195.18    8.45
  -4   0   2   73.59   12.56
  -4   0   2   73.24    5.63
   4   0  -2   90.13    7.92
  -4   0   1  145.61   13.99
  -4   0   1  128.44    7.21
   4   0  -1  140.26    9.78
  -4   0   0  922.03   28.72
  -4   0   0  912.14   27.28
   4   0   0  937.88   28.41
  -4   0  -1 1478.48   40.00
  -4   0  -1 1495.40   41.10
   4   0   1 1369.24   39.53
  -4   0  -2   79.01    5.68
   4   0   2   74.12    4.78
  -4   0  -2   73.87    9.26
   4   0   2   73.39    8.39
  -4   0  -3  203.85    5.98
   4   0   3  196.66    6.06
  -4   0  -3  201.39   11.22
   4   0   3  203.90   15.35
  -4   0  -4  186.87   11.75
   4   0   4  173.18   16.47
  -4   0  -5   17.10    7.28
  -4   0  -5    7.73    5.13
  -4   0  -6    2.05    4.44
  -4   0  -6    6.40    5.53
  -4   0  -7  121.76    9.19
  -4   0  -7   84.20    8.75
  -4   0  -8   11.84    5.17
  -4   0  -8    3.32    8.56
  -4   0  -9   35.09    9.43
  -4  -1   8    4.93    9.25
   4   1  -8    6.09    6.66
  -4  -1   7   38.75   11.87
   4   1  -7   57.59    5.80
  -4  -1   6    3.41    9.70
   4   1  -6    5.74    3.88
  -4  -1   5  222.95   20.14
   4   1  -5  265.68   10.18
  -4  -1   4    4.47   12.85
  -4  -1   4    3.45    2.22
   4   1  -4   -0.23    3.02
  -4  -1   3   82.64   15.36
  -4  -1   3   84.27    4.82
   4   1  -3   86.48    6.59
  -4  -1   2  494.46   22.86
  -4  -1   2  482.85   13.64
   4   1  -2  483.78   14.77
  -4  -1   1   16.73   10.03
  -4  -1   1   16.35    3.93
   4   1  -1    5.99    7.83
  -4  -1   0   18.57    7.99
  -4  -1   0   18.17    4.84
   4   1   0   23.84    6.40
  -4  -1  -1  247.16   13.81
  -4  -1  -1  254.61   12.55
   4   1   1  243.47   15.21
  -4  -1  -2  290.44   11.59
  -4  -1  -2  291.42   14.87
   4   1   2  279.63   14.65
  -4  -1  -3 1386.42   27.54
   4   1   3 1392.38   29.20
  -4  -1  -3 1484.06   36.78
   4   1   3 1486.48   39.61
  -4  -1  -4  162.52    3.89
   4   1   4  152.15    6.22
  -4  -1  -4  146.27   10.50
   4   1   4  153.53   15.45
  -4  -1  -5  249.93    7.13
  -4  -1  -5  260.95   13.85
   4   1   5  265.61   18.08
  -4  -1  -6  274.73   14.38
   4   1   6  323.79   23.01
  -4  -1  -7  588.92   23.71
  -4  -1  -8   31.16    5.48
  -4  -1  -8   30.02    7.13
  -4  -1  -9    7.80    4.74
  -4  -1  -9    1.15    4.36
  -4  -2   7    8.29    9.00
   4   2  -7    2.40    3.61
  -4  -2   6   54.06   11.13
   4   2  -6   67.24    6.25
  -4  -2   5    6.70    8.70
   4   2  -5   15.10    5.66
  -4  -2   4   34.62   16.58
   4   2  -4   51.96    2.94
   4   2  -4   64.75    6.81
  -4  -2   3   -4.48   10.73
  -4  -2   3    0.52    1.20
   4   2  -3    2.68    4.68
  -4  -2   2   49.99   16.70
  -4  -2   2   48.67    3.87
   4   2  -2   56.08    8.13
  -4  -2   1  476.90   21.53
  -4  -2   1  499.21   14.44
   4   2  -1  466.14   17.12
  -4  -2   0  388.85   16.26
  -4  -2   0  374.89   13.21
   4   2   0  389.54   17.38
  -4  -2  -1  149.51   10.92
  -4  -2  -1  135.92    8.66
   4   2   1  153.86   15.13
  -4  -2  -2  644.83   19.13
  -4  -2  -2  621.35   19.37
   4   2   2  606.83   22.30
  -4  -2  -3  382.98   12.29
  -4  -2  -3  376.43   15.84
   4   2   3  351.40   18.69
  -4  -2  -4   35.67    2.95
  -4  -2  -4   36.97    6.66
   4   2   4   39.99   12.32
  -4  -2  -5  130.05    5.34
  -4  -2  -5  133.26   10.96
   4   2   5  141.39   15.01
  -4  -2  -6   82.68    4.46
  -4  -2  -6   92.53    8.77
   4   2   6   97.97   18.31
  -4  -2  -7  170.67   11.96
   4   2   7  169.24   16.63
  -4  -2  -8  223.95   11.30
   4   2   8  248.36   21.11
  -4  -2  -9    1.84    2.80
   4   2   9    4.87    8.01
  -4  -3   7  121.02   16.52
   4   3  -7  130.45   10.38
  -4  -3   6    7.33   10.72
   4   3  -6   12.50    4.16
  -4  -3   5    2.80    9.51
   4   3  -5    1.29    3.87
  -4  -3   4  491.70   26.68
   4   3  -4  495.33   15.80
  -4  -3   3  468.91   26.27
   4   3  -3  450.07   10.22
   4   3  -3  440.15   15.08
  -4  -3   2   13.11   13.78
  -4  -3   2   11.29    6.36
   4   3  -2   13.88    5.14
  -4  -3   1  233.38   18.02
  -4  -3   1  267.77    9.50
   4   3  -1  229.71   10.84
  -4  -3   0  190.53   14.63
  -4  -3   0  187.15    9.09
   4   3   0  182.65   12.84
  -4  -3  -1  806.83   26.13
  -4  -3  -1  840.03   22.14
   4   3   1  796.10   27.35
  -4  -3  -2  346.82   15.64
  -4  -3  -2  320.73   13.58
   4   3   2  328.45   16.94
  -4  -3  -3   27.45    6.11
  -4  -3  -3   34.10    7.63
   4   3   3   22.40   11.33
  -4  -3  -4   17.54    4.46
  -4  -3  -4   18.24    6.69
   4   3   4   18.27    8.76
  -4  -3  -5   22.66    2.99
  -4  -3  -5   24.23    7.91
   4   3   5   14.98    9.66
  -4  -3  -6    9.97    2.63
  -4  -3  -6   11.13    5.43
   4   3   6    8.83   10.01
  -4  -3  -7  121.29    9.94
   4   3   7  112.88   14.79
  -4  -3  -8   28.50    6.61
   4   3   8   26.30   10.56
  -4  -3  -9   73.79    8.32
   4   3   9   68.39   11.80
  -4  -4   6   -3.09    8.47
   4   4  -6    7.24    6.91
  -4  -4   5   -8.55   10.84
   4   4  -5    3.22    4.51
  -4  -4   4  100.52   15.27
   4   4  -4   96.10    9.20
  -4  -4   3  307.54   25.40
   4   4  -3  285.58    8.80
   4   4  -3  291.41   14.06
  -4  -4   2   58.44   10.49
   4   4  -2   66.77    5.17
   4   4  -2   63.98    7.59
  -4  -4   1   13.00   12.50
  -4  -4   1   16.60    4.70
   4   4  -1   12.36    4.98
  -4  -4   0   50.42    5.00
   4   4   0   44.98    9.38
  -4  -4  -1   48.74   12.35
  -4  -4  -1   48.62    6.74
   4   4   1   51.47    8.57
  -4  -4  -2   -0.35    6.75
  -4  -4  -2   -0.39    3.37
   4   4   2   -5.31    8.18
  -4  -4  -3  214.73   11.40
  -4  -4  -3  188.02   14.71
   4   4   3  205.70   17.40
  -4  -4  -4   42.17    6.26
  -4  -4  -4   34.89   20.79
   4   4   4   39.62   10.74
  -4  -4  -5   81.29    5.52
  -4  -4  -5   86.37    9.40
   4   4   5   82.66   11.62
  -4  -4  -6    0.84    2.00
  -4  -4  -6   -0.35    2.55
   4   4   6    1.40    8.07
  -4  -4  -7   27.41    4.22
  -4  -4  -7   32.39   24.47
   4   4   7   29.07   11.10
  -4  -4  -8   17.90   18.56
   4   4   8   26.03   10.03
  -4  -4  -9   20.55   22.74
   4   4   9   25.97   11.30
  -4  -5   5  129.33   13.67
   4   5  -5  151.44   11.27
  -4  -5   4   11.10    9.34
   4   5  -4    6.58    4.13
  -4  -5   3    5.79    9.40
   4   5  -3   13.43    4.00
   4   5  -3   10.42    5.26
  -4  -5   2   58.18   10.83
   4   5  -2   55.58    5.66
   4   5  -2   63.45    8.32
  -4  -5   1  109.48   11.30
   4   5  -1  116.05    9.65
   4   5  -1  113.87   10.81
  -4  -5   0  292.39   15.61
   4   5   0  287.27   11.10
   4   5   0  276.54   15.60
  -4  -5  -1  316.17   17.86
  -4  -5  -1  322.77   14.50
   4   5   1  284.67   15.49
  -4  -5  -2  490.47   19.65
  -4  -5  -2  458.18   14.78
   4   5   2  419.80   17.84
  -4  -5  -3  634.39   17.55
  -4  -5  -3  663.27   37.16
   4   5   3  633.51   29.43
  -4  -5  -4   15.67    3.73
  -4  -5  -4   18.23   10.25
   4   5   4   19.09    8.43
  -4  -5  -5   37.25    4.59
  -4  -5  -5   32.71   23.95
   4   5   5   32.94    8.66
  -4  -5  -6  162.66    8.69
  -4  -5  -6  165.64   14.68
   4   5   6  150.05   15.26
  -4  -5  -7   25.48    4.27
  -4  -5  -7   29.39    8.64
   4   5   7   22.72    7.31
  -4  -5  -8   23.59    6.52
   4   5   8   15.15    7.58
   4   5   9    3.36    6.18
  -4  -6   4   12.99    7.46
   4   6  -4   16.17    5.11
  -4  -6   3   -1.50    9.27
   4   6  -3    2.49    4.15
  -4  -6   2    8.71   11.41
   4   6  -2    6.41    5.39
   4   6  -2    8.87    5.79
  -4  -6   1    8.67    7.92
   4   6  -1   -1.10    3.52
   4   6  -1    3.19    4.60
  -4  -6   0   94.64   13.37
   4   6   0   96.67    8.53
   4   6   0   95.28    8.93
  -4  -6  -1  145.37   11.51
   4   6   1  131.06    9.97
   4   6   1  146.93    9.49
  -4  -6  -2    3.42    5.68
   4   6   2    1.26    4.79
   4   6   2    7.53    9.20
  -4  -6  -3  820.47   20.55
   4   6   3  749.39   21.48
  -4  -6  -4  179.14   11.01
  -4  -6  -4  181.87   12.39
   4   6   4  183.92   15.47
  -4  -6  -5   58.70    5.77
  -4  -6  -5   74.54   10.78
   4   6   5   58.78   10.96
  -4  -6  -6   30.06    5.14
  -4  -6  -6   31.26    7.43
   4   6   6   32.93    9.80
  -4  -6  -7   46.67    6.68
   4   6   7   40.51    8.25
  -4  -6  -8   41.96    6.22
   4   6   8   43.80    8.33
   4   6   8   46.83    8.95
   4   6   9    6.63    4.81
  -4  -7   3  173.17   14.88
   4   7  -3  145.62   12.27
  -4  -7   2    5.14    8.55
   4   7  -2    2.43    3.59
   4   7  -2   -0.94    4.59
  -4  -7   1   90.18   10.39
   4   7  -1  101.24    9.18
   4   7  -1   99.17    9.55
  -4  -7   0   -2.10    6.64
   4   7   0    8.10    5.58
   4   7   0    2.54    4.09
  -4  -7  -1    7.65    7.62
   4   7   1    9.73    6.48
   4   7   1    4.81    4.78
  -4  -7  -2    7.13    8.28
   4   7   2    1.32    4.90
   4   7   2    1.84    4.34
  -4  -7  -3    0.26    4.74
   4   7   3    5.32    6.80
   4   7   3   -0.24    4.60
  -4  -7  -4    3.17    4.96
   4   7   4    5.20    6.24
   4   7   4    3.69    5.38
  -4  -7  -5   43.99    7.13
   4   7   5   42.86    7.86
   4   7   5   40.65    8.01
  -4  -7  -6   36.56    5.58
   4   7   6   36.50    8.38
   4   7   6   45.13    9.85
  -4  -7  -7   23.34    5.32
   4   7   7   20.46    7.29
   4   7   7   15.66    7.87
  -4  -7  -8    2.33    2.62
   4   7   8   -0.75    5.87
  -4  -8   2   32.40   10.93
   4   8  -2   22.57    7.22
  -4  -8   1   44.88   11.12
   4   8  -1   39.18    7.18
   4   8  -1   45.00    6.87
  -4  -8   0   23.16    9.09
   4   8   0   28.90    9.32
   4   8   0   20.13    6.46
  -4  -8  -1   90.46   10.70
   4   8   1  103.25    8.96
   4   8   1  100.11    8.73
  -4  -8  -2    1.88    5.43
   4   8   2    7.30    8.00
   4   8   2    1.80    4.45
  -4  -8  -3   -0.62    5.76
   4   8   3    2.59    5.31
   4   8   3    2.38    3.66
  -4  -8  -4   81.71    9.53
   4   8   4   70.01    9.47
   4   8   4   76.55    9.33
  -4  -8  -5  107.92    9.88
   4   8   5   99.12   10.85
   4   8   5  100.93    9.80
  -4  -8  -6  114.09    9.85
   4   8   6   89.49   10.25
   4   8   6  101.99   12.52
  -4  -8  -7   79.09    8.51
   4   8   7   76.25   10.11
  -4  -9  -1    5.99    6.95
   4   9   1    3.37    5.37
   4   9   1    0.54    3.46
  -4  -9  -2   18.71    5.73
   4   9   2   21.95    7.25
   4   9   2   22.53    5.55
  -4  -9  -3   39.19    6.66
   4   9   3   38.53    9.76
   4   9   3   41.20    7.27
  -4  -9  -4    7.07    8.26
   4   9   4   -0.11    5.11
   4   9   4    5.12    3.43
  -4  -9  -5    4.53    4.24
   4   9   5    4.78    5.44
  -5   8   4    7.74    8.01
  -5   8   4    4.59    8.70
  -5   8   3   14.95    9.24
  -5   8   3   19.03   12.41
   5  -8  -2  212.47   14.05
  -5   8   2  269.63   19.71
   5  -8  -1   15.87    5.12
  -5   8   1   26.47   11.45
   5  -8   0    2.38    3.26
  -5   8   0    0.78    6.89
  -5   8  -1   -0.22    8.18
  -5   7   6   34.65   10.37
  -5   7   6   38.84    7.31
  -5   7   5   34.95   15.00
  -5   7   5   35.61    8.44
  -5   7   4   18.90   12.13
  -5   7   4   14.46    7.46
  -5   7   3   14.66    8.09
  -5   7   3    9.41    7.99
  -5   7   2    9.11   13.15
   5  -7  -1   52.09    7.01
  -5   7   1   71.69   13.43
  -5   7   0   10.31   10.64
  -5   7  -1   48.14   13.72
  -5   7  -1   34.46    5.68
  -5   7  -2   31.75   11.67
  -5   7  -2   29.84   12.66
  -5   7  -3   13.70    7.03
  -5   7  -3    2.31    6.13
  -5   6   7   12.89   10.80
  -5   6   6   24.82    9.25
  -5   6   6   17.85    6.84
  -5   6   5    0.66    9.78
  -5   6   5    3.10    6.05
  -5   6   4   42.64   13.71
  -5   6   4   53.23    9.62
  -5   6   3    6.43    9.09
  -5   6   3    5.59    7.43
  -5   6   2   65.07   11.41
  -5   6   2   48.42    8.51
  -5   6   1   18.75   10.21
  -5   6   1   11.34   11.34
   5  -6   0   51.81    6.39
  -5   6   0   66.19   14.43
   5  -6   1    1.30    1.97
  -5   6  -1    8.25    7.84
  -5   6  -1    8.45    4.90
  -5   6  -2    9.66    9.50
  -5   6  -2    3.09    1.93
  -5   6  -3   69.25   12.77
  -5   6  -3   80.33    8.23
  -5   6  -4  102.14   15.11
  -5   6  -4  104.21   10.54
  -5   5   7   16.59   16.57
  -5   5   6   52.68   11.14
  -5   5   6   64.26    8.21
  -5   5   5   26.01    9.91
  -5   5   5   22.78    6.36
  -5   5   4   11.88    8.80
  -5   5   4    3.52    5.40
  -5   5   3    5.46   12.20
  -5   5   3    3.30    6.12
  -5   5   2   69.17   11.40
  -5   5   2   64.58    9.87
   5  -5  -2   68.09    6.15
  -5   5   1   83.87   12.01
  -5   5   1   74.61   10.23
   5  -5  -1   75.52   10.24
  -5   5   0   81.59    9.87
  -5   5   0   92.20   14.15
   5  -5   0   91.24   10.39
  -5   5  -1    2.60    4.53
  -5   5  -1    5.34    8.11
  -5   5  -1    1.30    3.05
  -5   5  -2    7.42    3.70
  -5   5  -2   11.44    8.49
  -5   5  -2    4.47    6.80
  -5   5  -3    3.36    6.56
  -5   5  -3    3.22    3.19
  -5   5  -4   30.61   10.85
  -5   5  -4    8.67    9.27
  -5   5  -5  270.20   18.26
  -5   5  -5  299.90   18.19
  -5   4   7   46.27   15.30
  -5   4   6  488.69   27.49
  -5   4   5   50.09   17.23
  -5   4   5   53.61    8.37
  -5   4   4   14.64    8.46
  -5   4   4   20.51    8.12
  -5   4   3   93.79   13.50
  -5   4   3   86.55   11.25
   5  -4  -3   80.69    5.28
  -5   4   2    2.00    6.42
  -5   4   2    2.85    7.27
   5  -4  -2    7.46    6.37
  -5   4   1    2.44    6.74
  -5   4   1    0.78    6.83
   5  -4  -1    3.08    5.40
  -5   4   0   33.56    7.97
  -5   4   0   39.90   14.14
   5  -4   0   28.96    7.43
  -5   4  -1  220.66   12.63
  -5   4  -1  241.70   17.73
   5  -4   1  248.38   16.68
  -5   4  -2    3.12    3.56
  -5   4  -2   10.93    9.38
  -5   4  -2    3.99    4.12
  -5   4  -3   42.82   10.51
  -5   4  -3   38.93    6.41
  -5   4  -4    3.54    6.39
  -5   4  -4   -0.35    4.82
  -5   4  -5  102.58   10.68
  -5   4  -5   95.98   10.05
  -5   4  -6   31.11    8.95
  -5   4  -6   17.64   21.77
  -5   3   8    9.99   15.61
  -5   3   7   14.39   11.16
  -5   3   6   11.31   10.43
  -5   3   5  108.08   18.05
  -5   3   5  101.76    9.43
  -5   3   4   13.80    8.78
  -5   3   4    4.90    4.18
   5  -3  -4    9.33    2.48
  -5   3   3   56.39   11.22
  -5   3   3   56.46   11.01
   5  -3  -3   62.55    6.83
  -5   3   2    6.96    7.68
  -5   3   2    0.77    5.72
   5  -3  -2    0.08    4.47
  -5   3   1  299.44   18.49
  -5   3   1  300.04   18.29
   5  -3  -1  295.09   14.26
  -5   3   0   27.05    5.92
  -5   3   0   29.95    6.87
   5  -3   0   34.63    8.70
  -5   3  -1   31.00    6.07
  -5   3  -1   27.04    8.63
   5  -3   1   29.84    9.57
  -5   3  -2    4.64    4.65
  -5   3  -2   13.63    6.73
  -5   3  -3    0.94    1.68
  -5   3  -3    1.13    5.59
  -5   3  -3    1.03    4.94
  -5   3  -4   11.88    8.65
  -5   3  -4   10.11   11.49
  -5   3  -5    7.16    5.38
  -5   3  -5    0.88    5.80
  -5   3  -6  123.38   11.44
  -5   3  -6  129.74   11.33
  -5   3  -7   30.83    9.33
  -5   3  -7   18.99   20.57
  -5   2   8   10.52   15.74
  -5   2   7   31.30   15.95
  -5   2   6   21.42   14.51
  -5   2   5    6.73   11.14
  -5   2   5    5.24    3.95
   5  -2  -5    4.98    3.33
  -5   2   4  166.33   14.95
  -5   2   4  176.58   12.36
   5  -2  -4  166.65    7.85
  -5   2   3  188.13   19.29
  -5   2   3  175.99   11.30
   5  -2  -3  176.00    8.34
  -5   2   2   11.12    9.62
  -5   2   2    2.31    4.62
   5  -2  -2    2.73    4.89
  -5   2   1  145.24   13.93
  -5   2   1  156.87   12.63
   5  -2  -1  165.69   10.51
  -5   2   0  104.71   12.01
  -5   2   0   84.62    9.30
   5  -2   0   90.32   11.13
  -5   2  -1   37.42    6.18
  -5   2  -1   51.75   11.44
   5  -2   1   54.45   10.93
  -5   2  -2    7.46    5.13
  -5   2  -2   -3.12    5.70
   5  -2   2    9.55    8.87
  -5   2  -3   57.53    4.15
  -5   2  -3   67.94   14.01
   5  -2   3   69.09   14.91
  -5   2  -4   -1.06    5.22
  -5   2  -4    2.48    5.35
  -5   2  -5    6.44    5.48
  -5   2  -5    7.41    5.50
  -5   2  -6    8.88    6.96
  -5   2  -6   -0.48    4.76
  -5   2  -7   23.06    7.66
  -5   2  -7   13.95   16.68
  -5   2  -8    0.37    3.84
  -5   2  -8    1.83    4.98
  -5   1   8    1.15   10.16
  -5   1   7    8.53   11.92
   5  -1  -7    1.97    2.46
  -5   1   6   27.45   14.05
   5  -1  -6   21.54    8.17
  -5   1   5   24.36   11.82
   5  -1  -5   33.33    4.95
  -5   1   4   40.21   14.04
  -5   1   4   32.71    4.24
   5  -1  -4   40.39    4.79
  -5   1   3   -0.33   10.84
  -5   1   3   -0.50    3.59
   5  -1  -3    1.55    4.09
  -5   1   2  379.58   25.46
  -5   1   2  361.17   16.64
   5  -1  -2  425.06   19.43
  -5   1   1    6.00    9.40
  -5   1   1    4.29    5.19
   5  -1  -1   -0.28    8.42
  -5   1   0   44.23   14.69
  -5   1   0   34.34    7.32
   5  -1   0   35.85   10.93
  -5   1  -1   40.76    9.62
  -5   1  -1   38.15    9.43
   5  -1   1   50.93   13.50
  -5   1  -2    4.71    5.13
  -5   1  -2    4.34    6.08
   5  -1   2   10.65   10.00
  -5   1  -3    9.73    1.36
  -5   1  -3   11.73    3.92
  -5   1  -3   13.84    6.51
   5  -1   3   10.67   12.96
  -5   1  -4  541.21   21.18
   5  -1   4  598.29   27.31
  -5   1  -5   74.99    9.69
  -5   1  -5   45.01    6.98
  -5   1  -6    4.52    4.93
  -5   1  -6    4.97    6.04
  -5   1  -7    5.91    4.61
  -5   1  -7    0.54    5.10
  -5   1  -8   19.51    7.30
  -5   1  -8   11.25    5.93
  -5   0   7    1.05   11.35
   5   0  -7    0.31    2.83
  -5   0   6   55.85   18.52
   5   0  -6   35.85    5.23
  -5   0   5   57.47   17.37
   5   0  -5   57.57    6.53
  -5   0   4   14.56   10.87
  -5   0   4   21.07    3.34
   5   0  -4   19.28    5.25
  -5   0   3   10.21   11.53
  -5   0   3    9.01    4.38
   5   0  -3   10.30    5.17
  -5   0   2   80.06   17.95
  -5   0   2   80.60    8.55
   5   0  -2   81.82    8.79
  -5   0   1   11.46   15.01
  -5   0   1    7.13    4.65
   5   0  -1    5.21    7.92
  -5   0   0   13.56    8.62
  -5   0   0   25.57    7.55
   5   0   0   19.86    7.86
  -5   0  -1  109.00   10.46
  -5   0  -1  102.69    9.05
   5   0   1  115.43   13.84
  -5   0  -2  159.47    8.21
  -5   0  -2  142.93    9.42
   5   0   2  198.32   18.80
  -5   0  -3   93.69    6.32
   5   0   3   97.43    5.55
  -5   0  -3   90.64    9.66
   5   0   3   85.98   13.53
  -5   0  -4    3.46    6.46
   5   0   4    8.43    9.86
  -5   0  -5   23.08    8.14
   5   0   5   33.57   16.44
  -5   0  -6    2.35    4.89
   5   0   6   10.24   10.61
  -5   0  -7   44.17    7.46
   5   0   7   44.13   15.27
  -5   0  -8   30.05    6.98
   5   0   8   36.55   12.99
   5   0   9    4.64    9.50
  -5  -1   7   10.14   10.26
   5   1  -7    2.79    5.31
  -5  -1   6   17.66   19.12
   5   1  -6    7.84    4.25
  -5  -1   5   46.94   16.37
   5   1  -5   78.27    7.90
  -5  -1   4  525.91   27.01
   5   1  -4  523.23   14.19
  -5  -1   3    5.23   10.68
  -5  -1   3    1.45    2.11
   5   1  -3    1.39    3.89
  -5  -1   2   23.70   12.13
  -5  -1   2   39.51    5.08
   5   1  -2   39.21    7.68
  -5  -1   1   22.02   16.17
  -5  -1   1   21.11    5.67
   5   1  -1   34.61   11.29
  -5  -1   0   47.15   11.45
  -5  -1   0   52.84    7.59
   5   1   0   37.19    9.78
  -5  -1  -1   16.83    9.45
  -5  -1  -1   21.93    7.13
   5   1   1   20.81   11.62
  -5  -1  -2   37.90    8.16
  -5  -1  -2   34.96    6.51
   5   1   2   32.85   10.88
  -5  -1  -3  122.78    7.26
  -5  -1  -3  128.27   10.65
   5   1   3  113.50   13.95
  -5  -1  -4   13.01    2.59
  -5  -1  -4   29.37    8.96
   5   1   4   13.44   11.00
  -5  -1  -5   13.82    7.28
   5   1   5   20.36   10.66
  -5  -1  -6  124.38   10.98
   5   1   6  136.83   18.97
  -5  -1  -7  453.67   18.39
   5   1   7  478.84   27.73
  -5  -1  -8   61.26    7.51
   5   1   8   59.80   11.93
  -5  -1  -9    2.54    3.35
   5   1   9    6.85    9.73
  -5  -2   7   57.78   15.76
   5   2  -7   69.23    7.71
  -5  -2   6   74.99   18.64
   5   2  -6   86.32    7.61
  -5  -2   5   -3.87   10.51
   5   2  -5    3.91    3.62
  -5  -2   4  279.70   21.74
   5   2  -4  262.01   14.49
  -5  -2   3   49.99   11.04
  -5  -2   3   47.14    3.92
   5   2  -3   49.24    6.62
  -5  -2   2    8.53   10.80
  -5  -2   2    2.45    2.36
   5   2  -2    3.89    8.74
  -5  -2   1    2.14   11.75
  -5  -2   1    3.22    3.58
   5   2  -1    6.68   13.39
  -5  -2   0   58.95   12.46
  -5  -2   0   50.40    7.07
   5   2   0   53.60   13.26
  -5  -2  -1  388.14   17.31
  -5  -2  -1  389.28   14.27
   5   2   1  412.88   18.67
  -5  -2  -2   27.05    7.55
  -5  -2  -2   21.39    7.13
   5   2   2   23.57    9.87
  -5  -2  -3  272.60   11.95
  -5  -2  -3  238.01   13.18
   5   2   3  240.92   19.68
  -5  -2  -4   18.19    3.06
  -5  -2  -4   23.23    8.36
   5   2   4   11.30   13.01
  -5  -2  -5   75.23    4.03
  -5  -2  -5   78.44    9.70
   5   2   5   68.51   15.37
  -5  -2  -6   21.35    7.71
   5   2   6    7.85    9.83
  -5  -2  -7  103.40   10.62
   5   2   7  114.05   16.83
  -5  -2  -8   98.51   10.85
   5   2   8  115.00   21.65
  -5  -2  -9    7.57    4.35
   5   2   9    6.84    9.85
  -5  -3   6  105.60   17.61
   5   3  -6  101.80    9.77
  -5  -3   5    5.77   12.77
   5   3  -5    5.40    4.04
  -5  -3   4  157.20   20.58
   5   3  -4  116.51    8.66
  -5  -3   3  684.83   28.43
  -5  -3   3  653.19   11.49
   5   3  -3  632.01   17.30
  -5  -3   2   45.84   13.68
  -5  -3   2   43.61   16.30
   5   3  -2   51.09    8.26
  -5  -3   1    1.34   10.75
  -5  -3   1    1.09    2.93
   5   3  -1    5.54    7.03
  -5  -3   0   20.75   15.12
  -5  -3   0   21.30    4.08
   5   3   0   27.75    7.58
  -5  -3  -1   50.80   10.13
  -5  -3  -1   42.58    7.30
   5   3   1   53.06   11.86
  -5  -3  -2   51.97    7.85
  -5  -3  -2   64.27    8.02
   5   3   2   81.01   16.92
  -5  -3  -3  132.91   10.77
  -5  -3  -3  122.41   10.82
   5   3   3  132.72   14.04
  -5  -3  -4   29.37    4.15
  -5  -3  -4   31.91    7.63
   5   3   4   21.37   13.14
  -5  -3  -5    8.04    3.02
  -5  -3  -5    8.46    5.38
   5   3   5    9.53   10.25
  -5  -3  -6    5.81    2.93
  -5  -3  -6    3.66    4.84
   5   3   6   -0.34    8.92
  -5  -3  -7   44.10    8.73
   5   3   7   39.22   11.23
  -5  -3  -8   21.74    4.86
   5   3   8   20.67   13.09
  -5  -3  -9  171.30   13.52
   5   3   9  166.84   20.04
  -5  -4   5    5.76   10.41
   5   4  -5    0.47    4.23
  -5  -4   4   66.43   16.82
   5   4  -4   66.26    8.74
  -5  -4   3   53.11   11.37
   5   4  -3   62.04    7.00
  -5  -4   2   21.91   16.82
   5   4  -2    9.53    5.44
  -5  -4   1  227.16   19.60
  -5  -4   1  207.15   10.03
   5   4  -1  217.02   14.06
  -5  -4   0  181.57   18.93
  -5  -4   0  190.06   13.55
   5   4   0  182.14   14.72
  -5  -4  -1   20.09    8.23
  -5  -4  -1   27.64   14.90
   5   4   1   40.84   14.46
  -5  -4  -2   67.33    8.92
  -5  -4  -2   58.03    7.45
   5   4   2   64.61   17.67
  -5  -4  -3  131.89    9.43
  -5  -4  -3  144.25   11.76
   5   4   3  134.70   16.44
  -5  -4  -4    8.51    4.97
  -5  -4  -4   14.92    6.79
   5   4   4    5.08   10.46
  -5  -4  -5  175.01    7.91
  -5  -4  -5  183.62   12.28
   5   4   5  168.72   17.59
  -5  -4  -6   24.46    3.96
  -5  -4  -6   18.76    5.28
   5   4   6   29.26   10.24
  -5  -4  -7   51.77   11.38
   5   4   7   46.90   13.40
  -5  -4  -8    7.85    7.15
   5   4   8   15.14    9.52
  -5  -4  -9    9.33   14.97
   5   4   9   14.50    7.75
  -5  -5   5    4.96    8.57
   5   5  -5    0.08    4.42
  -5  -5   4   42.93   13.33
   5   5  -4   37.50    7.21
  -5  -5   3   19.59    9.57
   5   5  -3   36.91    6.90
  -5  -5   2   -0.76    8.37
   5   5  -2    1.56    2.72
   5   5  -2    5.23    5.44
  -5  -5   1  343.62   21.15
   5   5  -1  358.99   13.98
   5   5  -1  313.41   15.20
  -5  -5   0   -3.30    8.43
  -5  -5   0    3.52    3.74
   5   5   0    3.04    6.59
  -5  -5  -1  136.07   13.24
  -5  -5  -1  137.06   11.67
   5   5   1  134.39   15.10
  -5  -5  -2    4.54    5.80
  -5  -5  -2    3.93    5.06
   5   5   2   11.24    8.18
  -5  -5  -3  499.66   16.79
  -5  -5  -3  468.13   17.85
   5   5   3  464.37   21.41
  -5  -5  -4    2.13    4.87
  -5  -5  -4    1.49    2.58
   5   5   4    4.67    9.25
  -5  -5  -5    2.55    2.85
  -5  -5  -5    1.32    4.31
   5   5   5    6.76    8.86
  -5  -5  -6    1.64    3.39
  -5  -5  -6    3.12    1.93
   5   5   6   -0.22    8.00
  -5  -5  -7   11.54    3.53
  -5  -5  -7   10.76    9.54
   5   5   7    4.99    9.43
  -5  -5  -8   11.07   13.89
   5   5   8    6.31    7.28
  -5  -6   3  148.94   18.42
   5   6  -3  169.69   14.06
  -5  -6   2   56.58    9.72
   5   6  -2   56.60    6.34
   5   6  -2   49.37    7.87
  -5  -6   1   -1.35    8.78
   5   6  -1   -1.39    2.99
   5   6  -1    5.99    4.80
  -5  -6   0   25.01   10.72
   5   6   0   31.94    7.73
   5   6   0   30.83    7.71
  -5  -6  -1    9.67    6.56
   5   6   1    1.74    4.94
   5   6   1    4.16    5.44
  -5  -6  -2   50.78    7.76
  -5  -6  -2   60.51    9.05
   5   6   2   60.67   10.70
  -5  -6  -3   18.77    8.41
  -5  -6  -3   27.61    7.99
   5   6   3   23.09   12.01
  -5  -6  -4  353.34   15.42
  -5  -6  -4  363.17   16.37
   5   6   4  343.75   19.07
  -5  -6  -5    8.80    5.11
  -5  -6  -5   20.78    8.70
   5   6   5    8.79    9.32
  -5  -6  -6    5.64    4.05
  -5  -6  -6    9.08    6.57
   5   6   6    9.28    7.22
  -5  -6  -7   36.94    5.58
  -5  -6  -7   55.33   10.01
   5   6   7   38.29   10.06
  -5  -6  -8   19.08    5.45
   5   6   8   15.86    7.98
  -5  -7   2    4.68    8.23
   5   7  -2    2.58    4.35
  -5  -7   1   27.75   12.44
   5   7  -1   24.10    6.45
   5   7  -1   32.71    9.73
  -5  -7   0    4.60    7.09
   5   7   0    1.77    4.13
   5   7   0   -1.07    5.10
  -5  -7  -1   17.61    9.83
   5   7   1   10.68    6.02
   5   7   1    9.88    5.32
  -5  -7  -2   51.25    9.81
   5   7   2   56.33    9.69
   5   7   2   58.19   11.74
  -5  -7  -3   16.64    7.77
   5   7   3   17.53    7.24
   5   7   3   18.40    5.81
  -5  -7  -4   11.70    4.77
   5   7   4   10.12    5.71
   5   7   4   14.82    9.57
  -5  -7  -5   68.19    7.68
   5   7   5   49.58    8.82
   5   7   5   54.54   12.16
  -5  -7  -6    2.73    3.77
   5   7   6   -3.45    6.17
   5   7   6    6.66    7.04
  -5  -7  -7    6.34    4.53
   5   7   7    6.98    8.85
   5   7   7    7.20    9.02
  -5  -8   0    5.16    7.97
   5   8   0    3.00    7.01
   5   8   0    9.04    6.16
  -5  -8  -1   -0.24    5.85
   5   8   1    6.45    4.43
   5   8   1    3.02    4.79
  -5  -8  -2    1.76    6.44
   5   8   2    3.75    6.14
   5   8   2    5.93    4.45
  -5  -8  -3   50.73   10.75
   5   8   3   44.28    8.03
   5   8   3   36.76    8.99
  -5  -8  -4   13.84    4.79
   5   8   4   22.79    8.18
   5   8   4   22.71    7.29
  -5  -8  -5   14.06    4.81
   5   8   5   21.05    7.93
   5   8   5   24.03   10.78
  -5  -8  -6   56.00    7.73
   5   8   6   54.36    9.75
   5   8   6   56.61   10.61
  -6   7   4   14.54   11.17
  -6   7   4    3.76    6.57
  -6   7   3   24.68   12.87
  -6   7   3   12.71    8.26
  -6   7   2    7.64   10.61
  -6   7   2    0.98    7.98
  -6   7   1   58.71   12.15
  -6   7   1   53.60   12.99
  -6   7   0    7.12    6.48
  -6   7   0   23.28   13.89
  -6   7  -1    3.93    7.26
  -6   6   5   20.01    9.91
  -6   6   5   22.01    9.25
  -6   6   4   11.17    8.22
  -6   6   4    4.45    8.95
  -6   6   3    4.45    7.61
  -6   6   3   13.15   10.15
  -6   6   2    3.86    5.95
  -6   6   2    6.96    8.05
  -6   6   1  118.65   12.96
  -6   6   1  104.84   17.17
  -6   6   0   41.95    8.78
  -6   6   0   30.33   10.77
  -6   6  -1  142.79   17.79
   6  -6   1  148.75   16.18
  -6   6  -2   42.97   14.22
   6  -6   2   30.37    8.36
  -6   6  -3    7.76    9.72
  -6   6  -3    8.81    4.49
  -6   5   6   91.48   16.32
  -6   5   5   36.95   11.76
  -6   5   5   32.37    9.45
  -6   5   4   23.64   13.77
  -6   5   4   25.83   10.03
  -6   5   3   28.72   11.30
  -6   5   3   10.65    6.42
  -6   5   2   42.53    9.39
  -6   5   2   36.65   11.49
  -6   5   1    6.37    6.38
  -6   5   1    3.05    7.66
   6  -5  -1    4.48    4.83
  -6   5   0   27.19    7.46
  -6   5   0   21.97    9.44
   6  -5   0   33.23    8.31
  -6   5  -1   88.73    8.82
  -6   5  -1  101.76   14.15
   6  -5   1  106.78   11.25
  -6   5  -2   81.99   12.87
   6  -5   2   98.14   13.19
  -6   5  -3   21.87   10.05
  -6   5  -3   26.87    7.37
  -6   5  -4    3.95    5.58
  -6   5  -4    3.78    5.43
  -6   5  -5   41.34   11.61
  -6   5  -5   32.36    7.12
  -6   4   6  199.77   19.23
  -6   4   5  158.02   18.24
  -6   4   5  162.44   11.88
  -6   4   4   33.26   13.79
  -6   4   4   23.94    6.82
  -6   4   3   33.25   14.70
  -6   4   3   26.66    8.92
  -6   4   2  201.83   16.93
  -6   4   2  176.13   15.52
   6  -4  -2  191.76   11.36
  -6   4   1  174.99   15.30
  -6   4   1  191.46   15.87
   6  -4  -1  144.14   10.09
  -6   4   0   54.94    8.61
  -6   4   0   44.80   12.38
   6  -4   0   52.44    9.02
  -6   4  -1   38.00    8.97
  -6   4  -1   44.59   12.55
   6  -4   1   37.41    9.97
  -6   4  -2    7.58   10.54
   6  -4   2    4.70    7.82
  -6   4  -3   86.37   11.38
   6  -4   3  125.43   15.02
  -6   4  -4    9.44    8.52
  -6   4  -4    8.83    7.33
  -6   4  -5    1.18    5.35
  -6   4  -5    2.56    4.60
  -6   4  -6   26.26    9.18
  -6   4  -6   28.92    8.41
  -6   3   7   -0.07   12.20
  -6   3   6    2.93   11.06
  -6   3   5  101.85   17.79
  -6   3   5   91.11    8.65
  -6   3   4   18.49    9.15
  -6   3   4   25.30    7.73
  -6   3   3  211.80   18.65
  -6   3   3  227.11   17.63
   6  -3  -3  237.86   12.59
  -6   3   2   44.11   11.24
  -6   3   2   27.34    8.85
   6  -3  -2   39.91    7.52
  -6   3   1   32.49   11.25
  -6   3   1   27.37    8.68
   6  -3  -1   28.26    6.69
  -6   3   0  217.57   14.31
  -6   3   0  244.35   19.85
   6  -3   0  215.31   15.32
  -6   3  -1    2.00    5.14
  -6   3  -1    0.64    7.50
   6  -3   1    8.05   11.53
  -6   3  -2    3.75    6.53
  -6   3  -2    8.19    9.18
   6  -3   2    2.77    7.80
  -6   3  -3    3.78    6.02
   6  -3   3   18.12   13.50
  -6   3  -4  112.75   12.47
   6  -3   4  118.44   19.33
  -6   3  -5   41.77    9.69
  -6   3  -5   35.84    7.37
  -6   3  -6    1.23    5.21
  -6   3  -6    1.87    6.05
  -6   2   7    5.53   11.48
  -6   2   6   27.26   12.81
  -6   2   5  188.80   21.17
  -6   2   4   87.38   18.40
  -6   2   4   96.48    8.79
  -6   2   3  120.97   16.85
  -6   2   3  124.10    9.16
   6  -2  -3  141.39   10.20
  -6   2   2    5.20    8.40
  -6   2   2    1.01    4.57
   6  -2  -2    9.37    6.88
  -6   2   1   54.98   12.68
  -6   2   1   62.66   11.78
   6  -2  -1   55.14   10.53
  -6   2   0 1128.57   31.37
  -6   2   0 1157.46   32.75
   6  -2   0 1144.27   32.39
  -6   2  -1 2660.52   38.93
  -6   2  -1 2591.94   46.91
   6  -2   1 2451.41   77.90
  -6   2  -2   29.76    7.52
  -6   2  -2   31.41    6.89
   6  -2   2   35.00   11.02
  -6   2  -3    7.23    6.13
   6  -2   3    8.30    9.04
  -6   2  -4   30.92    6.43
   6  -2   4   58.50   13.03
  -6   2  -5   55.86    8.68
   6  -2   5   97.36   15.54
  -6   2  -6   33.14    8.32
   6  -2   6   40.40   14.76
  -6   2  -7    0.40    5.22
  -6   1   7   12.03   10.06
  -6   1   6  138.39   20.41
  -6   1   5   51.97   22.06
   6  -1  -5   50.91    5.36
  -6   1   4    3.97   10.75
  -6   1   4    9.11    4.39
   6  -1  -4    2.95    3.16
  -6   1   3  130.96   18.69
  -6   1   3  127.38    9.52
   6  -1  -3  116.41    7.94
  -6   1   2  114.79   17.99
  -6   1   2  101.74    9.45
   6  -1  -2  124.57   12.70
  -6   1   1    5.47    7.90
  -6   1   1    9.88    7.25
   6  -1  -1    3.75    8.62
  -6   1   0  108.01   13.56
  -6   1   0  101.79   10.50
   6  -1   0  139.72   14.74
  -6   1  -1 1767.33   36.78
  -6   1  -1 1810.11   36.65
   6  -1   1 1736.64   40.82
  -6   1  -2  710.86   18.77
  -6   1  -2  689.16   23.90
   6  -1   2  729.45   26.52
  -6   1  -3   43.29    5.03
  -6   1  -3   40.33    9.41
   6  -1   3   56.40   13.23
  -6   1  -4    5.05    5.32
   6  -1   4   -0.68    9.21
  -6   1  -5   30.39    8.84
   6  -1   5   33.49   14.62
  -6   1  -6    7.20    5.64
   6  -1   6   10.05   11.63
  -6   1  -7  115.49   11.29
   6  -1   7  126.28   21.51
   6  -1   8    8.92   17.17
  -6   0   6    3.14   11.53
   6   0  -6    4.06    4.14
  -6   0   5  236.68   22.28
   6   0  -5  263.49   10.56
  -6   0   4   13.22   13.75
  -6   0   4   19.86    4.63
   6   0  -4   26.47    5.17
  -6   0   3  132.51   16.57
  -6   0   3  118.78    8.18
   6   0  -3  131.25   10.00
  -6   0   2  161.47   21.93
  -6   0   2  158.77   10.53
   6   0  -2  160.61   12.88
  -6   0   1   10.39    8.54
  -6   0   1   25.20    6.47
  -6   0   0   14.21   11.85
  -6   0   0   16.95    8.80
   6   0   0   10.87    9.53
  -6   0  -1    6.59    6.58
  -6   0  -1    4.34    7.90
   6   0   1    4.42   14.85
  -6   0  -2  103.75    9.13
  -6   0  -2   91.74   12.83
   6   0   2  125.33   17.82
  -6   0  -3  414.97   16.15
  -6   0  -3  395.94   20.57
   6   0   3  412.18   26.10
  -6   0  -4    3.58    6.19
   6   0   4    0.71   10.37
  -6   0  -5  164.34   13.77
   6   0   5  197.04   20.47
  -6   0  -6   61.35    9.50
   6   0   6   55.65   15.40
  -6   0  -7  107.64   10.64
   6   0   7  121.82   18.87
  -6   0  -8    3.17    4.87
   6   0   8    6.60   10.41
  -6  -1   6    5.93   11.37
   6   1  -6    2.01    3.94
  -6  -1   5   63.70   16.70
   6   1  -5   58.52    8.55
  -6  -1   4    6.91   14.28
   6   1  -4    0.82    3.73
  -6  -1   3    6.64   11.34
  -6  -1   3    4.08    2.26
   6   1  -3    1.09    4.70
  -6  -1   2   -3.35    8.94
  -6  -1   2    3.33    3.05
   6   1  -2   -2.10    5.73
  -6  -1   1  274.39   17.40
  -6  -1   1  281.05   12.91
   6   1  -1  303.06   17.51
  -6  -1   0   51.50   12.12
  -6  -1   0   44.53    7.94
   6   1   0   34.69    9.70
  -6  -1  -1    3.72    7.81
  -6  -1  -1    3.53    5.60
   6   1   1   -3.42   12.00
  -6  -1  -2  258.55   13.66
  -6  -1  -2  223.34   13.05
   6   1   2  251.11   20.62
  -6  -1  -3  455.43   18.51
  -6  -1  -3  437.72   22.55
   6   1   3  429.39   25.46
  -6  -1  -4  243.33    7.73
  -6  -1  -4  224.54   15.25
   6   1   4  200.32   16.39
  -6  -1  -5   65.82    8.19
   6   1   5   61.47   13.37
  -6  -1  -6    7.98    6.06
   6   1   6    6.84    9.83
  -6  -1  -7  226.35   14.58
   6   1   7  230.38   23.91
  -6  -1  -8  205.92   15.50
   6   1   8  192.26   21.78
  -6  -2   6    6.46   11.56
   6   2  -6    1.30    3.42
  -6  -2   5    9.49   11.21
   6   2  -5   16.60    3.94
  -6  -2   4   98.97   17.70
   6   2  -4  102.73    8.05
  -6  -2   3  135.27   24.01
  -6  -2   3  130.15    6.81
   6   2  -3  126.73    9.57
  -6  -2   2    9.89   10.05
  -6  -2   2    2.76    2.84
   6   2  -2    1.82    5.33
  -6  -2   1   28.43   12.13
  -6  -2   1   26.57    5.34
   6   2  -1   29.25    9.62
  -6  -2   0  136.15   14.04
  -6  -2   0  144.30   11.66
   6   2   0  160.62   20.11
  -6  -2  -1  422.01   21.10
  -6  -2  -1  403.61   17.60
   6   2   1  458.24   21.90
  -6  -2  -2   47.18    8.66
  -6  -2  -2   53.74    7.95
   6   2   2   57.65   14.18
  -6  -2  -3   -0.12    4.61
  -6  -2  -3   -0.63    5.11
   6   2   3    9.37   11.05
  -6  -2  -4   16.91    5.18
  -6  -2  -4   15.22    7.66
   6   2   4   19.10   11.16
  -6  -2  -5   14.75    5.48
   6   2   5   16.59   11.91
  -6  -2  -6    1.93    5.09
   6   2   6    5.72   11.32
  -6  -2  -7   85.24   11.21
   6   2   7   88.40   14.55
  -6  -2  -8   82.43    9.24
   6   2   8   96.97   16.70
  -6  -3   5    6.72   10.45
   6   3  -5    4.36    5.66
  -6  -3   4   20.11   14.90
   6   3  -4   13.27    4.61
  -6  -3   3  484.96   28.80
   6   3  -3  516.26   17.01
  -6  -3   2  113.24   17.26
  -6  -3   2   97.50    6.95
   6   3  -2  105.57   10.67
  -6  -3   1    5.81    8.73
  -6  -3   1    6.95    3.82
   6   3  -1    8.41    6.47
  -6  -3   0  144.03   14.53
  -6  -3   0  142.08    9.84
   6   3   0  142.84   14.75
  -6  -3  -1  108.01   14.55
  -6  -3  -1  105.74   11.22
   6   3   1   95.79   14.10
  -6  -3  -2   31.26    9.50
  -6  -3  -2   40.45    8.34
   6   3   2   28.25   10.27
  -6  -3  -3  154.75   10.27
  -6  -3  -3  169.23   14.10
   6   3   3  136.07   14.90
  -6  -3  -4   63.23    6.97
  -6  -3  -4   63.34   10.06
   6   3   4   47.42   12.60
  -6  -3  -5   26.88    3.94
  -6  -3  -5   28.05    9.85
   6   3   5   35.09   11.52
  -6  -3  -6   12.25    5.46
   6   3   6   19.09    9.79
  -6  -3  -7   10.61    7.24
   6   3   7   14.28   11.07
  -6  -3  -8    0.89    4.28
   6   3   8    4.62   10.68
  -6  -4   4   -0.49   11.62
   6   4  -4    7.26    4.76
  -6  -4   3    3.04   10.83
   6   4  -3    4.43    5.01
  -6  -4   2   -3.10   11.72
  -6  -4   2    0.00    2.65
   6   4  -2   -0.83    5.37
  -6  -4   1    7.27    8.58
  -6  -4   1    2.79    3.94
   6   4  -1    0.96    7.23
  -6  -4   0   68.29   10.30
  -6  -4   0   80.71    7.72
   6   4   0  118.76   18.61
  -6  -4  -1   73.09   12.00
  -6  -4  -1   81.87    8.64
   6   4   1  102.35   21.70
  -6  -4  -2   36.80    9.62
  -6  -4  -2   60.22   11.10
   6   4   2   44.01   14.85
  -6  -4  -3  212.02   21.85
  -6  -4  -3  230.84   14.54
   6   4   3  241.92   20.02
  -6  -4  -4    5.89    5.11
  -6  -4  -5   24.47    4.71
  -6  -4  -5   27.05    9.71
   6   4   5   36.69   12.42
  -6  -4  -6  124.77   11.88
   6   4   6   99.29   14.97
  -6  -4  -7   16.47    7.59
   6   4   7   11.43   11.00
  -6  -4  -8   10.66   10.45
   6   4   8    5.46    8.07
  -6  -5   3   -0.60   10.75
   6   5  -3    3.92    4.38
  -6  -5   2    5.99   10.00
   6   5  -2    2.00    3.00
   6   5  -2    1.68    4.80
  -6  -5   1   35.05   41.50
  -6  -5   1   44.82    6.09
   6   5  -1   44.32   10.01
  -6  -5   0  181.50   18.18
  -6  -5   0  157.85    9.69
   6   5   0  151.38   13.88
  -6  -5  -1   74.40   13.37
  -6  -5  -1   73.85   11.35
   6   5   1   83.64   10.38
  -6  -5  -2  183.67   15.03
  -6  -5  -2  144.59   11.96
   6   5   2  173.08   20.41
  -6  -5  -3  767.77   21.99
  -6  -5  -3  744.11   21.19
   6   5   3  729.70   30.39
  -6  -5  -4  143.27    9.66
  -6  -5  -4  174.30   12.38
   6   5   4  176.79   18.48
  -6  -5  -5    4.88    2.96
  -6  -5  -5    2.34    4.15
   6   5   5   26.34   15.44
  -6  -5  -6   49.35    5.26
  -6  -5  -6   32.65   27.58
   6   5   6   39.89   14.39
  -6  -5  -7   48.65   14.63
   6   5   7   45.36   11.34
  -6  -5  -8   37.80    6.22
   6   5   8   23.65    9.77
  -6  -6   2    7.73   10.95
   6   6  -2   -0.19    5.29
  -6  -6   1   33.71    9.95
   6   6  -1   33.12    8.14
   6   6  -1   24.12    6.66
  -6  -6   0   -1.48    8.98
   6   6   0    5.28    5.94
   6   6   0    1.83    5.80
  -6  -6  -1   12.88    8.34
  -6  -6  -1   16.02    6.50
   6   6   1   15.39    7.71
  -6  -6  -2   31.77   10.35
  -6  -6  -2   25.16    8.90
   6   6   2   22.64   11.30
  -6  -6  -3    4.31    5.66
   6   6   3   -0.44    7.36
  -6  -6  -4   88.21   10.15
  -6  -6  -4   79.38   24.69
   6   6   4   84.19   15.89
  -6  -6  -5    3.76    4.86
   6   6   5    0.14    8.91
  -6  -6  -6   50.43    6.40
  -6  -6  -6   54.63   16.81
   6   6   6   39.19    9.65
  -6  -6  -7    4.07    4.91
   6   6   7    6.91   10.65
  -6  -7   1    1.85   10.03
   6   7  -1    5.44    5.40
   6   7  -1    0.49    4.37
  -6  -7   0   51.50    9.59
   6   7   0   49.75    8.47
   6   7   0   36.56   11.84
  -6  -7  -1   19.29    7.95
   6   7   1   22.65    7.55
   6   7   1   15.40    6.35
  -6  -7  -2    5.23    6.31
   6   7   2   10.63    6.85
   6   7   2    6.69    6.28
  -6  -7  -3    0.58    5.04
   6   7   3    5.59    5.25
   6   7   3    5.70    7.37
  -6  -7  -4   18.81    7.00
  -6  -7  -4   10.73    8.52
   6   7   4   19.04    7.24
  -6  -7  -5  153.42   13.11
  -6  -7  -5  136.35   16.18
   6   7   5  114.90   14.01
  -6  -7  -6   36.23    6.32
  -6  -7  -6   46.66   10.49
   6   7   6   31.00   11.65
  -6  -8  -2   48.91   10.67
   6   8   2   54.30   10.04
   6   8   2   55.60   11.53
  -6  -8  -3   24.23    7.68
   6   8   3   25.50    8.39
   6   8   3   29.62    8.60
  -7   6   3    6.57    8.58
  -7   6   3    7.88    6.25
  -7   6   2   12.24    8.73
  -7   6   2   22.78    9.93
  -7   6   1   17.08    7.46
  -7   6   1   27.91    9.75
  -7   6   0    2.87    8.23
  -7   6  -1   17.06   12.35
  -7   5   4    2.86    8.63
  -7   5   4    3.34    5.26
  -7   5   3    9.32    8.94
  -7   5   3   10.69    8.07
  -7   5   2    8.07    9.39
  -7   5   2    1.44    7.16
  -7   5   1   17.81    9.62
  -7   5   1   18.67    8.19
  -7   5   0   -2.31    5.71
  -7   5   0    3.92    7.67
   7  -5   0    2.51    6.43
  -7   5  -1   73.61   14.69
   7  -5   1   89.60   14.81
  -7   5  -2    2.95    8.85
   7  -5   2   -2.60    8.16
  -7   5  -3    7.13    7.27
   7  -5   3   11.15    9.53
  -7   4   5  193.07   24.40
  -7   4   4   -0.64    8.48
  -7   4   4   10.86    7.19
  -7   4   3   56.25   13.00
  -7   4   3   68.09   14.28
  -7   4   2   14.54   10.07
  -7   4   2   23.31    9.85
  -7   4   1   35.77   10.66
  -7   4   1   28.80   10.81
   7  -4  -1   28.01    9.13
  -7   4   0   23.32    8.43
  -7   4   0   49.25   12.83
   7  -4   0   31.49    9.36
  -7   4  -1   10.74    6.65
  -7   4  -1   18.00    9.78
   7  -4   1    0.37    6.36
  -7   4  -2    7.58    7.06
   7  -4   2    7.37    7.89
  -7   4  -3    5.85    8.85
   7  -4   3    5.30    9.86
  -7   4  -4    8.78    7.43
   7  -4   4    9.12    9.25
  -7   3   5    8.39   13.73
  -7   3   4   30.69   13.77
  -7   3   4   34.87    6.64
  -7   3   3   12.56   10.55
  -7   3   3   19.85    6.34
  -7   3   2   -0.50    7.34
  -7   3   2    9.62    7.62
   7  -3  -2    5.34    7.02
  -7   3   1   10.02   10.61
  -7   3   1    5.54    6.64
   7  -3  -1    9.01    5.73
  -7   3   0   98.33   11.25
  -7   3   0   97.72   11.33
   7  -3   0   94.09   11.23
  -7   3  -1    2.39    5.26
  -7   3  -1    2.54    6.89
   7  -3   1    2.89    7.60
  -7   3  -2    1.33    7.27
   7  -3   2    6.37   10.24
  -7   3  -3    9.82    6.64
   7  -3   3    9.04    8.83
  -7   3  -4    1.57    6.28
   7  -3   4   -1.71    8.73
  -7   3  -5   -0.41    4.95
   7  -3   5    8.53    9.96
  -7   2   6   11.90   15.53
  -7   2   5   12.53   12.78
  -7   2   4   21.22   10.29
  -7   2   4   33.14    6.91
  -7   2   3   65.97   17.54
  -7   2   3   48.71    8.83
   7  -2  -3   58.17    8.74
  -7   2   2  149.06   16.79
  -7   2   2  152.17   12.23
   7  -2  -2  157.90   13.01
  -7   2   1   22.13   10.99
  -7   2   1   22.74    8.07
   7  -2  -1   24.29    9.12
  -7   2   0   35.00   10.36
  -7   2   0   34.56    9.21
   7  -2   0   27.48    8.29
  -7   2  -1    1.43    5.65
  -7   2  -1    2.62    6.76
   7  -2   1    3.95    8.46
  -7   2  -2   30.90    6.94
  -7   2  -2   37.18   10.12
   7  -2   2   22.94    9.81
  -7   2  -3    2.03    6.87
   7  -2   3    7.14   10.90
  -7   2  -4  153.96   14.14
   7  -2   4  155.40   20.96
  -7   2  -5    9.09    8.10
   7  -2   5    6.43   12.25
  -7   2  -6    5.73    5.47
   7  -2   6   13.90   13.45
  -7   1   6    5.71   13.57
  -7   1   5    4.64   10.68
   7  -1  -5    2.81    4.18
  -7   1   4   14.78   12.45
   7  -1  -4   11.99   11.38
  -7   1   3    2.84   11.10
  -7   1   3    7.29    5.90
   7  -1  -3    7.90    4.83
  -7   1   2   23.73   14.39
  -7   1   2   11.79    6.23
   7  -1  -2   20.98    7.06
  -7   1   1   20.19   10.88
  -7   1   1   19.12    6.72
   7  -1  -1   16.62    6.88
  -7   1   0    3.11    7.89
  -7   1   0    4.60    5.76
   7  -1   0    5.80    8.71
  -7   1  -1   34.07    8.78
  -7   1  -1   45.95    9.16
   7  -1   1   36.74   13.07
  -7   1  -2    6.63    7.12
  -7   1  -2    4.56    6.97
   7  -1   2    3.68   10.21
  -7   1  -3   34.30    9.94
   7  -1   3   19.51    9.27
  -7   1  -4    2.71    6.55
   7  -1   4    1.28    9.18
  -7   1  -5   92.05   12.37
   7  -1   5  101.97   19.00
  -7   1  -6   29.68    8.87
   7  -1   6   35.67   13.39
  -7   1  -7    9.12    8.44
   7  -1   7   17.95   12.66
  -7   0   5   38.75   11.73
   7   0  -5   37.87    5.94
  -7   0   4  216.23   22.08
   7   0  -4  246.58   11.64
  -7   0   3   13.07   11.24
  -7   0   3    5.80    4.31
   7   0  -3   14.55    6.69
  -7   0   2   21.29   11.52
  -7   0   2   14.81    5.32
   7   0  -2   20.47    7.33
  -7   0   1   19.18    9.36
  -7   0   1   28.08    5.92
   7   0  -1   25.63    8.12
  -7   0   0   12.46    9.03
  -7   0   0    9.68    5.53
   7   0   0   10.39    9.19
  -7   0  -1    1.00    6.05
  -7   0  -1    0.41    5.47
   7   0   1    2.21   10.09
  -7   0  -2   18.41    8.72
  -7   0  -2   19.33   10.26
   7   0   2   15.20    9.71
  -7   0  -3   68.21    7.24
  -7   0  -3   63.44   10.14
   7   0   3   51.82    9.93
  -7   0  -4    6.39    8.00
   7   0   4   10.41   10.17
  -7   0  -5    4.00    6.15
   7   0   5    2.42   10.65
  -7   0  -6   27.39    7.01
   7   0   6   28.70   15.88
  -7   0  -7   94.70   12.90
   7   0   7   86.85   17.55
  -7  -1   5    6.30   12.45
   7   1  -5   10.65    5.72
  -7  -1   4   55.20   16.85
   7   1  -4   58.53    8.03
  -7  -1   3   75.69   16.55
  -7  -1   3   95.63    8.00
   7   1  -3   94.63    9.34
  -7  -1   2   17.47   15.67
  -7  -1   2    3.72    5.17
   7   1  -2    1.69    5.94
  -7  -1   1    1.06    9.57
  -7  -1   1    8.29    6.50
   7   1  -1    2.59    7.80
  -7  -1   0   10.50    8.63
  -7  -1   0   11.87    6.31
   7   1   0   20.41   12.56
  -7  -1  -1  131.25   12.83
  -7  -1  -1  132.82   11.26
   7   1   1  147.13   16.82
  -7  -1  -2   -5.39    5.58
  -7  -1  -2   -0.81    6.49
   7   1   2    6.46    9.58
  -7  -1  -3   48.67   18.61
  -7  -1  -3   59.22    9.76
   7   1   3   42.71   14.97
  -7  -1  -4    4.12    7.48
   7   1   4    5.99   12.66
  -7  -1  -5   50.32    8.33
   7   1   5   48.91   15.49
  -7  -1  -6    5.24    5.85
   7   1   6   -1.86   10.74
  -7  -1  -7  110.98   11.20
   7   1   7  109.50   19.08
  -7  -2   5   46.29   15.08
   7   2  -5   54.49    7.80
  -7  -2   4   71.39   15.81
   7   2  -4   68.19    7.38
  -7  -2   3  357.89   29.05
   7   2  -3  324.78   25.39
  -7  -2   2   11.06   10.32
  -7  -2   2    6.90    3.75
   7   2  -2    4.99    6.71
  -7  -2   1    7.30   10.95
  -7  -2   1    3.40    3.53
   7   2  -1    4.91    7.71
  -7  -2   0    8.34   11.45
  -7  -2   0    3.68    3.88
   7   2   0    9.10    8.62
  -7  -2  -1    2.27    8.62
  -7  -2  -1    1.10    4.37
   7   2   1    4.96   12.11
  -7  -2  -2    4.51    7.93
  -7  -2  -2    4.59    4.50
   7   2   2    5.41   11.56
  -7  -2  -3   65.22   18.24
  -7  -2  -3   68.92    8.62
   7   2   3   75.85   19.22
  -7  -2  -4   29.83   15.21
  -7  -2  -4   41.15   10.02
   7   2   4   33.05   12.53
  -7  -2  -5    0.25    5.60
   7   2   5    2.38   10.03
  -7  -2  -6    9.82    8.06
   7   2   6    3.68   10.24
  -7  -2  -7   21.58    8.21
   7   2   7   18.87   12.40
  -7  -3   4   40.31   18.90
   7   3  -4   17.81    7.33
  -7  -3   3  140.11   16.84
   7   3  -3  148.38   12.31
  -7  -3   2   48.48   12.00
  -7  -3   2   46.61    9.86
   7   3  -2   49.33    9.97
  -7  -3   1   93.08   17.14
  -7  -3   1  105.71    9.48
   7   3  -1   84.00   11.83
  -7  -3   0   30.30   14.86
  -7  -3   0   11.92    6.23
   7   3   0   19.89   12.11
  -7  -3  -1   38.33   11.18
  -7  -3  -1   24.84    6.68
   7   3   1   25.01   10.39
  -7  -3  -2   43.02    9.26
  -7  -3  -2   43.10   11.01
   7   3   2   25.82   11.37
  -7  -3  -3   76.42    8.12
  -7  -3  -3   87.19   11.13
   7   3   3   84.31   17.85
  -7  -3  -4   30.01    5.51
  -7  -3  -4   25.34    7.91
   7   3   4   25.39   14.83
  -7  -3  -5   50.30   10.59
   7   3   5   32.57   11.90
  -7  -3  -6   26.82    9.21
   7   3   6   14.18   12.08
  -7  -3  -7    4.48    7.83
   7   3   7    8.88   11.38
  -7  -4   3   -2.24    9.93
   7   4  -3    3.80    5.62
  -7  -4   2   11.78   10.94
   7   4  -2    3.06    6.04
  -7  -4   1  122.62   17.54
  -7  -4   1  136.71   11.92
   7   4  -1  129.80   14.08
  -7  -4   0   50.43   16.34
  -7  -4   0   48.79   16.74
   7   4   0   58.39   13.07
  -7  -4  -1  127.76   16.54
  -7  -4  -1  126.95    9.04
   7   4   1  136.35   18.02
  -7  -4  -2   33.27    8.82
  -7  -4  -2   33.91    8.61
   7   4   2   38.17   14.49
  -7  -4  -3   77.21    8.85
  -7  -4  -3   89.86   10.75
   7   4   3   95.87   12.88
  -7  -4  -4   -0.08    3.66
  -7  -4  -4    0.43    4.69
   7   4   4    9.82   11.09
  -7  -4  -5    9.51    7.79
   7   4   5    3.67   11.90
  -7  -4  -6   21.98    8.76
   7   4   6   15.81   14.95
  -7  -4  -7   23.32    9.40
   7   4   7   12.77   10.63
  -7  -5   2   86.21   15.35
   7   5  -2   87.50   10.67
  -7  -5   1   25.92   26.99
  -7  -5   1   26.43    5.67
   7   5  -1   29.96    8.86
  -7  -5   0   94.75   13.66
  -7  -5   0   96.83   15.35
   7   5   0  118.54   14.40
  -7  -5  -1   17.54    8.04
  -7  -5  -1   11.06    9.64
   7   5   1   31.80   12.51
  -7  -5  -2   -2.17    5.74
  -7  -5  -2    1.66    4.32
   7   5   2   60.97   13.26
  -7  -5  -3   33.53    9.54
  -7  -5  -3   27.57   14.46
   7   5   3   35.06   11.28
  -7  -5  -4  290.50   13.71
  -7  -5  -4  300.69   15.03
   7   5   4  308.45   25.12
  -7  -5  -5    2.33    3.35
  -7  -5  -5    1.08    5.55
   7   5   5   -0.90    9.77
  -7  -5  -6    8.11    7.16
   7   5   6   10.05   10.36
  -7  -6   1    7.67    8.94
   7   6  -1    5.01    4.23
   7   6  -1    6.08    6.61
  -7  -6   0   15.40    9.54
   7   6   0    2.61    7.65
  -7  -6  -1    3.24    6.72
  -7  -6  -1    1.21    3.90
   7   6   1   -0.68    6.55
  -7  -6  -2    7.44    6.75
  -7  -6  -2    4.01    3.93
   7   6   2    6.28    8.52
  -7  -6  -3   44.79    8.96
  -7  -6  -3   36.81   28.08
   7   6   3   39.68   13.35
  -7  -6  -4   43.02    9.71
  -7  -6  -4   46.20   11.11
   7   6   4   43.01   13.36
  -7  -6  -5   12.59    5.46
  -7  -6  -5    9.48    9.99
   7   6   5   27.09   14.00
   7   6   6    2.35    9.07
  -7  -7  -2    3.73    6.18
   7   7   2   11.11    6.21
   7   7   2    6.24    6.52
  -7  -7  -3    1.43    5.66
   7   7   3    4.75    7.16
  -8   5   1   48.74   11.70
  -8   5   1   52.84   12.64
  -8   5   0   10.06    7.92
  -8   4   3   52.54   18.45
  -8   4   3   52.13    8.72
  -8   4   2   19.15   13.60
  -8   4   2    3.99    5.62
  -8   4   1   65.63   13.31
  -8   4   1   47.75   10.91
  -8   4   0    5.28    7.50
   8  -4   0    2.71    7.60
  -8   4  -1    1.36    6.73
   8  -4   1    6.19    7.91
  -8   4  -2    7.88    8.40
   8  -4   2    8.76   13.45
   8  -4   3    0.36    8.71
  -8   3   4   17.65   13.12
  -8   3   3    5.09    9.08
  -8   3   3    6.44    7.44
  -8   3   2   30.72   12.05
  -8   3   2   31.09    9.22
  -8   3   1   32.62   13.14
  -8   3   1   30.56    8.79
   8  -3  -1   21.00    9.99
  -8   3   0  144.97   16.21
  -8   3   0  155.37   14.71
   8  -3   0  150.65   14.85
  -8   3  -1  533.83   26.85
   8  -3   1  432.51   23.81
  -8   3  -2    9.94    8.28
   8  -3   2   13.54   12.64
  -8   3  -3    3.86    5.72
   8  -3   3   -1.65    8.73
  -8   3  -4    7.07    9.43
   8  -3   4    1.64    9.79
  -8   2   4   28.13   18.44
  -8   2   3   86.47   17.79
  -8   2   3   85.73   11.57
  -8   2   2   66.10   12.66
  -8   2   2   56.14    9.22
   8  -2  -2   68.61   10.22
  -8   2   1    3.41    8.06
  -8   2   1    1.63    5.00
   8  -2  -1    0.49    6.02
  -8   2   0    0.68    6.60
  -8   2   0    3.68    6.96
   8  -2   0   -0.37    7.77
  -8   2  -1 1090.14   31.28
  -8   2  -1 1004.57   35.24
   8  -2   1  966.94   33.40
  -8   2  -2  502.20   23.91
   8  -2   2  450.15   25.42
  -8   2  -3    3.57    7.52
   8  -2   3    9.20    9.57
  -8   2  -4    6.20    5.86
   8  -2   4    8.64    9.13
  -8   2  -5   42.27   11.66
   8  -2   5   33.15   16.03
  -8   1   4   11.55   11.76
  -8   1   3   63.01   16.35
  -8   1   3   42.15    7.95
   8  -1  -3   33.42    7.71
  -8   1   2   56.86   12.97
  -8   1   2   65.07    8.31
   8  -1  -2   55.07    9.15
  -8   1   1    3.63    7.53
  -8   1   1    1.80    5.46
   8  -1  -1    2.36    6.83
  -8   1   0    3.05    6.33
  -8   1   0   -0.86    5.99
   8  -1   0    2.80    7.25
  -8   1  -1    6.44    5.87
  -8   1  -1    2.95    6.48
   8  -1   1   -0.50    8.03
  -8   1  -2  139.55   13.55
   8  -1   2  132.69   18.15
  -8   1  -3    8.74    9.41
   8  -1   3    0.04    9.99
  -8   1  -4   15.43    8.29
   8  -1   4   20.00   15.94
  -8   1  -5   25.49    9.82
   8  -1   5   15.80   13.64
  -8   0   4   22.48   13.72
   8   0  -4   20.34   10.39
  -8   0   3   15.33   10.58
   8   0  -3    9.42    5.44
  -8   0   2   36.38   14.59
  -8   0   2   24.29    6.50
   8   0  -2   29.91    9.66
  -8   0   1   93.29   12.69
  -8   0   1   92.34    9.59
   8   0  -1   97.35   12.64
  -8   0   0    1.84    7.02
  -8   0   0    3.34    5.35
   8   0   0    3.30    7.45
  -8   0  -1    0.20    5.51
  -8   0  -1    0.97    5.95
   8   0   1   -1.95    9.51
  -8   0  -2   66.69   10.04
  -8   0  -2   32.28   10.35
   8   0   2   43.41   12.05
  -8   0  -3  243.73   16.07
   8   0   3  172.73   19.21
  -8   0  -4  109.85   13.60
   8   0   4  103.95   15.69
  -8   0  -5    1.17    5.03
   8   0   5   -6.00   10.96
  -8   0  -6   54.72   11.93
   8   0   6   38.17   15.36
  -8  -1   4    8.66   11.23
   8   1  -4    0.17    4.40
  -8  -1   3   19.82   11.69
   8   1  -3   33.57    8.79
  -8  -1   2    7.79    9.48
  -8  -1   2   -0.25    3.07
   8   1  -2    2.30    5.29
  -8  -1   1   10.49   11.57
  -8  -1   1    4.33    3.83
   8   1  -1   -0.91    6.82
  -8  -1   0   76.51   11.62
  -8  -1   0   80.59    9.66
   8   1   0  105.98   19.06
  -8  -1  -1  137.92   13.38
  -8  -1  -1  120.38   13.03
   8   1   1  123.10   14.50
  -8  -1  -2   28.83    9.28
  -8  -1  -2   29.41    7.38
   8   1   2   25.46   10.20
  -8  -1  -3   11.09    9.64
   8   1   3   16.50   11.75
  -8  -1  -4   48.85   10.31
   8   1   4   61.46   16.20
  -8  -1  -5    7.35    5.23
   8   1   5   20.50   15.60
  -8  -1  -6   10.71    6.81
   8   1   6   31.81   14.47
  -8  -2   3  247.09   26.56
   8   2  -3  248.30   15.87
  -8  -2   2   42.63   14.63
  -8  -2   2   43.34    6.37
   8   2  -2   52.89    9.29
  -8  -2   1    0.76    8.47
  -8  -2   1    4.53    3.53
   8   2  -1    7.32    7.01
  -8  -2   0   67.09   11.35
  -8  -2   0   76.78    9.97
   8   2   0   77.56   14.09
  -8  -2  -1   80.19   11.91
  -8  -2  -1   67.01   10.26
   8   2   1  107.75   20.15
  -8  -2  -2   46.80   10.00
  -8  -2  -2   56.03   10.39
   8   2   2   57.11   12.54
  -8  -2  -3   54.45    9.28
  -8  -2  -3   51.28    8.62
   8   2   3   61.32   16.10
  -8  -2  -4   15.44    6.33
   8   2   4   29.67   14.40
  -8  -2  -5    3.23    5.56
   8   2   5    1.96   12.89
  -8  -2  -6   12.56    7.44
   8   2   6    2.11   13.42
  -8  -3   2   82.83   18.28
   8   3  -2   89.68   11.97
  -8  -3   1    7.84   13.17
  -8  -3   1    4.80    3.51
   8   3  -1   10.30    7.62
  -8  -3   0   35.26   11.59
  -8  -3   0   45.95    6.54
   8   3   0   36.93   13.98
  -8  -3  -1   -1.85    6.54
  -8  -3  -1    1.94    4.09
   8   3   1   -0.59   10.04
  -8  -3  -2    1.73    6.35
  -8  -3  -2    3.77    5.23
   8   3   2    6.04    9.88
  -8  -3  -3   73.41   12.36
  -8  -3  -3   69.31   11.88
   8   3   3   49.56   12.13
  -8  -3  -4    0.90    5.67
   8   3   4    2.35   12.23
  -8  -3  -5   33.96    9.40
   8   3   5   37.36   13.29
  -8  -3  -6   38.73    9.48
   8   3   6   24.29   11.81
  -8  -4   1   52.04   14.32
  -8  -4   1   27.33   25.21
   8   4  -1   66.21   16.94
  -8  -4   0   54.86   10.70
  -8  -4   0   50.95   19.11
   8   4   0   56.89   11.04
  -8  -4  -1   20.80   10.11
  -8  -4  -1   12.44   12.16
   8   4   1   14.19    7.47
  -8  -4  -2  130.66   13.72
  -8  -4  -2  109.25   10.96
   8   4   2  122.32   18.11
  -8  -4  -3  262.24   16.33
  -8  -4  -3  286.85   18.88
   8   4   3  244.12   23.75
  -8  -4  -4   68.53   11.20
   8   4   4   84.92   19.49
  -8  -4  -5    6.55    6.37
   8   4   5    1.57   10.92
  -8  -5   0    5.83    7.75
   8   5   0    3.98    7.36
  -8  -5  -1   57.56   13.54
  -8  -5  -1   30.38   25.98
   8   5   1   60.78   16.04
  -8  -5  -2    5.08    6.61
  -8  -5  -2    5.65    4.80
   8   5   2   14.01   15.00
  -8  -5  -3   55.50   10.12
  -8  -5  -3   34.26   18.68
   8   5   3   75.21   15.45
  -8  -5  -4  232.73   13.26
  -8  -5  -4  222.54   16.01
   8   5   4  229.33   22.45
  -9   2   1   13.12    8.06
  -9   2   1   24.33    7.92
   9  -2  -1   24.36   10.29
  -9   2   0    1.75    7.09
  -9   2   0    6.81    6.77
   9  -2   0    4.96    7.62
  -9   2  -1   15.42    7.61
   9  -2   1   30.78   11.51
  -9   2  -2    0.07    5.64
   9  -2   2    1.43    8.61
  -9   1   1    0.57    9.50
  -9   1   1    6.99    5.38
   9  -1  -1    3.45    7.13
  -9   1   0    5.18   10.20
  -9   1   0    4.11    5.58
   9  -1   0    6.47    8.18
  -9   1  -1    2.04    5.54
   9  -1   1   -3.42    9.04
  -9   1  -2   15.39    8.61
   9  -1   2    9.00   10.82
  -9   1  -3   11.45    9.45
   9  -1   3   12.35   13.60
  -9   0   1    2.37    8.78
  -9   0   1    2.96    4.64
   9   0  -1   -1.75    7.00
  -9   0   0   -0.32    7.52
  -9   0   0    3.23    5.41
   9   0   0    3.86    7.51
  -9   0  -1   25.87   11.86
  -9   0  -1   16.45    6.87
   9   0   1   18.49   13.98
  -9   0  -2    4.60    6.87
   9   0   2    7.10   12.70
  -9   0  -3   14.39    6.37
   9   0   3   15.80   10.62
  -9  -1   1    4.08    9.23
  -9  -1   1    2.06    3.57
   9   1  -1    0.01    7.29
  -9  -1   0    1.24    8.32
  -9  -1   0    3.87    4.23
   9   1   0    4.91    9.03
  -9  -1  -1    9.07   10.38
  -9  -1  -1   -2.68    4.49
   9   1   1    1.76    8.33
  -9  -1  -2   16.53    7.58
   9   1   2   17.48   11.10
  -9  -1  -3   19.76    8.74
   9   1   3    8.31   12.60
  -9  -1  -4   18.05    9.78
   9   1   4   10.52   12.22
  -9  -2   0    2.53    8.79
  -9  -2   0    1.78    3.65
   9   2   0   -4.35    7.02
  -9  -2  -1   11.66   10.26
  -9  -2  -1    9.87    6.27
   9   2   1   10.08   13.76
  -9  -2  -2    3.07    6.63
  -9  -2  -2    9.40    7.24
   9   2   2    6.11   11.66
  -9  -2  -3    4.65    5.81
   9   2   3   11.38   11.56
   9   2   4   34.38   11.06
  -9  -3  -1   41.15   12.02
  -9  -3  -1   28.60    8.31
   9   3   1   34.20   14.18
  -9  -3  -2   45.61   11.65
  -9  -3  -2   41.52    9.11
   9   3   2   47.73   16.47
  -9  -3  -3    7.99    5.14
   9   3   3   10.40   10.01
   0   0   0    0.00    0.00
;
_shelx_hkl_checksum              623
loop_
_space_group_symop_operation_xyz
'x, y, z'
loop_
_atom_site_label
_atom_site_type_symbol
_atom_site_fract_x
_atom_site_fract_y
_atom_site_fract_z
_atom_site_U_iso_or_equiv
_atom_site_adp_type
_atom_site_occupancy
_atom_site_site_symmetry_order
_atom_site_calc_flag
_atom_site_refinement_flags_posn
_atom_site_refinement_flags_adp
_atom_site_refinement_flags_occupancy
_atom_site_disorder_assembly
_atom_site_disorder_group
C1 C 0.858(2) 0.9750(17) 0.2714(16) 0.030(2) Uani 0.5 1 d . U P A 1
H1A H 0.965988 0.985252 0.335832 0.036 Uiso 0.5 1 calc R U P A 1
H1B H 0.750785 1.042800 0.309027 0.036 Uiso 0.5 1 calc R U P A 1
C2 C 0.9093(13) 1.0352(13) 0.0723(8) 0.0227(19) Uani 0.5 1 d G U P A 1
C3 C 0.9735(16) 1.2017(11) -0.0321(14) 0.030(2) Uani 0.5 1 d G U P A 1
H3A H 0.994195 1.293959 0.020618 0.036 Uiso 0.5 1 calc R U P A 1
C4 C 1.0075(19) 1.2331(11) -0.2137(13) 0.035(3) Uani 0.5 1 d G U P A 1
H4A H 1.051382 1.346869 -0.285066 0.042 Uiso 0.5 1 calc R U P A 1
C5 C 0.977(2) 1.0981(15) -0.2909(8) 0.036(3) Uani 0.5 1 d G U P A 1
H5A H 1.000482 1.119553 -0.415017 0.044 Uiso 0.5 1 calc R U P A 1
C6 C 0.9131(17) 0.9316(12) -0.1865(12) 0.030(2) Uani 0.5 1 d G U P A 1
H6A H 0.892390 0.839324 -0.239284 0.036 Uiso 0.5 1 calc R U P A 1
C7 C 0.8791(13) 0.9002(9) -0.0049(11) 0.0237(18) Uani 0.5 1 d G U P A 1
C8 C 0.8139(14) 0.7441(11) 0.1364(9) 0.0256(19) Uani 0.5 1 d G U P A 1
C9 C 0.7595(16) 0.5736(13) 0.1385(11) 0.027(2) Uani 0.5 1 d G U P A 1
H9A H 0.762196 0.541798 0.031274 0.032 Uiso 0.5 1 calc R U P A 1
C10 C 0.7013(17) 0.4496(9) 0.2976(16) 0.035(3) Uani 0.5 1 d G U P A 1
H10A H 0.664139 0.333048 0.299023 0.043 Uiso 0.5 1 calc R U P A 1
C11 C 0.697(2) 0.4961(13) 0.4545(11) 0.040(3) Uani 0.5 1 d G U P A 1
H11A H 0.657572 0.411356 0.563196 0.047 Uiso 0.5 1 calc R U P A 1
C12 C 0.7517(19) 0.6666(15) 0.4524(9) 0.037(3) Uani 0.5 1 d G U P A 1
H12A H 0.749063 0.698416 0.559622 0.044 Uiso 0.5 1 calc R U P A 1
C13 C 0.8100(14) 0.7906(9) 0.2933(13) 0.024(2) Uani 0.5 1 d G U P A 1
C1' C 0.838(2) 0.7158(16) -0.0613(16) 0.030(2) Uani 0.5 1 d . U P B 2
H1'A H 0.725459 0.707761 -0.120617 0.036 Uiso 0.5 1 calc R U P B 2
H1'B H 0.938063 0.640270 -0.098602 0.036 Uiso 0.5 1 calc R U P B 2
C2' C 0.9043(14) 0.9135(9) -0.1021(13) 0.027(2) Uani 0.5 1 d G U P B 2
C3' C 0.9655(19) 1.0408(14) -0.2580(9) 0.031(2) Uani 0.5 1 d G U P B 2
H3'A H 0.973128 1.011577 -0.366888 0.037 Uiso 0.5 1 calc R U P B 2
C4' C 1.0156(19) 1.2107(12) -0.2546(10) 0.034(3) Uani 0.5 1 d G U P B 2
H4'A H 1.057501 1.297721 -0.361190 0.041 Uiso 0.5 1 calc R U P B 2
C5' C 1.0045(16) 1.2535(9) -0.0953(14) 0.030(2) Uani 0.5 1 d G U P B 2
H5'A H 1.038761 1.369628 -0.093012 0.036 Uiso 0.5 1 calc R U P B 2
C6' C 0.9433(15) 1.1262(13) 0.0606(10) 0.029(2) Uani 0.5 1 d G U P B 2
H6'A H 0.935651 1.155392 0.169472 0.035 Uiso 0.5 1 calc R U P B 2
C7' C 0.8931(13) 0.9562(11) 0.0572(9) 0.0200(17) Uani 0.5 1 d G U P B 2
C8' C 0.8268(14) 0.8040(10) 0.1992(12) 0.025(2) Uani 0.5 1 d G U P B 2
C9' C 0.7922(16) 0.7833(12) 0.3792(13) 0.029(2) Uani 0.5 1 d G U P B 2
H9'A H 0.814555 0.879881 0.425653 0.035 Uiso 0.5 1 calc R U P B 2
C10' C 0.725(2) 0.6213(16) 0.4913(9) 0.037(3) Uani 0.5 1 d G U P B 2
H10B H 0.701280 0.607232 0.614389 0.045 Uiso 0.5 1 calc R U P B 2
C11' C 0.692(2) 0.4800(12) 0.4234(13) 0.042(3) Uani 0.5 1 d G U P B 2
H11B H 0.646277 0.369356 0.500018 0.051 Uiso 0.5 1 calc R U P B 2
C12' C 0.7269(17) 0.5007(12) 0.2433(14) 0.033(2) Uani 0.5 1 d G U P B 2
H12B H 0.704548 0.404127 0.196910 0.039 Uiso 0.5 1 calc R U P B 2
C13' C 0.7942(14) 0.6627(14) 0.1312(9) 0.029(2) Uani 0.5 1 d G U P B 2
N1 N 0.5110(9) 1.3634(7) -0.0971(6) 0.0357(15) Uani 1 1 d . . . . .
N2 N 0.4859(9) 1.0478(7) -0.4183(6) 0.0333(15) Uani 1 1 d . . . . .
N3 N 0.1949(9) 0.3449(7) 0.2944(7) 0.0357(14) Uani 1 1 d . . . . .
N4 N 0.2193(9) 0.6607(8) 0.6156(7) 0.0363(14) Uani 1 1 d . . . . .
C14 C 0.4659(10) 1.2128(9) -0.0418(8) 0.0242(13) Uani 1 1 d . . . . .
C15 C 0.4107(8) 1.0313(7) 0.0300(7) 0.0201(13) Uani 1 1 d . . . . .
C16 C 0.4004(9) 0.9260(8) -0.0824(7) 0.0245(14) Uani 1 1 d . . . . .
C17 C 0.3368(9) 0.7436(7) -0.0117(8) 0.0248(14) Uani 1 1 d . . . . .
H17A H 0.323490 0.670921 -0.087806 0.030 Uiso 1 1 calc R U . . .
C18 C 0.2960(9) 0.6765(7) 0.1665(7) 0.0222(14) Uani 1 1 d . . . . .
C19 C 0.3139(8) 0.7883(8) 0.2795(6) 0.0176(12) Uani 1 1 d . . . . .
C20 C 0.3655(8) 0.9602(8) 0.2128(7) 0.0208(13) Uani 1 1 d . . . . .
H20A H 0.371653 1.034025 0.289041 0.025 Uiso 1 1 calc R U . . .
C21 C 0.4410(10) 0.9909(8) -0.2666(8) 0.0289(15) Uani 1 1 d . . . . .
C22 C 0.2361(10) 0.4896(8) 0.2391(7) 0.0251(14) Uani 1 1 d . . . . .
C23 C 0.2586(8) 0.7113(8) 0.4695(6) 0.0209(13) Uani 1 1 d . . . . .
loop_
_atom_site_aniso_label
_atom_site_aniso_U_11
_atom_site_aniso_U_22
_atom_site_aniso_U_33
_atom_site_aniso_U_23
_atom_site_aniso_U_13
_atom_site_aniso_U_12
C1 0.021(4) 0.039(4) 0.031(4) -0.009(3) -0.003(3) -0.001(3)
C2 0.016(3) 0.021(4) 0.030(3) -0.002(3) -0.005(3) -0.005(3)
C3 0.023(4) 0.025(4) 0.038(4) -0.003(4) -0.002(4) 0.000(4)
C4 0.030(4) 0.029(4) 0.043(5) 0.000(4) -0.007(4) 0.000(4)
C5 0.030(4) 0.043(5) 0.025(4) 0.009(4) -0.002(4) -0.003(4)
C6 0.029(4) 0.033(4) 0.024(4) -0.002(4) 0.000(4) -0.002(4)
C7 0.025(3) 0.029(3) 0.018(4) -0.008(3) -0.002(3) -0.001(3)
C8 0.024(4) 0.025(4) 0.027(3) -0.006(3) -0.002(3) -0.002(3)
C9 0.025(4) 0.026(4) 0.030(4) -0.010(4) 0.000(4) -0.002(4)
C10 0.030(5) 0.025(4) 0.041(5) 0.005(4) 0.005(4) -0.002(4)
C11 0.036(5) 0.035(4) 0.035(4) 0.007(4) 0.009(4) -0.001(4)
C12 0.032(5) 0.048(5) 0.027(4) -0.003(4) -0.004(4) -0.002(4)
C13 0.022(4) 0.029(3) 0.020(4) -0.007(3) -0.005(4) 0.000(3)
C1' 0.028(4) 0.030(3) 0.037(4) -0.018(3) -0.001(3) -0.001(3)
C2' 0.025(4) 0.028(4) 0.024(4) -0.001(4) -0.001(4) 0.000(3)
C3' 0.033(4) 0.039(5) 0.019(4) -0.005(4) 0.001(4) -0.001(4)
C4' 0.029(4) 0.036(4) 0.030(4) 0.004(4) -0.003(4) 0.004(4)
C5' 0.024(4) 0.021(4) 0.036(5) 0.007(4) -0.001(4) -0.005(4)
C6' 0.021(4) 0.027(4) 0.031(4) 0.005(4) 0.001(4) -0.002(4)
C7' 0.017(3) 0.021(3) 0.023(3) -0.007(3) -0.003(3) -0.002(3)
C8' 0.022(3) 0.030(3) 0.021(4) -0.001(3) -0.003(3) -0.001(3)
C9' 0.020(4) 0.037(4) 0.026(4) 0.000(4) -0.006(4) -0.004(4)
C10' 0.029(5) 0.043(5) 0.027(4) 0.011(4) -0.001(4) -0.006(4)
C11' 0.034(5) 0.033(4) 0.046(5) 0.013(4) -0.002(4) -0.009(4)
C12' 0.028(4) 0.021(4) 0.041(4) 0.002(4) 0.005(4) -0.007(4)
C13' 0.024(4) 0.023(4) 0.035(4) -0.003(3) 0.003(3) -0.001(4)
N1 0.046(4) 0.026(3) 0.026(3) 0.006(2) 0.000(2) -0.012(3)
N2 0.055(4) 0.027(3) 0.015(2) -0.0016(19) 0.004(2) -0.009(3)
N3 0.043(4) 0.029(3) 0.039(3) -0.017(2) -0.001(3) 0.001(3)
N4 0.034(3) 0.041(3) 0.036(3) -0.013(2) 0.000(3) -0.005(3)
C14 0.024(3) 0.029(3) 0.024(3) -0.015(2) -0.006(2) 0.003(3)
C15 0.013(3) 0.025(3) 0.021(3) -0.003(2) -0.003(2) 0.002(2)
C16 0.026(3) 0.015(2) 0.026(3) 0.004(2) 0.000(2) -0.004(2)
C17 0.032(4) 0.013(2) 0.031(3) -0.006(2) -0.005(3) -0.003(2)
C18 0.031(3) 0.012(3) 0.023(3) -0.005(2) -0.001(3) -0.003(3)
C19 0.015(3) 0.029(3) 0.013(2) -0.012(2) -0.0031(19) 0.004(2)
C20 0.020(3) 0.031(3) 0.011(2) -0.006(2) 0.000(2) 0.001(2)
C21 0.031(4) 0.018(2) 0.042(3) -0.015(2) -0.003(3) -0.003(2)
C22 0.034(4) 0.020(3) 0.017(3) 0.001(2) 0.003(2) -0.005(3)
C23 0.021(3) 0.028(3) 0.008(2) 0.0024(19) 0.000(2) -0.003(2)
loop_
_atom_type_symbol
_atom_type_description
_atom_type_scat_dispersion_real
_atom_type_scat_dispersion_imag
_atom_type_scat_source
C C 0.0033 0.0016 'International Tables Vol C Tables 4.2.6.8 and 6.1.1.4'
H H 0.0000 0.0000 'International Tables Vol C Tables 4.2.6.8 and 6.1.1.4'
N N 0.0061 0.0033 'International Tables Vol C Tables 4.2.6.8 and 6.1.1.4'
loop_
_geom_angle_atom_site_label_1
_geom_angle_atom_site_label_2
_geom_angle_atom_site_label_3
_geom_angle
_geom_angle_site_symmetry_1
_geom_angle_site_symmetry_3
_geom_angle_publ_flag
C13 C1 C2 99.7(11) . . ?
C13 C1 H1A 111.8 . . ?
C2 C1 H1A 111.8 . . ?
C13 C1 H1B 111.8 . . ?
C2 C1 H1B 111.8 . . ?
H1A C1 H1B 109.6 . . ?
C3 C2 C7 120.0 . . ?
C3 C2 C1 128.3(9) . . ?
C7 C2 C1 111.6(8) . . ?
C2 C3 C4 120.0 . . ?
C2 C3 H3A 120.0 . . ?
C4 C3 H3A 120.0 . . ?
C5 C4 C3 120.0 . . ?
C5 C4 H4A 120.0 . . ?
C3 C4 H4A 120.0 . . ?
C4 C5 C6 120.0 . . ?
C4 C5 H5A 120.0 . . ?
C6 C5 H5A 120.0 . . ?
C7 C6 C5 120.0 . . ?
C7 C6 H6A 120.0 . . ?
C5 C6 H6A 120.0 . . ?
C6 C7 C2 120.0 . . ?
C6 C7 C8 132.9(7) . . ?
C2 C7 C8 107.1(7) . . ?
C9 C8 C13 120.0 . . ?
C9 C8 C7 132.9(7) . . ?
C13 C8 C7 107.1(7) . . ?
C10 C9 C8 120.0 . . ?
C10 C9 H9A 120.0 . . ?
C8 C9 H9A 120.0 . . ?
C9 C10 C11 120.0 . . ?
C9 C10 H10A 120.0 . . ?
C11 C10 H10A 120.0 . . ?
C10 C11 C12 120.0 . . ?
C10 C11 H11A 120.0 . . ?
C12 C11 H11A 120.0 . . ?
C13 C12 C11 120.0 . . ?
C13 C12 H12A 120.0 . . ?
C11 C12 H12A 120.0 . . ?
C12 C13 C8 120.0 . . ?
C12 C13 C1 125.6(9) . . ?
C8 C13 C1 114.3(9) . . ?
C13' C1' C2' 103.0(11) . . ?
C13' C1' H1'A 111.2 . . ?
C2' C1' H1'A 111.2 . . ?
C13' C1' H1'B 111.2 . . ?
C2' C1' H1'B 111.2 . . ?
H1'A C1' H1'B 109.1 . . ?
C3' C2' C7' 120.0 . . ?
C3' C2' C1' 132.6(9) . . ?
C7' C2' C1' 107.4(9) . . ?
C4' C3' C2' 120.0 . . ?
C4' C3' H3'A 120.0 . . ?
C2' C3' H3'A 120.0 . . ?
C5' C4' C3' 120.0 . . ?
C5' C4' H4'A 120.0 . . ?
C3' C4' H4'A 120.0 . . ?
C4' C5' C6' 120.0 . . ?
C4' C5' H5'A 120.0 . . ?
C6' C5' H5'A 120.0 . . ?
C5' C6' C7' 120.0 . . ?
C5' C6' H6'A 120.0 . . ?
C7' C6' H6'A 120.0 . . ?
C6' C7' C2' 120.0 . . ?
C6' C7' C8' 130.1(7) . . ?
C2' C7' C8' 109.9(7) . . ?
C9' C8' C13' 120.0 . . ?
C9' C8' C7' 130.7(7) . . ?
C13' C8' C7' 109.3(7) . . ?
C8' C9' C10' 120.0 . . ?
C8' C9' H9'A 120.0 . . ?
C10' C9' H9'A 120.0 . . ?
C9' C10' C11' 120.0 . . ?
C9' C10' H10B 120.0 . . ?
C11' C10' H10B 120.0 . . ?
C12' C11' C10' 120.0 . . ?
C12' C11' H11B 120.0 . . ?
C10' C11' H11B 120.0 . . ?
C13' C12' C11' 120.0 . . ?
C13' C12' H12B 120.0 . . ?
C11' C12' H12B 120.0 . . ?
C12' C13' C8' 120.0 . . ?
C12' C13' C1' 129.6(9) . . ?
C8' C13' C1' 110.4(9) . . ?
N1 C14 C15 178.3(6) . . ?
C14 C15 C16 118.9(5) . . ?
C14 C15 C20 120.6(5) . . ?
C16 C15 C20 120.5(5) . . ?
C21 C16 C15 122.9(5) . . ?
C21 C16 C17 117.6(5) . . ?
C15 C16 C17 119.4(5) . . ?
C18 C17 C16 119.1(5) . . ?
C18 C17 H17A 120.4 . . ?
C16 C17 H17A 120.4 . . ?
C17 C18 C19 119.8(5) . . ?
C17 C18 C22 119.2(5) . . ?
C19 C18 C22 120.9(5) . . ?
C20 C19 C18 120.9(5) . . ?
C20 C19 C23 121.6(5) . . ?
C18 C19 C23 117.3(5) . . ?
C19 C20 C15 120.2(5) . . ?
C19 C20 H20A 119.9 . . ?
C15 C20 H20A 119.9 . . ?
N2 C21 C16 175.8(7) . . ?
N3 C22 C18 178.2(8) . . ?
N4 C23 C19 176.5(6) . . ?
loop_
_geom_bond_atom_site_label_1
_geom_bond_atom_site_label_2
_geom_bond_distance
_geom_bond_site_symmetry_2
_geom_bond_publ_flag
C1 C13 1.445(14) . ?
C1 C2 1.526(14) . ?
C1 H1A 0.9900 . ?
C1 H1B 0.9900 . ?
C2 C3 1.3900 . ?
C2 C7 1.3900 . ?
C3 C4 1.3900 . ?
C3 H3A 0.9500 . ?
C4 C5 1.3900 . ?
C4 H4A 0.9500 . ?
C5 C6 1.3900 . ?
C5 H5A 0.9500 . ?
C6 C7 1.3900 . ?
C6 H6A 0.9500 . ?
C7 C8 1.454(8) . ?
C8 C9 1.3900 . ?
C8 C13 1.3900 . ?
C9 C10 1.3900 . ?
C9 H9A 0.9500 . ?
C10 C11 1.3900 . ?
C10 H10A 0.9500 . ?
C11 C12 1.3900 . ?
C11 H11A 0.9500 . ?
C12 C13 1.3900 . ?
C12 H12A 0.9500 . ?
C1' C13' 1.470(14) . ?
C1' C2' 1.560(13) . ?
C1' H1'A 0.9900 . ?
C1' H1'B 0.9900 . ?
C2' C3' 1.3900 . ?
C2' C7' 1.3900 . ?
C3' C4' 1.3900 . ?
C3' H3'A 0.9500 . ?
C4' C5' 1.3900 . ?
C4' H4'A 0.9500 . ?
C5' C6' 1.3900 . ?
C5' H5'A 0.9500 . ?
C6' C7' 1.3900 . ?
C6' H6'A 0.9500 . ?
C7' C8' 1.440(8) . ?
C8' C9' 1.3900 . ?
C8' C13' 1.3900 . ?
C9' C10' 1.3900 . ?
C9' H9'A 0.9500 . ?
C10' C11' 1.3900 . ?
C10' H10B 0.9500 . ?
C11' C12' 1.3900 . ?
C11' H11B 0.9500 . ?
C12' C13' 1.3900 . ?
C12' H12B 0.9500 . ?
N1 C14 1.173(8) . ?
N2 C21 1.175(8) . ?
N3 C22 1.125(8) . ?
N4 C23 1.123(7) . ?
C14 C15 1.419(8) . ?
C15 C16 1.380(8) . ?
C15 C20 1.407(7) . ?
C16 C21 1.409(8) . ?
C16 C17 1.442(7) . ?
C17 C18 1.367(8) . ?
C17 H17A 0.9500 . ?
C18 C19 1.432(8) . ?
C18 C22 1.466(7) . ?
C19 C20 1.341(7) . ?
C19 C23 1.475(7) . ?
C20 H20A 0.9500 . ?
loop_
_geom_torsion_atom_site_label_1
_geom_torsion_atom_site_label_2
_geom_torsion_atom_site_label_3
_geom_torsion_atom_site_label_4
_geom_torsion
_geom_torsion_site_symmetry_1
_geom_torsion_site_symmetry_2
_geom_torsion_site_symmetry_3
_geom_torsion_site_symmetry_4
_geom_torsion_publ_flag
C13 C1 C2 C3 -178.2(8) . . . . ?
C13 C1 C2 C7 3.6(12) . . . . ?
C7 C2 C3 C4 0.0 . . . . ?
C1 C2 C3 C4 -178.0(11) . . . . ?
C2 C3 C4 C5 0.0 . . . . ?
C3 C4 C5 C6 0.0 . . . . ?
C4 C5 C6 C7 0.0 . . . . ?
C5 C6 C7 C2 0.0 . . . . ?
C5 C6 C7 C8 -179.7(12) . . . . ?
C3 C2 C7 C6 0.0 . . . . ?
C1 C2 C7 C6 178.4(10) . . . . ?
C3 C2 C7 C8 179.8(10) . . . . ?
C1 C2 C7 C8 -1.9(10) . . . . ?
C6 C7 C8 C9 -1.5(16) . . . . ?
C2 C7 C8 C9 178.8(7) . . . . ?
C6 C7 C8 C13 178.9(7) . . . . ?
C2 C7 C8 C13 -0.8(8) . . . . ?
C13 C8 C9 C10 0.0 . . . . ?
C7 C8 C9 C10 -179.6(13) . . . . ?
C8 C9 C10 C11 0.0 . . . . ?
C9 C10 C11 C12 0.0 . . . . ?
C10 C11 C12 C13 0.0 . . . . ?
C11 C12 C13 C8 0.0 . . . . ?
C11 C12 C13 C1 175.8(11) . . . . ?
C9 C8 C13 C12 0.0 . . . . ?
C7 C8 C13 C12 179.7(10) . . . . ?
C9 C8 C13 C1 -176.2(10) . . . . ?
C7 C8 C13 C1 3.5(10) . . . . ?
C2 C1 C13 C12 179.7(8) . . . . ?
C2 C1 C13 C8 -4.3(12) . . . . ?
C13' C1' C2' C3' 180.0(8) . . . . ?
C13' C1' C2' C7' -0.5(11) . . . . ?
C7' C2' C3' C4' 0.0 . . . . ?
C1' C2' C3' C4' 179.5(12) . . . . ?
C2' C3' C4' C5' 0.0 . . . . ?
C3' C4' C5' C6' 0.0 . . . . ?
C4' C5' C6' C7' 0.0 . . . . ?
C5' C6' C7' C2' 0.0 . . . . ?
C5' C6' C7' C8' 179.9(12) . . . . ?
C3' C2' C7' C6' 0.0 . . . . ?
C1' C2' C7' C6' -179.6(9) . . . . ?
C3' C2' C7' C8' -179.9(9) . . . . ?
C1' C2' C7' C8' 0.5(9) . . . . ?
C6' C7' C8' C9' 0.7(15) . . . . ?
C2' C7' C8' C9' -179.4(7) . . . . ?
C6' C7' C8' C13' 179.8(7) . . . . ?
C2' C7' C8' C13' -0.3(8) . . . . ?
C13' C8' C9' C10' 0.0 . . . . ?
C7' C8' C9' C10' 179.0(12) . . . . ?
C8' C9' C10' C11' 0.0 . . . . ?
C9' C10' C11' C12' 0.0 . . . . ?
C10' C11' C12' C13' 0.0 . . . . ?
C11' C12' C13' C8' 0.0 . . . . ?
C11' C12' C13' C1' -179.0(13) . . . . ?
C9' C8' C13' C12' 0.0 . . . . ?
C7' C8' C13' C12' -179.2(10) . . . . ?
C9' C8' C13' C1' 179.2(10) . . . . ?
C7' C8' C13' C1' -0.1(10) . . . . ?
C2' C1' C13' C12' 179.4(8) . . . . ?
C2' C1' C13' C8' 0.3(12) . . . . ?
C14 C15 C16 C21 -0.5(11) . . . . ?
C20 C15 C16 C21 178.9(6) . . . . ?
C14 C15 C16 C17 -177.4(5) . . . . ?
C20 C15 C16 C17 2.1(10) . . . . ?
C21 C16 C17 C18 -179.9(7) . . . . ?
C15 C16 C17 C18 -2.9(9) . . . . ?
C16 C17 C18 C19 1.0(9) . . . . ?
C16 C17 C18 C22 -178.4(7) . . . . ?
C17 C18 C19 C20 1.8(10) . . . . ?
C22 C18 C19 C20 -178.8(6) . . . . ?
C17 C18 C19 C23 176.9(6) . . . . ?
C22 C18 C19 C23 -3.7(11) . . . . ?
C18 C19 C20 C15 -2.7(9) . . . . ?
C23 C19 C20 C15 -177.6(6) . . . . ?
C14 C15 C20 C19 -179.9(7) . . . . ?
C16 C15 C20 C19 0.7(8) . . . . ?
