#------------------------------------------------------------------------------
#$Date: 2021-01-04 05:07:28 +0200 (Mon, 04 Jan 2021) $
#$Revision: 260417 $
#$URL: file:///home/coder/svn-repositories/cod/cif/4/00/38/4003833.cif $
#------------------------------------------------------------------------------
#
# This file is available in the Crystallography Open Database (COD),
# http://www.crystallography.net/
#
# All data on this site have been placed in the public domain by the
# contributors.
#
data_4003833
loop_
_publ_author_name
'Guo, Shu'
'Zhong, Ruidan'
'G\'ornicka, Karolina'
'Klimczuk, Tomasz'
'Cava, R. J.'
_publ_section_title
;
 Crystal Growth, Structure, and Magnetism of the 2D Spin 1/2 Triangular
 Lattice Material Rb3Yb(PO4)2
;
_journal_issue                   24
_journal_name_full               'Chemistry of Materials'
_journal_page_first              10670
_journal_page_last               10677
_journal_paper_doi               10.1021/acs.chemmater.0c03850
_journal_volume                  32
_journal_year                    2020
_chemical_formula_moiety         '2(O4 P1 Rb1.5 Yb0.5)'
_chemical_formula_sum            'O8 P2 Rb3 Yb'
_chemical_formula_weight         619.39
_space_group_crystal_system      trigonal
_space_group_IT_number           164
_space_group_name_Hall           '-P 3 2"'
_space_group_name_H-M_alt        'P -3 m 1'
_audit_creation_date             2020-11-01
_audit_creation_method
;
Olex2 1.2
(compiled 2018.05.29 svn.r3508 for OlexSys, GUI svn.r5506)
;
_cell_angle_alpha                90
_cell_angle_beta                 90
_cell_angle_gamma                120
_cell_formula_units_Z            1
_cell_length_a                   5.6326(11)
_cell_length_b                   5.6326(11)
_cell_length_c                   8.0606(18)
_cell_measurement_reflns_used    3462
_cell_measurement_temperature    298
_cell_measurement_theta_max      33.10
_cell_measurement_theta_min      2.53
_cell_volume                     221.47(8)
_computing_molecular_graphics    'Olex2 (Dolomanov et al., 2009)'
_computing_publication_material  'Olex2 (Dolomanov et al., 2009)'
_computing_structure_refinement  'ShelXL (Sheldrick, 2015)'
_computing_structure_solution    'XS (Sheldrick, 2008)'
_diffrn_ambient_temperature      298.0
_diffrn_measured_fraction_theta_full 1.000
_diffrn_measured_fraction_theta_max 1.000
_diffrn_measurement_device_type  'Bruker APEX-II CCD'
_diffrn_measurement_method       '\f and \w scans'
_diffrn_radiation_type           MoK\a
_diffrn_radiation_wavelength     0.71073
_diffrn_reflns_av_R_equivalents  0.0431
_diffrn_reflns_av_unetI/netI     0.0167
_diffrn_reflns_Laue_measured_fraction_full 1.000
_diffrn_reflns_Laue_measured_fraction_max 1.000
_diffrn_reflns_limit_h_max       8
_diffrn_reflns_limit_h_min       -8
_diffrn_reflns_limit_k_max       8
_diffrn_reflns_limit_k_min       -8
_diffrn_reflns_limit_l_max       11
_diffrn_reflns_limit_l_min       -11
_diffrn_reflns_number            4685
_diffrn_reflns_point_group_measured_fraction_full 1.000
_diffrn_reflns_point_group_measured_fraction_max 1.000
_diffrn_reflns_theta_full        25.242
_diffrn_reflns_theta_max         30.466
_diffrn_reflns_theta_min         2.527
_diffrn_standards_number         0
_exptl_absorpt_coefficient_mu    27.308
_exptl_absorpt_correction_T_max  0.7465
_exptl_absorpt_correction_T_min  0.4468
_exptl_absorpt_correction_type   multi-scan
_exptl_absorpt_process_details
;
SADABS-2016/2 (Bruker,2016/2) was used for absorption correction.
wR2(int) was 0.1379 before and 0.0528 after correction.
The Ratio of minimum to maximum transmission is 0.5985.
The \l/2 correction factor is Not present.
;
_exptl_crystal_colour            colourless
_exptl_crystal_colour_primary    colourless
_exptl_crystal_density_diffrn    4.644
_exptl_crystal_density_method    'not measured'
_exptl_crystal_description       plate
_exptl_crystal_F_000             275
_exptl_crystal_size_max          0.05
_exptl_crystal_size_mid          0.05
_exptl_crystal_size_min          0.015
_refine_diff_density_max         0.538
_refine_diff_density_min         -1.532
_refine_diff_density_rms         0.211
_refine_ls_extinction_method     none
_refine_ls_goodness_of_fit_ref   1.173
_refine_ls_hydrogen_treatment    undef
_refine_ls_matrix_type           full
_refine_ls_number_parameters     23
_refine_ls_number_reflns         288
_refine_ls_number_restraints     0
_refine_ls_restrained_S_all      1.173
_refine_ls_R_factor_all          0.0194
_refine_ls_R_factor_gt           0.0182
_refine_ls_shift/su_max          0.000
_refine_ls_shift/su_mean         0.000
_refine_ls_structure_factor_coef Fsqd
_refine_ls_weighting_details
'w=1/[\s^2^(Fo^2^)+(0.0203P)^2^+0.6086P] where P=(Fo^2^+2Fc^2^)/3'
_refine_ls_weighting_scheme      calc
_refine_ls_wR_factor_gt          0.0454
_refine_ls_wR_factor_ref         0.0458
_reflns_Friedel_coverage         0.000
_reflns_number_gt                275
_reflns_number_total             288
_reflns_threshold_expression     'I > 2\s(I)'
_iucr_refine_instructions_details
;
TITL Shu_PYb_0m in P-3m1 #164
    shu_pyb_0m.res
    created by SHELXL-2018/3 at 00:46:33 on 01-Nov-2020
REM reset to P-3m1 #164
CELL 0.71073 5.6326 5.6326 8.0606 90 90 120
ZERR 1 0.0011 0.0011 0.0018 0 0 0
LATT 1
SYMM -Y,+X-Y,+Z
SYMM +Y-X,-X,+Z
SYMM -Y+X,-Y,-Z
SYMM -X,-X+Y,-Z
SYMM +Y,+X,-Z
SFAC O P Rb Yb
UNIT 8 2 3 1

L.S. 99
PLAN  20
SIZE 0.05 0.05 0.015
TEMP 24.85
fmap 2
acta
REM <olex2.extras>
REM <HklSrc "%.\\Shu_PYb_0m.hkl">
REM </olex2.extras>

WGHT    0.020300    0.608600
FVAR       0.20078
YB1   4    0.000000    0.000000    0.000000    10.08333    0.00443    0.00443 =
         0.02704    0.00000    0.00000    0.00221
RB1   3    0.666667    0.333333    0.258973    10.16667    0.01035    0.01035 =
         0.02188    0.00000    0.00000    0.00517
RB2   3    0.000000    0.000000    0.500000    10.08333    0.03383    0.03383 =
         0.01932    0.00000    0.00000    0.01692
P1    2    0.333333    0.666667    0.219859    10.16667    0.00717    0.00717 =
         0.00878    0.00000    0.00000    0.00359
PART 2
O1    1    0.185413    0.370825    0.158433    10.50000    0.01189    0.00830 =
         0.06753   -0.01336   -0.00668    0.00415
O2    1    0.300335    0.699665    0.402808    10.16667    0.04986    0.04986 =
         0.01226   -0.00331    0.00331    0.03347
HKLF 4




REM  Shu_PYb_0m in P-3m1 #164
REM wR2 = 0.0458, GooF = S = 1.173, Restrained GooF = 1.173 for all data
REM R1 = 0.0182 for 275 Fo > 4sig(Fo) and 0.0194 for all 288 data
REM 23 parameters refined using 0 restraints

END  
     
WGHT      0.0203      0.6086 

REM Highest difference peak  0.538,  deepest hole -1.532,  1-sigma level  0.211
Q1    1   0.2038  0.4077  0.0819  10.50000  0.05    0.54
Q2    1   0.0280  0.2340  0.2665  11.00000  0.05    0.50
Q3    1  -0.1632  0.1632  0.4465  10.50000  0.05    0.47
Q4    1   0.0700  0.1400 -0.0553  10.50000  0.05    0.45
Q5    1   0.2586  0.8410  0.4578  11.00000  0.05    0.45
Q6    1   0.1667  0.3335  0.0100  10.50000  0.05    0.41
Q7    1   0.2684  0.1342  0.2610  10.50000  0.05    0.41
Q8    1   0.4155  0.9481  0.4849  11.00000  0.05    0.41
Q9    1   0.8063  0.1937  0.1786  10.50000  0.05    0.41
Q10   1   0.1165  0.2329  0.4064  10.50000  0.05    0.38
Q11   1   0.4740  0.9481  0.4250  10.50000  0.05    0.37
Q12   1   0.5301  0.4699  0.2400  10.50000  0.05    0.37
Q13   1   0.1353  0.4401 -0.0087  11.00000  0.05    0.36
Q14   1  -0.0112  0.4944  0.0355  10.50000  0.05    0.35
Q15   1   0.1425  0.2850 -0.1007  10.50000  0.05    0.33
Q16   1   0.0794  0.1588  0.0600  10.50000  0.05    0.32
Q17   1   0.2505  0.8721  0.3344  11.00000  0.05    0.27
Q18   1   0.2558  0.2558  0.5000  10.50000  0.05    0.26
Q19   1   0.3906  0.3409  0.3270  11.00000  0.05    0.25
Q20   1   0.6238  0.2476  0.1812  10.50000  0.05    0.23

  REM The information below was added by Olex2.
  REM
  REM R1 = 0.0182 for 275 Fo > 4sig(Fo) and 0.0194 for all 4685 data
  REM n/a parameters refined using n/a restraints
  REM Highest difference peak 0.54, deepest hole -1.53
  REM Mean Shift 0, Max Shift 0.000.

  REM +++ Tabular Listing of Refinement Information +++
  REM R1_all = 0.0194
  REM R1_gt = 0.0182
  REM wR_ref = 0.0458
  REM GOOF = 1.173
  REM Shift_max = 0.000
  REM Shift_mean = 0
  REM Reflections_all = 4685
  REM Reflections_gt = 275
  REM Parameters = n/a
  REM Hole = -1.53
  REM Peak = 0.54
  REM Flack = n/a

  
;
_cod_data_source_file            cm0c03850_si_001.cif
_cod_data_source_block           shu_pyb_0m
_cod_depositor_comments          'Adding full bibliography for 4003833.cif.'
_cod_original_cell_volume        221.47(10)
_cod_database_code               4003833
_shelx_shelxl_version_number     2018/3
_shelx_space_group_comment
;
The symmetry employed for this shelxl refinement is uniquely defined
by the following loop, which should always be used as a source of
symmetry information in preference to the above space-group names.
They are only intended as comments.
;
_shelx_estimated_absorpt_t_max   0.685
_shelx_estimated_absorpt_t_min   0.342
_olex2_refinement_description
;
1. Others
 Fixed Sof: O2(0.16667)
;
_olex2_submission_special_instructions 'No special instructions were received'
loop_
_space_group_symop_operation_xyz
'x, y, z'
'-y, x-y, z'
'-x+y, -x, z'
'x-y, -y, -z'
'-x, -x+y, -z'
'y, x, -z'
'-x, -y, -z'
'y, -x+y, -z'
'x-y, x, -z'
'-x+y, y, z'
'x, x-y, z'
'-y, -x, z'
loop_
_atom_site_label
_atom_site_type_symbol
_atom_site_fract_x
_atom_site_fract_y
_atom_site_fract_z
_atom_site_U_iso_or_equiv
_atom_site_adp_type
_atom_site_occupancy
_atom_site_site_symmetry_order
_atom_site_calc_flag
_atom_site_refinement_flags_posn
_atom_site_refinement_flags_adp
_atom_site_refinement_flags_occupancy
_atom_site_disorder_assembly
_atom_site_disorder_group
Yb1 Yb 0.000000 0.000000 0.000000 0.01197(14) Uani 1 12 d S T P . .
Rb1 Rb 0.666667 0.333333 0.25897(8) 0.01419(17) Uani 1 6 d S T P A .
Rb2 Rb 0.000000 0.000000 0.500000 0.0290(3) Uani 1 12 d S T P . .
P1 P 0.333333 0.666667 0.2199(2) 0.0077(3) Uani 1 6 d S T P . .
O1 O 0.1854(3) 0.3708(7) 0.1584(5) 0.0296(8) Uani 1 2 d S T P A 2
O2 O 0.3003(14) 0.6997(14) 0.4028(10) 0.034(5) Uani 0.3333 2 d S T P A 2
loop_
_atom_site_aniso_label
_atom_site_aniso_U_11
_atom_site_aniso_U_22
_atom_site_aniso_U_33
_atom_site_aniso_U_23
_atom_site_aniso_U_13
_atom_site_aniso_U_12
Yb1 0.00443(15) 0.00443(15) 0.0270(2) 0.000 0.000 0.00221(8)
Rb1 0.0103(2) 0.0103(2) 0.0219(3) 0.000 0.000 0.00517(11)
Rb2 0.0338(4) 0.0338(4) 0.0193(5) 0.000 0.000 0.0169(2)
P1 0.0072(4) 0.0072(4) 0.0088(6) 0.000 0.000 0.0036(2)
O1 0.0119(11) 0.0083(14) 0.068(2) -0.0134(15) -0.0067(8) 0.0042(7)
O2 0.050(7) 0.050(7) 0.012(3) -0.003(2) 0.003(2) 0.033(5)
loop_
_atom_type_symbol
_atom_type_description
_atom_type_scat_dispersion_real
_atom_type_scat_dispersion_imag
_atom_type_scat_source
O O 0.0106 0.0060 'International Tables Vol C Tables 4.2.6.8 and 6.1.1.4'
P P 0.1023 0.0942 'International Tables Vol C Tables 4.2.6.8 and 6.1.1.4'
Rb Rb -0.9393 2.9676 'International Tables Vol C Tables 4.2.6.8 and 6.1.1.4'
Yb Yb -0.3850 5.5486 'International Tables Vol C Tables 4.2.6.8 and 6.1.1.4'
loop_
_geom_angle_atom_site_label_1
_geom_angle_atom_site_label_2
_geom_angle_atom_site_label_3
_geom_angle
_geom_angle_site_symmetry_1
_geom_angle_site_symmetry_3
_geom_angle_publ_flag
Rb1 Yb1 Rb1 180.0 1_455 7_655 ?
Rb1 Yb1 Rb1 86.429(16) 1_455 7_665 ?
Rb1 Yb1 Rb1 180.0 1_445 7_665 ?
Rb1 Yb1 Rb1 86.429(16) 7 1_445 ?
Rb1 Yb1 Rb1 86.429(16) . 7_665 ?
Rb1 Yb1 Rb1 93.571(16) 7 7_665 ?
Rb1 Yb1 Rb1 93.571(16) 7_655 7 ?
Rb1 Yb1 Rb1 86.429(16) 7_655 . ?
Rb1 Yb1 Rb1 180.0 . 7 ?
Rb1 Yb1 Rb1 93.571(16) 7_655 7_665 ?
Rb1 Yb1 Rb1 93.571(16) 1_455 1_445 ?
Rb1 Yb1 Rb1 86.429(16) 1_455 7 ?
Rb1 Yb1 Rb1 93.571(16) 1_455 . ?
Rb1 Yb1 Rb1 93.571(16) . 1_445 ?
Rb1 Yb1 Rb1 86.429(16) 7_655 1_445 ?
O1 Yb1 Rb1 67.92(11) 8 . ?
O1 Yb1 Rb1 130.94(3) 7 . ?
O1 Yb1 Rb1 49.06(3) . . ?
O1 Yb1 Rb1 49.06(3) 3 . ?
O1 Yb1 Rb1 130.94(3) 9 . ?
O1 Yb1 Rb1 112.08(11) 2 . ?
O1 Yb1 O1 90.06(15) 2 . ?
O1 Yb1 O1 89.94(15) 8 . ?
O1 Yb1 O1 89.94(15) 9 . ?
O1 Yb1 O1 89.94(15) 7 3 ?
O1 Yb1 O1 90.06(15) 7 9 ?
O1 Yb1 O1 180.0 7 . ?
O1 Yb1 O1 180.00(18) 9 3 ?
O1 Yb1 O1 90.06(15) 3 . ?
P1 Rb1 P1 119.080(11) 1_655 . ?
P1 Rb1 P1 119.081(11) 1_545 1_655 ?
P1 Rb1 P1 119.080(11) 1_545 . ?
O1 Rb1 P1 92.03(6) 3_665 . ?
O1 Rb1 P1 140.28(7) 1_655 . ?
O1 Rb1 P1 92.03(6) 3 . ?
O1 Rb1 P1 27.82(6) . . ?
O1 Rb1 P1 140.28(7) 2_655 . ?
O1 Rb1 P1 27.82(6) 2_665 . ?
O1 Rb1 O1 64.49(12) 2_665 3_665 ?
O1 Rb1 O1 147.13(16) 3 3_665 ?
O1 Rb1 O1 112.69(7) 3_665 . ?
O1 Rb1 O1 112.69(7) 2_655 3_665 ?
O1 Rb1 O1 112.69(7) 1_655 3 ?
O1 Rb1 O1 112.69(7) 2_655 . ?
O1 Rb1 O1 50.38(13) 1_655 3_665 ?
O1 Rb1 O1 147.13(16) 1_655 . ?
O1 Rb1 O1 64.49(12) 3 . ?
O1 Rb1 O1 50.38(13) 2_665 . ?
O2 Rb1 P1 102.3(3) 7_666 . ?
O2 Rb1 P1 92.15(14) 8_556 . ?
O2 Rb1 P1 92.15(14) 9_656 . ?
O2 Rb1 O1 105.47(8) 7_666 3 ?
O2 Rb1 O1 100.4(2) 9_656 3 ?
O2 Rb1 O1 100.4(2) 8_556 3_665 ?
O2 Rb1 O1 105.47(8) 8_556 . ?
O2 Rb1 O1 112.0(3) 8_556 3 ?
O2 Rb1 O1 100.4(2) 9_656 . ?
O2 Rb1 O1 112.0(3) 7_666 . ?
O2 Rb1 O1 105.47(8) 7_666 3_665 ?
O2 Rb1 O1 112.0(3) 9_656 3_665 ?
O2 Rb1 O2 11.7(5) 7_666 8_556 ?
O2 Rb1 O2 11.7(5) 8_556 9_656 ?
O2 Rb1 O2 11.7(5) 7_666 9_656 ?
O1 Rb2 O1 123.21(9) 9_556 . ?
O1 Rb2 O1 56.79(9) 3 . ?
O1 Rb2 O1 180.0 9_556 3 ?
O1 Rb2 O1 180.00(6) 7_556 . ?
O1 Rb2 O1 56.79(9) 2 . ?
O1 Rb2 O1 123.21(9) 8_556 3 ?
O1 Rb2 O1 123.21(10) 8_556 . ?
O1 Rb2 O1 56.79(9) 2 3 ?
O2 Rb2 O1 92.83(15) 3_455 3 ?
O2 Rb2 O1 87.17(15) 2_665 8_556 ?
O2 Rb2 O1 87.17(15) 9_656 . ?
O2 Rb2 O1 87.17(15) 9_656 3 ?
O2 Rb2 O1 41.73(17) 9_656 8_556 ?
O2 Rb2 O1 138.27(17) 3_455 8_556 ?
O2 Rb2 O1 92.83(15) 3_455 . ?
O2 Rb2 O1 87.17(15) 8_446 3 ?
O2 Rb2 O1 92.83(15) 1_545 . ?
O2 Rb2 O1 87.17(15) 7_566 . ?
O2 Rb2 O1 92.83(15) 8_446 8_556 ?
O2 Rb2 O1 92.83(15) 7_566 8_556 ?
O2 Rb2 O1 87.17(15) 1_545 8_556 ?
O2 Rb2 O1 138.27(17) 7_566 3 ?
O2 Rb2 O1 138.27(17) 8_446 . ?
O2 Rb2 O1 41.73(17) 2_665 . ?
O2 Rb2 O1 41.73(17) 1_545 3 ?
O2 Rb2 O1 92.83(15) 2_665 3 ?
O2 Rb2 O2 180.0 9_656 3_455 ?
Rb1 P1 Rb1 119.080(11) 1_565 . ?
Rb1 P1 Rb1 95.54(3) 1_455 7_665 ?
Rb1 P1 Rb1 119.081(11) 1_565 1_455 ?
Rb1 P1 Rb1 119.080(11) 1_455 . ?
Rb1 P1 Rb1 95.54(3) 1_565 7_665 ?
Rb1 P1 Rb1 95.54(3) . 7_665 ?
Rb1 P1 Rb2 139.69(5) . 1_565 ?
Rb1 P1 Rb2 124.78(2) 7_665 1_565 ?
Rb1 P1 Rb2 62.366(15) 1_565 1_565 ?
Rb1 P1 Rb2 62.366(15) . 1_665 ?
Rb1 P1 Rb2 124.78(2) 7_665 1_665 ?
Rb1 P1 Rb2 62.366(15) 1_565 1_665 ?
Rb1 P1 Rb2 139.69(5) 1_455 1_665 ?
Rb1 P1 Rb2 62.366(15) 1_455 1_565 ?
Rb2 P1 Rb2 90.69(3) 1_565 1_665 ?
O1 P1 Rb1 63.93(5) 2_665 . ?
O1 P1 Rb1 166.60(18) 3_565 . ?
O1 P1 Rb1 63.93(5) . . ?
O1 P1 O1 110.00(17) 3_565 . ?
O2 P1 Rb1 96.8(5) . . ?
O2 P1 Rb1 78.4(2) 2_665 . ?
O2 P1 Rb1 78.4(2) 3_565 . ?
O2 P1 O1 96.6(5) 2_665 . ?
O2 P1 O1 114.7(3) 3_565 . ?
O2 P1 O1 114.7(3) 2_665 3_565 ?
O2 P1 O1 114.7(3) . . ?
O2 P1 O1 114.7(3) 3_565 3_565 ?
O2 P1 O1 96.6(5) . 3_565 ?
O2 P1 O2 21.3(9) . 3_565 ?
Yb1 O1 Rb1 96.22(7) . . ?
Yb1 O1 Rb1 96.22(7) . 1_455 ?
Yb1 O1 Rb2 91.92(11) . . ?
Rb1 O1 Rb1 147.13(16) 1_455 . ?
Rb1 O1 Rb2 74.64(8) 1_455 . ?
Rb1 O1 Rb2 74.64(8) . . ?
P1 O1 Yb1 163.7(3) . . ?
P1 O1 Rb1 88.24(8) . 1_455 ?
P1 O1 Rb1 88.24(8) . . ?
P1 O1 Rb2 104.4(2) . . ?
Rb1 O2 Rb1 116.4(3) 1_455 1_565 ?
Rb1 O2 Rb1 113.18(18) 7_666 1_565 ?
Rb1 O2 Rb1 113.18(18) 7_666 1_455 ?
Rb1 O2 Rb2 167.9(4) 1_565 . ?
Rb1 O2 Rb2 67.34(3) 1_455 . ?
Rb1 O2 Rb2 73.35(18) 7_666 1_665 ?
Rb1 O2 Rb2 73.35(18) 7_666 . ?
Rb1 O2 Rb2 167.9(4) 1_455 1_665 ?
Rb1 O2 Rb2 67.34(3) 1_565 1_665 ?
Rb1 O2 Rb2 81.8(3) 7_666 1_565 ?
Rb2 O2 Rb1 73.2(2) 1_565 1_455 ?
Rb2 O2 Rb1 73.2(2) 1_565 1_565 ?
Rb2 O2 Rb2 118.56(18) 1_565 1_665 ?
Rb2 O2 Rb2 106.6(3) 1_665 . ?
Rb2 O2 Rb2 118.56(18) 1_565 . ?
P1 O2 Rb1 75.1(2) . 1_455 ?
P1 O2 Rb1 161.0(8) . 7_666 ?
P1 O2 Rb1 75.1(2) . 1_565 ?
P1 O2 Rb2 95.7(4) . 1_665 ?
P1 O2 Rb2 95.7(4) . . ?
P1 O2 Rb2 117.3(6) . 1_565 ?
O2 O2 Rb2 28.23(19) 2_665 . ?
O2 O2 Rb2 85.45(17) 3_565 . ?
O2 O2 P1 79.4(4) 3_565 . ?
O2 O2 P1 79.4(4) 2_665 . ?
loop_
_geom_bond_atom_site_label_1
_geom_bond_atom_site_label_2
_geom_bond_distance
_geom_bond_site_symmetry_2
_geom_bond_publ_flag
Yb1 Rb1 3.8643(7) 7_655 ?
Yb1 Rb1 3.8643(7) 7 ?
Yb1 Rb1 3.8643(7) . ?
Yb1 Rb1 3.8643(7) 7_665 ?
Yb1 Rb1 3.8643(7) 1_445 ?
Yb1 Rb1 3.8643(7) 1_455 ?
Yb1 O1 2.214(3) 7 ?
Yb1 O1 2.214(3) . ?
Yb1 O1 2.214(3) 9 ?
Yb1 O1 2.214(3) 2 ?
Yb1 O1 2.214(3) 8 ?
Yb1 O1 2.214(3) 3 ?
Rb1 P1 3.2672(7) 1_655 ?
Rb1 P1 3.2672(7) . ?
Rb1 P1 3.2672(7) 1_545 ?
Rb1 O1 2.9363(13) 2_655 ?
Rb1 O1 2.9363(13) 3 ?
Rb1 O1 2.9363(13) 3_665 ?
Rb1 O1 2.9363(13) . ?
Rb1 O1 2.9363(13) 1_655 ?
Rb1 O1 2.9363(13) 2_665 ?
Rb1 O2 2.745(8) 8_556 ?
Rb1 O2 2.745(8) 9_656 ?
Rb1 O2 2.745(8) 7_666 ?
Rb2 O1 3.294(4) . ?
Rb2 O1 3.294(4) 8_556 ?
Rb2 O1 3.294(4) 7_556 ?
Rb2 O1 3.294(4) 9_556 ?
Rb2 O1 3.294(4) 2 ?
Rb2 O1 3.294(4) 3 ?
Rb2 O2 3.033(13) 8_446 ?
Rb2 O2 3.033(13) 1_545 ?
Rb2 O2 3.033(13) 3_455 ?
Rb2 O2 3.033(13) 2_665 ?
Rb2 O2 3.033(13) 9_656 ?
Rb2 O2 3.033(13) 7_566 ?
P1 O1 1.526(3) . ?
P1 O1 1.526(3) 2_665 ?
P1 O1 1.526(3) 3_565 ?
P1 O2 1.509(9) 2_665 ?
P1 O2 1.509(9) 3_565 ?
P1 O2 1.509(9) . ?
O2 O2 0.56(2) 3_565 ?
O2 O2 0.56(2) 2_665 ?
loop_
_refln_index_h
_refln_index_k
_refln_index_l
_refln_F_squared_meas
_refln_F_squared_sigma
1 0 0 84.46 4.4
0 -1 0 87 4.54
1 0 0 86.61 4.4
1 0 0 92.43 4.32
-1 1 0 87.93 4.52
-1 1 0 90.76 4.32
-1 1 0 87.78 4.37
-1 1 0 85.07 4.39
0 -1 0 86.39 4.32
0 -1 0 86.45 4.37
-1 0 0 80.02 4.68
0 1 0 86.57 4.53
0 1 0 94.15 4.37
0 1 0 90.52 4.32
1 -1 0 86.95 4.36
-1 0 0 90.2 4.41
-1 0 0 82.98 4.28
-1 0 0 80.42 4.38
1 1 0 1000 45.62
1 -2 0 817.74 45.56
1 1 0 945.51 45.86
-2 1 0 861.16 45.89
1 -2 0 961.13 45.56
2 -1 0 959.08 45.79
-1 2 0 962.79 45.81
-2 2 0 26.62 1.52
-2 2 0 25.69 1.81
-2 2 0 26.21 1.44
2 0 0 28.22 1.62
2 0 0 27.55 1.45
2 0 0 26.23 2.24
0 -2 0 25.32 1.82
0 -2 0 27.6 1.56
-2 2 0 27.22 1.53
2 0 0 27.28 1.61
-2 0 0 27.79 1.38
-2 0 0 27.35 1.58
-2 0 0 25.3 1.61
-2 0 0 25.89 2.02
0 2 0 26.08 1.53
2 -2 0 25.99 1.52
0 2 0 28.88 1.61
0 2 0 25.5 1.45
2 -2 0 26.24 1.52
0 2 0 25.26 1.77
-3 1 0 96.02 5.08
1 2 0 99.84 5.13
1 2 0 106.02 5.15
2 -3 0 102.9 5.03
2 -3 0 100.11 5.21
2 -3 0 99.29 5.08
-3 1 0 101.3 4.96
1 2 0 101.57 5.62
1 2 0 94.1 5.23
1 2 0 100.89 5.12
-3 1 0 94.2 5.22
-3 1 0 88.99 5.18
-3 1 0 88.73 6.04
-2 3 0 105.28 5.07
-1 -2 0 101.09 5.13
-2 3 0 98.84 5.64
3 -1 0 114.29 5.78
3 -1 0 100.11 5.2
3 -1 0 97.04 5.27
-1 -2 0 95.84 5.53
1 -3 0 97.9 5.21
1 -3 0 100.52 5.01
-3 2 0 99.98 5.1
-3 2 0 95.48 5.19
2 1 0 100.26 5.02
2 1 0 99.99 5.22
2 1 0 100.94 5.91
-3 2 0 105.56 5.74
-3 2 0 100.66 5.06
3 -2 0 97.31 5.21
3 -2 0 99.96 5.09
-1 3 0 91.99 5.55
-2 -1 0 104.51 5.58
-2 -1 0 95.67 5.02
3 -2 0 102.48 5.56
-1 3 0 94.78 5.19
-1 3 0 103.81 5.03
-1 3 0 95.51 5.14
-3 3 0 620.57 29.9
3 0 0 526.27 30.34
-3 3 0 626.57 30.07
0 -3 0 633.42 30.67
-3 3 0 591.05 30.46
-3 3 0 629.73 30.07
3 0 0 569.97 30.94
0 -3 0 624.95 30.14
3 0 0 605.85 30.19
0 3 0 610.41 30.66
0 3 0 620.9 30.19
-3 0 0 620.98 29.9
3 -3 0 610.83 30.06
3 -3 0 597.95 30.54
3 -3 0 631.83 30.07
-3 0 0 610.27 30.81
0 3 0 623.28 30
0 3 0 600.48 30.09
0 3 0 633.67 30.15
3 -3 0 599.26 30.02
-4 1 0 34.42 3.64
1 3 0 44.05 2.38
-4 1 0 40.72 2.57
3 -4 0 40.34 2.45
1 3 0 38.83 2.57
3 -4 0 38.74 2.3
-4 1 0 38.25 2.09
3 -4 0 43.28 2.17
1 3 0 40.14 2.32
-3 4 0 41.32 2.32
-3 4 0 38.65 3
-3 4 0 39.45 2.16
-1 -3 0 42.07 2.96
4 -1 0 39.87 2.58
2 2 0 740.85 36.51
2 -4 0 714.37 36.37
2 -4 0 736.53 36.57
-4 2 0 761.59 36.28
-4 2 0 661.22 37.38
-4 2 0 741.3 36.5
-4 2 0 719.92 36.29
2 2 0 748.43 36.36
-2 4 0 734.73 37.15
-2 4 0 740.22 36.48
-2 4 0 805.79 36.31
4 -2 0 767.56 36.64
4 -2 0 753.84 36.49
-2 -2 0 739.81 37.07
-2 -2 0 725.97 36.36
-4 3 0 49.72 3.44
-4 3 0 39.24 2.34
3 1 0 47.14 2.32
1 -4 0 45.87 2.61
-4 3 0 38.55 2.31
3 1 0 38.93 2.52
4 -3 0 40.74 2.36
4 -3 0 38.33 2.49
-1 4 0 39.32 2.47
-3 -1 0 41.29 2.97
-3 -1 0 38.65 2.21
-1 4 0 40.22 2.47
-1 4 0 43.25 2.29
0 -4 0 26.31 2.37
0 -4 0 26.87 1.83
4 0 0 25.26 1.93
-4 4 0 24.92 1.49
0 4 0 28.52 1.87
-4 0 0 29.77 2.64
4 -4 0 22.47 1.78
0 4 0 24.88 1.57
0 4 0 25.99 1.89
4 -4 0 26.09 1.55
1 4 0 322.11 17.14
4 -5 0 339.1 16.99
1 4 0 338.51 17.35
-5 1 0 355.96 18.58
-1 -4 0 328.39 17.92
-4 5 0 333.5 16.94
-1 -4 0 342.47 17.1
-4 5 0 340.51 17.94
5 -1 0 336.35 17.33
-4 5 0 347.59 16.68
-5 2 0 23.95 1.52
3 -5 0 22.46 1.67
3 -5 0 21.44 1.77
2 3 0 23.75 1.71
2 3 0 22.61 1.97
-5 2 0 25.18 1.36
-3 5 0 25.64 1.58
-3 5 0 26.68 1.68
-2 -3 0 24.71 1.62
-3 5 0 24 2.61
-2 -3 0 20.74 2.2
5 -2 0 23.77 1.92
2 -5 0 23.68 1.8
2 -5 0 21.08 1.32
-5 3 0 24.71 3.07
-5 3 0 22.81 1.6
-5 3 0 24.22 1.46
3 2 0 24.35 1.53
3 2 0 23.94 1.74
-5 3 0 22.17 1.43
-2 5 0 24.58 1.42
-3 -2 0 21.69 2.18
-2 5 0 23.14 1.63
5 -3 0 20.9 1.61
5 -3 0 23.02 1.81
-2 5 0 21.87 1.68
-3 -2 0 21.41 1.43
4 1 0 344.15 17.22
1 -5 0 343.35 17.62
-5 4 0 348.28 17.27
4 1 0 353.7 17.67
-5 4 0 371.17 18.73
5 -4 0 340.6 17.55
-1 5 0 353.02 17.2
-4 -1 0 346.05 18.29
-1 5 0 329.57 17.56
-4 -1 0 339.05 17.08
-5 5 0 41.07 2.29
-5 5 0 42.21 3.88
0 -5 0 43.32 2.84
5 0 0 43.89 3.02
0 5 0 44.09 2.98
-5 0 0 50.41 4.02
0 5 0 34.3 4.46
5 -5 0 42.66 2.68
5 -5 0 42.29 2.29
0 5 0 42.69 2.49
1 5 0 23.97 2.25
-6 1 0 27.54 3.36
1 5 0 24.52 1.86
5 -6 0 28.46 2.06
6 -1 0 23.08 2.29
-1 -5 0 22.28 2.68
-1 -5 0 23.02 1.99
2 4 0 13.87 1.42
-6 2 0 16.88 3.04
4 -6 0 15.06 1.52
4 -6 0 16.07 1.68
2 4 0 15.34 1.81
6 -2 0 15.44 1.75
-2 -4 0 16.12 2.17
-2 -4 0 13.62 1.33
-4 6 0 16.05 2.53
3 -6 0 276.01 13.36
3 3 0 276.81 14.23
-6 3 0 236.79 15.82
-6 3 0 237.93 13.59
3 -6 0 274.35 13.94
3 3 0 275.41 13.85
-3 6 0 273.07 14.91
-3 -3 0 271.59 13.56
-3 6 0 268.18 13.6
-3 6 0 243.42 13.94
6 -3 0 287.53 14.06
-3 -3 0 289.9 14.79
-3 6 0 274.91 13.4
2 -6 0 16.57 1.63
-6 4 0 19.98 3.13
-6 4 0 17.37 1.3
4 2 0 14.59 1.61
-2 6 0 16.35 2.72
-2 6 0 14.75 1.49
6 -4 0 16.11 1.71
-4 -2 0 16.86 1.13
-2 6 0 16.32 1.68
-4 -2 0 14.24 2.11
-6 5 0 32.74 3.94
-6 5 0 21.79 1.75
1 -6 0 22.48 2.12
5 1 0 21.35 2.2
-1 6 0 24.51 1.52
-5 -1 0 25.62 2.8
6 -5 0 22.71 1.93
-1 6 0 22.66 2.03
-6 6 0 224.73 13.24
0 -6 0 225.76 11.86
6 0 0 229.61 12.17
-6 0 0 236.76 13.08
0 6 0 210.72 11.32
6 -6 0 217.66 11.79
0 6 0 225.67 12.05
1 6 0 8.96 1.28
1 6 0 14.32 2.29
-7 1 0 10.01 2.46
-6 7 0 8.21 2.7
-1 -6 0 7.55 1.26
2 5 0 158.53 9.16
2 5 0 157.76 8.5
-7 2 0 159.97 10.39
5 -7 0 168.46 8.58
-2 -5 0 158 9.81
7 -2 0 151.94 8.98
-5 7 0 158.04 9.76
-2 -5 0 158.02 8.51
-7 3 0 26.94 4.94
3 4 0 25.05 2.62
3 4 0 26.64 2.21
-4 7 0 25.36 3.78
-3 -4 0 25.07 2.95
-3 -4 0 22.45 1.85
7 -3 0 24.18 2.45
4 3 0 25.27 2.36
3 -7 0 27.88 2.45
-7 4 0 32.34 2.32
4 3 0 23.21 2.67
-7 4 0 24.28 4.38
-4 -3 0 26.33 3.01
-4 -3 0 25.1 1.8
7 -4 0 26.83 2.46
-3 7 0 26.96 3.84
5 2 0 158.04 9.22
-7 5 0 163.77 10.97
5 2 0 161.25 8.91
2 -7 0 157.69 8.87
-7 5 0 156.67 8.39
7 -5 0 156.29 8.77
-5 -2 0 159.64 9.69
-2 7 0 156.46 10.01
-2 7 0 165.34 8.85
1 -7 0 11.64 1.78
-7 6 0 8.65 1.23
-7 6 0 16.34 3.47
6 1 0 10.18 1.69
-1 7 0 10.19 1.7
7 -6 0 10.4 1.63
-6 -1 0 8.97 1.88
4 4 0 141.84 8.42
4 4 0 137.78 7.79
-4 -4 0 117.7 9.79
-4 8 0 127.01 9.31
8 -4 0 148.44 8.16
0 0 -1 83.73 3.95
0 0 -1 68.43 3.84
0 0 1 73.34 3.96
0 0 1 77.97 3.88
1 -1 -1 116.72 5.72
0 1 -1 118.12 5.72
0 1 -1 110.02 5.81
1 -1 -1 120.41 6.01
-1 0 -1 118.96 5.87
0 1 -1 110.04 5.96
1 -1 -1 109.6 5.82
-1 0 -1 112.14 5.85
0 1 -1 116.94 5.88
0 -1 1 115.52 5.87
0 -1 1 112.1 6
1 0 1 120.09 5.74
-1 1 1 111.6 5.7
1 0 1 126.92 5.98
-1 1 1 119.23 5.82
-1 1 1 111.51 5.82
1 0 1 119.97 5.87
0 -1 1 119.49 5.71
1 0 -1 23.47 1.4
-1 1 -1 24.88 1.37
1 0 -1 23.56 1.81
-1 1 -1 22.44 1.25
1 0 -1 23.88 1.3
-1 1 -1 23.07 1.39
0 -1 -1 23.35 1.29
1 0 -1 21.65 1.3
0 -1 -1 22.56 1.3
1 -1 1 23.16 1.28
0 1 1 24.27 1.31
1 -1 1 23.52 1.25
0 1 1 22.2 1.37
-1 0 1 22.13 1.75
0 1 1 22.52 1.27
0 1 1 24.06 1.27
1 -1 1 24.67 1.49
-1 0 1 21.89 1.29
-1 0 1 24.19 1.3
2 -1 -1 16.96 1.35
-1 -1 -1 14.08 0.87
-1 2 -1 14.78 1.01
-1 2 -1 14.47 1.17
-1 -1 -1 14.66 1.07
-1 -1 -1 15.72 1.05
-1 2 -1 15.94 0.97
2 -1 -1 14.4 0.99
2 -1 -1 14.42 0.9
-1 2 -1 14.92 0.77
-2 1 1 14.49 0.9
1 -2 1 13.54 0.95
1 -2 1 15.26 0.97
1 1 1 13.04 0.85
-2 1 1 16.56 1.03
-2 1 1 16.99 1.43
1 1 1 14.06 0.98
1 1 1 16.8 1.2
3 -2 -1 145.38 8.03
3 -2 -1 146.63 7.72
-2 -1 -1 157.78 7.86
-2 -1 -1 158.09 7.48
3 -2 -1 151.21 7.54
-2 -1 -1 149.53 7.94
-1 3 -1 147.38 8.08
-1 3 -1 136.2 7.68
-1 3 -1 146.19 7.68
-3 2 1 151.06 7.74
-3 2 1 158.05 8.29
-3 2 1 147 7.6
-3 2 1 154.55 7.6
2 1 1 153.99 7.47
2 1 1 145.17 7.76
2 1 1 148.23 7.71
1 -3 1 157.1 7.7
0 2 -1 19.46 1.15
2 -2 -1 16.86 1.44
-2 0 -1 16.93 1.2
0 2 -1 18.46 0.98
2 -2 -1 16.5 1.12
-2 0 -1 19.35 1.38
0 2 -1 16.34 1.37
0 2 -1 20.02 1.26
2 0 1 16.13 1.16
2 0 1 20.75 1.54
2 0 1 15.98 1.16
-2 2 1 17.56 1.14
0 -2 1 18.64 1.23
0 -2 1 18.91 1.18
0 -2 1 17.16 1.4
-2 2 1 17.81 1.11
1 1 -1 16 0.94
-2 1 -1 16.76 1.28
1 1 -1 14.47 1.03
1 -2 -1 13.9 0.96
1 1 -1 15.22 0.94
-2 1 -1 14.8 0.82
-2 1 -1 14.68 0.96
1 -2 -1 14.19 1.1
1 1 -1 14.59 1.23
-2 1 -1 15.34 1
2 -1 1 13.69 1.02
2 -1 1 15.09 1
-1 2 1 15.28 0.98
-1 -1 1 14.55 0.92
-1 2 1 16.15 0.98
2 -1 1 14.86 0.87
-1 2 1 15.77 0.85
2 -1 1 15.82 0.99
-1 -1 1 17.02 1.32
-1 2 1 14.92 0.84
-1 -1 1 14.32 0.92
-2 2 -1 226.52 11.34
2 0 -1 210.76 11.09
2 0 -1 219.78 11.1
-2 2 -1 235.76 11.01
-2 2 -1 234.04 10.99
0 -2 -1 216.95 11.01
0 -2 -1 205.76 11.03
2 0 -1 191.25 11.81
-2 2 -1 225.49 11.04
0 -2 -1 217.55 11.3
2 -2 1 220.97 11
0 2 1 231.97 11.03
-2 0 1 230.25 11.1
0 2 1 223.58 11.04
2 -2 1 197.65 11.31
0 2 1 225.23 11.05
-2 0 1 232.27 10.96
2 -2 1 233.72 11
0 2 1 218.75 11.32
-2 3 -1 11.35 1.27
-2 3 -1 14.2 0.82
3 -1 -1 14.16 1.73
3 -1 -1 12.31 1.04
-2 3 -1 14.5 1.44
-1 -2 -1 13.99 0.93
3 -1 -1 12.96 0.97
-1 -2 -1 11.25 1.14
-2 3 -1 13.74 1.3
-2 3 -1 13.03 0.96
1 2 1 12.9 0.95
-3 1 1 13.5 1.86
2 -3 1 12.33 0.96
1 2 1 13.25 1.34
-3 1 1 11.95 1.03
1 2 1 12.88 0.92
2 -3 1 13.41 0.8
1 2 1 13.63 1.1
-3 1 1 13.05 1.05
2 -3 1 13.63 0.95
-2 -2 -1 51.79 2.83
-2 4 -1 57.21 3.17
4 -2 -1 55.71 2.98
-2 -2 -1 47.07 3.3
4 -2 -1 52.17 3.1
2 -4 1 49.86 3.06
2 2 1 53.59 2.83
-4 2 1 52.78 2.83
2 -4 1 55.7 2.95
2 2 1 51.77 3.03
2 2 1 42.75 3.96
-4 2 1 55.02 2.87
-4 2 1 57.15 4.01
2 -4 1 46.15 2.78
-2 5 -1 58.88 3.43
5 -3 -1 53.23 3.43
5 -3 -1 53.42 3.13
-3 -2 -1 56.99 3
-3 -2 -1 54.34 3.77
3 2 1 56.41 3.03
3 2 1 55.6 3.41
-5 3 1 53.33 3.09
-5 3 1 54.43 3.11
2 -5 1 56.21 3.43
-5 3 1 63.71 4.54
4 -3 -1 7.16 0.61
-3 -1 -1 6.46 1.05
-3 -1 -1 5.85 0.97
-1 4 -1 6.07 0.78
4 -3 -1 7.24 0.86
3 1 1 6.69 0.54
1 -4 1 6.77 0.81
-4 3 1 6.4 0.68
3 1 1 5.88 0.87
-4 3 1 6.47 0.73
-4 3 1 6.58 1.33
3 1 1 6.1 1.91
0 3 -1 41.24 2.21
0 3 -1 38.87 2.41
0 3 -1 41.78 2.21
0 3 -1 41.67 2.54
-3 0 -1 45.35 2.9
-3 0 -1 41.12 2.74
3 -3 -1 39.57 2.4
-3 3 1 41.58 3.87
0 -3 1 40.72 3.29
0 -3 1 45.99 2.68
3 0 1 46.43 3.13
3 0 1 34.78 2.65
-3 3 1 42.09 2.46
-3 3 1 41.6 2.39
-3 1 -1 130.08 8.34
1 2 -1 153.77 7.58
-3 1 -1 148.62 7.7
1 2 -1 148.84 8.13
1 2 -1 147.55 7.78
2 -3 -1 159.62 7.7
-3 1 -1 140.4 7.7
2 -3 -1 147.03 7.67
1 2 -1 151.97 7.6
3 -1 1 153.73 7.75
-2 3 1 150.15 7.59
-2 3 1 143.98 8.06
-2 3 1 149.45 7.67
-1 -2 1 146.63 8.13
3 -1 1 158.91 7.76
3 -1 1 150.36 7.89
-1 -2 1 161.8 7.64
-3 2 -1 12.27 0.94
2 1 -1 12.86 0.89
2 1 -1 13.04 1.09
2 1 -1 15.07 1.8
-3 2 -1 14.67 0.86
-3 2 -1 12.42 0.95
1 -3 -1 14.68 0.96
1 -3 -1 14.32 1.03
2 1 -1 11.86 1.07
-3 2 -1 14.83 1.49
2 1 -1 12.77 1
-2 -1 1 13.06 0.96
3 -2 1 13.11 1.33
-1 3 1 12.91 0.9
-1 3 1 13.85 1.02
3 -2 1 12.97 0.84
-2 -1 1 12.61 0.87
3 -2 1 13.8 0.96
-1 3 1 12.66 1.3
-2 -1 1 15.04 1.52
-1 3 1 12.9 0.98
-1 3 1 12.96 0.89
3 -2 1 13.12 0.99
-3 3 -1 8.45 1.19
3 0 -1 5.88 1.47
0 -3 -1 9.85 1.09
3 0 -1 8.09 0.86
-3 3 -1 10.17 0.8
-3 3 -1 10.6 0.83
-3 3 -1 9.13 0.76
3 0 -1 7.37 0.94
3 -3 1 9.24 0.78
0 3 1 9.23 0.84
-3 0 1 9 0.63
-3 0 1 8.77 1.5
0 3 1 9.67 0.89
0 3 1 8.93 1.2
3 -3 1 9.9 1.04
0 3 1 11.39 0.88
3 -3 1 9.41 0.74
4 -1 -1 82.52 4.93
-1 -3 -1 83.97 5.29
-3 4 -1 93.01 4.63
-3 4 -1 88.45 5.47
-3 4 -1 92.55 4.76
-1 -3 -1 93.9 4.8
1 3 1 94.85 4.8
3 -4 1 89.6 4.63
-4 1 1 95.91 4.64
1 3 1 89.89 4.79
-4 1 1 84.42 6.29
3 -4 1 85.64 4.68
1 3 1 86.54 4.79
3 -4 1 86.15 4.84
-2 -3 -1 7.88 1.38
-3 5 -1 8.42 1.46
5 -2 -1 7.72 1.12
-3 5 -1 8.45 0.71
-2 -3 -1 7.37 0.81
2 3 1 6.34 0.91
-5 2 1 7.37 0.7
3 -5 1 9.21 1.08
-5 2 1 5.74 0.84
-5 2 1 5.06 2.12
-3 -3 -1 28.96 1.85
-3 6 -1 32.46 3.7
6 -3 -1 28.36 2.35
-3 6 -1 22.35 2.91
-3 -3 -1 28.54 2.68
-6 3 1 28.37 2.22
3 3 1 31.78 2.29
3 -6 1 30.44 2.37
-6 3 1 31 4.4
7 -4 -1 65.9 4.29
-3 7 -1 59.27 5.07
7 -4 -1 59.55 3.72
-4 -3 -1 62.99 4.73
-3 7 -1 61.77 5.76
-7 4 1 68.98 4.23
-7 4 1 70.68 7.29
4 3 1 68.34 4.25
3 -7 1 60.4 4.21
-4 -2 -1 1.51 0.75
6 -4 -1 1.48 0.78
-2 6 -1 1.43 0.78
2 -6 1 0.69 0.68
-6 4 1 0.21 1.55
-6 4 1 1.04 0.47
4 2 1 0.52 0.64
-4 -1 -1 21.44 2.1
-1 5 -1 18.53 1.65
5 -4 -1 18.57 1.62
5 -4 -1 19.17 1.74
4 1 1 18.67 1.69
-5 4 1 25.57 2.9
1 -5 1 19.61 1.68
-5 4 1 19.5 1.48
-4 0 -1 123.66 6.64
0 4 -1 105.22 5.8
0 4 -1 110.71 5.67
4 -4 -1 109.92 5.95
-4 0 -1 113.01 6.2
0 4 -1 116.28 6.18
-4 4 1 110.33 6.7
0 -4 1 104.23 6
4 0 1 112.77 6.12
0 -4 1 108.4 6.68
3 -4 -1 7.32 0.73
-4 1 -1 6.73 0.91
1 3 -1 5.81 0.86
1 3 -1 5.57 0.63
1 3 -1 7.16 0.72
-4 1 -1 10.05 1.83
4 -1 1 6.63 0.94
-1 -3 1 7.51 0.79
-3 4 1 6.31 0.78
-3 4 1 7.16 1.33
4 -1 1 4.72 1.05
-1 -3 1 5.44 1.17
2 -4 -1 47.14 3.04
2 -4 -1 51.46 3.11
-4 2 -1 53.99 2.74
2 2 -1 54.3 3.03
2 2 -1 50.65 2.91
-4 2 -1 49.5 3.77
-4 2 -1 51.48 3.07
-4 2 -1 53.4 2.75
2 2 -1 53.41 3.22
4 -2 1 51.98 3.05
-2 4 1 55.47 2.8
-2 -2 1 51.84 2.92
-2 4 1 55.08 2.87
4 -2 1 55.17 3.18
4 -2 1 49.91 3.39
-2 -2 1 58.88 3.73
-2 4 1 52.62 2.9
-4 3 -1 91.92 4.86
3 1 -1 83.02 4.97
-4 3 -1 95.93 5.67
1 -4 -1 82.33 4.72
1 -4 -1 83.56 4.96
3 1 -1 98.01 4.82
-4 3 -1 92.23 4.76
-3 -1 1 94.47 5.8
-1 4 1 96.67 4.91
-1 4 1 92.84 4.84
-1 4 1 82.83 4.81
-3 -1 1 92.37 4.71
4 -3 1 97.24 5
-4 4 -1 -0.25 0.58
-4 4 -1 0.09 0.45
4 0 -1 0.59 0.3
-4 4 -1 -0.1 0.31
0 -4 -1 0.29 0.42
4 0 -1 0.46 0.49
0 4 1 -0.42 0.39
4 -4 1 -0.24 0.5
-4 0 1 0.22 0.19
4 -4 1 -0.02 0.3
0 4 1 -0.34 0.7
-4 0 1 0.87 0.93
4 -4 1 0.1 0.33
-4 5 -1 37.76 2.24
-4 5 -1 36.97 2.16
-4 5 -1 38.44 3.38
-1 -4 -1 34.41 2.91
5 -1 -1 35.01 2.55
-1 -4 -1 33.84 2.31
1 4 1 37.01 2.34
-5 1 1 32.95 3.76
4 -5 1 39.99 2.22
-5 1 1 34.82 1.97
4 -5 1 38.09 2.2
1 4 1 36.23 2.58
4 -5 1 36.23 2.45
-2 -4 -1 74.41 4.28
-4 6 -1 77.31 4.19
-4 6 -1 80.41 5.73
6 -2 -1 75.41 4.71
-2 -4 -1 75.44 5.23
4 -6 1 71.52 4.54
2 4 1 79.59 4.5
-6 2 1 76.86 3.95
-6 2 1 61.42 6.61
4 -6 1 84.33 4.18
-3 -4 -1 10.79 2.16
7 -3 -1 9.28 1.56
-4 7 -1 8.29 2.55
-4 7 -1 9.07 1.42
-7 3 1 11.26 3.04
3 4 1 8.14 1.33
3 4 1 8.17 1.64
4 -7 1 7.68 1.42
-4 -4 -1 25.22 3.15
-4 8 -1 17.71 3.78
8 -4 -1 25.17 2.8
4 4 1 21.6 2.56
4 4 1 23.04 3.11
4 -8 1 26.3 2.67
-8 4 1 27.62 5.25
-2 7 -1 28.8 2.8
-5 -2 -1 28.65 2.99
7 -5 -1 28.09 2.54
2 -7 1 34.82 2.84
-7 5 1 27.14 2.15
5 2 1 30.38 2.67
-7 5 1 33.83 4.68
-1 6 -1 59.87 4.08
6 -5 -1 65.42 4.05
-5 -1 -1 71.06 4.77
-6 5 1 71.07 5.41
5 1 1 60.4 4.18
1 -6 1 67.44 4.19
-6 5 1 65.81 3.86
5 -5 -1 10.97 1.21
0 5 -1 10.14 0.85
0 5 -1 10.91 1.47
-5 0 -1 11.12 1.87
0 -5 1 9.35 1.27
5 0 1 10.56 1.42
0 -5 1 8.43 1.75
-5 5 1 14.23 2.55
1 4 -1 21.06 1.88
1 4 -1 22.4 1.61
4 -5 -1 22 2.03
1 4 -1 21.44 1.5
-5 1 -1 24.43 2.61
-5 1 -1 20.15 1.83
5 -1 1 23.41 1.93
-4 5 1 21.72 2.25
-1 -4 1 20.91 1.65
-1 -4 1 21.31 2.35
3 -5 -1 46.65 3.32
2 3 -1 57.13 3.22
-5 2 -1 54.07 5.09
-5 2 -1 55.1 3.36
2 3 -1 53.66 3.48
5 -2 1 59.23 3.51
-2 -3 1 55.24 3.16
-3 5 1 51.44 4
-3 5 1 58.29 3.18
-2 -3 1 55.58 3.99
2 -5 -1 8.5 1.07
-5 3 -1 10.67 2.26
3 2 -1 8.57 0.98
3 2 -1 7.02 1.14
3 2 -1 7.28 0.98
-5 3 -1 7.93 0.98
-5 3 -1 6.42 0.64
2 -5 -1 8.95 0.77
-5 3 -1 6.97 0.72
-3 -2 1 7.98 0.75
5 -3 1 7.56 1.06
-2 5 1 5.97 0.89
-3 -2 1 8.89 1.53
-2 5 1 8.79 0.93
-2 5 1 7.96 0.87
1 -5 -1 29.95 2.37
-5 4 -1 35.5 2.23
-5 4 -1 43.91 3.86
4 1 -1 36.15 2.52
5 -4 1 35.34 2.34
5 -4 1 34.84 3.14
-4 -1 1 38.64 3.32
-4 -1 1 35.43 2.04
-1 5 1 39.02 2.35
-1 5 1 34.65 2.34
5 0 -1 81.41 5.22
-5 5 -1 92.97 6.36
-5 5 -1 90.28 4.79
0 -5 -1 86.86 5.11
5 -5 1 89.35 4.84
0 5 1 89.69 5.22
-5 0 1 99.25 6.65
5 -5 1 87.51 4.95
0 5 1 92.09 4.9
-5 0 1 92.36 4.59
-5 6 -1 4.99 0.8
6 -1 -1 8.59 1.37
-5 6 -1 5.08 1.36
-1 -5 -1 5.3 0.91
1 5 1 4.98 1.27
-6 1 1 5.69 1.96
1 5 1 4.59 0.91
-5 7 -1 15.81 2.92
7 -2 -1 11.59 1.95
-2 -5 -1 12.35 1.61
-2 -5 -1 11.21 2.36
-7 2 1 9.36 2.52
2 5 1 16.38 2.2
2 5 1 12.68 1.76
-6 -1 -1 4.75 1.36
7 -6 -1 7 1.23
-1 7 -1 9.17 1.63
-7 6 1 7.44 3.25
6 1 1 5.99 1.65
1 -7 1 8.24 1.72
-7 6 1 6.02 1.03
-6 0 -1 28.92 2.95
6 -6 -1 27.44 2.34
0 6 -1 33.54 2.91
6 0 1 30.65 3.4
-6 6 1 31.38 2.34
0 -6 1 29.27 2.52
-6 6 1 33.38 4.32
1 5 -1 67.22 4.47
-6 1 -1 70.34 4.98
5 -6 -1 66.49 4.12
-1 -5 1 62.9 4.09
-1 -5 1 67.54 5.12
-5 6 1 73.08 5.69
6 -1 1 70.98 4.47
-6 2 -1 1.97 1.7
2 4 -1 0.93 0.65
2 4 -1 0.06 0.69
4 -6 -1 2.38 0.93
-6 2 -1 2.07 0.78
-2 -4 1 -0.03 1.37
6 -2 1 2.1 0.78
-2 -4 1 1.24 0.51
-4 6 1 1.54 1.24
-6 3 -1 30.51 1.79
3 3 -1 32.39 2.28
-6 3 -1 28.52 2.22
3 -6 -1 31.98 1.89
3 3 -1 24.72 2.38
-6 3 -1 30.67 4.34
-6 3 -1 29.3 1.87
6 -3 1 30.18 2.39
-3 6 1 29.44 1.77
-3 -3 1 29.5 1.95
-3 -3 1 28.28 2.93
-3 6 1 25.24 3.2
-6 4 -1 76.32 4.33
4 2 -1 70.89 4.45
-6 4 -1 77.06 6.35
2 -6 -1 71.78 4.48
4 2 -1 74.43 4.74
-4 -2 1 76.94 5.35
-2 6 1 78.3 4.39
6 -4 1 73.62 4.47
5 1 -1 3.34 0.98
-6 5 -1 5.6 0.83
-6 5 -1 6.66 2.49
5 1 -1 5.66 1.2
1 -6 -1 4.75 0.96
-1 6 1 5.24 0.99
-5 -1 1 7.19 1.73
6 -5 1 6.23 0.99
-5 -1 1 6.73 0.65
6 0 -1 28.96 2.63
0 -6 -1 26.14 2.3
6 0 -1 27.59 2.6
-6 0 1 38.49 3.97
0 6 1 30.33 2.64
0 6 1 28.86 2.18
6 -6 1 30.36 2.26
7 -1 -1 33.34 3.07
-6 7 -1 38.9 5.45
7 -1 -1 39.46 4.36
1 6 1 46.13 3.56
-7 1 1 45.32 5.29
1 6 1 41.21 2.95
1 6 -1 6.99 1.47
6 -7 -1 8.57 1.89
7 -1 1 7.3 1.82
-6 7 1 7.97 4.11
-1 -6 1 7.24 1.14
2 5 -1 34.18 3.13
5 -7 -1 26.68 2.67
-7 2 -1 34.99 4
2 5 -1 32.57 2.4
-2 -5 1 29.63 3.51
7 -2 1 32.42 2.92
-2 -5 1 31.53 2.71
-7 3 -1 63.81 6.75
3 4 -1 63.31 4.48
3 4 -1 63.67 3.99
4 -7 -1 62.48 3.67
-3 -4 1 67.84 5.15
-3 -4 1 63.35 3.82
7 -3 1 64.79 4.3
-4 7 1 66.07 5.28
4 3 -1 8.45 1.39
4 3 -1 7.08 1.56
-7 4 -1 9.5 2.79
-3 7 1 8.39 2.36
-4 -3 1 8.91 1.81
7 -4 1 7.16 1.22
-4 -3 1 6.73 1.04
5 2 -1 13.88 2.1
5 2 -1 12.21 1.91
-7 5 -1 12.32 1.38
-7 5 -1 18.52 3.48
-5 -2 1 16.53 2.82
7 -5 1 13.63 1.75
-2 7 1 14.58 2.2
6 1 -1 36.75 3.17
-7 6 -1 45.54 5.89
6 1 -1 37.12 3.63
-7 6 -1 40.17 2.69
7 -6 1 39.14 2.97
-6 -1 1 41.05 4.37
-1 7 1 39.3 3.23
4 4 -1 24.55 3.16
4 4 -1 25.13 2.72
-8 4 -1 41.73 6.93
-4 -4 1 26.27 3.41
8 -4 1 25.14 2.73
-4 8 1 26.22 4.05
0 0 -2 0.44 0.2
0 0 -2 0.47 0.26
0 0 -2 0.7 0.2
0 0 -2 0.58 0.23
0 0 2 0.61 0.25
0 0 2 0.22 0.21
0 0 2 0.38 0.18
0 0 2 0.83 0.3
1 -1 -2 460.43 24.39
0 1 -2 494.65 24.34
-1 0 -2 456.58 24.38
0 1 -2 488.72 24.52
-1 0 -2 505.63 24.36
1 -1 -2 487.64 24.34
-1 0 -2 505.76 24.29
0 1 -2 488.66 24.45
1 -1 -2 539.34 24.61
1 -1 -2 483.3 24.51
0 1 -2 469.88 24.31
-1 1 2 532.14 24.43
0 -1 2 509.41 24.47
1 0 2 505.41 24.36
1 0 2 506.63 24.41
-1 1 2 500.69 24.36
-1 1 2 496.39 24.54
0 -1 2 472.2 24.34
0 -1 2 494.84 24.59
1 0 2 500.77 24.34
-1 1 -2 802.05 38.23
1 0 -2 843.83 38.48
0 -1 -2 747.85 38.39
1 0 -2 812.94 38.88
0 1 2 730.72 38.4
1 -1 2 743.58 38.64
-1 0 2 762.89 38.78
-1 0 2 772.93 38.28
-1 0 2 804.4 38.32
0 1 2 775.74 38.26
0 1 2 790.7 38.27
-1 2 -2 11.85 1.01
-1 2 -2 12.94 1.04
-1 -1 -2 11.3 0.9
2 -1 -2 11.12 0.79
2 -1 -2 10.81 0.8
2 -1 -2 11.41 1.4
-1 -1 -2 11.74 0.88
2 -1 -2 11.9 0.89
-1 2 -2 12 0.83
1 -2 2 12.34 0.95
1 1 2 11.28 0.84
-2 1 2 10.87 1.21
1 1 2 11.98 0.74
1 -2 2 10.45 0.83
-2 1 2 11.05 0.83
1 1 2 12.52 0.97
1 1 2 11.84 0.74
1 1 2 11.56 0.87
1 -2 2 11.16 1.06
3 -2 -2 308.58 15.71
-2 -1 -2 309.86 15.77
-1 3 -2 312.01 16.03
3 -2 -2 324.55 15.47
-2 -1 -2 324.98 15.83
3 -2 -2 313.51 15.48
-1 3 -2 319.72 15.66
-1 3 -2 297.83 15.77
3 -2 -2 342.09 16.22
-3 2 2 311.39 15.72
1 -3 2 302.12 15.69
1 -3 2 306.29 15.7
2 1 2 317.33 15.69
2 1 2 296.54 16.06
2 1 2 321.15 15.41
2 1 2 314.31 15.72
1 -3 2 321.86 16.24
-3 2 2 317.49 16.23
-3 2 2 304.19 15.6
2 1 2 285.45 15.72
2 1 2 318.46 15.41
-2 0 -2 393.85 20.37
0 2 -2 405.76 20.6
-2 0 -2 397.44 20.27
0 2 -2 416.39 20.09
2 -2 -2 396.04 20.3
0 2 -2 416.69 20.42
0 2 -2 422.93 20.27
2 0 2 398.38 20.31
0 -2 2 394.34 20.27
-2 2 2 411.32 20.61
2 0 2 415.68 20.27
0 -2 2 404.34 20.72
2 0 2 404.54 20.03
0 -2 2 412.16 20.36
-2 2 2 405.83 20.29
2 0 2 412.91 20.01
2 0 2 418.68 20.32
2 0 2 429.13 20.37
0 -2 2 418.04 20.04
-2 2 2 406.34 20.27
1 1 -2 11.16 0.91
1 -2 -2 11.29 0.73
-2 1 -2 10.27 0.83
1 1 -2 10.63 0.79
1 1 -2 11.14 0.75
1 -2 -2 10.99 1.06
-2 1 -2 10.53 0.66
-2 1 -2 12.62 1.01
1 1 -2 10.78 1.13
-1 2 2 10.78 0.81
-1 -1 2 12.58 0.94
2 -1 2 10.96 0.67
2 -1 2 11.84 0.87
-1 -1 2 11.03 0.74
-1 -1 2 9.59 0.76
2 -1 2 10.77 0.81
-1 2 2 10.55 1.01
-1 -1 2 12.34 1.23
-1 2 2 12.31 0.93
2 -1 2 10.08 0.84
-2 2 -2 720.47 34.6
-2 2 -2 653.08 34.78
2 0 -2 637.17 34.67
0 -2 -2 718.29 34.68
2 0 -2 689.21 34.78
-2 2 -2 682 34.9
0 -2 -2 704.39 34.72
2 0 -2 692.32 34.73
2 0 -2 705.17 35.58
0 2 2 708.24 34.79
0 2 2 718.3 34.65
0 2 2 737.18 34.66
-2 0 2 664.18 35.43
2 -2 2 731.94 34.63
0 2 2 769.75 34.97
-2 0 2 691.9 34.68
2 -2 2 712.36 35.09
2 -2 2 733.14 34.59
-2 0 2 720.38 34.71
3 -1 -2 435.92 21.29
3 -1 -2 426.08 21.19
-1 -2 -2 433.24 21.54
3 -1 -2 418.78 21.37
-2 3 -2 431.87 21.73
-2 3 -2 441.42 21.69
3 -1 -2 375.26 22.07
-2 3 -2 444.75 21.29
3 -1 -2 438.63 21.28
-1 -2 -2 418.6 21.41
2 -3 2 429.03 21.31
-3 1 2 445.75 21.52
-3 1 2 411.67 21.38
2 -3 2 442.58 21.4
1 2 2 418.68 21.3
1 2 2 435.36 21.66
-3 1 2 427.75 22.59
2 -3 2 421.71 21.06
1 2 2 433.8 21.34
1 2 2 443.03 21.18
4 -2 -2 0.68 0.31
-2 4 -2 0.02 0.56
-2 -2 -2 0.54 0.37
-2 -2 -2 0.39 0.41
4 -2 -2 0.63 0.29
4 -2 -2 0.32 0.44
-4 2 2 0.59 0.79
2 -4 2 0.51 0.31
2 -4 2 0.48 0.45
2 2 2 0.18 0.39
2 2 2 0.43 0.27
2 2 2 -0.36 0.93
-4 2 2 0.65 0.33
5 -3 -2 138.98 7.29
-2 5 -2 143.06 7.76
5 -3 -2 141.12 7.32
5 -3 -2 139.73 7.67
-3 -2 -2 135.08 7.92
3 2 2 145.47 7.22
-5 3 2 149.41 8.82
2 -5 2 143.54 7.7
3 2 2 144.48 7.69
-5 3 2 141.55 7.45
4 -3 -2 352.83 16.82
-1 4 -2 323.41 17.27
4 -3 -2 348.5 17.23
-3 -1 -2 320.89 17.26
-3 -1 -2 349.69 17.41
4 -3 -2 343.06 16.79
3 1 2 346.04 16.72
3 1 2 352.93 17.26
-4 3 2 330.01 17.04
3 1 2 336.62 16.78
1 -4 2 329 17.87
1 -4 2 367.82 17.24
-4 3 2 335.92 17.9
3 1 2 331.71 18.23
0 3 -2 16.27 0.94
-3 0 -2 16.81 1.43
3 -3 -2 16.47 1.23
-3 0 -2 15.7 1.36
0 3 -2 17.58 1.77
3 0 2 17.45 1.33
-3 3 2 16.28 1.7
3 0 2 20.27 1.7
0 -3 2 15.23 1.28
-3 3 2 16.13 1.27
0 -3 2 17.2 1.77
-3 3 2 14.41 1.29
2 -3 -2 313.21 16.12
1 2 -2 320.51 15.85
1 2 -2 300.94 16.16
-3 1 -2 321.23 16.1
-3 1 -2 343.75 16.61
1 2 -2 302.98 16.53
1 2 -2 328.61 15.97
-2 3 2 325.25 16
-2 3 2 312.93 16.39
3 -1 2 326.56 16.1
-1 -2 2 331.81 15.85
-2 3 2 317.34 16.02
-1 -2 2 321.8 16.63
3 -1 2 307.56 16.03
3 -1 2 316.93 16.07
-1 -2 2 325.91 15.99
-3 2 -2 444.48 21.97
2 1 -2 423.66 22.51
-3 2 -2 433.87 21.61
-3 2 -2 445.73 21.38
2 1 -2 436.13 21.73
2 1 -2 430.66 21.51
1 -3 -2 437.26 21.72
2 1 -2 433.71 21.56
-2 -1 2 447.43 21.55
3 -2 2 437.83 21.39
3 -2 2 450.2 21.58
-2 -1 2 407.72 21.47
-2 -1 2 447.48 22.42
3 -2 2 462.87 21.8
-1 3 2 421.5 21.39
-1 3 2 372.43 21.65
3 -2 2 435.95 21.64
-1 3 2 441.11 22.02
-1 3 2 440.55 21.59
3 0 -2 0.51 0.42
-3 3 -2 0.62 0.3
-3 3 -2 0.95 0.31
3 0 -2 0.43 0.31
3 0 -2 0.66 0.38
-3 3 -2 0.81 0.54
3 0 -2 -0.03 0.41
0 -3 -2 0.53 0.26
0 3 2 0.73 0.4
3 -3 2 0.65 0.26
0 3 2 0.47 0.31
3 -3 2 1.39 0.62
3 -3 2 0.51 0.23
-3 0 2 0.27 0.71
0 3 2 1.16 0.59
-3 0 2 0.88 0.24
0 3 2 0.04 0.47
4 -1 -2 210.61 11.09
-3 4 -2 208.71 11.08
4 -1 -2 203.44 10.76
-1 -3 -2 200.22 11.38
-3 4 -2 233.1 11.81
3 -4 2 213.69 11
3 -4 2 213.91 10.69
3 -4 2 215.98 10.99
-4 1 2 235.44 12.73
-4 1 2 216.26 10.95
-3 5 -2 283.52 15.63
5 -2 -2 300.31 14.44
-2 -3 -2 283.05 14.97
-3 5 -2 236.61 14.86
5 -2 -2 285.25 14.58
2 3 2 295.39 14.49
-5 2 2 291.28 14.45
3 -5 2 285.73 14.5
-5 2 2 282.6 16.65
6 -3 -2 1.17 0.7
-3 -3 -2 0.3 0.77
6 -3 -2 0.75 0.52
-3 6 -2 2.27 1.27
-3 6 -2 -0.14 1.44
-6 3 2 0.69 0.84
-6 3 2 2.36 1.92
3 3 2 0.56 0.66
3 -6 2 1.63 0.75
-4 -3 -2 72.04 5.22
7 -4 -2 72.92 4.86
-3 7 -2 86.15 5.87
7 -4 -2 76 4.3
3 -7 2 80.46 4.93
-7 4 2 72.53 7.08
-7 4 2 74.35 4.93
4 3 2 71.6 4.81
4 3 2 80.62 4.6
-2 6 -2 154.33 8.68
-4 -2 -2 157.99 8.98
6 -4 -2 161.76 8.08
6 -4 -2 150.49 8.62
-6 4 2 170.87 10.1
4 2 2 151.65 8.66
-6 4 2 157.41 8.33
2 -6 2 161.1 8.69
-4 -1 -2 1.09 0.69
5 -4 -2 -0.15 0.47
-1 5 -2 0.25 0.55
-4 -1 -2 0.08 0.58
4 1 2 0.9 0.6
-5 4 2 0.73 0.42
1 -5 2 0.44 0.47
-5 4 2 -0.28 1.35
4 -4 -2 263.34 12.97
-4 0 -2 247.35 13.16
0 4 -2 252.96 12.46
0 4 -2 236.91 12.54
-4 0 -2 253 13.18
0 4 -2 256.02 13.15
0 -4 2 232.85 12.94
4 0 2 267.34 13.39
4 0 2 255.62 13.08
0 -4 2 268.94 13.9
-4 4 2 252.55 12.89
-4 4 2 246.83 13.57
1 3 -2 332.78 17.58
-4 1 -2 341.71 17.53
-4 1 -2 365.21 18.06
1 3 -2 350.5 17.16
-1 -3 2 348.33 18.23
-1 -3 2 333.64 17.37
-3 4 2 335.85 17.79
4 -1 2 352.82 17.53
4 -1 2 348.79 17.59
2 2 -2 0.42 0.4
2 -4 -2 -0.4 0.39
-4 2 -2 0.45 0.17
-4 2 -2 1.81 0.84
-4 2 -2 0.27 0.35
2 2 -2 0.47 0.34
2 2 -2 0.48 0.35
-2 -2 2 0.47 0.37
4 -2 2 0.36 0.34
-2 4 2 0.99 0.47
-2 -2 2 0.39 0.3
-2 4 2 0.48 0.21
-2 4 2 0.82 0.21
-2 4 2 0.2 0.67
4 -2 2 0.07 0.63
-2 -2 2 0.45 0.58
-4 3 -2 213.26 10.95
1 -4 -2 217.07 10.92
-4 3 -2 215.74 10.75
3 1 -2 218.26 11.07
3 1 -2 216.06 10.98
3 1 -2 212.96 11.17
-1 4 2 224.15 10.85
4 -3 2 205.06 11.14
-1 4 2 216.47 11.53
-1 4 2 189.04 11.04
4 -3 2 215.62 11.15
-1 4 2 226.26 10.83
-3 -1 2 212.65 10.79
-3 -1 2 212.49 12.03
4 -3 2 217.21 10.78
4 0 -2 216.81 11.91
4 0 -2 248.55 11.63
-4 4 -2 232.48 12.36
4 0 -2 238.51 11.9
-4 4 -2 222.24 11.63
4 -4 2 234.49 11.68
-4 0 2 230.21 11.5
4 -4 2 212.09 11.93
4 -4 2 228.92 11.57
-4 5 -2 5.36 1.6
-4 5 -2 4.66 0.75
5 -1 -2 4.5 0.88
5 -1 -2 5.01 1
-5 1 2 5.51 0.61
4 -5 2 4.29 0.75
4 -5 2 4.47 0.8
4 -5 2 5.36 0.64
-5 1 2 5.46 1.67
6 -2 -2 137.09 7.93
6 -2 -2 135.36 7.74
-4 6 -2 150.09 7.72
-4 6 -2 153.55 9.35
-2 -4 -2 139.84 8.44
2 4 2 132.95 7.7
4 -6 2 133.98 7.82
-6 2 2 148.07 7.43
-6 2 2 157.49 10.25
-4 7 -2 126.46 6.83
-4 7 -2 124.69 8.55
-3 -4 -2 114.5 7.4
7 -3 -2 114.46 6.95
7 -3 -2 111.03 6.6
-7 3 2 119.13 6.33
4 -7 2 115.34 6.91
3 4 2 112.75 6.75
-7 3 2 132.43 10.02
-2 7 -2 5.07 1.53
7 -5 -2 3.79 1.03
-5 -2 -2 3.27 1.26
-7 5 2 5.63 0.99
2 -7 2 5.99 1.4
-7 5 2 7.1 2.19
5 2 2 6.1 1.26
-1 6 -2 99.71 5.92
-5 -1 -2 96.6 6.07
6 -5 -2 98.18 5.76
-6 5 2 104.14 7.22
-6 5 2 99.19 5.57
5 1 2 96.92 5.88
1 -6 2 102.27 5.85
0 5 -2 184.86 9.56
-5 0 -2 172.79 9.62
-5 0 -2 164.18 9.53
5 -5 -2 169.08 9.22
-5 5 2 173.14 10.25
0 -5 2 178.08 10.42
5 0 2 175 9.44
0 -5 2 169.5 9.31
-5 5 2 179.46 9.23
1 4 -2 0.65 0.7
-5 1 -2 0.31 0.81
1 4 -2 0.81 0.52
-5 1 -2 0.53 0.65
4 -5 -2 0.01 0.47
1 4 -2 0.3 0.33
-4 5 2 0.51 0.92
-1 -4 2 0.89 0.8
5 -1 2 0.89 0.54
-1 -4 2 0.01 0.41
3 -5 -2 144.57 7.74
2 3 -2 134.76 7.72
-5 2 -2 142.28 8.99
2 3 -2 141.11 7.4
-5 2 -2 138.71 7.6
-2 -3 2 126.02 7.37
5 -2 2 139.03 7.62
-3 5 2 140.48 8.2
-2 -3 2 157.8 8.59
2 -5 -2 293.91 14.73
3 2 -2 290.01 14.76
-5 3 -2 242.76 15.65
-5 3 -2 294.76 14.36
-5 3 -2 292.59 14.78
3 2 -2 282.3 15.07
5 -3 2 305.85 14.87
-2 5 2 288.92 14.47
-3 -2 2 275.31 14.57
-2 5 2 298.03 14.4
-2 5 2 287.16 15.48
-3 -2 2 322.44 16.06
-5 4 -2 3.41 1.57
4 1 -2 4.12 0.82
4 1 -2 3.93 0.84
4 1 -2 4.69 1.06
1 -5 -2 4.55 0.72
-5 4 -2 5.35 0.86
5 -4 2 5.14 0.85
-4 -1 2 4 0.55
-4 -1 2 5.93 1.59
5 0 -2 115.39 6.5
5 0 -2 116.85 5.92
-5 5 -2 101.85 6.6
-5 5 -2 125.57 7.64
5 0 -2 108.03 6.39
-5 0 2 102.96 7.66
0 5 2 113.7 6.28
5 -5 2 114.62 6.02
-5 0 2 111.05 5.81
5 -5 2 116.03 6.16
6 -1 -2 125.85 7.7
6 -1 -2 146.31 7.8
-5 6 -2 147 8.82
-6 1 2 113.18 9.07
5 -6 2 147.35 7.26
1 5 2 147.8 7.85
-6 1 2 135.19 7
1 5 2 134.14 7.45
5 -6 2 141.86 7.59
-5 7 -2 0.63 2.13
7 -2 -2 -1.13 0.77
7 -2 -2 0.05 1.06
5 -7 2 0.11 0.84
2 5 2 -0.56 1.07
2 5 2 0.89 0.91
-7 2 2 0.39 2.04
7 -6 -2 103.47 6.22
-6 -1 -2 113.24 6.89
-1 7 -2 109.41 6.65
-7 6 2 109.91 6.1
6 1 2 98.26 6.73
1 -7 2 96.75 6.61
0 6 -2 0.12 0.93
-6 0 -2 -0.68 0.94
6 -6 -2 -0.34 0.76
-6 6 2 0.9 0.72
6 0 2 0.28 0.85
0 -6 2 0.01 0.76
-6 6 2 -0.81 1.93
-6 1 -2 99.27 6.14
5 -6 -2 110.06 5.96
1 5 -2 93.76 6.05
1 5 -2 95.23 5.23
-6 1 -2 98.46 6.32
-1 -5 2 102.81 5.76
6 -1 2 103.56 6.04
-5 6 2 95.63 6.79
-1 -5 2 103.16 6.96
2 4 -2 152.66 8.68
-6 2 -2 156.3 9.4
2 4 -2 162.85 8.12
-6 2 -2 146.11 8.48
4 -6 -2 159.57 8.62
6 -2 2 155.93 8.58
-2 -4 2 159.77 9.51
-2 -4 2 144.44 8.19
-4 6 2 149.75 9.01
-6 3 -2 2.47 1.69
3 3 -2 2.02 0.9
3 3 -2 1.73 0.7
-6 3 -2 1.58 0.75
3 -6 -2 0.58 0.6
-3 -3 2 1.84 1.08
-3 6 2 0.7 1.31
6 -3 2 1.19 0.79
-3 -3 2 1.88 0.55
4 2 -2 132.64 7.48
-6 4 -2 114.49 8.89
2 -6 -2 140.33 7.91
-6 4 -2 134.08 7.37
-6 4 -2 136.42 7
4 2 -2 132.63 7.81
-2 6 2 137.01 7.19
-4 -2 2 149.46 8.86
-2 6 2 136.69 8.51
-4 -2 2 142.19 7.16
6 -4 2 137.78 7.45
5 1 -2 138.73 7.93
5 1 -2 136.96 8.1
-6 5 -2 139.36 9.75
-6 5 -2 139.57 7.61
6 -5 2 144.91 7.71
-1 6 2 141.9 7.74
-1 6 2 145.78 8.85
-5 -1 2 151.51 9.38
-5 -1 2 144.96 7.44
-6 6 -2 1.1 0.77
6 0 -2 -0.34 0.86
-6 6 -2 3.19 2.32
6 0 -2 1.27 0.85
0 6 2 2.16 0.98
0 6 2 0.67 0.78
6 -6 2 1.17 0.69
-6 0 2 1.43 1.86
7 -1 -2 61.31 4.18
7 -1 -2 60.93 4.27
1 6 2 55.28 4.27
-7 1 2 45.7 5.99
1 6 2 62.38 3.89
1 6 -2 118.55 7.2
-7 1 -2 104.38 7.15
6 -7 -2 118.57 7.23
-6 7 2 114.49 6.58
-1 -6 2 109.08 8.01
7 -1 2 111.66 6.89
-1 -6 2 116.74 6.61
-6 7 2 107.32 7.99
-7 2 -2 2.01 1.48
2 5 -2 4.08 0.95
2 5 -2 2.47 1.22
5 -7 -2 4.63 1.37
-2 -5 2 4.34 0.99
-5 7 2 4.13 2.05
7 -2 2 3.31 1.1
-2 -5 2 5.61 1.73
3 4 -2 73.64 4.57
3 4 -2 77.49 5.3
-7 3 -2 76.85 4.99
-7 3 -2 89.77 6.78
4 -7 -2 80.52 4.6
-4 7 2 76.51 5.92
-3 -4 2 75.96 4.56
7 -3 2 74.07 4.96
-3 -4 2 76.39 6.05
4 3 -2 108.67 6.43
3 -7 -2 110.62 6.09
-7 4 -2 114.71 6.55
-7 4 -2 132.31 9.29
4 3 -2 105 6.83
-4 -3 2 122.3 8.01
7 -4 2 114.33 6.59
-4 -3 2 111.05 6.16
-3 7 2 107.25 7.72
-7 5 -2 2.62 2.49
-7 5 -2 0.14 0.99
5 2 -2 0.33 0.89
-7 5 -2 0.23 0.62
5 2 -2 0.38 1.07
-5 -2 2 0.09 0.58
-5 -2 2 0.71 1.41
7 -5 2 -0.43 0.75
-2 7 2 2.44 2.17
-2 7 2 0.7 1.22
-7 6 -2 58.74 6.7
6 1 -2 62 4.32
-1 7 2 61.64 3.9
-1 7 2 66.83 6.39
-6 -1 2 65.94 6.34
-1 7 2 65.26 4.41
7 -6 2 62.5 4.08
0 0 -3 1.34 0.34
0 0 -3 0.91 0.32
0 0 -3 0.94 0.3
0 0 -3 2.21 0.41
0 0 3 0.63 0.32
0 0 3 0.99 0.32
0 0 3 1.19 0.29
0 0 3 0.82 0.36
1 -1 -3 10.21 1.1
0 1 -3 7.99 0.82
-1 0 -3 8.97 0.8
0 1 -3 8.95 0.76
-1 0 -3 8.69 0.73
0 1 -3 8.81 0.85
1 -1 -3 10.63 0.84
0 1 -3 8.29 0.7
1 -1 -3 9.42 0.81
1 -1 -3 10.39 0.78
-1 0 -3 7.09 0.66
-1 1 3 8.72 0.85
0 -1 3 9.68 0.93
0 -1 3 10.24 0.69
-1 1 3 9.81 0.86
1 0 3 10.47 0.75
0 -1 3 9.24 0.97
0 -1 3 10.01 0.76
1 0 3 7.55 0.73
-1 1 3 8.54 0.73
1 0 3 8.07 0.69
-1 1 3 9.09 0.96
-1 1 -3 187.7 9.65
1 0 -3 200.89 9.8
-1 1 -3 170.07 9.96
0 -1 -3 186.43 9.72
0 -1 -3 200.43 9.69
1 0 -3 185.7 9.71
-1 1 -3 186.98 9.64
1 0 -3 199.46 10.19
-1 1 -3 196.82 9.68
0 1 3 189.9 10.03
1 -1 3 190.59 9.67
-1 0 3 203.59 9.9
0 1 3 191.34 9.73
1 -1 3 197.78 9.73
1 -1 3 185.31 9.63
0 1 3 178.26 9.66
-1 0 3 211.37 10.26
1 -1 3 201.5 10.13
-1 0 3 193.07 9.72
-1 0 3 204.28 9.81
2 -1 -3 48.36 2.79
2 -1 -3 53.66 2.88
-1 2 -3 51.13 2.82
-1 2 -3 52.83 3.02
-1 -1 -3 50.16 2.91
-1 -1 -3 50.82 2.89
-1 2 -3 51.39 3.21
1 -2 3 54.91 3.12
1 -2 3 55.35 2.7
-2 1 3 50.39 3.36
1 1 3 49.81 2.72
1 -2 3 52.83 3.15
-2 1 3 50.99 2.92
1 1 3 49.69 2.84
1 1 3 47.13 2.81
-2 1 3 49.46 2.78
1 -2 3 47.95 2.81
1 1 3 53.74 2.9
3 -2 -3 1.78 0.33
-1 3 -3 1 0.47
-2 -1 -3 1.67 0.55
3 -2 -3 1.87 0.34
3 -2 -3 1.91 0.5
-2 -1 -3 2.37 0.49
-1 3 -3 1.21 0.59
2 1 3 1.41 0.28
2 1 3 2.27 0.32
-3 2 3 1.36 0.39
-3 2 3 2.81 0.89
1 -3 3 1.69 0.67
1 -3 3 0.99 0.57
2 1 3 1 0.68
1 -3 3 2.12 0.49
0 2 -3 189.27 9.63
0 2 -3 184.21 9.19
0 2 -3 178.69 9.72
-2 0 -3 176.06 9.51
2 -2 -3 186.11 9.49
2 -2 -3 174.73 9.27
0 2 -3 194.53 9.41
-2 0 -3 208.04 9.37
2 -2 -3 185.7 9.9
-2 0 -3 193.69 9.19
0 -2 3 174.01 9.4
0 -2 3 185.9 9.17
-2 2 3 182.2 9.48
0 -2 3 187.43 9.93
-2 2 3 183.44 9.19
-2 2 3 193.78 9.44
2 0 3 189.56 9.53
2 0 3 189.42 9.21
2 0 3 172.76 9.4
0 -2 3 182.38 9.58
-2 2 3 173.62 9.74
1 -2 -3 48.21 2.67
-2 1 -3 44.81 2.82
1 1 -3 53.88 3.3
-2 1 -3 50.4 2.68
-2 1 -3 54.46 2.96
1 -2 -3 51.29 3.1
1 1 -3 51.65 2.76
1 1 -3 54.27 2.99
1 1 -3 49.37 2.82
1 -2 -3 56.96 3.18
-1 2 3 51.98 2.77
-1 2 3 49.84 2.82
2 -1 3 48.7 2.76
2 -1 3 50.22 2.67
-1 -1 3 51.36 2.74
2 -1 3 51.54 2.94
-1 2 3 55.13 2.96
-1 -1 3 55.33 2.97
-1 -1 3 41.61 3.29
-1 2 3 43.15 2.99
2 0 -3 3.98 0.55
2 0 -3 4.01 1.21
2 0 -3 3.28 0.57
-2 2 -3 5.55 0.94
-2 2 -3 4.05 0.52
0 -2 -3 4.61 0.63
-2 2 -3 3.26 0.66
2 0 -3 5.41 0.78
0 -2 -3 3.96 0.49
-2 2 -3 3.33 0.63
0 2 3 3.52 0.49
0 2 3 4.73 0.77
0 2 3 4.22 0.56
2 -2 3 3.48 0.41
2 -2 3 3.24 0.47
0 2 3 4.64 0.76
-2 0 3 4.04 0.67
0 2 3 4.51 0.54
-2 0 3 2.61 0.51
2 -2 3 4.06 0.41
-2 0 3 3.5 0.56
-2 0 3 4.75 1.02
2 -2 3 5.67 1.02
0 2 3 3.89 0.81
3 -1 -3 100.84 4.95
3 -1 -3 84.03 4.88
3 -1 -3 95.89 5.02
-2 3 -3 91.78 5.2
-1 -2 -3 88.32 4.99
-2 3 -3 101.73 5.4
-3 1 3 89.36 6.19
2 -3 3 92.92 4.61
1 2 3 86.67 4.78
2 -3 3 95.98 5.2
2 -3 3 91.98 4.61
2 -3 3 91.64 4.94
-3 1 3 95.59 5.1
1 2 3 86.59 5.12
1 2 3 88.42 4.95
1 2 3 88.55 4.78
-2 -2 -3 7.42 0.99
4 -2 -3 8.3 0.82
4 -2 -3 8.16 0.8
4 -2 -3 7.24 1.02
-2 -2 -3 8.4 1.06
-2 4 -3 9.29 1.52
2 2 3 8 1.35
2 -4 3 7.61 0.91
2 2 3 9.81 0.84
2 2 3 7.3 0.67
-4 2 3 7.54 1.01
-4 2 3 9.15 1.85
5 -3 -3 5.34 0.97
-3 -2 -3 3.53 0.86
5 -3 -3 3.66 0.56
-2 5 -3 3.19 0.98
5 -3 -3 5.18 0.76
-3 -2 -3 3.87 0.8
3 2 3 3.8 0.54
2 -5 3 4.54 0.89
3 2 3 5.21 0.97
-5 3 3 4.95 1.57
3 2 3 2.97 0.45
-5 3 3 3.41 0.71
4 -3 -3 98.3 4.79
-1 4 -3 89.22 5.34
-3 -1 -3 96.2 5.25
4 -3 -3 97.37 4.82
-3 -1 -3 95.8 5.42
4 -3 -3 91.56 5.25
1 -4 3 89.38 5.24
3 1 3 95.22 5.75
3 1 3 94.74 5.3
1 -4 3 99.73 6.07
3 1 3 95.94 4.74
3 1 3 94.2 4.78
-4 3 3 92.47 5.12
-4 3 3 90.31 5.91
3 -3 -3 43.49 2.75
0 3 -3 45.23 2.93
-3 0 -3 46.98 2.69
-3 0 -3 45.11 2.88
0 -3 3 48.98 3.44
-3 3 3 48.23 2.79
0 -3 3 46.79 2.78
-3 3 3 44.56 3.28
3 0 3 45.66 2.83
3 0 3 48.11 2.84
2 -3 -3 2.06 0.59
1 2 -3 2.44 0.39
-3 1 -3 2.17 0.34
-3 1 -3 1.24 0.43
1 2 -3 1.39 0.44
-3 1 -3 2.44 0.79
-1 -2 3 2.63 0.41
-2 3 3 2.19 0.47
-2 3 3 1.55 0.53
-1 -2 3 2 0.73
-2 3 3 0.69 0.59
3 -1 3 1.84 0.45
3 -1 3 1.94 0.27
2 1 -3 91.08 4.97
-3 2 -3 91.64 4.87
-3 2 -3 93.14 4.59
1 -3 -3 88.8 4.62
2 1 -3 88.53 4.75
-3 2 -3 81.24 5.04
1 -3 -3 73.4 4.91
2 1 -3 91.24 4.8
-1 3 3 94.08 5.17
3 -2 3 90.16 4.7
-2 -1 3 94.04 4.76
-1 3 3 78.87 4.98
3 -2 3 92.78 4.77
-1 3 3 94.79 4.65
3 -2 3 91.54 4.61
-2 -1 3 92.93 4.76
3 -2 3 83.9 4.92
0 -3 -3 39.56 2.26
3 0 -3 35.82 2.38
-3 3 -3 33.87 2.09
0 -3 -3 30.93 2.27
-3 3 -3 36.22 2.38
3 0 -3 32.95 2.29
-3 3 -3 41.13 2.79
-3 3 -3 36.21 2.51
3 0 -3 35.45 2.27
-3 0 3 37.39 3.11
-3 0 3 35.31 2.19
3 -3 3 33.89 2.13
0 3 3 33.85 2.19
3 -3 3 37.22 2.64
3 -3 3 35.28 2.01
0 3 3 37.76 2.67
3 -3 3 38.25 2.1
-3 4 -3 0.96 0.64
4 -1 -3 1.88 0.65
4 -1 -3 1.1 0.51
4 -1 -3 2.24 0.52
-3 4 -3 0.5 0.99
-1 -3 -3 1.56 0.63
-4 1 3 0.61 0.39
3 -4 3 1.07 0.43
3 -4 3 1.59 0.28
3 -4 3 1.48 0.24
-4 1 3 3.55 1.39
5 -2 -3 95.44 5.35
-2 -3 -3 98.75 5.82
-3 5 -3 104.06 5.97
5 -2 -3 91.4 5.53
-3 5 -3 106.22 6.71
-5 2 3 92.18 7.43
3 -5 3 93.7 5.48
-5 2 3 103.9 5.53
2 3 3 92.49 5.47
6 -3 -3 19.89 2.12
-3 -3 -3 21.73 2.19
-3 6 -3 27.74 3.76
6 -3 -3 22.19 1.7
-3 6 -3 25.15 2.7
-6 3 3 24.18 2.2
3 -6 3 21.3 2.05
-6 3 3 19.11 3.53
3 3 3 20.8 1.99
-3 7 -3 3.84 2.34
7 -4 -3 1.72 1.02
-3 7 -3 3.4 1.8
-4 -3 -3 2.92 1.14
4 3 3 3.45 1.08
-7 4 3 2.22 1.32
3 -7 3 2.76 1.01
-7 4 3 -0.75 2.46
6 -4 -3 70.39 4.41
-2 6 -3 67.48 4.63
-4 -2 -3 73.26 4.56
6 -4 -3 73.32 3.73
-6 4 3 76.04 5.84
-6 4 3 69.07 4.16
4 2 3 65.61 4.47
2 -6 3 63.01 4.32
5 -4 -3 24.09 1.96
-4 -1 -3 26.42 2.29
-4 -1 -3 25.54 2.12
-1 5 -3 23.42 2.1
-5 4 3 22.99 1.85
-5 4 3 22.85 2.91
4 1 3 24.29 2.07
1 -5 3 25.19 1.99
4 -4 -3 4.62 0.83
-4 0 -3 6.33 1.05
-4 0 -3 6.19 1.01
0 4 -3 5.95 1.11
4 0 3 7.16 1.06
0 -4 3 9.04 1.77
-4 4 3 4.63 0.74
0 -4 3 5.76 0.91
-4 4 3 5.56 1.44
4 0 3 4.58 1
1 3 -3 91.48 4.91
-4 1 -3 98.41 5.45
1 3 -3 94.54 5.5
3 -4 -3 104.44 5.55
-4 1 -3 94.11 5.35
4 -1 3 96.29 5.37
-1 -3 3 94.26 5.2
-3 4 3 86.39 5.18
-1 -3 3 102.27 6.24
4 -1 3 92.18 5.3
2 2 -3 7.06 0.81
-4 2 -3 11.55 1.69
2 -4 -3 9.31 1.23
2 2 -3 7.18 1.11
-4 2 -3 6.64 0.96
-4 2 -3 9.55 0.65
-2 4 3 7.95 0.61
4 -2 3 11.67 1.5
4 -2 3 8.05 0.61
-2 4 3 8.8 1.49
-2 -2 3 7.77 0.88
-2 -2 3 7.95 0.85
-2 -2 3 8.75 1.68
4 -2 3 8.17 1.02
-2 4 3 9.28 0.69
-4 3 -3 1.48 0.53
3 1 -3 0.95 0.47
-4 3 -3 0.31 0.94
-4 3 -3 1.95 0.37
3 1 -3 1.2 0.48
1 -4 -3 1.87 0.56
4 -3 3 1.4 0.48
4 -3 3 1.76 0.4
-1 4 3 0.09 0.87
-3 -1 3 1.45 0.9
-3 -1 3 1.28 0.36
-1 4 3 2.06 0.51
0 -4 -3 96.78 5.39
4 0 -3 95.84 5.53
-4 4 -3 97.45 5.47
4 0 -3 97.7 5.61
-4 4 -3 100.69 6.14
4 -4 3 98.55 5.34
4 -4 3 97.98 5.21
-4 0 3 105.47 6.83
5 -1 -3 28.39 2.23
-4 5 -3 29.25 3.43
-4 5 -3 33.56 2.38
5 -1 -3 27.21 2.31
4 -5 3 26.81 2.1
-5 1 3 28.94 1.97
4 -5 3 29.27 1.75
4 -5 3 29.46 1.7
-5 1 3 34.01 3.8
6 -2 -3 7.34 1.16
6 -2 -3 6.63 1.32
-4 6 -3 6.11 2.32
-4 6 -3 7.82 1.43
2 4 3 7.35 1.28
-6 2 3 7.52 1.16
-6 2 3 9.51 2.33
4 -6 3 8.07 1.26
-4 7 -3 43.6 5.37
-4 7 -3 28.24 3.25
7 -3 -3 36.27 3.08
-3 -4 -3 38.83 3.3
7 -3 -3 36.47 2.61
-7 3 3 31.07 2.61
4 -7 3 38.25 3.02
3 4 3 34.38 2.39
-7 3 3 38.1 5.64
3 4 3 34.6 2.91
7 -5 -3 21.15 2.29
-2 7 -3 24.23 3.16
-5 -2 -3 24.35 2.53
5 2 3 21.92 2.67
-7 5 3 26.99 4.93
2 -7 3 23.67 3.06
-7 5 3 26.03 2.25
-5 -1 -3 3.34 0.95
6 -5 -3 3.37 0.95
-5 -1 -3 4.83 1.29
-1 6 -3 3.72 1.18
-6 5 3 4.92 0.86
-6 5 3 6.86 2.08
1 -6 3 4.53 0.98
5 1 3 4.55 1.09
0 5 -3 41.45 3.21
-5 0 -3 43.73 3.23
-5 0 -3 43.78 3.19
5 -5 -3 46.46 3.09
0 -5 3 50.77 4.29
-5 5 3 46.77 4.06
0 -5 3 46.51 3.08
-5 5 3 43.31 2.96
5 0 3 42.39 3.16
1 4 -3 23.49 1.51
-5 1 -3 26.61 2.24
1 4 -3 24.49 2.25
-5 1 -3 23.21 2.13
1 4 -3 24.28 1.63
4 -5 -3 29.78 2.25
5 -1 3 25.78 2.13
-4 5 3 22.47 1.87
-4 5 3 24.6 2.89
-1 -4 3 25.43 2.9
-1 -4 3 24.19 1.93
-5 2 -3 3.64 1.7
3 -5 -3 4.51 1.04
2 3 -3 4.87 1.11
2 3 -3 3.65 0.8
-5 2 -3 3.38 0.77
-3 5 3 1.82 0.99
5 -2 3 4.31 0.88
-2 -3 3 3.45 0.68
-2 -3 3 4.8 1.35
2 -5 -3 94.25 5.3
-5 3 -3 93.69 4.82
3 2 -3 91.61 5.16
-5 3 -3 107.11 6.27
3 2 -3 82.09 5.44
-5 3 -3 92.85 5.29
-3 -2 3 89.81 5.03
5 -3 3 91.83 5.24
-2 5 3 95.1 6.03
-2 5 3 88.9 4.81
-2 5 3 91.33 4.8
-3 -2 3 96.67 6.61
-5 4 -3 25.06 2.05
1 -5 -3 26.9 1.99
4 1 -3 26.71 2.23
-5 4 -3 22.12 3.02
4 1 -3 26.84 2.1
5 -4 3 26.89 1.81
5 -4 3 28.37 1.93
-4 -1 3 26.58 1.77
-1 5 3 30.77 3.06
-4 -1 3 20.89 3.14
-5 5 -3 0.47 0.63
-5 5 -3 1.81 1.24
5 0 -3 -0.09 0.64
5 0 -3 0.67 0.76
5 -5 3 0.33 0.53
5 -5 3 0.13 0.49
0 5 3 0.59 0.69
-5 0 3 -0.03 0.38
-5 0 3 1.21 1.54
-5 6 -3 53.83 4.65
6 -1 -3 51.36 3.53
-5 6 -3 44.65 3.1
6 -1 -3 46.62 3.32
5 -6 3 42.16 2.74
5 -6 3 50.74 3.31
-6 1 3 43.42 2.73
-6 1 3 50.63 4.98
1 5 3 47.95 3.19
-5 7 -3 22.26 2.33
7 -2 -3 14.82 1.99
-5 7 -3 27.06 4.5
7 -2 -3 18.32 2.97
-7 2 3 28.99 4.51
5 -7 3 17.81 2.22
2 5 3 18.83 2.14
-6 -1 -3 43.72 3.77
-1 7 -3 49.23 4.01
7 -6 -3 47.18 3.44
6 1 3 49.01 3.88
1 -7 3 49.9 3.67
-7 6 3 42.53 3.26
-7 6 3 45.27 5.45
-6 0 -3 13.41 2.17
6 -6 -3 12.69 1.76
-6 0 -3 12.79 1.96
0 6 -3 14.5 2.23
0 -6 3 10.53 2.31
-6 6 3 13.22 2.81
0 -6 3 12.28 1.75
6 0 3 13.88 1.94
-6 6 3 13.78 1.66
5 -6 -3 4.16 1.35
-6 1 -3 5.56 1.21
-6 1 -3 4.71 1.28
1 5 -3 5.45 0.84
1 5 -3 2.71 1.12
-1 -5 3 4.72 0.92
-1 -5 3 4.46 1.6
6 -1 3 3.63 1.08
-5 6 3 8.33 2.21
-5 6 3 4.33 0.95
2 4 -3 66.44 4.61
4 -6 -3 79.94 4.7
-6 2 -3 71.79 4.5
-6 2 -3 71.04 4.85
2 4 -3 65.36 3.96
-2 -4 3 67.29 4.19
6 -2 3 70.41 4.46
-2 -4 3 74.25 5.71
-4 6 3 68.78 4.33
3 3 -3 21.78 1.87
3 -6 -3 19.46 1.97
-6 3 -3 19.31 2.02
3 3 -3 20.79 2.15
-6 3 -3 26.23 3.53
-3 6 3 24.3 2.92
6 -3 3 20.15 1.99
-3 -3 3 19.95 1.68
-3 -3 3 22.72 3.05
4 2 -3 8.02 1.36
2 -6 -3 8.67 1.23
-6 4 -3 6.54 1.13
4 2 -3 8.1 1.48
-6 4 -3 8.75 2.15
-2 6 3 7.22 1.21
6 -4 3 7.22 1.12
-2 6 3 5.98 2.09
-4 -2 3 7.01 1.86
-4 -2 3 5.33 0.82
5 1 -3 45.86 3.32
5 1 -3 45.7 3.45
-6 5 -3 46.36 3.58
-6 5 -3 42.25 4.93
6 -5 3 50.4 3.03
-1 6 3 46.48 3.09
-5 -1 3 45.34 2.75
-5 -1 3 38.6 4.53
-1 6 3 52.56 4.59
-6 6 -3 11.59 1.6
6 0 -3 16.63 1.97
6 0 -3 14.08 2.08
-6 6 -3 9.21 2.62
6 -6 3 14.77 1.81
-6 0 3 15.15 1.24
0 6 3 14.8 3
6 -6 3 15.97 1.62
-6 0 3 11.79 2.88
0 6 3 14.25 2.07
-6 7 -3 4.94 2.56
7 -1 -3 6.71 1.57
7 -1 -3 7.03 1.34
6 -7 3 6.68 1.29
-7 1 3 4.51 2.61
1 6 3 5.93 1.63
1 6 3 9 1.46
6 -7 -3 52.71 4.34
-7 1 -3 49.04 3.92
-1 -6 3 52.22 5.44
-1 -6 3 51.87 4.15
7 -1 3 47.1 3.9
-6 7 3 54.31 6.46
-7 2 -3 22.06 2.8
2 5 -3 23.2 2.83
-7 2 -3 27.53 2.88
5 -7 -3 26.43 2.79
-5 7 3 24.62 2.34
-2 -5 3 25.43 2.26
7 -2 3 26.54 2.67
-5 7 3 25.73 4.71
-2 -5 3 28.2 4.58
-7 3 -3 1.96 1.88
-7 3 -3 2.83 1.23
4 -7 -3 0.4 1.01
3 4 -3 1.16 1.1
3 4 -3 2.59 0.96
7 -3 3 1.48 1.01
-3 -4 3 0.02 1.56
-3 -4 3 0.21 0.75
-4 7 3 2.83 1.52
-7 4 -3 34.72 2.97
4 3 -3 39.3 3.33
-7 4 -3 44.27 5.08
3 -7 -3 39.21 2.73
4 3 -3 36.24 2.88
-4 -3 3 36.01 2.58
-3 7 3 37.76 4.07
7 -4 3 36.73 2.91
-4 -3 3 38.86 4.44
5 2 -3 18.71 2.51
-7 5 -3 19.47 2.16
5 2 -3 20.51 2.3
-7 5 -3 22.43 4.4
-5 -2 3 23.47 3.61
-5 -2 3 17.32 1.64
7 -5 3 17.87 1.88
-2 7 3 21.45 3.6
-7 6 -3 6.44 1.43
6 1 -3 8.09 1.57
-7 6 -3 6.89 3.05
-1 7 3 6.38 3.37
-6 -1 3 6.83 2.58
7 -6 3 7.4 1.27
-1 7 3 8.76 1.72
0 0 -4 527.41 26.58
0 0 -4 545.05 26.58
0 0 -4 530.17 26.72
0 0 -4 524.55 26.6
0 0 4 554.35 26.77
0 0 4 534.36 26.58
0 0 4 534.88 26.61
0 0 4 534.51 26.58
1 -1 -4 222.67 11.01
0 1 -4 230.94 10.96
-1 0 -4 218.49 11.05
0 1 -4 207.61 10.92
-1 0 -4 234.13 11.18
0 1 -4 219.15 11.15
-1 0 -4 215.42 10.93
1 -1 -4 180.17 11.2
1 -1 -4 234.29 11.06
0 1 -4 207.74 11.21
1 0 4 244.17 10.99
-1 1 4 205.55 11.09
-1 1 4 220.84 10.99
-1 1 4 197.33 11.1
1 0 4 212.9 10.92
1 0 4 207.74 11.05
0 -1 4 232.04 11.28
0 -1 4 210.87 10.91
-1 1 4 201.1 11.15
1 0 -4 8.52 1.38
0 -1 -4 12.04 1
1 0 -4 13.57 1.11
-1 1 -4 9.97 1.15
1 0 -4 10.12 0.89
0 -1 -4 8.9 1.07
-1 1 -4 11.03 0.88
1 0 -4 9.78 0.95
-1 1 -4 12.59 0.9
0 -1 -4 11.47 0.97
0 -1 -4 12.29 0.95
-1 1 -4 9.66 0.84
-1 0 4 13.4 1.21
-1 0 4 11.61 0.99
-1 0 4 11.91 1.04
1 -1 4 10.19 0.91
1 -1 4 13.33 1.34
1 -1 4 11.04 0.9
1 -1 4 9.39 0.85
0 1 4 11.54 0.94
-1 0 4 10.86 1.23
0 1 4 10 0.85
0 1 4 9.94 1.02
-1 -1 -4 577.83 27.56
2 -1 -4 550.81 27.1
-1 2 -4 537.11 27.75
2 -1 -4 558.42 27.16
-1 2 -4 524.46 27.21
2 -1 -4 521.16 27.2
-1 -1 -4 554.05 27.16
-1 2 -4 521.2 27.06
-1 2 -4 558.03 26.9
1 1 4 543.01 27.14
-2 1 4 561.49 27.09
1 1 4 557.4 26.99
-2 1 4 543.29 27.91
-2 1 4 520.8 27.36
1 -2 4 546.23 27.07
1 -2 4 484.96 27.48
1 -2 4 552.83 27.46
1 -2 4 615.99 27
-2 1 4 554.51 27.32
-1 3 -4 105.81 5.79
3 -2 -4 99.04 5.26
3 -2 -4 98.2 5.5
-2 -1 -4 100.63 5.56
-3 2 4 105.72 6.15
-3 2 4 99.73 5.46
1 -3 4 99.24 6.12
1 -3 4 96.73 5.41
2 1 4 97.67 5.19
2 1 4 100.55 5.15
2 -2 -4 39.97 3.35
-2 0 -4 51.16 2.63
0 2 -4 46.69 3.1
2 -2 -4 47.39 2.92
0 2 -4 46.44 2.99
-2 0 -4 48.88 2.95
0 2 -4 45.05 2.71
2 -2 -4 50.28 2.72
-2 2 4 55.99 2.75
2 0 4 48.27 2.68
0 -2 4 43.77 3.25
0 -2 4 50.46 2.82
-2 2 4 46.75 2.82
-2 2 4 47.47 3.18
0 -2 4 47.65 2.55
1 1 -4 549.89 27.11
1 -2 -4 530.64 27.49
1 1 -4 520.55 27.23
1 -2 -4 566.22 27.1
-2 1 -4 517.12 27.18
1 1 -4 519.7 27.77
1 1 -4 564.39 27.42
-2 1 -4 535.91 27.59
2 -1 4 560.98 27.13
2 -1 4 554.5 27.06
-1 2 4 574.71 27.39
-1 -1 4 558.18 27.1
-1 -1 4 581.55 27.28
-1 -1 4 527 27.85
-1 2 4 550.56 27.38
-1 2 4 559.14 27.7
-1 -1 4 567.89 27.42
-1 2 4 538.61 27.22
0 -2 -4 118.79 6.39
-2 2 -4 127.03 6.35
2 0 -4 120.83 6.45
-2 2 -4 128.69 6.46
2 0 -4 139.54 6.83
2 0 -4 123.81 6.55
-2 0 4 123.12 6.53
-2 0 4 114.91 6.42
0 2 4 124.79 6.49
0 2 4 122.44 6.6
0 2 4 128.07 6.42
-2 0 4 111.05 7.29
2 -2 4 122.92 6.35
0 2 4 124.82 6.41
-2 0 4 103.58 6.51
2 -2 4 128.26 6.3
-1 -2 -4 5.59 0.8
-2 3 -4 6.23 1.15
3 -1 -4 6.31 0.76
-1 -2 -4 8.25 0.97
-2 3 -4 5.41 1.11
3 -1 -4 6.36 0.81
2 -3 4 5.42 0.8
2 -3 4 5.26 0.66
2 -3 4 5.49 0.47
1 2 4 4.31 0.71
-3 1 4 6.25 0.87
1 2 4 6.3 0.66
-3 1 4 5.14 1.41
4 -2 -4 280.56 14.32
4 -2 -4 290.8 14.4
-2 -2 -4 280.97 14.67
4 -2 -4 289.47 14.63
-2 4 -4 269.64 15.24
-4 2 4 269.87 14.77
2 -4 4 291.96 14.56
2 2 4 282.32 14.25
2 2 4 294.98 14.76
2 2 4 301.92 14.26
-4 2 4 277.14 15.85
5 -3 -4 69.34 4.36
-3 -2 -4 70.43 4.49
5 -3 -4 73.63 3.94
5 -3 -4 68.67 3.86
-3 -2 -4 74.13 4.31
-2 5 -4 72.59 4.92
-5 3 4 79.61 5.71
-5 3 4 70.78 4.28
2 -5 4 73.02 4.34
3 2 4 71.9 3.81
3 2 4 68.08 3.81
3 2 4 72.92 5.41
3 2 4 68.46 4.34
4 -3 -4 4.83 0.9
4 -3 -4 7.26 1.26
-3 -1 -4 7.36 1.1
4 -3 -4 6.79 0.61
-3 -1 -4 7.65 0.85
-1 4 -4 6.23 1.08
3 1 4 7.31 0.72
-4 3 4 6.47 1.02
3 1 4 6.19 1.03
-4 3 4 5.46 1.35
1 -4 4 6.8 0.99
3 1 4 6.75 1.03
1 -4 4 8.57 1.7
3 1 4 8.08 0.66
-3 0 -4 375.25 19.11
0 3 -4 380.52 18.57
3 -3 -4 368.58 19.02
0 3 -4 367.11 19.16
-3 3 4 373.79 19.53
3 0 4 391.21 18.52
-3 3 4 381.84 18.95
0 -3 4 377.84 18.48
0 -3 4 368.92 18.92
3 0 4 385.17 19.02
0 -3 4 364.37 19.8
2 -3 -4 101.24 5.05
2 -3 -4 88.72 5.75
-3 1 -4 92.16 5.5
1 2 -4 102.31 5.62
1 2 -4 106.81 5.21
-3 1 -4 107.43 5.19
-2 3 4 105.53 5.86
-2 3 4 89.87 5.18
3 -1 4 102.36 5.4
-2 3 4 97.86 5.37
3 -1 4 100.21 5.05
-1 -2 4 98.89 5.15
-1 -2 4 96.73 5.36
1 -3 -4 4.44 0.56
-3 2 -4 6.15 0.78
2 1 -4 5.81 0.9
-3 2 -4 4.49 0.89
-3 2 -4 4.37 0.62
2 1 -4 5.16 0.65
-3 2 -4 6.09 0.92
1 -3 -4 6.95 1.13
-1 3 4 5.73 0.76
3 -2 4 5.28 0.66
-2 -1 4 4.65 0.73
-2 -1 4 6.03 1.35
-1 3 4 5.4 0.77
3 -2 4 4.95 0.58
-1 3 4 5.79 1.07
-2 -1 4 6.72 0.84
3 -2 4 4.76 0.62
3 0 -4 438.59 21.77
0 -3 -4 449.93 21.84
-3 3 -4 416.56 22.04
-3 3 -4 434.28 21.76
3 0 -4 429.55 21.63
0 -3 -4 434.36 21.57
-3 3 -4 390.81 22.56
0 3 4 414.4 21.93
0 3 4 416.68 21.53
3 -3 4 435.61 21.4
0 3 4 441.1 21.84
-3 0 4 423.16 21.72
0 3 4 477.3 21.9
3 -3 4 429.21 21.35
3 -3 4 408.99 21.68
-3 0 4 464.26 22.68
-1 -3 -4 82.9 4.91
4 -1 -4 83.45 4.82
4 -1 -4 86.42 4.92
-3 4 -4 84.04 5.18
-3 4 -4 100.78 6.1
-4 1 4 91.7 6.12
3 -4 4 80.22 4.48
3 -4 4 84.99 4.37
3 -4 4 85.18 4.76
-4 1 4 89.11 4.98
1 3 4 78.15 4.61
5 -2 -4 5.78 1.05
-2 -3 -4 4.46 0.94
-3 5 -4 6.06 1.29
-3 5 -4 6.35 1.9
5 -2 -4 5.29 0.84
3 -5 4 4.15 0.87
-5 2 4 5.34 1.99
2 3 4 3.8 0.66
-5 2 4 5.78 1.02
-3 6 -4 191.4 10.35
-3 6 -4 205.9 11.65
6 -3 -4 183.49 9.95
6 -3 -4 180.8 9.46
3 3 4 167.33 9.8
3 3 4 179.16 9.29
-6 3 4 182.76 9.82
-6 3 4 163.01 12
3 -6 4 178.74 9.82
-4 -3 -4 18.94 2.47
7 -4 -4 18.92 2.75
-3 7 -4 29.19 4.91
-3 7 -4 26.84 3.32
-7 4 4 22.27 2.59
4 3 4 21.45 2.4
-2 6 -4 10.5 1.89
-4 -2 -4 7.34 1.5
6 -4 -4 8.93 1.46
-4 -2 -4 9.71 1.52
2 -6 4 7.67 1.18
-6 4 4 8.69 2.05
-6 4 4 9.74 1.38
4 2 4 9.02 1.49
5 -4 -4 247.14 12.76
-1 5 -4 245.44 12.95
-4 -1 -4 225.62 12.88
-4 -1 -4 245.72 12.56
-5 4 4 242.66 12.58
1 -5 4 251.46 12.7
4 1 4 233.94 13.08
4 1 4 239.71 12.76
1 -5 4 242.26 13.88
-5 4 4 246.58 13.75
-4 0 -4 59.84 3.35
-4 0 -4 55.34 3.73
0 4 -4 57.93 3.83
4 -4 -4 54.36 3.57
-4 4 4 56.02 3.47
0 -4 4 53.69 3.49
4 0 4 61.3 3.5
4 0 4 51.82 3.54
0 -4 4 62.76 4.65
-4 4 4 56.61 4.33
-4 1 -4 6.12 0.97
1 3 -4 7.21 1.21
1 3 -4 7.26 0.68
-4 1 -4 7.42 1.1
3 -4 -4 5.53 1.12
-1 -3 4 6.8 0.97
4 -1 4 6.24 1.13
4 -1 4 6.71 1.03
-1 -3 4 6.8 0.7
-3 4 4 7.34 1.6
-1 -3 4 7.91 1.69
-3 4 4 6.47 0.99
2 2 -4 289.11 15.24
2 -4 -4 318.5 15.3
-4 2 -4 279.84 14.65
-4 2 -4 318.22 15.17
2 2 -4 287.55 15.02
-4 2 -4 279.54 15.1
-2 4 4 274.48 14.95
4 -2 4 294.24 14.58
-2 4 4 308.32 14.88
-2 -2 4 279.76 14.92
4 -2 4 300.13 15.01
-2 4 4 299.59 15.32
3 1 -4 78.06 4.9
3 1 -4 84.41 4.71
-4 3 -4 86.61 4.48
-4 3 -4 78.76 5.17
1 -4 -4 78.95 4.95
-4 3 -4 90.08 4.97
-4 3 -4 88.14 4.93
-1 4 4 89.41 5.27
-3 -1 4 84.31 4.69
4 -3 4 85.91 4.51
4 -3 4 81.64 4.64
-3 -1 4 86.41 5.94
-1 4 4 83.98 4.56
-1 4 4 82.52 4.72
0 -4 -4 17.23 1.58
-4 4 -4 12.06 2.22
4 0 -4 16.62 1.62
4 0 -4 17.72 1.6
-4 4 -4 18.57 1.81
-4 0 4 16.01 1.4
4 -4 4 15.85 1.18
4 -4 4 16.33 1.22
-4 0 4 19.68 2.7
4 -4 4 13.81 1.27
0 4 4 15.73 1.39
5 -1 -4 228.78 11.8
-4 5 -4 221.06 12.83
-4 5 -4 223.01 11.97
5 -1 -4 226.36 11.75
-5 1 4 236.99 13.15
4 -5 4 221.17 11.56
1 4 4 207.15 11.41
4 -5 4 233.28 11.11
-5 1 4 204.76 11.52
4 -5 4 222.28 11.09
-4 6 -4 33.95 4.56
6 -2 -4 30.5 2.75
6 -2 -4 33.3 2.48
2 4 4 30.92 2.24
2 4 4 33.58 2.62
-6 2 4 41.81 4.3
4 -6 4 34.06 2.66
-4 7 -4 0.39 1.48
7 -3 -4 1.95 0.98
-4 7 -4 2.87 2.44
3 4 4 1.93 1.11
3 4 4 3.53 0.92
-7 3 4 1.23 1.79
4 -7 4 2.18 1.07
-5 -2 -4 115.07 6.62
-2 7 -4 95.62 7.14
-7 5 4 116.38 6.44
-7 5 4 104.27 8.25
5 2 4 111.43 6.83
2 -7 4 106.32 6.57
6 -5 -4 27.19 2.45
-5 -1 -4 30.46 2.84
-1 6 -4 28.49 2.9
-5 -1 -4 31.1 2.55
-6 5 4 24.89 4.05
5 1 4 31.96 2.7
-6 5 4 33.09 2.46
1 -6 4 27.48 2.44
5 -5 -4 1.04 0.75
-5 0 -4 2.7 0.74
0 5 -4 1.48 0.93
-5 0 -4 1.31 0.78
5 0 4 1.9 0.89
0 -5 4 2.07 0.77
-5 5 4 2.7 1.59
0 -5 4 3.59 1.47
-5 5 4 2.27 0.82
1 4 -4 236.28 12.02
1 4 -4 254.85 12.04
4 -5 -4 236.73 12.96
-5 1 -4 247.22 12.47
1 4 -4 246.4 12.92
-5 1 -4 236.24 12.81
-4 5 4 216.53 13.21
-4 5 4 243.17 12.53
-1 -4 4 232.61 12.53
-1 -4 4 262.09 14.14
5 -1 4 236.26 12.67
3 -5 -4 80.5 4.69
2 3 -4 71.99 4.06
-5 2 -4 81.53 4.57
-5 2 -4 73.76 4.7
2 3 -4 68.63 4.62
-2 -3 4 68.86 4.23
-2 -3 4 66.48 5.52
5 -2 4 72.44 4.4
-3 5 4 72.82 4.35
-5 3 -4 3.83 0.87
-5 3 -4 8 1.53
2 -5 -4 3.4 0.88
3 2 -4 5.2 0.9
3 2 -4 4.86 1.06
5 -3 4 5.97 0.94
-2 5 4 4.27 0.87
5 -3 4 5.4 0.66
-2 5 4 5.16 0.72
-2 5 4 5.9 0.95
-3 -2 4 1.99 1.38
-2 5 4 6.66 1.57
-3 -2 4 3.89 0.71
4 1 -4 220.34 12.02
-5 4 -4 228.86 11.81
4 1 -4 224.59 11.72
1 -5 -4 229.87 11.81
-5 4 -4 226.69 12.52
-1 5 4 219.51 12.34
-4 -1 4 225 13.35
5 -4 4 219.23 11.53
5 -4 4 220.96 11.41
-4 -1 4 220.21 11.48
-5 5 -4 33.52 2.59
5 0 -4 29.93 2.58
5 0 -4 37.59 2.77
-5 0 4 37.6 4.26
5 -5 4 30.59 2.09
-5 0 4 30.01 2.14
5 -5 4 30.64 2.34
-5 6 -4 6.25 1.31
6 -1 -4 1.38 0.92
6 -1 -4 2.91 1.03
-5 6 -4 1.83 1.93
-6 1 4 1.54 1.82
5 -6 4 4.68 1.06
1 5 4 2.56 0.83
-6 1 4 3.09 0.74
-5 7 -4 149.77 8.09
7 -2 -4 139.72 7.86
7 -2 -4 130.53 8.13
-5 7 -4 126.85 9.8
2 5 4 132.46 7.81
-7 2 4 154.95 10.04
2 5 4 124.12 7.46
-7 2 4 141.62 7.49
5 -7 4 145.09 7.98
6 -6 -4 124.66 7.91
-6 0 -4 123.56 6.96
-6 0 -4 119.15 7.33
0 6 -4 115.81 7.48
6 0 4 116.55 7.39
-6 6 4 125.07 6.97
0 -6 4 132.3 9.06
-6 6 4 120.02 8.82
0 -6 4 105.34 6.78
-6 1 -4 31.65 2.66
5 -6 -4 29.47 3.01
-6 1 -4 36.5 3.03
1 5 -4 30.58 2.97
-5 6 4 34.55 4.22
-1 -5 4 39.91 4.52
-5 6 4 28.9 2.64
-1 -5 4 31.14 2.59
6 -1 4 32.44 2.69
-6 2 -4 9.16 1.5
2 4 -4 6.21 1.39
-6 2 -4 9.55 1.91
4 -6 -4 10.38 1.74
2 4 -4 8.93 1.3
-4 6 4 10.63 2.47
-2 -4 4 7.57 1.22
6 -2 4 10.29 1.54
-2 -4 4 13.3 2.56
-4 6 4 10.88 1.59
3 3 -4 174.74 9.71
-6 3 -4 163.04 10.25
3 3 -4 184.65 9.11
-6 3 -4 174.61 9.46
3 -6 -4 150.23 9.37
-3 6 4 185.03 10.02
6 -3 4 173.43 9.37
-3 6 4 181.75 9.41
-3 -3 4 165.66 11.01
-3 -3 4 163.84 9.1
4 2 -4 31.9 2.57
4 2 -4 34.41 2.87
-6 4 -4 35.61 3.63
-6 4 -4 33.57 2.7
2 -6 -4 34.88 2.66
-2 6 4 30.09 3.4
6 -4 4 30.91 2.41
-4 -2 4 23.43 3.78
-2 6 4 32.77 2.59
-2 6 4 33.25 2.17
-4 -2 4 33.19 2.26
-6 5 -4 4.19 1.08
5 1 -4 2.46 1.06
-6 5 -4 4.56 2.15
5 1 -4 2.97 1.11
1 -6 -4 3.24 0.95
-1 6 4 1.8 2
6 -5 4 2.38 0.85
-5 -1 4 2.75 0.67
-5 -1 4 3.06 1.82
6 -5 4 3.62 0.86
-1 6 4 3.26 1.05
6 0 -4 122.08 7.41
-6 6 -4 140.17 7.37
6 0 -4 141.95 7.7
-6 6 -4 116.25 8.69
6 -6 4 131.91 7.01
0 6 4 126.28 8.49
0 6 4 126.41 7.25
-6 0 4 128.81 9.33
0 6 4 119.19 7.21
6 -6 4 127.11 7.09
-6 0 4 113.65 6.69
-7 2 -4 127.59 7.31
5 -7 -4 121.12 7.03
-7 2 -4 102.72 6.93
2 5 -4 106.44 7.22
-5 7 4 119.76 8.35
-2 -5 4 127.67 8.98
-5 7 4 109.68 6.7
7 -2 4 106.96 7.47
-2 -5 4 106.4 6.59
4 -7 -4 17.84 2.44
3 4 -4 19.29 2.01
-7 3 -4 18.98 2.43
7 -3 4 18.85 2.28
-3 -4 4 23.33 2.01
-4 7 4 24.59 4.42
-7 4 -4 2.29 1.13
-7 4 -4 1.02 2.19
4 3 -4 1.7 1.07
3 -7 -4 1.97 1.1
7 -4 4 2.22 1.02
-3 7 4 -1.7 1.67
-4 -3 4 0.11 0.75
5 2 -4 129.12 7.94
5 2 -4 136.17 7.55
2 -7 -4 130.78 7.24
-7 5 -4 136.14 7.5
-2 7 4 133.63 8.69
-5 -2 4 130.52 7.04
-5 -2 4 105.65 8.96
7 -5 4 134.57 7.34
-2 7 4 120.76 7.63
0 0 -5 50.47 3.14
0 0 -5 53.42 3.16
0 0 -5 53.53 3.32
0 0 -5 57.35 3.19
0 0 5 54.35 3.2
0 0 5 53.76 3.19
0 0 5 56.26 3.42
-1 0 -5 73.12 5.04
1 -1 -5 88.4 5.08
-1 0 -5 72.85 4.95
0 1 -5 85.41 5.06
-1 0 -5 97.36 4.75
0 1 -5 98.72 4.74
0 1 -5 84.85 5.29
1 -1 -5 100.46 4.92
1 -1 -5 86.33 5.04
-1 1 5 84.71 5.16
1 0 5 96.97 4.74
-1 1 5 77.9 4.92
0 -1 5 93.97 5.1
0 -1 5 76.53 4.8
0 -1 5 79.38 4.72
-1 1 -5 5.49 0.97
0 -1 -5 5.19 0.78
-1 1 -5 6.09 0.94
1 0 -5 5.29 0.82
1 0 -5 5.45 0.94
1 0 -5 4.51 1.12
-1 1 -5 5.33 0.73
0 -1 -5 4.06 0.7
1 -1 5 4.11 0.74
0 1 5 6.97 1.16
-1 0 5 5.08 0.86
0 1 5 6.68 0.85
-1 0 5 5.55 1.14
1 -1 5 5.69 0.87
1 -1 5 4.56 0.68
0 1 5 5.5 0.91
-1 0 5 3.87 0.95
-1 0 5 6.56 0.98
-1 2 -5 25.99 1.81
2 -1 -5 30.14 2.12
-1 -1 -5 32.25 2.17
2 -1 -5 29.68 2.1
-1 2 -5 32.87 2.53
1 1 5 26.27 1.97
-2 1 5 34.01 2.2
-2 1 5 28.59 2.18
1 -2 5 34.2 1.92
1 -2 5 24.86 2.22
1 -2 5 33.39 2.06
3 -2 -5 71.38 4
-1 3 -5 66.22 4.36
-2 -1 -5 63.8 3.94
3 -2 -5 59.8 3.8
-3 2 5 61.92 3.61
1 -3 5 73.33 3.4
-3 2 5 69.09 4.02
1 -3 5 67.45 3.82
2 1 5 57.6 3.68
1 -3 5 59.9 4.36
-3 2 5 66.85 4.7
0 2 -5 1.2 0.54
-2 0 -5 1.33 0.42
2 -2 -5 0.89 0.35
2 -2 -5 0.4 0.56
-2 0 -5 0.85 0.52
0 2 -5 1.02 0.37
-2 2 5 0.82 0.47
-2 2 5 1.08 0.63
0 -2 5 0.47 0.35
0 -2 5 0.41 0.64
2 0 5 0.85 0.4
0 -2 5 0.57 0.37
1 1 -5 30.96 2.23
1 1 -5 28.69 1.88
-2 1 -5 33.54 2.02
-2 1 -5 27.65 2.26
1 -2 -5 30.66 2.19
1 -2 -5 30.5 1.95
-1 -1 5 25.68 2.05
-1 -1 5 31.56 1.94
2 -1 5 31.12 1.91
-1 -1 5 23.99 3.43
-1 2 5 30.87 2.06
-1 2 5 31.69 2.21
-1 2 5 28.76 2.18
-2 2 -5 36.96 2.29
2 0 -5 37.76 2.5
0 -2 -5 38.9 2.37
2 0 -5 33.72 2.31
-2 2 -5 35.53 2.61
-2 0 5 36.59 2.94
-2 0 5 38.94 2.54
0 2 5 36.07 2.31
0 2 5 36.95 2.42
0 2 5 39.21 2.49
2 -2 5 38.83 2.26
0 2 5 34.79 2.47
-2 3 -5 1.47 0.72
-2 3 -5 -0.15 0.66
-1 -2 -5 0.26 0.42
3 -1 -5 0.05 0.45
-1 -2 -5 0.59 0.56
1 2 5 0.47 0.36
2 -3 5 0.41 0.23
-3 1 5 0.16 0.41
1 2 5 -0.08 0.45
2 -3 5 0.47 0.42
-3 1 5 0.42 0.93
1 2 5 -0.13 0.54
2 -3 5 -0.43 0.35
4 -2 -5 29.17 2.22
-2 4 -5 32.23 2.84
-2 -2 -5 30.61 2.29
4 -2 -5 29.62 1.99
2 2 5 27.96 1.87
2 2 5 26.84 2.11
-4 2 5 28.82 2.42
2 2 5 27.73 2.04
2 -4 5 26.75 2.1
2 2 5 28.37 2.28
-4 2 5 28.03 3.62
5 -3 -5 58.62 3.41
-3 -2 -5 56.81 3.91
-2 5 -5 56.89 4.64
5 -3 -5 58.84 3.84
2 -5 5 59.23 3.75
3 2 5 61.16 3.41
3 2 5 60.4 3.89
-5 3 5 54.76 3.96
-5 3 5 59.42 5.38
-3 -1 -5 -0.18 0.52
4 -3 -5 -0.21 0.55
-1 4 -5 -0.23 0.71
4 -3 -5 -0.12 0.4
4 -3 -5 -0.26 0.36
-4 3 5 0.63 1.26
1 -4 5 0.63 0.97
3 1 5 0.01 0.41
1 -4 5 0.58 0.47
3 1 5 0.17 0.36
0 3 -5 18.56 1.8
0 3 -5 17.88 1.13
3 -3 -5 16.34 1.65
3 -3 -5 16.38 1.17
-3 0 -5 15.96 1.59
-3 3 5 18.4 1.57
-3 3 5 15.08 1.15
3 0 5 16.05 1.19
0 -3 5 18.32 1.53
-3 3 5 17.57 2.18
0 -3 5 18.54 1.11
1 2 -5 70.18 3.83
2 -3 -5 70.08 4.38
-3 1 -5 64.5 4.25
-3 1 -5 71.11 3.78
2 -3 -5 69.06 3.71
1 2 -5 67.24 4.25
-1 -2 5 73 4.12
-2 3 5 70.5 4.04
-1 -2 5 68.66 4.88
3 -1 5 73.21 3.76
-2 3 5 69.24 4.48
-1 -2 5 64.57 3.76
-2 3 5 74.47 4.03
-3 2 -5 0.06 0.43
2 1 -5 0.23 0.45
-3 2 -5 0.44 0.66
-3 2 -5 0.61 0.55
-3 2 -5 -0.04 0.36
2 1 -5 0.1 0.38
1 -3 -5 0.18 0.63
1 -3 -5 0.34 0.3
-1 3 5 -0.06 0.95
3 -2 5 0.27 0.36
3 -2 5 0.37 0.3
-2 -1 5 0.08 0.71
-2 -1 5 0.82 0.49
-1 3 5 0.49 0.4
-1 3 5 0.47 0.63
0 -3 -5 33.27 2.18
0 -3 -5 29.73 2.45
3 0 -5 30.63 2.3
-3 3 -5 26.56 2.55
-3 3 -5 29.34 2.6
-3 3 -5 32.21 2.3
3 0 -5 34.74 2.26
3 -3 5 35.82 2.05
0 3 5 35.13 2.41
-3 0 5 33.84 3.1
0 3 5 33.38 2.16
-3 0 5 29.78 2.36
3 -3 5 33.33 1.97
-3 4 -5 63.65 4.05
4 -1 -5 51.64 3.62
-1 -3 -5 60.46 3.73
-3 4 -5 52.95 4.65
-1 -3 -5 67.28 3.98
4 -1 -5 58.39 3.64
-4 1 5 63.98 3.8
1 3 5 59.03 4.14
1 3 5 59.89 3.85
3 -4 5 62.15 3.2
-4 1 5 69.84 4.93
1 3 5 58.08 3.46
3 -4 5 57.24 3.58
3 -4 5 62.49 3.34
-2 -3 -5 0.35 0.64
-3 5 -5 0.37 0.94
5 -2 -5 -0.6 0.51
-3 5 -5 -0.25 1.59
5 -2 -5 0.2 0.72
2 3 5 -0.14 0.5
-5 2 5 -0.51 1.28
3 -5 5 -0.41 0.58
-5 2 5 0.81 0.7
6 -3 -5 17.2 1.7
6 -3 -5 14.51 1.91
-3 -3 -5 14.63 2.12
-3 6 -5 15.77 3.17
-6 3 5 18.46 1.91
3 -6 5 15.79 1.84
3 3 5 16.33 2.01
-6 3 5 20.6 3.68
3 3 5 15.52 1.57
7 -4 -5 39.45 3.31
-3 7 -5 44.58 4.05
4 3 5 30.48 3.21
-7 4 5 39.21 6.36
3 -7 5 28.74 3.25
-7 4 5 39.59 3.13
-2 6 -5 0.44 1.75
-4 -2 -5 3.7 1.1
6 -4 -5 3.86 1.07
-6 4 5 1.89 1.1
4 2 5 2.37 1.01
2 -6 5 1.53 0.78
-6 4 5 0.36 2.07
-1 5 -5 19.75 2.35
-4 -1 -5 21.41 2.21
5 -4 -5 26.45 2.29
4 1 5 23.06 2.12
1 -5 5 21.04 1.98
-5 4 5 26.02 3.31
1 -5 5 19.56 2.99
-5 4 5 23.08 2.05
-4 0 -5 32.79 2.66
4 -4 -5 35.91 2.71
0 4 -5 38.09 2.85
-4 4 5 34.97 3.48
0 -4 5 34.36 2.55
-4 4 5 35.45 2.51
4 0 5 36.87 2.69
0 -4 5 35.51 3.77
3 -4 -5 -0.21 0.79
-4 1 -5 0.1 0.54
1 3 -5 0.07 0.34
1 3 -5 0.83 0.67
4 -1 5 0.26 0.24
-1 -3 5 -0.07 0.96
4 -1 5 0.42 0.48
-3 4 5 -0.09 0.44
-1 -3 5 0.38 0.43
-1 -3 5 0.5 0.44
-3 4 5 1.07 1.2
-4 2 -5 31.64 1.89
2 2 -5 28.66 2.35
-4 2 -5 26.7 1.88
2 -4 -5 26.81 1.67
-4 2 -5 31.24 2.43
2 2 -5 28.98 2.04
2 -4 -5 31.11 2.35
-4 2 -5 30.46 2.29
-2 4 5 35 2.09
4 -2 5 28.23 1.74
-2 -2 5 30.23 2.14
-2 -2 5 30.4 3.17
-2 4 5 29.24 2.88
-2 4 5 24.6 2.03
4 -2 5 26.95 2.06
1 -4 -5 54.53 3.94
-4 3 -5 68.5 3.99
-4 3 -5 58.24 3.65
-4 3 -5 61.47 3.98
3 1 -5 57.53 3.84
1 -4 -5 60.06 3.44
3 1 -5 59.41 3.61
-1 4 5 59.15 3.64
-1 4 5 57.93 3.59
4 -3 5 60.83 3.44
4 -3 5 61.8 3.54
-3 -1 5 65.63 3.78
-1 4 5 61.73 4.06
-3 -1 5 65.18 4.89
-4 4 -5 2.29 1.01
4 0 -5 1.37 0.6
0 -4 -5 1.34 0.58
4 0 -5 1.07 0.6
0 -4 -5 2.38 0.98
-4 4 -5 0.58 1.21
0 4 5 1.1 0.56
4 -4 5 1.52 0.62
4 -4 5 0.24 0.5
-4 0 5 1.83 0.63
-4 0 5 3.05 1.38
0 4 5 2.09 1.07
4 -4 5 1.99 0.46
5 -1 -5 14.06 1.51
-1 -4 -5 15.7 1.69
-4 5 -5 9.17 1.72
-4 5 -5 10.53 2.12
5 -1 -5 13.59 1.65
-5 1 5 11.87 1.56
4 -5 5 14.95 1
1 4 5 11.95 2.01
4 -5 5 13.71 1.5
-5 1 5 13.06 2.68
1 4 5 12.56 1.41
-4 6 -5 35.67 3.27
6 -2 -5 30.24 2.63
6 -2 -5 28.64 2.35
4 -6 5 30.47 2.49
2 4 5 29.94 2.24
-6 2 5 33.59 2.6
-6 2 5 28.68 3.98
-4 7 -5 3.98 2.66
7 -3 -5 1.55 1.14
-4 7 -5 -1.13 1.53
-7 3 5 4.49 1.19
4 -7 5 1.29 1.11
-7 3 5 1.68 2.36
7 -5 -5 9.58 1.68
-2 7 -5 9.82 2.65
2 -7 5 13.42 1.99
-7 5 5 8.82 1.77
-7 5 5 8.1 3.44
5 2 5 9.29 1.8
-5 -1 -5 40.89 3.41
6 -5 -5 40.3 3.26
-1 6 -5 42.38 3.67
-6 5 5 43.78 3.14
1 -6 5 35.94 3.02
5 1 5 37.45 3.3
-6 5 5 40.88 4.54
0 5 -5 1.51 1.02
-5 0 -5 1.75 0.89
5 -5 -5 1.41 1.04
5 0 5 1.48 0.9
0 -5 5 0.93 0.67
-5 5 5 1.54 0.76
-5 5 5 1.09 1.69
0 -5 5 1.52 1.51
1 4 -5 22.97 1.55
1 4 -5 28.06 2.56
-5 1 -5 23.69 2.2
4 -5 -5 19.26 2.45
-1 -4 5 21.97 1.98
5 -1 5 22.81 2.15
-4 5 5 21.24 2.91
-4 5 5 21.62 1.98
2 3 -5 62.13 3.45
-5 2 -5 59.73 3.56
-5 2 -5 62.95 4.04
2 3 -5 60.94 4.06
3 -5 -5 64.84 3.97
-3 5 5 57.56 3.74
-2 -3 5 57.1 3.7
-3 5 5 49.44 4.42
5 -2 5 60.15 3.77
-2 -3 5 53.34 5.02
-5 3 -5 0.61 0.85
2 -5 -5 0.42 0.73
-5 3 -5 0.51 0.96
3 2 -5 -0.31 0.69
3 2 -5 -0.12 0.52
5 -3 5 -0.11 0.4
-2 5 5 0.61 0.94
5 -3 5 -0.78 0.55
-3 -2 5 0.51 0.55
-3 -2 5 -1.05 1.07
-2 5 5 -0.2 0.6
-5 4 -5 15.02 2.04
4 1 -5 15.37 1.91
1 -5 -5 17.07 1.95
-5 4 -5 20.14 2.69
4 1 -5 16.59 1.77
5 -4 5 13.47 1.43
-1 5 5 15.86 1.74
-4 -1 5 19.83 3.17
-1 5 5 12.07 2.39
-4 -1 5 15.55 1.57
5 -4 5 17.11 1.52
-5 5 -5 46.82 4.18
5 0 -5 44.91 3.3
-5 5 -5 41.61 3.44
5 0 -5 44.49 3.36
-5 0 5 46.72 3.06
0 5 5 43.7 3.9
5 -5 5 43.61 2.72
0 5 5 43.77 3.21
5 -5 5 43.31 3.03
-5 0 5 50.46 4.85
6 -1 -5 1.9 1.01
6 -1 -5 1.09 1.11
-5 6 -5 1.69 1.36
-5 6 -5 1.62 2
-6 1 5 5.37 2.25
-6 1 5 3.21 0.92
1 5 5 1.72 0.79
1 5 5 -2 1.98
5 -6 5 1.99 0.99
7 -2 -5 20.91 2.37
-5 7 -5 26.75 3.52
7 -2 -5 19.88 2.68
-5 7 -5 19.97 3.7
2 5 5 20.01 2.13
2 5 5 15.91 2.86
2 5 5 15.84 2.54
-7 2 5 17.44 3.45
-7 2 5 20.94 2.19
-6 0 -5 19.71 3.05
0 6 -5 16.48 2.8
6 -6 -5 22.62 3
-6 6 5 19.21 2.17
0 -6 5 13 3.22
-6 6 5 22.94 3.99
6 0 5 22.52 2.57
0 -6 5 17.49 2.21
-6 1 -5 34.35 3.26
1 5 -5 42.06 3.59
5 -6 -5 38.84 3.75
-5 6 5 42.08 4.66
-1 -5 5 36.29 2.94
-5 6 5 38.67 2.96
-1 -5 5 37.31 4.79
6 -1 5 38.84 3.24
-6 2 -5 1.15 0.96
2 4 -5 2.69 1.19
-6 2 -5 4.03 1.24
2 4 -5 2.52 0.8
4 -6 -5 3.98 1.03
-4 6 5 3.55 2
-2 -4 5 0.99 1.84
-2 -4 5 1.48 0.73
-4 6 5 1.89 0.95
6 -2 5 2.74 1.02
3 3 -5 16.61 1.72
3 -6 -5 16.63 2.09
3 3 -5 15.91 2.09
-6 3 -5 12.69 2.67
-6 3 -5 18.14 2.16
-3 -3 5 14.33 2.93
-3 6 5 15.86 1.89
-3 6 5 15.47 3.28
6 -3 5 21.9 2.06
-3 -3 5 14.84 1.68
-6 4 -5 29.16 2.74
2 -6 -5 31.26 2.83
4 2 -5 33.32 2.65
4 2 -5 38.75 3.21
-6 4 -5 33.16 3.32
-2 6 5 32.69 2.77
-4 -2 5 30.4 4.11
-4 -2 5 30.61 2.39
-2 6 5 29.36 3.44
6 -4 5 30.28 2.48
5 1 -5 1.76 1.14
-6 5 -5 0.46 1.19
-6 5 -5 5.4 2.06
1 -6 -5 2.01 0.98
5 1 -5 3.62 1.17
6 -5 5 2.04 0.83
-5 -1 5 3.16 1.81
-1 6 5 1.89 1.02
-1 6 5 1.48 0.96
-5 -1 5 1.19 0.69
-1 6 5 4.3 2.26
6 -5 5 3.45 1.02
6 0 -5 27.08 3.8
-6 6 -5 23.9 2.85
6 0 -5 19.26 2.79
-6 6 -5 26.04 4.42
-6 0 5 23.54 4.43
6 -6 5 21.29 2.36
0 6 5 16.38 2.61
0 6 5 20.26 2.32
-6 0 5 17.7 1.83
0 6 5 20.2 3.34
2 5 -5 9.6 1.97
5 -7 -5 10.29 1.73
-7 2 -5 10.2 2.06
-2 -5 5 9.37 2.85
7 -2 5 7.63 1.64
-2 -5 5 11.02 1.79
-5 7 5 15.29 2.08
-5 7 5 11.36 2.96
-7 3 -5 38.91 3.33
3 4 -5 34.95 3.4
4 -7 -5 35.27 3.13
3 4 -5 34.06 2.72
-4 7 5 34.76 3.02
-4 7 5 22.29 4.84
-3 -4 5 26.16 5.77
7 -3 5 37.6 3.25
-3 -4 5 28.92 2.63
4 3 -5 2.23 1.25
3 -7 -5 3.64 1.42
4 3 -5 3.12 1.4
-7 4 -5 3.16 1.29
-4 -3 5 2.57 0.9
-4 -3 5 3.17 2.03
-3 7 5 -0.98 1.98
7 -4 5 4.52 1.16
-3 7 5 3.44 1.26
-7 5 -5 24.76 2.85
5 2 -5 22.57 2.96
5 2 -5 23.2 2.72
2 -7 -5 24.19 2.51
-7 5 -5 22.92 3.96
-5 -2 5 19.47 2
7 -5 5 20.98 2.27
-2 7 5 18.88 4.04
-2 7 5 22.04 2.72
-5 -2 5 18.32 3.43
0 0 -6 12.71 1.42
0 0 -6 16.05 1.56
0 0 -6 16.87 1.51
0 0 6 16.86 1.41
0 0 6 14.43 1.38
1 -1 -6 98.63 5.81
-1 0 -6 90.07 5.92
0 1 -6 96.36 6.07
1 -1 -6 117.34 5.93
0 1 -6 106.4 5.57
0 1 -6 107.38 6.04
1 -1 -6 95.01 5.89
0 -1 6 105.28 5.9
1 0 6 110.46 5.65
0 -1 6 95.48 5.77
-1 1 6 106.52 5.83
0 -1 6 115.76 5.89
-1 1 6 98.17 6
1 0 -6 343.81 17.26
-1 1 -6 298.02 17.21
-1 1 -6 338.69 16.82
0 -1 -6 379.41 17.16
1 0 -6 359.52 17.49
-1 1 -6 350.26 17.2
1 0 -6 313.16 17.21
0 1 6 339.42 17.13
0 1 6 343.49 16.91
1 -1 6 301.79 16.97
-1 0 6 340.68 17.04
-1 0 6 345.75 17.18
1 -1 6 302.71 16.81
-1 -1 -6 2.35 0.72
2 -1 -6 1.94 0.66
-1 2 -6 2.47 0.77
2 -1 -6 2.39 0.76
-1 2 -6 1.19 0.45
-1 2 -6 1.65 0.78
-1 -1 -6 1.18 0.66
-2 1 6 1.27 0.92
-2 1 6 1.33 0.48
1 -2 6 1.97 0.73
1 -2 6 3.06 0.56
1 -2 6 1.96 0.62
1 1 6 2.15 0.62
-1 3 -6 75.45 4.08
-1 3 -6 69.39 5.21
-2 -1 -6 80.3 4.67
3 -2 -6 75.34 4.61
3 -2 -6 80.92 4.44
-3 2 6 70.87 4.79
1 -3 6 63.87 4.93
-3 2 6 78.85 5.81
1 -3 6 77.12 4.53
-3 2 6 79.73 4.45
1 -3 6 86.22 4.13
-2 0 -6 301.71 14.89
0 2 -6 281.57 15.23
-2 0 -6 263.35 14.65
2 -2 -6 292.3 14.58
-2 0 -6 300.25 15.12
2 -2 -6 266.9 15.12
0 2 -6 294.27 14.43
-2 2 6 286.62 15.24
-2 2 6 246.61 14.77
0 -2 6 310.32 14.87
0 -2 6 284.1 14.67
2 0 6 309.18 14.55
-2 2 6 287.38 14.88
0 -2 6 293.08 15.3
-2 1 -6 1.23 0.68
1 -2 -6 0.37 0.94
1 -2 -6 1.73 0.47
1 1 -6 1.64 0.6
1 -2 -6 2.41 0.65
1 1 -6 2.56 0.81
-1 2 6 1.29 0.78
-1 -1 6 1.44 0.71
-1 -1 6 1.18 0.61
-1 2 6 2.38 0.64
-1 2 6 2.47 0.81
2 -1 6 1.31 0.56
-2 2 -6 71.31 4.38
0 -2 -6 73.56 4.32
2 0 -6 65.82 4.01
0 -2 -6 69 4.07
2 0 -6 69.68 4.17
-2 2 -6 64.6 3.85
-2 0 6 68.15 4.06
0 2 6 70.72 3.97
-2 0 6 60.43 4.42
0 2 6 64.99 3.95
2 -2 6 68.06 3.97
3 -1 -6 286.98 15.11
-1 -2 -6 294.13 15.17
-1 -2 -6 284.78 15.43
-2 3 -6 299.46 15.49
3 -1 -6 280.72 15.07
1 2 6 285.3 14.9
1 2 6 295.11 14.75
1 2 6 293.49 14.68
2 -3 6 317.88 14.72
-3 1 6 297.33 15.14
2 -3 6 294.18 15
-3 1 6 284.3 15.88
4 -2 -6 4.78 0.97
-2 4 -6 6.65 1.41
-2 -2 -6 8.41 1.37
4 -2 -6 6.97 1.08
-4 2 6 7.35 2.02
-4 2 6 8.49 1.29
2 -4 6 5.54 0.92
2 2 6 7.66 1.06
-2 5 -6 44.77 3.88
5 -3 -6 42.5 3.13
5 -3 -6 41.56 2.94
-3 -2 -6 42.46 3.22
-5 3 6 43.05 3.36
2 -5 6 40.79 3.02
-5 3 6 36.36 5.08
4 -3 -6 207.16 10.98
4 -3 -6 203.82 10.36
-1 4 -6 190.25 11.41
-3 -1 -6 209.62 11.01
-4 3 6 203.49 11
1 -4 6 197.39 10.77
3 1 6 210.18 10.33
-4 3 6 198.29 12.02
-3 0 -6 1.17 0.73
3 -3 -6 0.52 0.46
0 3 -6 2.27 0.51
0 3 -6 2.21 1
3 -3 -6 0.33 0.7
3 0 6 1.45 0.5
0 -3 6 1.17 1.11
-3 3 6 0.8 0.62
-3 3 6 1.51 0.68
-3 3 6 2.43 1.09
0 -3 6 2.84 0.53
0 -3 6 1.73 0.58
1 2 -6 86.46 5.29
-3 1 -6 83.35 4.61
1 2 -6 88.64 4.92
2 -3 -6 85.94 4.69
2 -3 -6 84.2 5.14
-3 1 -6 85.34 5.34
-2 3 6 79.98 4.94
3 -1 6 83.47 4.65
-1 -2 6 82.14 5.67
-2 3 6 97.92 5
-2 3 6 86.29 5.42
-1 -2 6 82.6 5.03
1 -3 -6 304.91 14.97
1 -3 -6 274.36 14.56
2 1 -6 281.28 14.96
2 1 -6 277.69 14.6
-1 3 6 288 14.7
-2 -1 6 291 15.55
3 -2 6 285.62 14.5
-1 3 6 272.36 15.27
-1 3 6 304.75 15.14
3 0 -6 5.76 0.95
0 -3 -6 1.98 0.81
0 -3 -6 4.35 0.82
-3 3 -6 3.15 0.97
-3 3 -6 3.01 0.87
3 0 -6 3.87 0.88
-3 3 -6 2.12 0.92
3 -3 6 3.96 0.73
-3 0 6 2.8 1.1
0 3 6 2.39 0.96
0 3 6 3.14 1.12
0 3 6 2.91 0.62
-3 0 6 2.85 0.78
-1 -3 -6 57.65 3.91
-3 4 -6 56.66 3.89
-3 4 -6 47.81 4.47
-1 -3 -6 57.21 3.62
4 -1 -6 57.3 3.61
4 -1 -6 50.2 3.56
1 3 6 55.39 3.45
3 -4 6 58.49 3.11
3 -4 6 55.75 3.03
-4 1 6 61.86 3.72
3 -4 6 56.63 3.53
1 3 6 52.4 3.37
-4 1 6 56.71 4.5
5 -2 -6 130.3 7.69
5 -2 -6 138.75 7.51
-2 -3 -6 144.41 7.88
-3 5 -6 139.91 8.03
-3 5 -6 114.1 8.64
-5 2 6 143.19 7.67
-5 2 6 144.05 9.18
3 -5 6 138.48 7.63
2 3 6 135.24 7.32
2 3 6 137.89 7.53
6 -3 -6 1.92 0.95
6 -3 -6 1.91 0.95
-3 -3 -6 0.78 0.99
-3 6 -6 1.8 1.39
3 -6 6 0.75 0.88
-6 3 6 1.02 0.92
3 3 6 0 0.96
-6 3 6 1.07 2.02
3 3 6 0.39 0.99
-2 6 -6 95 6.82
-4 -2 -6 99.09 6.23
6 -4 -6 102.72 6.19
4 2 6 102.32 6.07
2 -6 6 95.77 5.91
-6 4 6 85.21 7.96
-6 4 6 90.75 6.26
5 -4 -6 2.2 0.96
-1 5 -6 3.45 1.45
-4 -1 -6 2.4 0.95
1 -5 6 2.48 0.82
-5 4 6 1.66 1.73
1 -5 6 -0.34 1.28
4 1 6 1.54 0.86
-5 4 6 1.92 0.98
4 -4 -6 45.13 3.6
0 4 -6 42.46 3.39
-4 0 -6 45.45 3.29
-4 4 6 44.19 3.11
0 -4 6 39.34 4.21
0 -4 6 45.86 3.09
4 0 6 41.46 2.3
4 0 6 40.2 3.11
-4 4 6 39.89 4.01
3 -4 -6 187.54 10.7
1 3 -6 192.97 10.77
1 3 -6 193.81 10.13
-4 1 -6 200.76 10.72
4 -1 6 198.24 10.51
-1 -3 6 200.23 10.49
4 -1 6 203.75 9.85
-1 -3 6 202.63 11.71
-3 4 6 197.22 11.09
-3 4 6 181.19 10.34
-3 4 6 197.41 9.77
-1 -3 6 189.95 10.12
2 2 -6 8.54 1.13
2 2 -6 9.08 1.47
2 -4 -6 10.56 1.45
-4 2 -6 8.22 1.38
2 -4 -6 7.3 0.77
-2 4 6 8.3 1.77
4 -2 6 7.02 1.11
4 -2 6 8 0.89
-2 4 6 5.44 0.95
-2 -2 6 8.12 1.79
-2 4 6 8.31 1.23
-2 -2 6 5.82 1.07
1 -4 -6 53.06 3.3
-4 3 -6 55.78 4.07
-4 3 -6 53.83 3.45
3 1 -6 55.13 3.5
3 1 -6 61.09 3.94
-4 3 -6 58.34 3.55
1 -4 -6 56.83 3.88
-3 -1 6 56.26 3.73
-3 -1 6 63.96 4.8
-1 4 6 54.97 3.53
4 -3 6 56.36 3.32
4 -3 6 54.14 3.39
-4 4 -6 132.28 8.98
-4 4 -6 169.12 8.9
4 0 -6 166.47 8.76
0 -4 -6 144.74 8.91
0 -4 -6 162.14 8.52
4 0 -6 155.38 8.55
0 4 6 157.66 8.64
4 -4 6 158.24 8.4
-4 0 6 171.35 9.81
0 4 6 157.99 8.44
4 -4 6 154.81 8.18
5 -1 -6 1.87 0.82
-1 -4 -6 0.74 0.72
-4 5 -6 1.1 1.08
-4 5 -6 2 1.61
5 -1 -6 2.49 0.85
-5 1 6 -0.07 0.76
1 4 6 0.54 0.7
1 4 6 -0.39 1.33
-5 1 6 1.08 1.53
4 -5 6 2.45 0.84
6 -2 -6 32.08 2.49
-4 6 -6 27.31 3.14
-2 -4 -6 34 3.01
6 -2 -6 30.54 2.77
-4 6 -6 26.24 4.45
2 4 6 24.81 3.48
2 4 6 26.54 2.34
4 -6 6 25.64 2.41
-6 2 6 28.8 4.05
-6 2 6 32.84 2.72
-5 -1 -6 29.7 3.1
-1 6 -6 27.05 3.62
-6 5 6 28.74 2.81
5 1 6 27.31 2.83
-6 5 6 27.77 4.99
-5 0 -6 144.85 8.11
5 -5 -6 148.52 8.49
0 5 -6 133.78 8.23
0 -5 6 109.76 9.09
-5 5 6 135.53 9.1
0 -5 6 139.09 7.83
5 0 6 130.46 7.88
-5 5 6 140.92 7.79
1 4 -6 2.72 0.64
-5 1 -6 1.92 1.05
4 -5 -6 5.01 1.38
1 4 -6 2.13 1.14
5 -1 6 2.22 0.91
-1 -4 6 2.21 1.62
-4 5 6 4.33 1.8
-1 -4 6 0.59 0.75
-4 5 6 1.8 0.89
3 -5 -6 43.83 3.21
-5 2 -6 43.52 3.39
2 3 -6 43.34 2.79
2 3 -6 46 3.51
-2 -3 6 43.28 3.1
5 -2 6 39.72 3.09
-2 -3 6 43.95 4.45
5 -2 6 42.97 2.36
-3 5 6 44.72 3.08
-3 5 6 41.61 4.13
3 2 -6 134.32 7.61
2 -5 -6 147.5 8.07
3 2 -6 131.49 8.05
-5 3 -6 146.46 8.25
-5 3 -6 136.22 7.7
5 -3 6 140.02 7.73
-2 5 6 136.9 7.77
-3 -2 6 150.04 7.91
-3 -2 6 147.41 9.25
-2 5 6 139.14 8.46
4 1 -6 1.35 0.85
4 1 -6 0.62 0.9
1 -5 -6 0.19 1.02
-5 4 -6 3.85 1.25
-5 4 -6 2.01 1.17
-1 5 6 0.99 1.17
-4 -1 6 1.2 1.36
5 -4 6 0.78 0.62
-1 5 6 1.46 0.71
5 -4 6 2.06 0.72
-4 -1 6 0.5 0.78
5 0 -6 39.36 3.19
0 -5 -6 42.69 3.41
5 0 -6 38.4 3.22
-5 5 -6 43.84 4.22
-5 5 -6 39.37 3.73
0 5 6 37.33 2.96
5 -5 6 41.36 2.66
5 -5 6 43.56 2.97
-5 0 6 37.94 3.05
-5 0 6 46.9 4.77
0 5 6 41.74 3.86
-5 6 -6 111.91 6.97
6 -1 -6 96.01 6.04
-6 1 6 89.03 5.91
1 5 6 97.31 5.72
5 -6 6 104.34 5.98
1 5 6 89.17 6.58
-6 1 6 105.81 7.61
-6 1 -6 30.21 3.55
5 -6 -6 26.35 2.92
1 5 -6 26.87 4.1
-5 6 6 24.92 3.83
-5 6 6 23.57 4.61
2 4 -6 103.59 5.9
-6 2 -6 106.59 6.39
2 4 -6 95.93 6.37
4 -6 -6 100.73 6.03
-4 6 6 99.09 7.26
-2 -4 6 97.81 5.88
-4 6 6 98.6 5.96
-2 -4 6 87.75 7.96
6 -2 6 95.92 6.09
3 3 -6 -0.46 0.99
-6 3 -6 -0.27 1.1
3 3 -6 1.96 0.87
3 -6 -6 0.18 1
6 -3 6 1.67 0.91
-3 6 6 1.51 1.97
-3 -3 6 1.73 0.89
-3 6 6 2.34 0.93
-3 -3 6 1.98 1.74
4 2 -6 26.24 2.47
4 2 -6 27.51 2.84
2 -6 -6 20.84 2.68
-6 4 -6 27.91 3.01
6 -4 6 30.21 2.2
-2 6 6 26.47 2.6
-4 -2 6 32.38 4.14
-4 -2 6 30.09 2.48
6 -4 6 29.34 2.48
1 -6 -6 99.12 6.42
-6 5 -6 118.49 6.92
-6 5 -6 109.82 6.82
5 1 -6 100.96 6.25
5 1 -6 103.37 6.56
6 -5 6 101.49 5.92
-5 -1 6 103.74 8.04
-1 6 6 95.48 6.1
-1 6 6 96.12 6
6 -5 6 100.05 5.82
-5 -1 6 113.91 6.12
-1 6 6 94.31 6.67
0 0 -7 14.93 1.43
0 0 -7 13.84 1.44
0 0 -7 12.48 1.62
0 0 7 16 1.41
0 0 7 14.71 1.42
0 1 -7 -0.09 1.24
1 -1 -7 0.92 0.71
1 -1 -7 1.02 0.5
-1 0 -7 0.7 0.61
0 1 -7 1.52 0.6
1 -1 -7 1.09 0.52
-1 0 -7 0.96 0.7
0 1 -7 2.3 0.82
0 -1 7 0.51 0.51
0 -1 7 1 0.65
1 0 7 0.88 0.47
-1 1 7 1.2 0.76
-1 1 7 0.57 0.48
1 0 -7 40.29 3
1 0 -7 44.13 2.9
0 -1 -7 40.86 2.83
-1 1 -7 43.3 2.97
-1 1 -7 43.23 2.84
0 -1 -7 42.23 3.03
-1 1 -7 44.17 2.71
-1 0 7 40.39 3.3
-1 0 7 45.58 2.85
0 1 7 39.14 2.73
1 -1 7 41.33 2.85
1 -1 7 42.14 2.63
0 1 7 39.03 2.57
-1 2 -7 5.53 1.1
-1 -1 -7 10.18 1.59
-1 -1 -7 7.63 1.38
2 -1 -7 7.2 1.24
-1 2 -7 6.46 1.09
2 -1 -7 8.47 1.55
1 1 7 7.75 1
1 -2 7 7.61 1.38
-2 1 7 8.84 1.79
1 -2 7 8.28 1.26
-2 1 7 4.95 0.88
-2 -1 -7 0.32 0.65
-1 3 -7 0.2 0.9
3 -2 -7 -0.26 0.78
3 -2 -7 0.86 0.57
-1 3 -7 -0.57 0.46
-3 2 7 -0.26 0.73
-3 2 7 -0.73 1.34
1 -3 7 0.61 0.62
1 -3 7 0.58 0.85
1 -3 7 0.19 0.7
2 1 7 1.11 0.52
-2 0 -7 25.73 2.38
-2 0 -7 25.24 2.45
0 2 -7 27.68 2.96
2 -2 -7 28.1 2.42
2 -2 -7 28.18 2.01
0 2 -7 31.12 1.99
0 -2 7 20.26 2.2
2 0 7 30.99 2.1
0 -2 7 29.78 2.75
-2 2 7 25.77 2.46
-2 2 7 21.28 3.3
-2 1 -7 9.09 1.54
1 -2 -7 9.05 1.87
1 1 -7 6.36 1.06
1 1 -7 9.6 1.75
1 -2 -7 6.29 1.06
1 -2 -7 9.11 1.28
-2 1 -7 5.26 1.07
-1 -1 7 8.8 1.28
-1 2 7 5.32 1.1
-1 -1 7 8.35 1.5
2 -1 7 7.66 1.21
-1 2 7 8.96 1.88
0 -2 -7 -0.97 0.55
-2 2 -7 0.17 0.61
2 0 -7 0.22 0.85
2 0 -7 1.38 0.87
-2 2 -7 -0.72 0.76
0 -2 -7 -0.08 0.53
-2 0 7 -0.44 0.68
0 2 7 0.26 0.83
-2 0 7 0.91 0.58
0 2 7 -0.76 0.6
0 2 7 -0.57 0.77
2 -2 7 0.7 0.63
-2 3 -7 46.95 3.33
-1 -2 -7 42.69 3.1
-1 -2 -7 37.33 3.32
3 -1 -7 43.37 3.08
3 -1 -7 46.47 3.33
-3 1 7 41.26 3.58
-3 1 7 45.49 3.06
2 -3 7 45.2 2.64
1 2 7 39.59 3.06
2 -3 7 46.55 3.09
4 -2 -7 11.01 1.95
-2 4 -7 10.65 1.87
4 -2 -7 13.1 1.79
-2 -2 -7 11.37 1.69
2 2 7 9.96 1.57
-4 2 7 10.6 1.56
-4 2 7 11.12 2.29
2 -4 7 13.59 1.76
2 -4 7 12.8 0.88
-2 5 -7 1.95 1.28
-3 -2 -7 0.93 1.05
5 -3 -7 -0.32 0.75
5 -3 -7 0.71 0.92
2 -5 7 -0.77 0.86
-5 3 7 1 0.86
3 2 7 1.12 0.74
-5 3 7 0.1 2.06
4 -3 -7 41.91 2.41
-1 4 -7 33.27 3.73
4 -3 -7 39.19 3.2
-3 -1 -7 40.16 3.21
-4 3 7 31.61 3.21
1 -4 7 38.59 3.76
3 1 7 38.21 2.45
1 -4 7 39.96 3
-4 3 7 32.53 4.41
-3 0 -7 8.55 1.67
0 3 -7 6.95 0.91
3 -3 -7 6.22 1.12
3 -3 -7 5.38 1.44
0 3 -7 7.73 1.7
-3 3 7 9.22 1.95
-3 3 7 8.81 1.82
0 -3 7 10.38 1.54
0 -3 7 8.03 1.71
-3 3 7 8.62 1.47
3 0 7 8.64 1.1
1 2 -7 1.11 0.68
1 2 -7 0.67 0.91
2 -3 -7 0.85 0.69
-3 1 -7 -0.83 0.83
-2 3 7 0.27 0.65
-1 -2 7 -0.23 0.69
-1 -2 7 -1.1 0.81
3 -1 7 -1.05 0.58
-2 3 7 0.93 1.1
2 1 -7 46.63 3.37
-3 2 -7 40.55 3.51
1 -3 -7 43.82 3.16
2 1 -7 48.98 3.18
1 -3 -7 49.54 3.06
-1 3 7 46.75 3.16
-2 -1 7 44.44 3.65
3 -2 7 49.85 3.04
-2 -1 7 40.41 3.22
-1 3 7 47.14 3.47
0 -3 -7 7.33 1.35
0 -3 -7 7.94 1.27
-3 3 -7 6.34 1.13
3 0 -7 8.13 1.4
3 0 -7 7.27 1.16
-3 3 -7 6.54 1.23
3 -3 7 7.6 1.1
0 3 7 7.66 1.35
-3 0 7 6.13 1.47
0 3 7 7.34 1.17
3 -3 7 8.33 1.21
-3 0 7 5.48 1.06
-3 4 -7 -0.74 1.24
4 -1 -7 1.13 0.84
-3 4 -7 0.82 0.98
4 -1 -7 0.56 0.75
-1 -3 -7 0.43 0.81
-1 -3 -7 -1.11 0.85
-4 1 7 0.54 1.35
1 3 7 -0.85 0.95
-4 1 7 0.6 0.67
3 -4 7 -0.63 0.51
3 -4 7 0.23 0.66
1 3 7 -0.87 0.66
-2 -3 -7 36.33 3.03
-3 5 -7 32.6 3.16
5 -2 -7 33.34 2.94
5 -2 -7 38.09 2.89
-3 5 -7 39.23 4.03
-5 2 7 38.98 2.9
3 -5 7 34.55 2.85
2 3 7 31.24 2.71
-5 2 7 36.56 4.2
6 -3 -7 9.48 1.81
-3 6 -7 5.67 2.67
-3 -3 -7 8.43 1.62
-3 6 -7 7.77 1.83
3 3 7 9.17 1.98
-6 3 7 8.56 2.91
-6 3 7 6.05 1.3
-2 6 -7 22.76 3.51
-4 -2 -7 31.46 3.23
6 -4 -7 24.68 2.84
4 2 7 21.76 2.91
2 -6 7 27.1 2.69
-6 4 7 21.77 4.49
-6 4 7 20.09 2.75
-1 5 -7 4.98 2.04
5 -4 -7 6.81 1.48
-4 -1 -7 6.09 1.55
-5 4 7 7.67 2.9
1 -5 7 8.22 2.24
4 1 7 5.9 1.55
-5 4 7 4.71 1.54
1 -5 7 5.97 1.35
0 4 -7 0.76 1.24
4 -4 -7 1.99 1.22
-4 0 -7 0.52 0.94
4 0 7 0.24 0.85
0 -4 7 1.95 0.88
0 -4 7 0.82 1.32
-4 4 7 -1.92 1.74
-4 4 7 -0.14 0.8
4 0 7 0.12 0.55
3 -4 -7 43.14 3.21
-4 1 -7 39.98 3.39
3 -4 -7 36.98 2.32
1 3 -7 38.1 2.66
1 3 -7 43.43 3.44
-1 -3 7 44.29 4.08
-3 4 7 38.39 2.97
-1 -3 7 41.64 3.17
4 -1 7 40.26 3.15
-3 4 7 39.29 4.08
4 -1 7 43.77 2.53
2 2 -7 12.46 1.52
2 2 -7 12.71 1.81
-4 2 -7 10.91 1.89
2 -4 -7 12.51 1.82
2 -4 -7 12.32 1.21
-2 4 7 12.83 1.65
-2 -2 7 14.08 2.27
4 -2 7 12.77 1.57
4 -2 7 13.31 1.36
-2 4 7 13.15 2.35
-2 -2 7 9.51 1.53
1 -4 -7 -1.07 0.74
-4 3 -7 -0.19 1.16
1 -4 -7 0.6 0.61
3 1 -7 0.1 0.73
3 1 -7 0.61 0.75
-1 4 7 1.28 0.68
-3 -1 7 0.5 1.06
4 -3 7 0.23 0.61
-3 -1 7 -0.23 0.79
-1 4 7 1.22 1.34
4 -3 7 -0.99 0.62
0 -4 -7 23.98 2.81
-4 4 -7 30.47 3.05
4 0 -7 28.59 2.47
4 0 -7 28.18 2.33
0 -4 -7 26.44 2.33
-4 0 7 28.73 3.58
0 4 7 27.06 2.45
-4 0 7 26.65 2.47
4 -4 7 28.07 2.34
4 -4 7 31.77 2.12
0 4 7 25.62 2.93
-4 5 -7 10.34 1.81
5 -1 -7 8.02 1.37
-1 -4 -7 7.83 1.56
5 -1 -7 7.19 1.36
-4 5 -7 9.52 1.87
4 -5 7 9.76 1.47
1 4 7 7.38 1.24
-5 1 7 8.57 1.35
-5 1 7 11.08 2.45
-4 6 -7 -0.12 1.4
-4 6 -7 -0.62 2.11
6 -2 -7 -0.2 1.17
6 -2 -7 0.72 1.14
-2 -4 -7 1.17 1.27
-6 2 7 1.63 2.32
2 4 7 -0.43 1.1
-6 2 7 0.4 1.17
4 -6 7 0.33 1.08
5 -5 -7 34.54 3.85
0 5 -7 42.16 4.33
-5 5 7 29.65 3.15
5 0 7 39.33 4.04
-5 5 7 38.43 4.91
0 -5 7 43.05 4.84
1 4 -7 7.84 1.62
4 -5 -7 7.54 1.57
-5 1 -7 7.55 1.59
-4 5 7 4.77 2.36
-1 -4 7 8 1.32
5 -1 7 7.85 1.54
-4 5 7 6.85 1.37
-1 -4 7 5.43 2.01
2 3 -7 1.39 1.12
-5 2 -7 0.72 1.12
3 -5 -7 -0.15 0.86
2 3 -7 2.3 1.18
-3 5 7 -0.46 0.78
5 -2 7 0.17 0.61
5 -2 7 0.59 0.9
-3 5 7 1.45 1.99
-2 -3 7 0.45 0.94
-2 -3 7 -1.1 1.4
-5 3 -7 35.3 3.39
3 2 -7 34.5 3.16
3 2 -7 33.24 2.65
2 -5 -7 36.9 3
5 -3 7 37.28 2.45
-3 -2 7 29.87 3.93
-2 5 7 30.33 2.68
-3 -2 7 36.27 3.02
-2 5 7 33.59 3.97
5 -3 7 36.29 2.76
-5 4 -7 3.45 1.61
4 1 -7 10.22 1.61
1 -5 -7 6.35 1.48
4 1 -7 8.02 1.46
-4 -1 7 5.58 1.35
5 -4 7 7.52 1.25
-1 5 7 4.82 2.01
-4 -1 7 9.99 2.37
-1 5 7 8.32 1.34
5 -4 7 10.3 1.47
5 0 -7 0.21 1.01
-5 5 -7 1.04 1.59
5 0 -7 2.16 1.1
0 -5 -7 0.51 1.23
-5 5 -7 2.59 1.41
-5 0 7 4.63 2.07
0 5 7 -0.94 1.68
5 -5 7 2.55 0.98
-5 0 7 -0.92 0.96
0 5 7 0.98 0.85
-6 2 -7 23.72 3.34
4 -6 -7 28.02 3.45
2 4 -7 28.36 3.04
-2 -4 7 23.51 2.89
6 -2 7 28.31 3.44
-4 6 7 24.93 2.6
-2 -4 7 24.51 4.58
-4 6 7 29.45 4.23
3 3 -7 7.93 1.44
-6 3 -7 8.94 2.92
3 3 -7 6.7 1.77
3 -6 -7 8.21 1.47
6 -3 7 8.43 1.59
-3 -3 7 10.66 1.58
-3 -3 7 9.33 2.53
-3 6 7 5.18 2.67
-3 6 7 7.56 1.42
2 -6 -7 -0.84 1.17
4 2 -7 1.37 1.1
4 2 -7 1.73 1.34
-6 4 -7 1.03 1.53
6 -4 7 2.19 1.19
-4 -2 7 1.08 1.12
-4 -2 7 1.87 1.93
-2 6 7 2.26 1.1
-2 6 7 1.96 2.32
0 0 -8 127.46 7.32
0 0 -8 135.37 7.48
0 0 -8 143.84 7.71
0 0 8 154.69 7.55
0 0 8 127.91 7.43
0 1 -8 60.07 4.13
-1 0 -8 67.29 4.3
0 1 -8 58.83 3.7
-1 0 -8 68.94 4.15
1 -1 -8 62.74 3.92
1 -1 -8 61.18 3.88
-1 1 8 62.75 3.95
0 -1 8 64.99 4.01
1 0 8 60.17 3.78
-1 1 -8 4.29 0.98
0 -1 -8 3.16 0.81
-1 1 -8 2.34 0.64
0 -1 -8 3.3 0.92
1 0 -8 3.38 0.95
-1 1 -8 4.06 1.01
1 0 -8 3.42 0.84
0 1 8 4.19 0.91
-1 0 8 3.13 0.86
1 -1 8 5.08 0.95
1 -1 8 4.66 0.98
0 1 8 3.81 0.71
-1 0 8 4.37 1.07
-1 -1 -8 111.39 7.18
-1 2 -8 113.45 7.04
-1 -1 -8 138.25 7.18
2 -1 -8 124.02 7.2
2 -1 -8 117.93 6.82
-1 2 -8 141.3 6.82
1 1 8 116.38 6.66
-2 1 8 117.62 7.22
1 -2 8 126.58 6.93
-2 1 8 118.03 6.8
1 -2 8 111.42 6.95
-2 -1 -8 44.5 3.96
3 -2 -8 48.89 3.28
-1 3 -8 53.74 3.32
-1 3 -8 60.25 4.16
3 -2 -8 51.93 4.23
-3 2 8 54.02 4.93
1 -3 8 53.15 3.96
1 -3 8 52.67 3.85
-3 2 8 53.41 3.63
2 1 8 50.33 3.4
-2 0 -8 0.35 0.95
0 2 -8 1.06 0.94
0 2 -8 1.41 0.61
-2 0 -8 0.45 0.8
2 -2 -8 0.43 0.73
2 -2 -8 1.3 0.64
0 -2 8 1.64 1.02
-2 2 8 2.86 1.46
2 0 8 0.81 0.56
-2 2 8 1.27 0.86
0 -2 8 -0.03 0.78
1 1 -8 136.95 8.18
1 -2 -8 135.36 7.57
-2 1 -8 141.24 7.92
1 -2 -8 133.32 7.48
1 1 -8 129.2 7.37
-1 -1 8 132.93 7.88
-1 2 8 131.43 7.76
-1 -1 8 130.45 7.46
2 -1 8 135.41 7.43
-2 2 -8 71.49 4.71
2 0 -8 59.23 4.79
2 0 -8 76.52 5.14
0 -2 -8 77.12 4.65
0 2 8 80.08 4.9
0 2 8 68.04 4.21
0 2 8 68.54 4.68
-2 0 8 68.64 4.83
-2 0 8 75.67 4.51
3 -1 -8 1.52 1.27
-2 3 -8 1.77 0.79
-1 -2 -8 1.41 0.9
3 -1 -8 4.69 1.2
-1 -2 -8 1.48 0.96
2 -3 8 1.12 0.82
1 2 8 1.16 0.91
-3 1 8 2.05 0.85
-3 1 8 1.79 1.36
4 -2 -8 82.45 5.37
4 -2 -8 86.49 5.58
-2 -2 -8 92.01 5.61
-2 4 -8 80.11 5.53
2 2 8 76.35 4.82
-4 2 8 81.73 6.44
2 -4 8 82.61 4.52
2 -4 8 91.3 5.43
-4 2 8 77.77 5.1
-2 5 -8 34.53 3.39
-3 -2 -8 36.22 3.57
5 -3 -8 32.31 5.12
5 -3 -8 34.9 3.16
-5 3 8 30 2.84
-5 3 8 33.58 5.05
2 -5 8 37.58 3.35
3 2 8 33 2.51
-3 -1 -8 1.97 1.39
-1 4 -8 1.27 1.38
4 -3 -8 0.53 1.18
4 -3 -8 1.74 0.73
-4 3 8 -0.82 2.18
1 -4 8 0.87 1.32
1 -4 8 1.69 1.16
3 1 8 0.74 0.75
-4 3 8 1.27 0.98
-3 0 -8 92.75 6.49
0 3 -8 94.77 7.06
0 3 -8 104.56 5.43
3 -3 -8 104.58 5.61
3 -3 -8 95.25 6.18
3 0 8 103.25 5.53
0 -3 8 91.12 6.11
-3 3 8 92.53 7.55
0 -3 8 105.74 6.65
-3 3 8 97.9 6.47
-3 1 -8 47.6 4.03
2 -3 -8 51.88 3.55
1 2 -8 52.21 3.29
1 2 -8 56.23 4.45
2 -3 -8 45.33 3.35
-1 -2 8 59.98 4.33
-2 3 8 59.53 4.93
3 -1 8 43.81 3.29
-1 -2 8 45.64 3.68
-2 3 8 51.4 3.97
-3 2 -8 0.69 1.02
2 1 -8 1.51 1.11
1 -3 -8 1.73 0.85
1 -3 -8 0.61 0.85
2 1 -8 1.77 1.08
-1 3 8 0.82 1.29
-2 -1 8 2.62 1.23
3 -2 8 1.65 0.83
-1 3 8 2.43 1
-2 -1 8 1.06 0.91
0 -3 -8 100.05 6.05
-3 3 -8 93.8 5.25
3 0 -8 101.13 6.24
3 0 -8 106.54 6.03
0 -3 -8 104.8 5.96
-3 3 -8 93.19 6.07
-3 0 8 82.01 6.26
0 3 8 93.34 5.84
3 -3 8 98.21 5.8
-3 0 8 92.05 5.75
0 3 8 94.41 5.76
3 -3 8 96.66 5.53
4 -1 -8 37.4 3.42
4 -1 -8 34.69 3.15
-1 -3 -8 34.46 3.52
-3 4 -8 46 3.53
-3 4 -8 42.32 3.49
-1 -3 -8 47.71 3.51
-4 1 8 49.86 3.3
1 3 8 35.36 3.28
3 -4 8 46.44 3.32
-4 1 8 42.4 4.36
-3 5 -8 0.34 1.59
5 -2 -8 -0.89 1
-2 -3 -8 2.3 1.23
5 -2 -8 1.72 1.55
-3 5 -8 0.78 1.03
3 -5 8 1.57 1.11
-5 2 8 1.27 1.82
-5 2 8 2.51 0.98
2 3 8 -1.02 1.22
-4 -1 -8 66.12 5.03
-1 5 -8 64.18 7.07
5 -4 -8 59.44 5.07
4 1 8 53.41 4.42
-5 4 8 60.36 7.44
1 -5 8 61.44 4.56
4 -4 -8 46.46 4.09
-4 0 -8 46.75 4.18
0 4 -8 50.76 4.74
0 -4 8 56.35 3.92
-4 4 8 37.7 3.96
-4 4 8 45.13 5.94
0 -4 8 50.58 5.76
4 0 8 43.14 3.7
1 3 -8 2.36 0.8
3 -4 -8 0.12 0.71
-4 1 -8 1.51 1.36
1 3 -8 1.33 1.33
3 -4 -8 3.33 1.08
4 -1 8 -0.14 0.98
-1 -3 8 0.55 1.5
4 -1 8 0.91 0.86
-1 -3 8 2.5 1.02
-3 4 8 1.08 1.01
2 -4 -8 86.17 4.77
2 2 -8 78.49 5.27
2 -4 -8 80.95 5.18
-4 2 -8 70.56 5.88
2 2 -8 85.92 5.68
-2 4 8 82.57 5.78
-2 4 8 81.78 5.17
-2 -2 8 81.35 5.9
4 -2 8 86.78 5.23
4 -2 8 86.12 4.88
-4 3 -8 45.88 3.92
3 1 -8 44.56 3.54
1 -4 -8 44.08 3.12
3 1 -8 43.31 3.26
1 -4 -8 42.62 3.41
-3 -1 8 41.89 4.01
-1 4 8 40.55 3.18
-1 4 8 41.49 3.78
4 -3 8 42.5 3.07
-3 -1 8 42.9 3.46
4 -3 8 42.75 3.05
4 0 -8 0.69 0.97
-4 4 -8 1.04 1.26
0 -4 -8 0.73 1.17
4 0 -8 -0.26 1.01
0 -4 -8 -0.04 0.95
-4 0 8 2.64 1.4
-4 0 8 -0.3 0.94
4 -4 8 0.98 0.83
0 4 8 0.66 1.91
4 -4 8 2.23 0.99
0 4 8 -0.35 0.88
-4 5 -8 68.47 4.95
5 -1 -8 56 4.81
5 -1 -8 67.49 4.64
-1 -4 -8 68.32 4.8
-4 5 -8 66.44 5.05
-5 1 8 69.34 4.52
-5 1 8 61.68 8.51
1 4 8 66.64 4.44
4 -5 8 66.58 4.6
5 -5 -8 3.95 1.75
0 5 -8 -1.8 2.1
-5 0 -8 1.83 1.66
0 -5 8 0.85 1.26
-5 5 8 1.47 3.19
-5 5 8 0.69 1.5
5 0 8 -0.64 1.25
4 -5 -8 54.17 4.77
1 4 -8 64.18 5.17
-5 1 -8 64.99 5.21
-4 5 8 61.19 5.97
5 -1 8 53.45 4.43
-1 -4 8 68.12 5.84
-4 5 8 61.83 4.41
-1 -4 8 61.93 4.58
3 -5 -8 32.51 3.17
2 3 -8 36.64 4.76
2 3 -8 33.79 3.18
-5 2 -8 31.1 4.44
-2 -3 8 35.35 4.11
-2 -3 8 31.59 3.24
5 -2 8 32.36 3
-3 5 8 28.84 3.45
-3 5 8 32.47 4.57
2 -5 -8 1.67 1.07
3 2 -8 0.46 1.3
3 2 -8 2.14 1.19
-5 3 -8 0.98 1.5
5 -3 8 1.27 1.18
5 -3 8 1.74 1.01
-3 -2 8 1.57 1.48
-3 -2 8 -1.01 1.11
-2 5 8 -0.77 2.27
-2 5 8 -0.14 0.94
4 1 -8 69.72 4.77
4 1 -8 63.97 4.36
-5 4 -8 68.02 5.36
1 -5 -8 61.26 4.11
-1 5 8 51.16 5.31
-4 -1 8 67.76 6.8
-1 5 8 61.11 4.29
5 -4 8 69.5 4.27
-4 -1 8 51.91 4.32
5 -4 8 64.67 4.23
5 0 -8 27.2 3.2
0 -5 -8 36.29 3.17
5 0 -8 28.69 3
0 -5 -8 24.86 3.46
-5 5 -8 33.45 3.9
-5 0 8 27.29 3.67
0 5 8 26.51 2.79
5 -5 8 27.52 3.12
-5 0 8 26.67 4.46
0 0 -9 -0.34 0.7
0 0 -9 1.12 0.74
0 0 9 2.54 0.84
0 0 9 1.23 0.73
0 1 -9 28.12 2.56
1 -1 -9 30.22 2.6
0 1 -9 25.58 2.19
1 -1 -9 30.67 2.43
-1 0 -9 29.14 2.6
-1 0 -9 31.11 2.56
-1 1 9 29.24 2.43
0 -1 9 26.73 2.4
1 0 9 33.28 2.38
-1 1 9 28.38 2.75
0 -1 9 29.69 2.66
-1 1 -9 3.85 1.07
0 -1 -9 4.15 1.11
1 0 -9 2.36 0.81
0 -1 -9 2.79 1.03
-1 1 -9 2.52 0.9
1 0 -9 3.01 0.87
1 -1 9 3.03 0.9
-1 0 9 2.59 0.79
0 1 9 2.72 0.82
-1 0 9 3.34 1.12
-1 -1 -9 3.01 1.01
-1 -1 -9 2.37 0.99
2 -1 -9 3.18 1.18
-1 2 -9 2.25 0.95
2 -1 -9 2.98 0.89
-1 2 -9 2.85 0.96
1 -2 9 3.93 1.22
-2 1 9 2.29 0.83
-2 1 9 2.23 1.28
1 1 9 2.43 0.8
-2 -1 -9 17.11 2.83
3 -2 -9 20.87 1.96
-1 3 -9 23.74 2.19
-1 3 -9 29.22 2.88
3 -2 -9 25.36 2.84
2 1 9 20.86 1.97
-3 2 9 31 3.87
1 -3 9 24.11 2.82
-3 2 9 30.11 2.64
1 -3 9 19.38 2.72
2 -2 -9 1.36 0.82
-2 0 -9 2.27 1.11
0 2 -9 0.42 1.14
2 -2 -9 2.18 0.82
0 2 -9 0.41 0.78
-2 0 -9 1.81 1.05
-2 2 9 2.39 1.03
-2 2 9 4.1 1.5
0 -2 9 1.3 1.13
0 -2 9 3.42 1.22
2 0 9 1.47 0.82
-2 1 -9 3.1 1.11
1 1 -9 1.56 0.78
-2 1 -9 1.38 1.07
1 1 -9 1.09 1.16
1 -2 -9 3.4 0.98
1 -2 -9 0.74 0.74
-1 -1 9 3.36 1.03
2 -1 9 2.59 1.01
-1 -1 9 2.58 1.13
-1 2 9 3.88 1.36
-1 2 9 2.52 0.87
2 0 -9 29.96 2.94
0 -2 -9 32.31 2.7
2 0 -9 32.73 2.76
0 -2 -9 24.26 2.69
-2 2 -9 30.45 2.7
0 2 9 29.01 2.57
2 -2 9 31.12 2.83
-2 0 9 25.96 2.42
-2 0 9 31.79 3.21
-1 -2 -9 0.72 1.06
-2 3 -9 3 1.23
3 -1 -9 1.71 1.49
-1 -2 -9 -0.02 1.01
3 -1 -9 1.49 1.08
1 2 9 1.66 0.85
-3 1 9 1.7 1.47
2 -3 9 -0.14 1
-3 1 9 0.83 0.79
-2 4 -9 2.48 1.2
4 -2 -9 2.01 1.04
-2 -2 -9 3.11 1.49
4 -2 -9 2.79 1.58
2 -4 9 -0.08 1.18
2 2 9 1.37 0.95
-4 2 9 -0.87 1.8
-4 2 9 3.76 1.21
-3 -1 -9 -2.34 1.46
4 -3 -9 -0.12 0.87
1 -4 9 -0.32 1.46
-4 3 9 0.29 1.25
-4 3 9 3.29 2.53
1 -4 9 1.1 1.34
3 1 9 0.82 0.93
3 -3 -9 3.78 0.97
3 -3 -9 3.5 1.26
-3 0 -9 3.03 1.51
0 3 -9 5.31 1.86
0 3 -9 4.38 1.04
-3 3 9 4.05 2.4
0 -3 9 3.21 1.63
0 -3 9 5.58 1.33
3 0 9 3.26 1.08
-3 3 9 3.38 1.28
1 2 -9 27.65 3.47
1 2 -9 22.51 2.06
-3 1 -9 28.63 3.12
2 -3 -9 24.53 2.59
2 -3 -9 25.45 2.39
3 -1 9 27.24 2.44
-1 -2 9 24.43 3.13
-2 3 9 24.32 4.75
-1 -2 9 26.51 2.69
-2 3 9 27.13 3.18
2 1 -9 2.12 1.09
-3 2 -9 1.48 1.08
1 -3 -9 -1.44 1.05
2 1 -9 2.7 1.77
1 -3 -9 0.77 0.97
-2 -1 9 1.85 1.35
-1 3 9 0.57 1.25
-1 3 9 -2.16 1.99
3 -2 9 0.15 1.08
-2 -1 9 2.19 0.95
-3 3 -9 2.08 1.21
0 -3 -9 0.71 1.16
3 0 -9 2.94 1.46
3 0 -9 3.65 1.81
0 -3 -9 5.03 1.41
-3 0 9 3.12 1.58
0 3 9 2.86 1.4
-3 0 9 3.14 0.99
3 -3 9 0.77 1.08
4 -1 -9 28.75 3.43
-3 4 -9 20.41 2.78
-1 -3 -9 26.9 2.87
4 -1 -9 31.18 3.26
-4 1 9 24.15 2.39
-4 1 9 19.76 3.76
3 -4 9 20.9 2.87
1 3 9 24.04 2.83
4 -4 -9 19.56 2.83
0 4 -9 26.89 4.14
-4 0 -9 20.93 3.3
0 -4 9 22.27 3.02
-4 4 9 20.03 3.01
0 -4 9 21.52 3.56
4 0 9 16.25 2.66
-4 4 9 16.44 4.04
1 3 -9 0.21 1
4 -1 9 -1.93 1.16
4 -1 9 0.4 1.13
-3 4 9 1.36 2.5
-1 -3 9 0.65 1.52
2 -4 -9 1.58 0.96
2 2 -9 1.82 1.53
2 -4 -9 3.25 1.11
2 2 -9 2.86 1.29
-4 2 -9 3.93 1.75
-2 4 9 2.26 2.26
-2 -2 9 2.09 1.46
-2 4 9 5.84 1.71
-2 -2 9 1.4 1.18
4 -2 9 2.62 1.25
4 -2 9 3.55 1.27
1 -4 -9 21.67 3.05
3 1 -9 22.1 3.07
1 -4 -9 22.25 2.44
-4 3 -9 20.87 3.62
3 1 -9 16.6 2.87
-3 -1 9 19.28 2.97
-1 4 9 20.6 2.71
-1 4 9 16.84 2.69
4 -3 9 18.68 2.5
4 -3 9 21.7 2.38
-3 -1 9 24.69 2.65
0 -4 -9 -0.2 1.2
-4 4 -9 0.15 1.51
0 -4 -9 2.52 1.43
4 0 -9 -1.94 1.46
4 0 -9 0.43 1.34
-4 0 9 3.81 2.13
0 4 9 0.38 1.39
4 -4 9 -2.06 1.17
4 -4 9 1.22 1.35
-4 0 9 0.19 1.62
0 0 -10 9.63 1.61
0 0 -10 6.58 1.26
0 0 10 8.55 1.43
0 0 10 10.79 1.9
-1 0 -10 6.91 1.43
-1 0 -10 5.52 1.28
1 -1 -10 5.01 1.06
1 -1 -10 4.54 1.18
0 1 -10 4.72 1.27
0 1 -10 5.57 1.18
0 -1 10 4.68 1.23
-1 1 10 6.65 1.23
-1 1 10 7.73 1.51
1 0 10 6.64 1.19
0 -1 10 5.63 1.47
1 0 -10 72.32 4.53
0 -1 -10 72.18 4.59
0 -1 -10 72.66 4.65
-1 1 -10 71.37 4.7
-1 1 -10 72.59 4.51
1 0 -10 65.37 4.49
-1 0 10 68.71 4.79
0 1 10 66.75 4.39
1 -1 10 69.89 4.52
-1 0 10 68.16 4.45
-1 2 -10 5.21 1.51
-1 2 -10 7.21 1.44
2 -1 -10 9.09 1.4
2 -1 -10 11.56 1.86
-1 -1 -10 11.63 1.97
-1 -1 -10 8.03 1.65
-2 1 10 9.07 1.93
1 1 10 8.17 1.28
-2 1 10 8.59 1.4
1 -2 10 8.42 1.53
3 -2 -10 6 1.12
-2 -1 -10 2.75 1.49
-1 3 -10 6.45 1.46
-1 3 -10 4.92 1.59
2 1 10 4.69 1.15
1 -3 10 7.34 2.02
-3 2 10 5.24 1.48
-3 2 10 5.16 2.32
2 -2 -10 70.47 4.82
0 2 -10 73 5.11
2 -2 -10 66.42 4.39
-2 0 -10 72.1 5.1
0 2 -10 67.01 4.26
0 -2 10 66.67 4.96
0 -2 10 71.68 4.69
-2 2 10 69.26 5.45
-2 2 10 71.39 4.73
2 0 10 64.95 4.31
-2 1 -10 8.94 1.7
1 -2 -10 5.43 1.21
1 1 -10 7.78 1.41
1 -2 -10 6.26 1.36
1 1 -10 9.41 1.83
2 -1 10 7.54 1.45
-1 2 10 8.56 1.7
-1 2 10 10.35 1.61
-1 -1 10 6.85 1.3
-1 -1 10 8.63 1.77
2 0 -10 3.56 1.31
-2 2 -10 4.4 1.3
0 -2 -10 5.61 1.4
2 0 -10 6.02 1.4
0 -2 -10 5.81 1.25
-2 0 10 4.99 1.65
-2 0 10 3.62 1.01
0 2 10 4.98 1.29
2 -2 10 3.74 1.38
3 -1 -10 61.94 4.52
-2 3 -10 53.94 4.25
-1 -2 -10 52.72 4.3
3 -1 -10 62.74 4.23
-1 -2 -10 53.07 5.17
-3 1 10 58.5 4.56
-3 1 10 53.87 5.22
2 -3 10 57.52 4.44
1 2 10 54.14 3.89
0 3 -10 6.59 1.91
0 3 -10 6.97 1.39
-3 0 -10 3.88 1.83
3 -3 -10 3.43 1.12
3 -3 -10 6.06 1.44
-3 3 10 4.3 1.52
0 -3 10 3.96 1.78
3 0 10 6.98 1.35
-3 3 10 2.37 2.67
0 -3 10 7.51 1.66
2 -3 -10 2.97 1.22
2 -3 -10 4.59 1.61
1 2 -10 2.5 1.14
-3 1 -10 7.42 2.25
3 -1 10 6.87 1.45
-2 3 10 -0.44 2.37
-1 -2 10 5.21 1.32
-1 -2 10 3.92 1.74
1 -3 -10 61 4.29
-3 2 -10 62.27 4.74
2 1 -10 62.02 4.1
2 1 -10 61.96 4.93
1 -3 -10 46.09 4.24
-2 -1 10 54.59 4.52
-2 -1 10 52.15 4.53
3 -2 10 62.7 4.29
-1 3 10 59.82 4.34
3 0 -10 4.19 1.62
3 0 -10 6.33 1.86
0 -3 -10 3.84 1.52
0 -3 -10 6.41 1.61
-3 3 -10 6.58 1.58
3 -3 10 4.71 1.54
0 3 10 6.2 1.42
-3 0 10 3.96 1.12
-3 0 10 3.54 1.93
0 0 -11 1.05 1.16
0 0 -11 2.28 1.18
0 0 11 2.12 1.09
1 -1 -11 2.81 1.08
0 1 -11 3.87 1.28
0 1 -11 2.66 1.5
-1 0 -11 4.22 1.42
0 -1 11 2.58 1.11
-1 1 11 2.37 1.21
1 0 11 4.28 1.17
1 0 -11 12.5 2.02
-1 1 -11 12 1.78
1 0 -11 14.44 2.05
0 -1 -11 10.36 1.72
-1 1 -11 10.43 1.81
-1 0 11 8.9 1.45
0 1 11 13.71 2.07
1 -1 11 11.98 1.73
-1 0 11 9.19 2.43
2 -1 -11 0.47 1.31
-1 -1 -11 -4.19 2.06
-1 -1 -11 3.81 1.43
-1 2 -11 1.93 1.11
2 -1 -11 0.57 1.05
-1 2 -11 -1.15 1.21
1 -2 11 -0.57 1.12
-2 1 11 0.78 1.78
-2 1 11 0.52 1.11
1 1 11 0.9 1.06
2 -2 -11 9.89 1.51
-2 0 -11 10.6 2.08
0 2 -11 9.87 1.98
2 -2 -11 9.24 1.8
0 2 -11 13.11 2.1
-2 2 11 12.4 1.86
2 0 11 9.64 1.55
0 -2 11 9.88 1.91
-2 1 -11 -0.03 1.34
1 -2 -11 -0.32 1.11
1 -2 -11 0.77 1.16
1 1 -11 2.11 1.36
1 1 -11 2.14 1.12
-1 -1 11 0.42 1.69
-1 -1 11 0.65 1.04
-1 2 11 2.82 1.29
2 -1 11 1.44 1.22
0 -2 -11 2.81 1.42
0 -2 -11 5.29 1.35
-2 2 -11 2.86 1.41
2 0 -11 2.36 1.65
0 2 11 2.55 1.26
-2 0 11 2.69 1.73
-2 0 11 2.82 1.11
