#------------------------------------------------------------------------------
#$Date: 2021-05-19 01:22:42 +0300 (Wed, 19 May 2021) $
#$Revision: 265316 $
#$URL: file:///home/coder/svn-repositories/cod/cif/4/00/39/4003944.cif $
#------------------------------------------------------------------------------
#
# This file is available in the Crystallography Open Database (COD),
# http://www.crystallography.net/
#
# All data on this site have been placed in the public domain by the
# contributors.
#
data_4003944
loop_
_publ_author_name
'Piva, Mario M.'
'Rahn, Marein C.'
'Thomas, Sean M.'
'Scott, Brian L.'
'Pagliuso, Pascoal G.'
'Thompson, Joe D.'
'Schoop, Leslie M.'
'Ronning, Filip'
'Rosa, Priscila F. S.'
_publ_section_title
;
 Robust Narrow-Gap Semiconducting Behavior in Square-Net La3Cd2As6
;
_journal_name_full               'Chemistry of Materials'
_journal_paper_doi               10.1021/acs.chemmater.1c00797
_journal_year                    2021
_chemical_formula_sum            'As6 Cd2 La3'
_chemical_formula_weight         1091.1
_space_group_IT_number           12
_space_group_name_Hall           '-C 2y'
_space_group_name_H-M_alt        'C 1 2/m 1'
_symmetry_cell_setting           monoclinic
_symmetry_Int_Tables_number      12
_symmetry_space_group_name_Hall  '-C 2y'
_symmetry_space_group_name_H-M   'C 1 2/m 1'
_cell_angle_alpha                90.00(3)
_cell_angle_beta                 100.92(3)
_cell_angle_gamma                90.00(3)
_cell_formula_units_Z            4
_cell_length_a                   21.732(8)
_cell_length_b                   4.0928(15)
_cell_length_c                   12.323(3)
_cell_measurement_reflns_used    99
_cell_measurement_temperature    293
_cell_measurement_theta_max      21.35
_cell_measurement_theta_min      3.35
_cell_volume                     1076.2(6)
_computing_cell_refinement       'CrysAlisPro 1.171.39.46 (Rigaku OD, 2018)'
_computing_data_collection       'CrysAlisPro 1.171.39.46 (Rigaku OD, 2018)'
_computing_data_reduction        'CrysAlisPro 1.171.39.46 (Rigaku OD, 2018)'
_diffrn_ambient_temperature      293
_diffrn_detector                 'CCD plate'
_diffrn_measured_fraction_theta_full 0.98
_diffrn_measured_fraction_theta_max 0.83
_diffrn_measurement_device       'four-circle diffractometer'
_diffrn_measurement_device_type  'CrysAlisPro - imported SAXI images'
_diffrn_measurement_method       '\f scans'
_diffrn_radiation_monochromator  graphite
_diffrn_radiation_probe          x-ray
_diffrn_radiation_source         'X-ray tube'
_diffrn_radiation_type           'Mo K\a'
_diffrn_radiation_wavelength     0.71073
_diffrn_reflns_av_R_equivalents  0
_diffrn_reflns_av_unetI/netI     0.1592
_diffrn_reflns_limit_h_max       27
_diffrn_reflns_limit_h_min       -28
_diffrn_reflns_limit_k_max       5
_diffrn_reflns_limit_k_min       -5
_diffrn_reflns_limit_l_max       14
_diffrn_reflns_limit_l_min       -15
_diffrn_reflns_number            2085
_diffrn_reflns_theta_full        23.85
_diffrn_reflns_theta_max         29.39
_diffrn_reflns_theta_min         1.91
_diffrn_source                   'fine-focus sealed X-ray tube'
_exptl_absorpt_coefficient_mu    33.778
_exptl_absorpt_correction_T_max  1
_exptl_absorpt_correction_T_min  0.203
_exptl_absorpt_correction_type   multi-scan
_exptl_absorpt_process_details
;
CrysAlisPro 1.171.39.46 (Rigaku Oxford Diffraction, 2018)
Empirical absorption correction using spherical harmonics,
 implemented in SCALE3 ABSPACK scaling algorithm.
;
_exptl_crystal_density_diffrn    6.7338
_exptl_crystal_description       platelet
_exptl_crystal_F_000             1860
_refine_ls_extinction_coef       0.00250(15)
_refine_ls_extinction_expression Fc^*^=kFc[1+0.001xFc^2^\l^3^/sin(2\q)]^-1/4^
_refine_ls_extinction_method     'SHELXL-2017/1 (Sheldrick, 2015)'
_refine_ls_goodness_of_fit_gt    4.24
_refine_ls_goodness_of_fit_ref   2.30
_refine_ls_number_constraints    0
_refine_ls_number_parameters     33
_refine_ls_number_reflns         2085
_refine_ls_number_restraints     0
_refine_ls_R_factor_all          0.2586
_refine_ls_R_factor_gt           0.0851
_refine_ls_shift/su_max          0.0094
_refine_ls_shift/su_mean         0.0015
_refine_ls_structure_factor_coef F
_refine_ls_weighting_details     w=1/(\s^2^(F)+0.0001F^2^)
_refine_ls_weighting_scheme      sigma
_refine_ls_wR_factor_gt          0.0987
_refine_ls_wR_factor_ref         0.1031
_reflns_number_gt                584
_reflns_number_total             2085
_reflns_threshold_expression     I>3\s(I)
_cod_data_source_file            cm1c00797_si_001.cif
_cod_data_source_block           I
_cod_depositor_comments
;
The following automatic conversions were performed:

data item '_diffrn_radiation_probe' value 'X-ray' was changed to
'x-ray' in accordance with the
/home/data/users/saulius/crontab/automatic-downloads/rss-feeds/ACS/lib/dictionaries/cif_core.dic
dictionary named 'cif_core.dic' version 2.4.2 last updated on
2011-04-26.

Automatic conversion script
Id: cif_fix_values 7556 2019-12-06 15:28:31Z antanas 
;
_cod_database_code               4003944
loop_
_space_group_symop_id
_space_group_symop_operation_xyz
1 x,y,z
2 -x,y,-z
3 -x,-y,-z
4 x,-y,z
5 x+1/2,y+1/2,z
6 -x+1/2,y+1/2,-z
7 -x+1/2,-y+1/2,-z
8 x+1/2,-y+1/2,z
loop_
_atom_site_label
_atom_site_type_symbol
_atom_site_fract_x
_atom_site_fract_y
_atom_site_fract_z
_atom_site_adp_type
_atom_site_U_iso_or_equiv
_atom_site_site_symmetry_multiplicity
_atom_site_occupancy
_atom_site_calc_flag
_atom_site_refinement_flags
_atom_site_disorder_assembly
_atom_site_disorder_group
La1 La 0.10945(15) 0 0.0374(7) Uani 0.0040(10) 4 1 d . . .
La2 La 0.10965(15) 0 0.7021(8) Uani 0.0040(10) 4 1 d . . .
La3 La 0.10897(16) 0 0.3665(7) Uani 0.0040(10) 4 1 d . . .
Cd1 Cd 0.25135(20) 0 0.8947(8) Uani 0.0103(7) 4 1 d . . .
Cd2 Cd 0.25130(19) 0 0.6016(8) Uani 0.0103(7) 4 1 d . . .
As1 As 0.3328(3) 0 0.1115(14) Uani 0.0101(6) 4 1 d . . .
As2 As 0.3399(3) 0 0.7787(14) Uani 0.0101(6) 4 1 d . . .
As3 As 0.3332(3) 0 0.4442(14) Uani 0.0101(6) 4 1 d . . .
As4 As 0 0.5 0 Uani 0.0101(6) 2 1 d . . .
As5 As 0.0005(4) 0 0.1770(5) Uani 0.0101(6) 4 1 d . . .
As6 As 0.5013(5) 0 0.3488(5) Uani 0.0101(6) 4 1 d . . .
As7 As 0 0 0.5 Uani 0.0101(6) 2 1 d . . .
loop_
_atom_site_aniso_label
_atom_site_aniso_type_symbol
_atom_site_aniso_U_11
_atom_site_aniso_U_22
_atom_site_aniso_U_33
_atom_site_aniso_U_12
_atom_site_aniso_U_13
_atom_site_aniso_U_23
La1 La 0.0042(6) 0.0033(6) 0.005(2) 0 0.001(5) 0
La2 La 0.0042(6) 0.0033(6) 0.005(2) 0 0.001(5) 0
La3 La 0.0042(6) 0.0033(6) 0.005(2) 0 0.001(5) 0
Cd1 Cd 0.0016(9) 0.0171(13) 0.0117(13) 0 0 0
Cd2 Cd 0.0016(9) 0.0171(13) 0.0117(13) 0 0 0
As1 As 0.0040(9) 0.0173(11) 0.0085(13) 0 0 0
As2 As 0.0040(9) 0.0173(11) 0.0085(13) 0 0 0
As3 As 0.0040(9) 0.0173(11) 0.0085(13) 0 0 0
As4 As 0.0040(9) 0.0173(11) 0.0085(13) 0 0 0
As5 As 0.0040(9) 0.0173(11) 0.0085(13) 0 0 0
As6 As 0.0040(9) 0.0173(11) 0.0085(13) 0 0 0
As7 As 0.0040(9) 0.0173(11) 0.0085(13) 0 0 0
loop_
_atom_type_symbol
_atom_type_scat_dispersion_real
_atom_type_scat_dispersion_imag
_atom_type_scat_source
As 0.0499 2.0058 'International Tables Vol C tables 4.2.6.8 and 6.1.1.1'
Cd -0.8075 1.2024 'International Tables Vol C tables 4.2.6.8 and 6.1.1.1'
La -0.2871 2.4523 'International Tables Vol C tables 4.2.6.8 and 6.1.1.1'
loop_
_diffrn_standard_refln_index_h
_diffrn_standard_refln_index_k
_diffrn_standard_refln_index_l
? ? ?
loop_
_exptl_crystal_face_index_h
_exptl_crystal_face_index_k
_exptl_crystal_face_index_l
_exptl_crystal_face_perp_dist
? ? ? ?
loop_
_geom_angle_atom_site_label_1
_geom_angle_atom_site_label_2
_geom_angle_atom_site_label_3
_geom_angle_site_symmetry_1
_geom_angle_site_symmetry_2
_geom_angle_site_symmetry_3
_geom_angle
_geom_angle_publ_flag
As1 La1 As1 6_545 . 6_555 80.6(3) ?
As1 La1 As2 6_545 . 6_546 82.6(3) ?
As1 La1 As2 6_545 . 6_556 136.6(2) ?
As1 La1 As4 6_545 . 1_545 82.22(13) ?
As1 La1 As4 6_545 . . 135.8(3) ?
As1 La1 As5 6_545 . . 137.07(13) ?
As1 La1 As5 6_545 . 2_555 80.7(3) ?
As1 La1 As2 6_555 . 6_546 136.6(2) ?
As1 La1 As2 6_555 . 6_556 82.6(3) ?
As1 La1 As4 6_555 . 1_545 135.8(3) ?
As1 La1 As4 6_555 . . 82.22(13) ?
As1 La1 As5 6_555 . . 137.07(13) ?
As1 La1 As5 6_555 . 2_555 80.7(3) ?
As2 La1 As2 6_546 . 6_556 82.7(3) ?
As2 La1 As4 6_546 . 1_545 80.16(13) ?
As2 La1 As4 6_546 . . 134.4(3) ?
As2 La1 As5 6_546 . . 78.6(3) ?
As2 La1 As5 6_546 . 2_555 135.11(14) ?
As2 La1 As4 6_556 . 1_545 134.4(3) ?
As2 La1 As4 6_556 . . 80.16(13) ?
As2 La1 As5 6_556 . . 78.6(3) ?
As2 La1 As5 6_556 . 2_555 135.11(14) ?
As4 La1 As4 1_545 . . 82.45(8) ?
As4 La1 As5 1_545 . . 56.79(11) ?
As4 La1 As5 1_545 . 2_555 56.48(12) ?
As4 La1 As5 . . . 56.79(11) ?
As4 La1 As5 . . 2_555 56.48(12) ?
As5 La1 As5 . . 2_555 86.0(2) ?
Cd1 La2 Cd2 . . . 61.7(2) ?
Cd1 La2 As1 . . 6_546 48.07(14) ?
Cd1 La2 As1 . . 6_556 48.07(14) ?
Cd1 La2 As3 . . 6_546 89.8(2) ?
Cd1 La2 As3 . . 6_556 89.8(2) ?
Cd1 La2 As5 . . 2_556 109.8(3) ?
Cd1 La2 As6 . . 6_546 132.7(2) ?
Cd1 La2 As6 . . 6_556 132.7(2) ?
Cd1 La2 As7 . . . 169.6(3) ?
Cd2 La2 As1 . . 6_546 90.2(2) ?
Cd2 La2 As1 . . 6_556 90.2(2) ?
Cd2 La2 As3 . . 6_546 48.05(14) ?
Cd2 La2 As3 . . 6_556 48.05(14) ?
Cd2 La2 As5 . . 2_556 171.5(3) ?
Cd2 La2 As6 . . 6_546 128.2(3) ?
Cd2 La2 As6 . . 6_556 128.2(3) ?
Cd2 La2 As7 . . . 107.9(3) ?
As1 La2 As1 6_546 . 6_556 80.9(3) ?
As1 La2 As3 6_546 . 6_546 81.3(3) ?
As1 La2 As3 6_546 . 6_556 134.2(2) ?
As1 La2 As5 6_546 . 2_556 83.3(3) ?
As1 La2 As6 6_546 . 6_546 84.61(17) ?
As1 La2 As6 6_546 . 6_556 138.9(4) ?
As1 La2 As7 6_546 . . 136.31(12) ?
As1 La2 As3 6_556 . 6_546 134.2(2) ?
As1 La2 As3 6_556 . 6_556 81.3(3) ?
As1 La2 As5 6_556 . 2_556 83.3(3) ?
As1 La2 As6 6_556 . 6_546 138.9(4) ?
As1 La2 As6 6_556 . 6_556 84.61(17) ?
As1 La2 As7 6_556 . . 136.31(12) ?
As3 La2 As3 6_546 . 6_556 81.5(3) ?
As3 La2 As5 6_546 . 2_556 135.56(13) ?
As3 La2 As6 6_546 . 6_546 80.3(2) ?
As3 La2 As6 6_546 . 6_556 133.2(4) ?
As3 La2 As7 6_546 . . 82.3(3) ?
As3 La2 As5 6_556 . 2_556 135.56(13) ?
As3 La2 As6 6_556 . 6_546 133.2(4) ?
As3 La2 As6 6_556 . 6_556 80.3(2) ?
As3 La2 As7 6_556 . . 82.3(3) ?
As5 La2 As6 2_556 . 6_546 56.81(18) ?
As5 La2 As6 2_556 . 6_556 56.81(18) ?
As5 La2 As7 2_556 . . 80.66(14) ?
As6 La2 As6 6_546 . 6_556 81.5(2) ?
As6 La2 As7 6_546 . . 52.76(13) ?
As6 La2 As7 6_556 . . 52.76(13) ?
As2 La3 As2 6_546 . 6_556 83.9(3) ?
As2 La3 As3 6_546 . 6_546 82.1(3) ?
As2 La3 As3 6_546 . 6_556 136.3(2) ?
As2 La3 As5 6_546 . . 82.1(3) ?
As2 La3 As6 6_546 . 5_445 82.52(19) ?
As2 La3 As6 6_546 . 5_455 139.1(4) ?
As2 La3 As7 6_546 . . 134.57(14) ?
As2 La3 As3 6_556 . 6_546 136.3(2) ?
As2 La3 As3 6_556 . 6_556 82.1(3) ?
As2 La3 As5 6_556 . . 82.1(3) ?
As2 La3 As6 6_556 . 5_445 139.1(4) ?
As2 La3 As6 6_556 . 5_455 82.52(19) ?
As2 La3 As7 6_556 . . 134.57(14) ?
As3 La3 As3 6_546 . 6_556 80.2(3) ?
As3 La3 As5 6_546 . . 135.85(13) ?
As3 La3 As6 6_546 . 5_445 79.27(18) ?
As3 La3 As6 6_546 . 5_455 131.9(4) ?
As3 La3 As7 6_546 . . 81.2(3) ?
As3 La3 As5 6_556 . . 135.85(13) ?
As3 La3 As6 6_556 . 5_445 131.9(4) ?
As3 La3 As6 6_556 . 5_455 79.27(18) ?
As3 La3 As7 6_556 . . 81.2(3) ?
As5 La3 As6 . . 5_445 57.94(17) ?
As5 La3 As6 . . 5_455 57.94(17) ?
As5 La3 As7 . . . 81.22(18) ?
As6 La3 As6 5_445 . 5_455 83.1(2) ?
As6 La3 As7 5_445 . . 52.96(16) ?
As6 La3 As7 5_455 . . 52.96(16) ?
La2 Cd1 As1 . . 6_546 59.0(3) ?
La2 Cd1 As1 . . 6_556 59.0(3) ?
La2 Cd1 As2 . . . 105.9(4) ?
As1 Cd1 As1 6_546 . 6_556 96.9(2) ?
As1 Cd1 As2 6_546 . . 122.9(4) ?
As1 Cd1 As2 6_556 . . 122.9(4) ?
La2 Cd2 As2 . . . 105.1(4) ?
La2 Cd2 As3 . . 6_546 58.4(3) ?
La2 Cd2 As3 . . 6_556 58.4(3) ?
As2 Cd2 As3 . . 6_546 122.0(4) ?
As2 Cd2 As3 . . 6_556 122.0(4) ?
As3 Cd2 As3 6_546 . 6_556 96.80(18) ?
La1 As1 La1 6_545 . 6_555 80.6(4) ?
La1 As1 La2 6_545 . 6_546 81.74(19) ?
La1 As1 La2 6_545 . 6_556 134.1(2) ?
La1 As1 Cd1 6_545 . 6_546 80.6(2) ?
La1 As1 Cd1 6_545 . 6_556 143.5(6) ?
La1 As1 La2 6_555 . 6_546 134.1(2) ?
La1 As1 La2 6_555 . 6_556 81.74(19) ?
La1 As1 Cd1 6_555 . 6_546 143.5(6) ?
La1 As1 Cd1 6_555 . 6_556 80.6(2) ?
La2 As1 La2 6_546 . 6_556 80.9(4) ?
La2 As1 Cd1 6_546 . 6_546 72.9(3) ?
La2 As1 Cd1 6_546 . 6_556 132.6(6) ?
La2 As1 Cd1 6_556 . 6_546 132.6(6) ?
La2 As1 Cd1 6_556 . 6_556 72.9(3) ?
Cd1 As1 Cd1 6_546 . 6_556 96.9(2) ?
La1 As2 La1 6_546 . 6_556 82.7(4) ?
La1 As2 La3 6_546 . 6_546 82.42(19) ?
La1 As2 La3 6_546 . 6_556 138.7(2) ?
La1 As2 Cd1 6_546 . . 78.2(4) ?
La1 As2 Cd2 6_546 . . 135.40(13) ?
La1 As2 La3 6_556 . 6_546 138.7(2) ?
La1 As2 La3 6_556 . 6_556 82.42(19) ?
La1 As2 Cd1 6_556 . . 78.2(4) ?
La1 As2 Cd2 6_556 . . 135.40(13) ?
La3 As2 La3 6_546 . 6_556 83.9(4) ?
La3 As2 Cd1 6_546 . . 135.07(13) ?
La3 As2 Cd2 6_546 . . 78.7(4) ?
La3 As2 Cd1 6_556 . . 135.07(13) ?
La3 As2 Cd2 6_556 . . 78.7(4) ?
Cd1 As2 Cd2 . . . 87.4(3) ?
La2 As3 La2 6_546 . 6_556 81.5(4) ?
La2 As3 La3 6_546 . 6_546 81.78(19) ?
La2 As3 La3 6_546 . 6_556 134.3(2) ?
La2 As3 Cd2 6_546 . 6_546 73.5(3) ?
La2 As3 Cd2 6_546 . 6_556 133.9(6) ?
La2 As3 La3 6_556 . 6_546 134.3(2) ?
La2 As3 La3 6_556 . 6_556 81.78(19) ?
La2 As3 Cd2 6_556 . 6_546 133.9(6) ?
La2 As3 Cd2 6_556 . 6_556 73.5(3) ?
La3 As3 La3 6_546 . 6_556 80.2(4) ?
La3 As3 Cd2 6_546 . 6_546 80.0(2) ?
La3 As3 Cd2 6_546 . 6_556 142.2(6) ?
La3 As3 Cd2 6_556 . 6_546 142.2(6) ?
La3 As3 Cd2 6_556 . 6_556 80.0(2) ?
Cd2 As3 Cd2 6_546 . 6_556 96.8(2) ?
La1 As4 La1 . . 1_565 82.45(6) ?
La1 As4 La1 . . 2_555 97.55(6) ?
La1 As4 La1 . . 2_565 180 ?
La1 As4 La1 1_565 . 2_555 180 ?
La1 As4 La1 1_565 . 2_565 97.55(6) ?
La1 As4 La1 2_555 . 2_565 82.45(6) ?
La1 As5 La1 . . 2_555 94.0(2) ?
La1 As5 La2 . . 2_556 176.6(3) ?
La1 As5 La3 . . . 82.2(3) ?
La1 As5 La2 2_555 . 2_556 82.6(3) ?
La1 As5 La3 2_555 . . 176.2(4) ?
La2 As5 La3 2_556 . . 101.2(3) ?
La2 As6 La2 6_546 . 6_556 81.5(3) ?
La2 As6 La3 6_546 . 5_545 97.21(7) ?
La2 As6 La3 6_546 . 5_555 172.7(3) ?
La2 As6 La3 6_556 . 5_545 172.7(3) ?
La2 As6 La3 6_556 . 5_555 97.21(7) ?
La3 As6 La3 5_545 . 5_555 83.1(3) ?
La2 As7 La2 . . 2_556 180 ?
La2 As7 La3 . . . 83.06(19) ?
La2 As7 La3 . . 2_556 96.94(19) ?
La2 As7 La3 2_556 . . 96.94(19) ?
La2 As7 La3 2_556 . 2_556 83.06(19) ?
La3 As7 La3 . . 2_556 180 ?
loop_
_geom_bond_atom_site_label_1
_geom_bond_atom_site_label_2
_geom_bond_site_symmetry_1
_geom_bond_site_symmetry_2
_geom_bond_distance
_geom_bond_publ_flag
La1 As1 . 6_545 3.164(13) ?
La1 As1 . 6_555 3.164(13) ?
La1 As2 . 6_546 3.096(13) ?
La1 As2 . 6_556 3.096(13) ?
La1 As4 . 1_545 3.105(3) ?
La1 As4 . . 3.105(3) ?
La1 As5 . . 3.179(11) ?
La1 As5 . 2_555 3.209(9) ?
La2 Cd1 . . 3.514(8) ?
La2 Cd2 . . 3.529(9) ?
La2 As1 . 6_546 3.153(13) ?
La2 As1 . 6_556 3.153(13) ?
La2 As3 . 6_546 3.135(13) ?
La2 As3 . 6_556 3.135(13) ?
La2 As5 . 2_556 3.050(11) ?
La2 As6 . 6_546 3.133(9) ?
La2 As6 . 6_556 3.133(9) ?
La2 As7 . . 3.103(7) ?
La3 As2 . 6_546 3.063(13) ?
La3 As2 . 6_556 3.063(13) ?
La3 As3 . 6_546 3.177(13) ?
La3 As3 . 6_556 3.177(13) ?
La3 As5 . . 2.987(9) ?
La3 As6 . 5_445 3.085(9) ?
La3 As6 . 5_455 3.085(9) ?
La3 As7 . . 3.129(7) ?
Cd1 As1 . 6_546 2.735(5) ?
Cd1 As1 . 6_556 2.735(5) ?
Cd1 As2 . . 2.605(15) ?
Cd2 As2 . . 2.623(15) ?
Cd2 As3 . 6_546 2.737(5) ?
Cd2 As3 . 6_556 2.737(5) ?
loop_
_twin_individual_id
_twin_individual_mass_fraction_refined
_twin_individual_twin_matrix_11
_twin_individual_twin_matrix_12
_twin_individual_twin_matrix_13
_twin_individual_twin_matrix_21
_twin_individual_twin_matrix_22
_twin_individual_twin_matrix_23
_twin_individual_twin_matrix_31
_twin_individual_twin_matrix_32
_twin_individual_twin_matrix_33
1 0.475(5) 1 0 0 0 1 0 0 0 1
2 0.525(5) -0.9999 0 0 -0.0048 -1.0006 0.0011 -0.663 0.0003 0.9998
loop_
_twin_refln_datum_id
_twin_refln_individual_id
_twin_refln_index_h
_twin_refln_index_k
_twin_refln_index_l
_twin_refln_F_squared_calc
_twin_refln_F_squared_meas
_twin_refln_F_squared_sigma
_twin_refln_include_status
1 1 -26 0 1 536. 1756. 6439. <
2 1 -24 0 1 1998. 526. 5607. <
3 1 -22 0 1 2661. 196. 5038. <
4 1 -20 0 1 24. -193. 3613. <
5 1 -18 0 1 717. 2758. 3374. <
6 1 -16 0 1 156. -275. 2135. <
7 1 -14 0 1 880. -8. 1864. <
8 1 -12 0 1 2040. 3118. 1583. <
9 1 -10 0 1 534. 154. 1294. <
10 1 -8 0 1 32. 189. 1155. <
11 1 -6 0 1 349. 295. 1015. <
12 1 -4 0 1 43. 53. 679. <
13 1 -2 0 1 0. 90. 377. <
14 1 4 0 1 661. 162. 412. <
15 1 6 0 1 1. 618. 667. <
16 1 8 0 1 67. 333. 915. <
17 1 10 0 1 1924. 780. 1096. <
18 1 12 0 1 324. 1616. 1356. <
19 1 14 0 1 1201. -94. 1579. <
20 1 16 0 1 856. 36. 1897. <
21 1 18 0 1 169. 1081. 2172. <
22 1 20 0 1 17. 34. 2512. <
23 1 22 0 1 4568. 2003. 3006. <
24 1 24 0 1 837. 3323. 3643. <
25 1 26 0 1 238. 968. 4450. <
26 1 -25 1 1 1377. -635. 5094. <
27 1 -23 1 1 6408. 8173. 3598. <
28 1 -21 1 1 13002. 13638. 3205. o
29 1 -19 1 1 10021. 10869. 2753. o
30 1 -17 1 1 6354. 6557. 2153. o
31 1 -15 1 1 3548. 4193. 1446. <
32 1 -13 1 1 6160. 6254. 1186. o
33 1 -11 1 1 14036. 13037. 940. o
34 1 -9 1 1 21012. 19459. 802. o
35 1 -7 1 1 17712. 16248. 619. o
36 1 -5 1 1 14694. 12586. 499. o
37 1 -3 1 1 16641. 14827. 434. o
38 1 -1 1 1 17651. 15617. 394. o
39 1 1 1 1 18597. 16894. 418. o
40 1 3 1 1 15716. 15245. 508. o
41 1 5 1 1 15548. 14457. 687. o
42 1 7 1 1 16464. 17033. 677. o
43 1 9 1 1 21215. 19150. 824. o
44 1 11 1 1 11968. 10328. 965. o
45 1 13 1 1 4950. 3245. 1172. <
46 1 15 1 1 3172. 2870. 1283. <
47 1 17 1 1 8589. 7797. 1700. o
48 1 19 1 1 10360. 9794. 1989. o
49 1 21 1 1 10451. 10070. 2777. o
50 1 23 1 1 4715. 4678. 2751. <
51 1 25 1 1 1543. 683. 3771. <
52 1 -24 2 1 1444. 2482. 5338. <
53 1 -22 2 1 1951. -221. 4441. <
54 1 -20 2 1 20. 986. 3380. <
55 1 -18 2 1 514. 2604. 2317. <
56 1 -16 2 1 109. -821. 2130. <
57 1 -14 2 1 599. 223. 1957. <
58 1 -12 2 1 1318. 1417. 1267. <
59 1 -10 2 1 325. -133. 882. <
60 1 -8 2 1 19. 5. 765. <
61 1 -6 2 1 198. 358. 695. <
62 1 -4 2 1 21. -131. 646. <
63 1 -2 2 1 0. -19. 583. <
64 1 0 2 1 77. -68. 505. <
65 1 2 2 1 212. -15. 514. <
66 1 4 2 1 362. 190. 555. <
67 1 6 2 1 1. 376. 826. <
68 1 8 2 1 39. -90. 949. <
69 1 10 2 1 1218. 540. 1194. <
70 1 12 2 1 201. 1766. 1305. <
71 1 14 2 1 828. 86. 1292. <
72 1 16 2 1 579. 666. 1956. <
73 1 18 2 1 128. 1809. 2622. <
74 1 20 2 1 12. 62. 3220. <
75 1 22 2 1 3379. 468. 5881. <
76 1 24 2 1 617. 306. 4169. <
77 1 -21 3 1 7086. 3871. 4353. <
78 1 -19 3 1 5235. 6990. 3909. <
79 1 -17 3 1 3300. 3532. 3118. <
80 1 -15 3 1 1760. 1237. 2320. <
81 1 -13 3 1 2769. 2238. 1821. <
82 1 -11 3 1 6087. 11596. 2184. o
83 1 -9 3 1 8720. 11602. 1465. o
84 1 -7 3 1 6810. 9836. 1131. o
85 1 -5 3 1 5305. 5855. 1130. o
86 1 -3 3 1 5811. 6028. 1084. o
87 1 -1 3 1 5971. 4250. 932. o
88 1 1 3 1 6352. 6341. 957. o
89 1 3 3 1 5578. 6312. 1149. o
90 1 5 3 1 5712. 6909. 1111. o
91 1 7 3 1 6401. 7112. 1189. o
92 1 9 3 1 9027. 9486. 1381. o
93 1 11 3 1 5332. 5804. 1678. o
94 1 13 3 1 2230. 2292. 2057. <
95 1 15 3 1 1587. 1086. 2940. <
96 1 17 3 1 4580. 3807. 2979. <
97 1 19 3 1 5500. 7624. 4306. <
98 1 21 3 1 5675. 4978. 5439. <
99 1 -18 4 1 203. -2478. 10530. <
100 1 -16 4 1 37. 1016. 3512. <
101 1 -14 4 1 239. 901. 3051. <
102 1 -12 4 1 452. -298. 2664. <
103 1 -10 4 1 104. -1017. 2542. <
104 1 -8 4 1 8. 86. 2410. <
105 1 -6 4 1 65. 312. 2190. <
106 1 -4 4 1 5. -334. 1728. <
107 1 -2 4 1 0. 887. 1888. <
108 1 0 4 1 22. 231. 1720. <
109 1 2 4 1 71. 346. 1694. <
110 1 4 4 1 125. 696. 1763. <
111 1 6 4 1 0. -247. 1987. <
112 1 8 4 1 8. 50. 2206. <
113 1 10 4 1 407. -325. 2499. <
114 1 12 4 1 58. 1465. 3414. <
115 1 14 4 1 330. -242. 3296. <
116 1 16 4 1 186. 993. 4993. <
117 1 -11 5 1 1869. 4706. 7726. <
118 1 -9 5 1 2596. 1980. 4727. <
119 1 -7 5 1 1939. 1050. 4799. <
120 1 -5 5 1 1499. 294. 3333. <
121 1 -3 5 1 1639. 317. 4052. <
122 1 -1 5 1 1618. 696. 3131. <
123 1 1 5 1 1735. 2802. 3035. <
124 1 3 5 1 1608. 3549. 3118. <
125 1 5 5 1 1607. 885. 3939. <
126 1 7 5 1 1807. 591. 4371. <
127 1 9 5 1 2743. 2793. 7634. <
128 1 -26 0 2 4113. 3743. 4470. <
129 1 -24 0 2 668. -671. 4282. <
130 1 -22 0 2 10. 463. 3513. <
131 1 -20 0 2 41. -278. 2803. <
132 1 -18 0 2 1564. 519. 2724. <
133 1 -16 0 2 4877. 5260. 2178. <
134 1 -14 0 2 5294. 7165. 2112. o
135 1 -12 0 2 2111. 2016. 1735. <
136 1 -10 0 2 475. 814. 1630. <
137 1 -8 0 2 1440. 677. 1256. <
138 1 -6 0 2 4231. 5472. 1041. o
139 1 -4 0 2 7225. 8205. 904. o
140 1 -2 0 2 3705. 6778. 598. o
141 1 0 0 2 4324. 4948. 270. o
142 1 4 0 2 6784. 6653. 319. o
143 1 6 0 2 1176. 1256. 508. <
144 1 8 0 2 1074. 531. 740. <
145 1 10 0 2 1441. 1899. 953. <
146 1 12 0 2 5682. 5046. 1300. o
147 1 14 0 2 3706. 3076. 1451. <
148 1 18 0 2 139. 209. 2019. <
149 1 20 0 2 5. -80. 2494. <
150 1 22 0 2 97. -286. 2918. <
151 1 24 0 2 5469. 3678. 3788. <
152 1 26 0 2 3752. 3241. 4401. <
153 1 -27 1 2 168. 2268. 8392. <
154 1 -25 1 2 330. 939. 3651. <
155 1 -23 1 2 977. 1545. 3055. <
156 1 -21 1 2 63. -433. 2640. <
157 1 -19 1 2 1426. 1364. 2093. <
158 1 -17 1 2 1742. 2035. 1811. <
159 1 -15 1 2 88. 91. 1560. <
160 1 -13 1 2 234. 247. 1076. <
161 1 -11 1 2 509. 436. 894. <
162 1 -9 1 2 623. 101. 697. <
163 1 -7 1 2 28. 44. 531. <
164 1 -5 1 2 834. 311. 544. <
165 1 -3 1 2 231. 64. 532. <
166 1 -1 1 2 474. 80. 596. <
167 1 1 1 2 632. 101. 247. <
168 1 3 1 2 344. 97. 264. <
169 1 5 1 2 1115. 91. 347. <
170 1 7 1 2 98. 412. 406. <
171 1 9 1 2 407. 202. 531. <
172 1 11 1 2 2856. 432. 744. <
173 1 13 1 2 62. 450. 954. <
174 1 15 1 2 95. 1461. 1617. <
175 1 17 1 2 4356. 1186. 1556. <
176 1 19 1 2 215. 647. 1872. <
177 1 21 1 2 13. 91. 3270. <
178 1 23 1 2 1706. 340. 2669. <
179 1 25 1 2 284. 1534. 3170. <
180 1 -24 2 2 493. 776. 4583. <
181 1 -22 2 2 11. 29. 3638. <
182 1 -20 2 2 37. 227. 2929. <
183 1 -18 2 2 1090. 710. 2446. <
184 1 -16 2 2 3304. 2718. 1793. <
185 1 -14 2 2 3528. 4703. 1357. o
186 1 -12 2 2 1345. 1218. 1091. <
187 1 -10 2 2 267. 391. 1490. <
188 1 -8 2 2 807. 435. 834. <
189 1 -6 2 2 2355. 2537. 685. o
190 1 -4 2 2 3866. 2912. 686. o
191 1 -2 2 2 1885. 1546. 646. <
192 1 0 2 2 2177. 1338. 588. <
193 1 2 2 2 2616. 2199. 546. o
194 1 4 2 2 3753. 2568. 675. o
195 1 6 2 2 636. 809. 809. <
196 1 8 2 2 611. 217. 779. <
197 1 10 2 2 913. 1461. 1220. <
198 1 12 2 2 3742. 3204. 1222. <
199 1 14 2 2 2446. 4307. 2075. <
200 1 16 2 2 2616. 1535. 2427. <
201 1 18 2 2 117. -289. 2320. <
202 1 20 2 2 5. 140. 2866. <
203 1 22 2 2 71. 1368. 3563. <
204 1 24 2 2 4138. 3307. 5959. <
205 1 -23 3 2 532. 891. 13064. <
206 1 -21 3 2 31. 136. 4446. <
207 1 -19 3 2 759. -341. 4319. <
208 1 -17 3 2 878. 1365. 2731. <
209 1 -15 3 2 49. -495. 2050. <
210 1 -13 3 2 113. -288. 1707. <
211 1 -11 3 2 223. 771. 1456. <
212 1 -9 3 2 272. 223. 1294. <
213 1 -7 3 2 9. 586. 1248. <
214 1 -5 3 2 323. 120. 1019. <
215 1 -3 3 2 81. -174. 1009. <
216 1 -1 3 2 180. -473. 885. <
217 1 1 3 2 258. -173. 1041. <
218 1 3 3 2 134. 183. 977. <
219 1 5 3 2 426. 251. 1055. <
220 1 7 3 2 41. 409. 1272. <
221 1 9 3 2 204. -129. 1470. <
222 1 11 3 2 1366. 506. 1880. <
223 1 13 3 2 22. 675. 1932. <
224 1 15 3 2 59. 949. 2574. <
225 1 17 3 2 2258. 694. 2862. <
226 1 19 3 2 132. 3651. 6773. <
227 1 21 3 2 7. -796. 6992. <
228 1 -18 4 2 446. 1278. 9029. <
229 1 -16 4 2 1238. 1806. 3908. <
230 1 -14 4 2 1333. 1406. 3056. <
231 1 -12 4 2 508. 512. 2523. <
232 1 -10 4 2 89. -472. 2596. <
233 1 -8 4 2 248. 25. 2453. <
234 1 -6 4 2 753. 354. 1775. <
235 1 -4 4 2 1221. 593. 1892. <
236 1 -2 4 2 544. 598. 1937. <
237 1 0 4 2 614. 118. 1458. <
238 1 2 4 2 820. 844. 1534. <
239 1 4 4 2 1216. 2284. 2194. <
240 1 6 4 2 179. -632. 2194. <
241 1 8 4 2 191. -466. 2305. <
242 1 10 4 2 371. 719. 2878. <
243 1 12 4 2 1389. 2022. 3521. <
244 1 14 4 2 859. 1805. 4635. <
245 1 16 4 2 1061. 2095. 6245. <
246 1 -13 5 2 31. -173. 10583. <
247 1 -11 5 2 50. -1371. 6024. <
248 1 -9 5 2 77. 1618. 4845. <
249 1 -7 5 2 1. -99. 3685. <
250 1 -5 5 2 80. 76. 3514. <
251 1 -3 5 2 14. -2518. 3658. <
252 1 -1 5 2 49. 423. 3163. <
253 1 1 5 2 81. -1528. 3104. <
254 1 3 5 2 34. 306. 5390. <
255 1 5 5 2 88. -3544. 4916. <
256 1 7 5 2 9. 1354. 8520. <
257 1 9 5 2 76. 1974. 7936. <
258 1 -26 0 4 14129. 12321. 5062. <
259 1 -24 0 4 7395. 4212. 4387. <
260 1 -22 0 4 4955. 2154. 3576. <
261 1 -20 0 4 6963. 8277. 3426. <
262 1 -18 0 4 15084. 20108. 2864. o
263 1 -16 0 4 27720. 29912. 2847. o
264 1 -14 0 4 26159. 32215. 2825. o
265 1 -12 0 4 17079. 16002. 2271. o
266 1 -10 0 4 16209. 18198. 1881. o
267 1 -8 0 4 27392. 32371. 2018. o
268 1 -6 0 4 31273. 38789. 1691. o
269 1 -4 0 4 35767. 44834. 1610. o
270 1 -2 0 4 37710. 48681. 1237. o
271 1 0 0 4 37930. 42790. 823. o
272 1 8 0 4 16962. 15140. 635. o
273 1 10 0 4 16729. 12370. 834. o
274 1 12 0 4 30357. 25544. 1252. o
275 1 14 0 4 23913. 21793. 1526. o
276 1 16 0 4 12474. 10680. 1708. o
277 1 18 0 4 6321. 5908. 2082. <
278 1 20 0 4 7469. 5539. 2383. <
279 1 22 0 4 7942. 6732. 2843. <
280 1 24 0 4 14135. 8355. 3545. <
281 1 26 0 4 14446. 7860. 5590. <
282 1 -27 1 4 198. -927. 5416. <
283 1 -25 1 4 3. -1023. 4106. <
284 1 -23 1 4 532. 206. 3323. <
285 1 -21 1 4 2399. 929. 2940. <
286 1 -19 1 4 2034. 2310. 2603. <
287 1 -17 1 4 3585. 517. 2203. <
288 1 -15 1 4 130. -144. 1779. <
289 1 -13 1 4 425. -52. 1260. <
290 1 -11 1 4 665. 71. 1130. <
291 1 -9 1 4 2626. 556. 846. <
292 1 -7 1 4 150. 801. 651. <
293 1 -5 1 4 3249. 85. 470. <
294 1 -3 1 4 1316. 400. 407. <
295 1 -1 1 4 2241. 30. 397. <
296 1 1 1 4 421. 227. 344. <
297 1 3 1 4 610. 635. 379. <
298 1 5 1 4 3181. 572. 355. <
299 1 7 1 4 1727. -49. 414. <
300 1 9 1 4 428. 681. 575. <
301 1 11 1 4 1726. -141. 694. <
302 1 13 1 4 1020. -69. 951. <
303 1 15 1 4 25. 1180. 1229. <
304 1 17 1 4 6080. 1991. 1499. <
305 1 19 1 4 131. 338. 1777. <
306 1 21 1 4 4. 950. 2125. <
307 1 23 1 4 1574. 470. 2417. <
308 1 25 1 4 2622. -148. 4056. <
309 1 -24 2 4 5592. 3911. 4824. <
310 1 -22 2 4 3786. 4222. 4169. <
311 1 -20 2 4 5099. 4955. 3240. <
312 1 -18 2 4 10571. 13167. 2463. o
313 1 -16 2 4 19108. 20699. 2259. o
314 1 -14 2 4 17528. 19709. 1828. o
315 1 -12 2 4 10853. 10318. 1356. o
316 1 -10 2 4 9959. 8550. 1160. o
317 1 -8 2 4 16575. 17069. 1084. o
318 1 -6 2 4 18177. 15531. 842. o
319 1 -4 2 4 20262. 17435. 852. o
320 1 -2 2 4 21373. 15952. 803. o
321 1 0 2 4 21473. 20548. 791. o
322 1 2 2 4 16854. 14175. 679. o
323 1 4 2 4 19908. 17118. 869. o
324 1 6 2 4 15424. 13288. 819. o
325 1 8 2 4 10490. 9775. 1043. o
326 1 10 2 4 10738. 12587. 1043. o
327 1 12 2 4 20690. 22485. 1319. o
328 1 14 2 4 16632. 21840. 1594. o
329 1 16 2 4 8740. 9877. 2384. o
330 1 18 2 4 4702. 4973. 2403. <
331 1 20 2 4 5747. 2829. 3445. <
332 1 22 2 4 5994. 6214. 7328. <
333 1 24 2 4 10699. 6709. 8948. <
334 1 -21 3 4 1318. -509. 6757. <
335 1 -19 3 4 1100. 782. 3562. <
336 1 -17 3 4 1753. 348. 2724. <
337 1 -15 3 4 64. -202. 2344. <
338 1 -13 3 4 222. 161. 1863. <
339 1 -11 3 4 330. 755. 1752. <
340 1 -9 3 4 1118. 318. 1533. <
341 1 -7 3 4 73. 990. 1309. <
342 1 -5 3 4 1367. 427. 1440. <
343 1 -3 3 4 608. 442. 1122. <
344 1 -1 3 4 933. -31. 997. <
345 1 1 3 4 156. -166. 1195. <
346 1 3 3 4 232. 87. 965. <
347 1 5 3 4 1446. 103. 1398. <
348 1 7 3 4 858. -135. 1305. <
349 1 9 3 4 198. 138. 1356. <
350 1 11 3 4 750. -1181. 3277. <
351 1 13 3 4 475. -760. 2680. <
352 1 15 3 4 21. -15. 2629. <
353 1 17 3 4 3281. -609. 3535. <
354 1 19 3 4 53. -1394. 4355. <
355 1 -18 4 4 4364. 6443. 5987. <
356 1 -16 4 4 7687. 11517. 4000. <
357 1 -14 4 4 6844. 7124. 3334. <
358 1 -12 4 4 3925. 3748. 3949. <
359 1 -10 4 4 3530. 4566. 3184. <
360 1 -8 4 4 5806. 8348. 2306. o
361 1 -6 4 4 5888. 6063. 1894. o
362 1 -4 4 4 6341. 7659. 1935. o
363 1 -2 4 4 6978. 7020. 1890. o
364 1 0 4 4 6915. 4462. 2341. <
365 1 2 4 4 5211. 586. 1978. <
366 1 4 4 4 6648. 6015. 2053. <
367 1 6 4 4 5544. 4058. 1986. <
368 1 8 4 4 3663. 2874. 3003. <
369 1 10 4 4 3923. 4612. 5290. <
370 1 12 4 4 8326. 11913. 4450. <
371 1 14 4 4 6823. 8293. 4809. <
372 1 -11 5 4 92. -2394. 9589. <
373 1 -9 5 4 284. -275. 4337. <
374 1 -7 5 4 36. -2151. 4642. <
375 1 -5 5 4 381. -829. 4625. <
376 1 -3 5 4 194. -176. 7630. <
377 1 -1 5 4 264. 1205. 5209. <
378 1 1 5 4 23. 599. 5504. <
379 1 5 5 4 421. 885. 10008. <
380 1 -26 0 5 1295. 1587. 5416. <
381 1 -24 0 5 106. 551. 4573. <
382 1 -22 0 5 508. 756. 4018. <
383 1 -20 0 5 3454. 3334. 3199. <
384 1 -18 0 5 151. 892. 3168. <
385 1 -16 0 5 557. -115. 2468. <
386 1 -14 0 5 4173. 2071. 2420. <
387 1 -12 0 5 511. 246. 2121. <
388 1 -10 0 5 447. -234. 1800. <
389 1 -8 0 5 3008. 79. 1566. <
390 1 -6 0 5 1456. 100. 1310. <
391 1 -4 0 5 3114. 346. 1039. <
392 1 -2 0 5 2321. 75. 779. <
393 1 0 0 5 1529. 227. 527. <
394 1 2 0 5 2559. 23. 304. <
395 1 10 0 5 123. 2251. 1012. <
396 1 12 0 5 4190. 393. 966. <
397 1 14 0 5 5656. 761. 1295. <
398 1 16 0 5 6. 2165. 1640. <
399 1 18 0 5 1357. -23. 2025. <
400 1 20 0 5 3591. 146. 3408. <
401 1 22 0 5 201. 393. 3028. <
402 1 24 0 5 1705. -326. 3624. <
403 1 -27 1 5 2234. 330. 6123. <
404 1 -25 1 5 49. -1185. 4397. <
405 1 -23 1 5 323. -604. 3202. <
406 1 -21 1 5 217. 1444. 3082. <
407 1 -19 1 5 584. -781. 2677. <
408 1 -17 1 5 1039. 837. 2154. <
409 1 -15 1 5 1874. 1350. 1767. <
410 1 -13 1 5 138. 675. 1405. <
411 1 -11 1 5 7. -48. 1138. <
412 1 -9 1 5 245. 263. 904. <
413 1 -7 1 5 1451. 358. 801. <
414 1 -5 1 5 984. 1741. 662. <
415 1 -3 1 5 927. 316. 510. <
416 1 -1 1 5 33. 110. 458. <
417 1 1 1 5 2309. 1564. 409. o
418 1 3 1 5 378. 1186. 360. o
419 1 5 1 5 211. 86. 366. <
420 1 7 1 5 436. 114. 568. <
421 1 9 1 5 1181. 571. 457. <
422 1 11 1 5 249. 393. 637. <
423 1 13 1 5 1983. 885. 865. <
424 1 15 1 5 241. 1004. 1179. <
425 1 17 1 5 252. -507. 1681. <
426 1 19 1 5 1741. 1270. 1939. <
427 1 21 1 5 67. 5. 2303. <
428 1 23 1 5 1237. 1268. 2631. <
429 1 25 1 5 3204. 670. 3935. <
430 1 -26 2 5 922. 2220. 15388. <
431 1 -24 2 5 76. -2851. 5221. <
432 1 -22 2 5 381. -694. 3975. <
433 1 -20 2 5 2468. 240. 3486. <
434 1 -18 2 5 117. 601. 2829. <
435 1 -16 2 5 378. -482. 2160. <
436 1 -14 2 5 2908. 1548. 1640. <
437 1 -12 2 5 355. 160. 1474. <
438 1 -10 2 5 282. -285. 1194. <
439 1 -8 2 5 1892. 1. 966. <
440 1 -6 2 5 940. -23. 862. <
441 1 -4 2 5 1981. 346. 755. <
442 1 -2 2 5 1415. 48. 733. <
443 1 0 2 5 896. 272. 667. <
444 1 2 2 5 1599. -15. 713. <
445 1 4 2 5 1760. 28. 849. <
446 1 6 2 5 2731. -68. 739. <
447 1 8 2 5 1393. -141. 816. <
448 1 10 2 5 73. 1731. 951. <
449 1 12 2 5 2961. 218. 1168. <
450 1 14 2 5 4069. 877. 1472. <
451 1 16 2 5 3. 2089. 1858. <
452 1 18 2 5 912. 1134. 4511. <
453 1 20 2 5 2595. 579. 2967. <
454 1 22 2 5 171. 309. 3239. <
455 1 -23 3 5 175. -1728. 9980. <
456 1 -21 3 5 92. -1016. 5183. <
457 1 -19 3 5 325. 1835. 3399. <
458 1 -17 3 5 492. 1150. 2972. <
459 1 -15 3 5 909. 845. 2441. <
460 1 -13 3 5 84. -367. 2163. <
461 1 -11 3 5 3. -405. 1557. <
462 1 -9 3 5 144. 247. 1687. <
463 1 -7 3 5 644. -71. 1426. <
464 1 -5 3 5 464. 1372. 1477. <
465 1 -3 3 5 362. 395. 1285. <
466 1 -1 3 5 28. -176. 1059. <
467 1 1 3 5 1045. 399. 1085. <
468 1 3 3 5 182. 133. 1177. <
469 1 5 3 5 66. -257. 1033. <
470 1 7 3 5 224. -105. 1191. <
471 1 9 3 5 643. 562. 1669. <
472 1 11 3 5 122. -15. 1730. <
473 1 13 3 5 891. 196. 2078. <
474 1 15 3 5 144. 87. 2767. <
475 1 17 3 5 177. -612. 3533. <
476 1 19 3 5 968. 887. 5118. <
477 1 -18 4 5 62. 63. 5784. <
478 1 -16 4 5 130. -1225. 4186. <
479 1 -14 4 5 1126. 552. 3274. <
480 1 -12 4 5 147. -607. 3094. <
481 1 -10 4 5 78. -1584. 2894. <
482 1 -8 4 5 586. -657. 2513. <
483 1 -6 4 5 346. -470. 2110. <
484 1 -4 4 5 745. -459. 2115. <
485 1 -2 4 5 452. -318. 2266. <
486 1 0 4 5 237. 795. 2700. <
487 1 2 4 5 530. -776. 2037. <
488 1 4 4 5 701. -497. 2654. <
489 1 6 4 5 995. -670. 3925. <
490 1 8 4 5 412. 338. 3558. <
491 1 10 4 5 13. -75. 6120. <
492 1 12 4 5 1188. -63. 4359. <
493 1 -11 5 5 3. -4935. 10147. <
494 1 -7 5 5 195. 2942. 7370. <
495 1 -5 5 5 178. 321. 6303. <
496 1 -3 5 5 86. 1126. 5659. <
497 1 -26 0 7 7860. 3087. 5952. <
498 1 -22 0 7 1760. -2870. 4453. <
499 1 -20 0 7 1460. 1681. 3727. <
500 1 -18 0 7 2330. -710. 3419. <
501 1 -16 0 7 3. 1247. 2971. <
502 1 -14 0 7 7216. 2200. 2408. <
503 1 -12 0 7 79. -101. 2538. <
504 1 -10 0 7 4695. -91. 1982. <
505 1 -8 0 7 3029. 988. 1779. <
506 1 -6 0 7 3672. 332. 1535. <
507 1 -4 0 7 167. 603. 1250. <
508 1 -2 0 7 4377. -181. 936. <
509 1 0 0 7 2708. 487. 701. <
510 1 2 0 7 6496. 99. 430. <
511 1 20 0 7 7230. 1133. 2006. <
512 1 -27 1 7 4815. 2842. 8882. <
513 1 -25 1 7 10309. 10906. 6057. <
514 1 -23 1 7 15640. 21179. 6093. o
515 1 -21 1 7 17921. 17351. 3761. o
516 1 -19 1 7 12488. 14173. 4410. o
517 1 -17 1 7 6582. 8544. 2558. o
518 1 -15 1 7 10425. 13798. 2340. o
519 1 -13 1 7 23747. 24258. 2111. o
520 1 -11 1 7 26388. 27550. 1702. o
521 1 -9 1 7 21052. 17034. 1474. o
522 1 -7 1 7 22975. 20312. 1236. o
523 1 -5 1 7 24073. 27340. 1135. o
524 1 -3 1 7 19562. 22220. 903. o
525 1 -1 1 7 22753. 24337. 817. o
526 1 1 1 7 27713. 31267. 1014. o
527 1 3 1 7 21848. 29122. 1222. o
528 1 5 1 7 20097. 16448. 1144. o
529 1 7 1 7 27611. 33233. 1409. o
530 1 9 1 7 22027. 22968. 1384. o
531 1 11 1 7 9000. 8306. 1011. o
532 1 13 1 7 8658. 4904. 1417. o
533 1 15 1 7 16402. 17032. 2448. o
534 1 17 1 7 17553. 16230. 1918. o
535 1 19 1 7 13233. 8727. 2801. o
536 1 21 1 7 10932. 6146. 2946. <
537 1 23 1 7 5674. 2459. 3415. <
538 1 -26 2 7 5938. 1125. 16613. <
539 1 -24 2 7 1097. -620. 6094. <
540 1 -22 2 7 1268. -1184. 4863. <
541 1 -20 2 7 1034. 1286. 3913. <
542 1 -18 2 7 1735. 159. 4252. <
543 1 -16 2 7 2. 923. 4096. <
544 1 -14 2 7 4901. 1110. 3350. <
545 1 -12 2 7 61. 1081. 2392. <
546 1 -10 2 7 3218. 300. 2183. <
547 1 -8 2 7 2136. 893. 1850. <
548 1 -6 2 7 2401. -498. 1664. <
549 1 -4 2 7 98. 168. 959. <
550 1 -2 2 7 2829. 104. 1029. <
551 1 0 2 7 1883. 299. 1127. <
552 1 2 2 7 4414. -29. 914. <
553 1 4 2 7 353. 705. 895. <
554 1 6 2 7 1115. 69. 982. <
555 1 8 2 7 2803. 523. 901. <
556 1 10 2 7 1222. 259. 1092. <
557 1 12 2 7 2181. -153. 1120. <
558 1 14 2 7 1578. 64. 1136. <
559 1 16 2 7 45. 1176. 1952. <
560 1 18 2 7 1051. -353. 2162. <
561 1 20 2 7 5478. 1744. 2397. <
562 1 -23 3 7 8872. 9770. 11865. <
563 1 -21 3 7 10221. 12593. 5913. <
564 1 -19 3 7 7160. 8377. 4384. <
565 1 -17 3 7 3538. 3891. 3468. <
566 1 -15 3 7 5406. 6235. 3178. <
567 1 -13 3 7 12259. 14306. 2427. o
568 1 -11 3 7 12842. 14084. 2226. o
569 1 -9 3 7 9655. 10111. 2368. o
570 1 -7 3 7 10782. 12421. 1671. o
571 1 -5 3 7 11190. 14199. 1810. o
572 1 -3 3 7 8499. 8369. 1603. o
573 1 -1 3 7 10130. 12763. 1613. o
574 1 1 3 7 13090. 6665. 1473. o
575 1 3 3 7 10110. 2969. 1438. <
576 1 5 3 7 9238. 10345. 2264. o
577 1 7 3 7 13854. 4685. 1608. <
578 1 9 3 7 11513. 13388. 1807. o
579 1 11 3 7 4590. 4287. 2536. <
580 1 13 3 7 4740. 4065. 2763. <
581 1 15 3 7 9586. 10204. 3376. o
582 1 17 3 7 9995. 9417. 5050. <
583 1 19 3 7 7496. 6870. 5299. <
584 1 -18 4 7 821. -5646. 11844. <
585 1 -16 4 7 2. -698. 4642. <
586 1 -14 4 7 1743. 38. 4865. <
587 1 -12 4 7 44. 1626. 3664. <
588 1 -10 4 7 1273. -638. 3067. <
589 1 -8 4 7 852. -1687. 2573. <
590 1 -6 4 7 840. 63. 3137. <
591 1 -4 4 7 12. 1928. 3630. <
592 1 -2 4 7 947. -155. 3165. <
593 1 0 4 7 762. 833. 2997. <
594 1 2 4 7 1713. 478. 3258. <
595 1 4 4 7 96. -32. 6353. <
596 1 6 4 7 312. 1841. 4375. <
597 1 8 4 7 1042. 922. 5553. <
598 1 10 4 7 578. -1281. 4434. <
599 1 -26 0 8 1450. -99. 6824. <
600 1 -24 0 8 8056. 3677. 4924. <
601 1 -22 0 8 3618. 3828. 4312. <
602 1 -20 0 8 2729. 2030. 3898. <
603 1 -18 0 8 625. 1743. 3600. <
604 1 -16 0 8 3026. 1232. 3536. <
605 1 -8 0 8 6239. 3432. 2046. <
606 1 -6 0 8 547. 1495. 1682. <
607 1 -4 0 8 9523. 6827. 1416. o
608 1 -2 0 8 4688. 7285. 1056. o
609 1 0 0 8 6051. 3050. 830. o
610 1 2 0 8 1082. 2589. 486. o
611 1 -27 1 8 40. -2409. 8970. <
612 1 -25 1 8 4219. 2847. 5128. <
613 1 -23 1 8 76. 332. 4144. <
614 1 -21 1 8 440. 1175. 3606. <
615 1 -19 1 8 3382. 1303. 3072. <
616 1 -17 1 8 3565. 912. 2632. <
617 1 -15 1 8 31. 1747. 2529. <
618 1 -13 1 8 4718. 477. 2139. <
619 1 -11 1 8 3027. -560. 2762. <
620 1 -9 1 8 3344. 254. 2188. <
621 1 -7 1 8 1950. 302. 1767. <
622 1 -5 1 8 3020. 336. 1512. <
623 1 -3 1 8 2421. -206. 833. <
624 1 -1 1 8 6870. 909. 729. <
625 1 1 1 8 3085. -16. 1299. <
626 1 3 1 8 3016. 114. 682. <
627 1 5 1 8 1542. 477. 1026. <
628 1 7 1 8 4384. 29. 1135. <
629 1 9 1 8 7651. 1592. 1074. <
630 1 11 1 8 1147. 755. 1454. <
631 1 13 1 8 452. 1744. 1262. <
632 1 15 1 8 5963. 940. 1351. <
633 1 17 1 8 3158. -569. 1999. <
634 1 19 1 8 516. 206. 2351. <
635 1 -26 2 8 1152. -2078. 15513. <
636 1 -24 2 8 6148. 3394. 6205. <
637 1 -22 2 8 2672. 2513. 5326. <
638 1 -20 2 8 1983. 410. 4588. <
639 1 -18 2 8 506. 522. 3395. <
640 1 -16 2 8 2219. 1324. 3086. <
641 1 -14 2 8 1036. 2165. 2366. <
642 1 -12 2 8 6873. 5410. 1961. <
643 1 -10 2 8 4311. 7571. 1692. o
644 1 -8 2 8 4167. 2616. 1448. <
645 1 -6 2 8 308. 991. 1329. <
646 1 -4 2 8 6397. 3877. 1139. o
647 1 -2 2 8 3185. 5746. 1249. o
648 1 0 2 8 3893. 2147. 1148. <
649 1 2 2 8 670. 1638. 1091. <
650 1 4 2 8 8797. 7969. 1106. o
651 1 6 2 8 2856. 5008. 1029. o
652 1 8 2 8 3887. 1950. 1275. <
653 1 10 2 8 638. 2040. 1172. <
654 1 12 2 8 3739. 2184. 1297. <
655 1 16 2 8 4145. 267. 3223. <
656 1 18 2 8 4037. 3700. 4013. <
657 1 20 2 8 4960. 1039. 4281. <
658 1 -23 3 8 23. 1240. 11336. <
659 1 -21 3 8 251. -937. 6200. <
660 1 -19 3 8 1864. -478. 6802. <
661 1 -17 3 8 1894. 1573. 5020. <
662 1 -15 3 8 34. 1131. 3156. <
663 1 -13 3 8 2283. -24. 2781. <
664 1 -11 3 8 1597. 279. 2183. <
665 1 -9 3 8 1752. -278. 2359. <
666 1 -7 3 8 877. 528. 1857. <
667 1 -5 3 8 1303. 337. 1857. <
668 1 -3 3 8 1191. -1115. 1753. <
669 1 -1 3 8 3541. 546. 1987. <
670 1 1 3 8 1505. -355. 1935. <
671 1 3 3 8 1300. -152. 2659. <
672 1 5 3 8 699. -296. 1750. <
673 1 7 3 8 2365. -157. 2527. <
674 1 9 3 8 4075. 922. 2312. <
675 1 11 3 8 526. 867. 2518. <
676 1 13 3 8 174. 1544. 2702. <
677 1 15 3 8 3209. -655. 3230. <
678 1 17 3 8 1900. 1515. 4095. <
679 1 -18 4 8 318. -2149. 11816. <
680 1 -16 4 8 1038. 1421. 7731. <
681 1 -14 4 8 384. 1289. 4724. <
682 1 -12 4 8 2689. 2621. 4458. <
683 1 -10 4 8 1916. 1373. 3669. <
684 1 -8 4 8 1589. 1512. 3547. <
685 1 -6 4 8 88. -814. 3638. <
686 1 -4 4 8 2532. 989. 3515. <
687 1 -2 4 8 1386. 2232. 4677. <
688 1 0 4 8 1331. 1373. 7880. <
689 1 4 4 8 3715. 5195. 4951. <
690 1 6 4 8 1220. 4228. 6054. <
691 1 8 4 8 1370. -280. 6074. <
692 1 -26 0 10 5772. 8906. 7892. <
693 1 -24 0 10 4958. 2362. 10603. <
694 1 -22 0 10 3519. 4647. 5492. <
695 1 -20 0 10 9284. 7399. 5345. <
696 1 -18 0 10 18274. 17543. 4381. o
697 1 -16 0 10 17172. 15464. 4165. o
698 1 -14 0 10 6750. 6436. 3565. <
699 1 -12 0 10 9802. 8522. 3386. <
700 1 -10 0 10 13814. 17383. 2903. o
701 1 -8 0 10 14860. 14972. 2518. o
702 1 -6 0 10 13335. 13851. 2110. o
703 1 -4 0 10 22631. 21839. 1919. o
704 1 -2 0 10 15708. 19752. 1454. o
705 1 0 0 10 12793. 11958. 1017. o
706 1 2 0 10 14089. 17850. 684. o
707 1 -25 1 10 985. -740. 7161. <
708 1 -23 1 10 5631. 690. 7624. <
709 1 -21 1 10 496. 878. 4091. <
710 1 -19 1 10 4923. -361. 3851. <
711 1 -17 1 10 282. 538. 3460. <
712 1 -15 1 10 3083. 631. 2858. <
713 1 -13 1 10 1981. 235. 2624. <
714 1 -11 1 10 4625. -325. 2313. <
715 1 -9 1 10 30. 1844. 1887. <
716 1 -7 1 10 6239. 413. 1637. <
717 1 -5 1 10 2742. 853. 1374. <
718 1 -3 1 10 4996. 269. 1160. <
719 1 -1 1 10 507. 799. 1014. <
720 1 1 1 10 2131. 549. 829. <
721 1 3 1 10 3298. 1026. 1199. <
722 1 5 1 10 5451. -72. 3308. <
723 1 7 1 10 762. 343. 812. <
724 1 -24 2 10 3999. 6745. 10803. <
725 1 -22 2 10 2728. 6113. 8469. <
726 1 -20 2 10 6930. 8567. 7243. <
727 1 -18 2 10 13766. 13458. 4375. o
728 1 -16 2 10 12701. 13975. 5494. <
729 1 -14 2 10 4809. 7232. 4578. <
730 1 -12 2 10 7105. 4370. 2798. <
731 1 -10 2 10 10072. 12859. 2424. o
732 1 -8 2 10 10340. 11228. 2064. o
733 1 -6 2 10 9175. 8806. 1884. o
734 1 -4 2 10 16100. 8241. 1608. o
735 1 -2 2 10 11077. 4363. 1875. <
736 1 0 2 10 8726. 1708. 1683. <
737 1 2 2 10 10008. 14224. 2755. o
738 1 4 2 10 13364. 9026. 1611. o
739 1 6 2 10 5298. 6283. 1208. o
740 1 8 2 10 7614. 4627. 1811. <
741 1 10 2 10 13370. 15075. 2722. o
742 1 12 2 10 13864. 10811. 2551. o
743 1 14 2 10 4383. 2868. 2380. <
744 1 16 2 10 5168. 1010. 2733. <
745 1 -19 3 10 2546. -1598. 9532. <
746 1 -17 3 10 118. -402. 7650. <
747 1 -15 3 10 1800. 1482. 6144. <
748 1 -13 3 10 1076. -526. 4764. <
749 1 -11 3 10 2291. -2981. 3830. <
750 1 -9 3 10 41. 539. 3200. <
751 1 -7 3 10 3191. 684. 2876. <
752 1 -5 3 10 1530. -422. 2739. <
753 1 -3 3 10 2604. 247. 2853. <
754 1 -1 3 10 188. 714. 2700. <
755 1 1 3 10 970. -259. 5077. <
756 1 3 3 10 1762. 356. 4003. <
757 1 5 3 10 3063. -139. 2538. <
758 1 7 3 10 376. 691. 2456. <
759 1 9 3 10 1070. -255. 2240. <
760 1 11 3 10 573. 350. 2485. <
761 1 -24 0 11 729. 1690. 7373. <
762 1 -22 0 11 6893. 171. 5745. <
763 1 -20 0 11 158. 1898. 8348. <
764 1 -18 0 11 3778. -686. 7381. <
765 1 -16 0 11 4432. 38. 4279. <
766 1 -14 0 11 4396. -318. 4063. <
767 1 -12 0 11 305. 1065. 3599. <
768 1 -10 0 11 6040. -356. 3209. <
769 1 -8 0 11 2210. 332. 2568. <
770 1 -6 0 11 8558. -112. 2192. <
771 1 -4 0 11 2549. -34. 1757. <
772 1 -2 0 11 3221. 442. 1405. <
773 1 0 0 11 2432. -42. 985. <
774 1 2 0 11 7758. 133. 594. <
775 1 -23 1 11 1273. 6395. 8531. <
776 1 -21 1 11 8589. 7285. 5124. <
777 1 -19 1 11 4191. 7543. 5590. <
778 1 -17 1 11 9583. 4094. 4918. <
779 1 -15 1 11 4561. 2339. 4695. <
780 1 -13 1 11 6697. 2262. 2979. <
781 1 -11 1 11 965. 995. 2580. <
782 1 -9 1 11 12393. 4623. 2241. <
783 1 -7 1 11 8090. 5851. 1923. o
784 1 -5 1 11 10174. 2126. 1569. <
785 1 -3 1 11 1794. 1663. 1241. <
786 1 -1 1 11 15589. 8023. 1104. o
787 1 1 1 11 5514. 10106. 1019. o
788 1 3 1 11 7194. 2975. 1461. <
789 1 5 1 11 1774. 2535. 866. <
790 1 -20 2 11 151. 2035. 8518. <
791 1 -18 2 11 2763. -4134. 7055. <
792 1 -16 2 11 3293. 1885. 4302. <
793 1 -14 2 11 3255. -704. 3749. <
794 1 -12 2 11 182. 567. 2956. <
795 1 -10 2 11 4170. 442. 3716. <
796 1 -8 2 11 1613. -878. 3402. <
797 1 -6 2 11 6281. -36. 2000. <
798 1 -4 2 11 1763. -591. 1793. <
799 1 -2 2 11 2131. 622. 2283. <
800 1 0 2 11 1690. 98. 2015. <
801 1 2 2 11 5744. -384. 1774. <
802 1 4 2 11 3778. 62. 1627. <
803 1 8 2 11 337. 897. 2569. <
804 1 10 2 11 4761. -78. 2321. <
805 1 -7 3 11 4724. 14141. 8171. <
806 1 -5 3 11 5264. 5354. 7898. <
807 1 -3 3 11 897. 4217. 7936. <
808 1 -1 3 11 8692. 13559. 7362. <
809 1 1 3 11 3211. 10734. 5553. <
810 1 3 3 11 3646. 1503. 3961. <
811 1 5 3 11 1037. 2504. 2475. <
812 1 7 3 11 7900. 4815. 5188. <
813 1 9 3 11 1953. 5913. 5010. <
814 1 -10 0 13 3458. -215. 3863. <
815 1 -8 0 13 3123. 270. 3256. <
816 1 -6 0 13 96. 370. 2635. <
817 1 -4 0 13 3544. -226. 2095. <
818 1 -2 0 13 2428. 966. 1505. <
819 1 0 0 13 5979. 288. 1065. <
820 1 -3 1 13 3492. 4704. 1817. <
821 1 -1 1 13 11547. 7386. 1359. o
822 1 1 1 13 3787. 4459. 673. o
823 1 3 1 13 5502. 2668. 1071. <
824 1 -4 2 13 2521. -2787. 8468. <
825 1 -2 2 13 1842. 915. 6159. <
826 1 0 2 13 4496. 338. 3558. <
827 1 4 2 13 884. -561. 2865. <
828 1 6 2 13 1712. 349. 2587. <
829 1 -1 3 13 6986. 10704. 7523. <
830 1 1 3 13 2226. 3074. 4887. <
831 1 3 3 13 2957. 1833. 3236. <
832 1 -1 1 14 2253. -941. 3984. <
833 1 3 1 14 771. 126. 918. <
834 1 -4 2 14 4863. 16599. 8991. <
835 1 -2 2 14 6107. 5095. 5641. <
836 1 1 3 14 1214. 1706. 4194. <
837 2 -26 0 1 593. -378. 4096. <
838 2 -22 0 1 2943. 1624. 2851. <
839 2 -20 0 1 26. -280. 2448. <
840 2 -18 0 1 793. 3263. 2137. <
841 2 -16 0 1 173. 377. 1767. <
842 2 -14 0 1 974. 230. 1569. <
843 2 -12 0 1 2255. 3224. 1297. <
844 2 -10 0 1 590. 195. 1049. <
845 2 -8 0 1 36. -170. 852. <
846 2 -6 0 1 386. 640. 593. <
847 2 -4 0 1 48. 35. 327. <
848 2 2 0 1 459. 69. 501. <
849 2 4 0 1 731. 106. 835. <
850 2 6 0 1 1. 1078. 1094. <
851 2 8 0 1 74. -161. 1346. <
852 2 10 0 1 2128. 653. 1432. <
853 2 12 0 1 358. 2294. 1781. <
854 2 14 0 1 1328. -106. 1835. <
855 2 16 0 1 947. 570. 3176. <
856 2 18 0 1 187. 1888. 3643. <
857 2 20 0 1 19. -907. 4119. <
858 2 22 0 1 5051. 1946. 5408. <
859 2 24 0 1 926. 1902. 5794. <
860 2 26 0 1 263. -407. 7275. <
861 2 -27 1 1 455. 744. 7881. <
862 2 -25 1 1 1523. 1116. 3100. <
863 2 -23 1 1 7086. 7116. 3015. <
864 2 -21 1 1 14378. 13850. 2322. o
865 2 -19 1 1 11082. 11904. 1925. o
866 2 -17 1 1 7027. 6512. 1580. o
867 2 -15 1 1 3924. 3024. 1188. <
868 2 -13 1 1 6812. 4913. 1098. o
869 2 -11 1 1 15522. 13138. 916. o
870 2 -9 1 1 23236. 21214. 809. o
871 2 -7 1 1 19587. 18549. 622. o
872 2 -5 1 1 16250. 17923. 948. o
873 2 -3 1 1 18403. 17765. 778. o
874 2 -1 1 1 19520. 17615. 446. o
875 2 1 1 1 20566. 17712. 432. o
876 2 3 1 1 17380. 15826. 516. o
877 2 5 1 1 17194. 14521. 552. o
878 2 7 1 1 18207. 16530. 650. o
879 2 9 1 1 23461. 20652. 846. o
880 2 11 1 1 13235. 12312. 1064. o
881 2 13 1 1 5474. 4491. 1232. o
882 2 15 1 1 3508. 4156. 1957. <
883 2 17 1 1 9498. 9598. 2268. o
884 2 19 1 1 11456. 14854. 2802. o
885 2 21 1 1 11558. 12657. 3161. o
886 2 23 1 1 5214. 5670. 3767. <
887 2 25 1 1 1707. 340. 4259. <
888 2 -24 2 1 1597. 574. 4005. <
889 2 -22 2 1 2158. -368. 4421. <
890 2 -20 2 1 22. -1144. 3181. <
891 2 -18 2 1 569. 2028. 2292. <
892 2 -16 2 1 121. -31. 1558. <
893 2 -14 2 1 663. 65. 1276. <
894 2 -12 2 1 1458. 1674. 1176. <
895 2 -10 2 1 360. 495. 1111. <
896 2 -8 2 1 21. 137. 838. <
897 2 -6 2 1 219. 297. 667. <
898 2 -4 2 1 24. -46. 547. <
899 2 -2 2 1 0. -113. 516. <
900 2 0 2 1 85. 0. 583. <
901 2 2 2 1 234. 33. 585. <
902 2 4 2 1 401. -62. 630. <
903 2 6 2 1 1. 474. 782. <
904 2 8 2 1 43. 30. 815. <
905 2 10 2 1 1346. -16. 1010. <
906 2 12 2 1 222. 744. 1460. <
907 2 14 2 1 915. -27. 2270. <
908 2 16 2 1 640. 61. 2272. <
909 2 18 2 1 142. 1966. 2429. <
910 2 20 2 1 14. 472. 3758. <
911 2 22 2 1 3736. 228. 4772. <
912 2 24 2 1 682. 4380. 5811. <
913 2 -21 3 1 7836. 10237. 4968. <
914 2 -19 3 1 5790. 7790. 3815. <
915 2 -17 3 1 3650. 4554. 3157. <
916 2 -15 3 1 1946. 2598. 4094. <
917 2 -13 3 1 3062. 2774. 1882. <
918 2 -11 3 1 6731. 8315. 1556. o
919 2 -9 3 1 9643. 10677. 1346. o
920 2 -7 3 1 7531. 10396. 1274. o
921 2 -5 3 1 5866. 5898. 976. o
922 2 -3 3 1 6426. 6093. 1071. o
923 2 -1 3 1 6603. 7228. 1020. o
924 2 1 3 1 7024. 6376. 983. o
925 2 3 3 1 6168. 7457. 1144. o
926 2 5 3 1 6317. 5894. 988. o
927 2 7 3 1 7078. 9250. 1342. o
928 2 9 3 1 9982. 13668. 1583. o
929 2 11 3 1 5896. 7948. 2629. o
930 2 13 3 1 2466. 2414. 1887. <
931 2 15 3 1 1755. 1803. 2356. <
932 2 17 3 1 5064. 5558. 3469. <
933 2 19 3 1 6083. 6617. 4630. <
934 2 21 3 1 6275. 5693. 4704. <
935 2 -16 4 1 41. 815. 4212. <
936 2 -14 4 1 264. 494. 3251. <
937 2 -12 4 1 500. -11. 2710. <
938 2 -10 4 1 115. 9. 2517. <
939 2 -8 4 1 9. 188. 1975. <
940 2 -6 4 1 72. -176. 1904. <
941 2 -4 4 1 6. -653. 1885. <
942 2 -2 4 1 0. 71. 1577. <
943 2 0 4 1 25. -339. 1647. <
944 2 2 4 1 79. -711. 1685. <
945 2 4 4 1 139. 330. 1846. <
946 2 6 4 1 1. -482. 2084. <
947 2 8 4 1 9. 459. 2162. <
948 2 10 4 1 450. 562. 2410. <
949 2 12 4 1 64. -7. 3080. <
950 2 14 4 1 365. -1551. 3773. <
951 2 16 4 1 206. -416. 4730. <
952 2 -9 5 1 2870. 1257. 6445. <
953 2 -7 5 1 2145. 6095. 4733. <
954 2 -5 5 1 1658. 3815. 4403. <
955 2 -3 5 1 1812. 549. 3186. <
956 2 -1 5 1 1789. 610. 3192. <
957 2 1 5 1 1918. 608. 3355. <
958 2 3 5 1 1779. -665. 3675. <
959 2 5 5 1 1777. 3716. 3557. <
960 2 7 5 1 1999. 2720. 3587. <
961 2 9 5 1 3033. 4779. 5164. <
962 2 11 5 1 1896. 3270. 10754. <
963 2 -26 0 2 4549. 3909. 4015. <
964 2 -24 0 2 739. 295. 3156. <
965 2 -22 0 2 11. -385. 2644. <
966 2 -20 0 2 45. -64. 2156. <
967 2 -16 0 2 5393. 5281. 1644. o
968 2 -14 0 2 5854. 6278. 1365. o
969 2 -12 0 2 2335. 1872. 1085. <
970 2 -10 0 2 525. 641. 796. <
971 2 -8 0 2 1592. 1269. 577. <
972 2 -6 0 2 4679. 5189. 380. o
973 2 0 0 2 4782. 5985. 510. o
974 2 2 0 2 5478. 9755. 914. o
975 2 4 0 2 7502. 9005. 1138. o
976 2 6 0 2 1300. 2275. 1274. <
977 2 8 0 2 1187. 644. 1334. <
978 2 10 0 2 1593. 2280. 1607. <
979 2 12 0 2 6283. 7441. 2063. o
980 2 14 0 2 4099. 4455. 2156. <
981 2 16 0 2 4147. 5245. 2645. <
982 2 18 0 2 154. 664. 2627. <
983 2 20 0 2 6. -344. 3348. <
984 2 22 0 2 108. -685. 3989. <
985 2 24 0 2 6048. 5377. 4314. <
986 2 26 0 2 4149. 4357. 7717. <
987 2 -27 1 2 186. -219. 3450. <
988 2 -25 1 2 365. 832. 2830. <
989 2 -23 1 2 1080. 1714. 2426. <
990 2 -21 1 2 70. -98. 2444. <
991 2 -19 1 2 1577. 844. 1687. <
992 2 -17 1 2 1927. 2124. 1599. <
993 2 -15 1 2 97. 514. 1072. <
994 2 -13 1 2 259. 165. 829. <
995 2 -11 1 2 563. 404. 633. <
996 2 -9 1 2 689. 222. 440. <
997 2 -7 1 2 31. 307. 336. <
998 2 -5 1 2 922. 381. 287. <
999 2 -3 1 2 256. -67. 214. <
1000 2 -1 1 2 524. 76. 308. <
1001 2 1 1 2 699. -80. 366. <
1002 2 3 1 2 381. 33. 530. <
1003 2 5 1 2 1233. 99. 553. <
1004 2 7 1 2 108. 287. 621. <
1005 2 9 1 2 450. 225. 855. <
1006 2 11 1 2 3158. 1244. 1091. <
1007 2 13 1 2 69. 661. 1400. <
1008 2 15 1 2 105. 2843. 1697. <
1009 2 17 1 2 4817. 1488. 2150. <
1010 2 19 1 2 237. 659. 2625. <
1011 2 21 1 2 14. 1014. 2935. <
1012 2 23 1 2 1886. -356. 3644. <
1013 2 25 1 2 314. 152. 4199. <
1014 2 -24 2 2 545. -95. 3810. <
1015 2 -22 2 2 12. 252. 3168. <
1016 2 -20 2 2 40. 373. 2551. <
1017 2 -18 2 2 1206. 809. 2597. <
1018 2 -16 2 2 3654. 3855. 1707. <
1019 2 -14 2 2 3901. 4578. 1330. o
1020 2 -12 2 2 1487. 1751. 1047. <
1021 2 -10 2 2 295. 349. 782. <
1022 2 -8 2 2 892. 283. 847. <
1023 2 -6 2 2 2605. 2332. 703. o
1024 2 -4 2 2 4275. 2911. 605. o
1025 2 -2 2 2 2085. 1867. 585. o
1026 2 0 2 2 2407. 1350. 504. <
1027 2 2 2 2 2893. 2615. 667. o
1028 2 4 2 2 4150. 2571. 797. o
1029 2 6 2 2 703. 927. 712. <
1030 2 8 2 2 676. -59. 1196. <
1031 2 10 2 2 1010. 1658. 1272. <
1032 2 12 2 2 4138. 4475. 1325. o
1033 2 14 2 2 2704. 4764. 1729. <
1034 2 16 2 2 2893. 3292. 2086. <
1035 2 18 2 2 130. 295. 2732. <
1036 2 20 2 2 5. 525. 3517. <
1037 2 22 2 2 79. 1677. 4372. <
1038 2 24 2 2 4576. 4337. 7649. <
1039 2 -21 3 2 35. -535. 6028. <
1040 2 -19 3 2 839. 785. 3643. <
1041 2 -17 3 2 970. 758. 2360. <
1042 2 -15 3 2 54. -451. 2069. <
1043 2 -13 3 2 125. 548. 2048. <
1044 2 -11 3 2 246. 80. 1503. <
1045 2 -9 3 2 301. 302. 2470. <
1046 2 -7 3 2 10. 342. 1229. <
1047 2 -5 3 2 358. 222. 986. <
1048 2 -3 3 2 90. -181. 1054. <
1049 2 -1 3 2 199. 196. 1107. <
1050 2 1 3 2 286. 153. 1033. <
1051 2 3 3 2 148. 246. 1083. <
1052 2 5 3 2 471. 417. 1127. <
1053 2 7 3 2 45. 586. 1239. <
1054 2 9 3 2 226. -208. 1541. <
1055 2 11 3 2 1511. 865. 1852. <
1056 2 13 3 2 24. 578. 2378. <
1057 2 15 3 2 66. 946. 2530. <
1058 2 17 3 2 2496. 1294. 3607. <
1059 2 19 3 2 146. -569. 4695. <
1060 2 21 3 2 8. 982. 5671. <
1061 2 -16 4 2 1369. 389. 4802. <
1062 2 -14 4 2 1474. 4423. 3509. <
1063 2 -12 4 2 562. 1614. 2917. <
1064 2 -10 4 2 98. 237. 2229. <
1065 2 -8 4 2 274. 499. 2109. <
1066 2 -6 4 2 832. 228. 2159. <
1067 2 -4 4 2 1351. 848. 1497. <
1068 2 -2 4 2 602. 167. 1617. <
1069 2 0 4 2 680. 569. 2553. <
1070 2 2 4 2 907. 3255. 1618. <
1071 2 4 4 2 1345. 1346. 1817. <
1072 2 6 4 2 198. 170. 2140. <
1073 2 8 4 2 212. -918. 2202. <
1074 2 10 4 2 411. 280. 2532. <
1075 2 12 4 2 1537. 2502. 3103. <
1076 2 14 4 2 950. 1330. 3841. <
1077 2 16 4 2 1174. -473. 4434. <
1078 2 -9 5 2 85. -1025. 7761. <
1079 2 -7 5 2 1. 225. 4188. <
1080 2 -5 5 2 89. 336. 5729. <
1081 2 -3 5 2 16. -472. 4195. <
1082 2 -1 5 2 54. -374. 3111. <
1083 2 1 5 2 90. -961. 3307. <
1084 2 3 5 2 37. 720. 3270. <
1085 2 5 5 2 97. 319. 3881. <
1086 2 7 5 2 10. 2739. 5793. <
1087 2 9 5 2 85. -876. 6128. <
1088 2 11 5 2 443. -3145. 7770. <
1089 2 -28 0 4 17047. 12544. 3907. o
1090 2 -24 0 4 8178. 5648. 2753. <
1091 2 -22 0 4 5479. 4410. 2298. <
1092 2 -20 0 4 7700. 7424. 1980. o
1093 2 -18 0 4 16680. 16745. 1661. o
1094 2 -16 0 4 30654. 24244. 1480. o
1095 2 -14 0 4 28928. 23096. 1151. o
1096 2 -12 0 4 18887. 13916. 763. o
1097 2 -10 0 4 17925. 17034. 510. o
1098 2 -4 0 4 39553. 45509. 649. o
1099 2 -2 0 4 41702. 49478. 1000. o
1100 2 0 0 4 41945. 56612. 1461. o
1101 2 2 0 4 32911. 45526. 1740. o
1102 2 4 0 4 37258. 47708. 2122. o
1103 2 6 0 4 27840. 30268. 2142. o
1104 2 8 0 4 18757. 16795. 2139. o
1105 2 10 0 4 18500. 17250. 2150. o
1106 2 12 0 4 33570. 36768. 2705. o
1107 2 14 0 4 26444. 34939. 3168. o
1108 2 16 0 4 13795. 11896. 2980. o
1109 2 18 0 4 6990. 6577. 3673. <
1110 2 20 0 4 8260. 7478. 4181. <
1111 2 22 0 4 8783. 8941. 5120. <
1112 2 24 0 4 15631. 7810. 5346. <
1113 2 -27 1 4 219. 482. 2708. <
1114 2 -25 1 4 4. -191. 3222. <
1115 2 -23 1 4 589. 1295. 2043. <
1116 2 -21 1 4 2652. 700. 1744. <
1117 2 -19 1 4 2250. 2460. 1458. <
1118 2 -17 1 4 3964. 1611. 1190. <
1119 2 -15 1 4 143. 229. 1033. <
1120 2 -13 1 4 470. 16. 767. <
1121 2 -11 1 4 735. 210. 594. <
1122 2 -9 1 4 2904. 220. 376. <
1123 2 -7 1 4 166. 640. 441. <
1124 2 -5 1 4 3593. 270. 305. <
1125 2 -3 1 4 1456. 528. 430. <
1126 2 -1 1 4 2478. 59. 404. <
1127 2 1 1 4 466. 348. 440. <
1128 2 3 1 4 674. 407. 571. <
1129 2 5 1 4 3518. 506. 710. <
1130 2 7 1 4 1909. -162. 923. <
1131 2 9 1 4 473. 302. 1176. <
1132 2 11 1 4 1909. -179. 1529. <
1133 2 13 1 4 1127. -202. 1846. <
1134 2 15 1 4 28. 910. 2163. <
1135 2 17 1 4 6723. 2731. 2605. <
1136 2 19 1 4 145. 991. 2992. <
1137 2 21 1 4 4. 3204. 3816. <
1138 2 23 1 4 1740. -62. 4165. <
1139 2 -26 2 4 11844. 9416. 4889. <
1140 2 -24 2 4 6183. 4646. 3697. <
1141 2 -22 2 4 4187. 3063. 3150. <
1142 2 -20 2 4 5639. 6077. 2227. <
1143 2 -18 2 4 11690. 16487. 2711. o
1144 2 -16 2 4 21131. 26173. 1517. o
1145 2 -14 2 4 19384. 20949. 1224. o
1146 2 -12 2 4 12002. 11703. 979. o
1147 2 -10 2 4 11013. 12087. 1283. o
1148 2 -8 2 4 18329. 15947. 861. o
1149 2 -6 2 4 20101. 17620. 721. o
1150 2 -4 2 4 22407. 20223. 774. o
1151 2 -2 2 4 23636. 19452. 789. o
1152 2 0 2 4 23746. 20629. 889. o
1153 2 2 2 4 18638. 15989. 891. o
1154 2 4 2 4 22015. 19995. 1021. o
1155 2 6 2 4 17057. 15845. 1145. o
1156 2 8 2 4 11601. 9019. 1273. o
1157 2 10 2 4 11875. 12606. 1538. o
1158 2 12 2 4 22880. 24148. 1924. o
1159 2 14 2 4 18392. 22015. 2438. o
1160 2 16 2 4 9665. 8514. 2843. <
1161 2 18 2 4 5199. 5210. 3359. <
1162 2 20 2 4 6355. 4930. 4478. <
1163 2 22 2 4 6628. 6794. 5152. <
1164 2 -23 3 4 311. 1408. 10770. <
1165 2 -21 3 4 1458. 712. 4139. <
1166 2 -19 3 4 1216. 1252. 3172. <
1167 2 -17 3 4 1939. -418. 2304. <
1168 2 -15 3 4 71. 215. 3451. <
1169 2 -13 3 4 246. -111. 2221. <
1170 2 -11 3 4 365. 341. 1370. <
1171 2 -9 3 4 1236. 104. 1300. <
1172 2 -7 3 4 80. 535. 1019. <
1173 2 -5 3 4 1512. -82. 908. <
1174 2 -3 3 4 672. -18. 1485. <
1175 2 -1 3 4 1032. -113. 1004. <
1176 2 1 3 4 173. -217. 1098. <
1177 2 3 3 4 256. 755. 1703. <
1178 2 5 3 4 1600. -178. 1483. <
1179 2 7 3 4 949. 403. 1538. <
1180 2 9 3 4 219. -255. 1742. <
1181 2 11 3 4 829. -49. 2093. <
1182 2 13 3 4 525. -920. 2391. <
1183 2 15 3 4 23. -328. 3078. <
1184 2 17 3 4 3628. -423. 5972. <
1185 2 19 3 4 59. 1177. 7117. <
1186 2 -16 4 4 8500. 9247. 4741. <
1187 2 -14 4 4 7569. 9617. 4223. <
1188 2 -12 4 4 4341. 4683. 2952. <
1189 2 -10 4 4 3903. 3449. 2226. <
1190 2 -8 4 4 6420. 6672. 1954. o
1191 2 -6 4 4 6512. 10243. 3248. o
1192 2 -4 4 4 7012. 4467. 1882. <
1193 2 -2 4 4 7716. 4707. 1798. <
1194 2 0 4 4 7647. 10003. 1888. o
1195 2 2 4 4 5762. 7851. 2027. o
1196 2 4 4 4 7352. 10083. 2279. o
1197 2 6 4 4 6131. 7329. 2445. <
1198 2 8 4 4 4051. 2772. 4988. <
1199 2 10 4 4 4338. 2814. 3879. <
1200 2 12 4 4 9207. 13034. 3572. o
1201 2 14 4 4 7545. 12939. 4453. <
1202 2 16 4 4 3948. 191. 8360. <
1203 2 -7 5 4 39. 1818. 10810. <
1204 2 -5 5 4 422. 1245. 7932. <
1205 2 -3 5 4 214. 1578. 4668. <
1206 2 -1 5 4 292. 33. 4206. <
1207 2 1 5 4 26. -1425. 5765. <
1208 2 3 5 4 47. -283. 5803. <
1209 2 5 5 4 466. 1076. 4610. <
1210 2 7 5 4 324. -1319. 5887. <
1211 2 -28 0 5 435. 1430. 3935. <
1212 2 -26 0 5 1432. -941. 3216. <
1213 2 -24 0 5 117. 1804. 2743. <
1214 2 -22 0 5 561. -176. 2200. <
1215 2 -20 0 5 3820. 2045. 1738. <
1216 2 -18 0 5 167. 1228. 1399. <
1217 2 -16 0 5 616. 317. 1133. <
1218 2 -14 0 5 4614. 1704. 667. <
1219 2 -12 0 5 565. 37. 417. <
1220 2 -4 0 5 3443. 214. 469. <
1221 2 -2 0 5 2567. 14. 650. <
1222 2 0 0 5 1691. 542. 1020. <
1223 2 2 0 5 2830. 129. 1381. <
1224 2 4 0 5 2931. -287. 1434. <
1225 2 6 0 5 4557. 436. 1719. <
1226 2 8 0 5 2400. -406. 2180. <
1227 2 10 0 5 136. 2702. 2388. <
1228 2 12 0 5 4633. 978. 2629. <
1229 2 14 0 5 6255. 1394. 2483. <
1230 2 16 0 5 7. 3561. 3313. <
1231 2 18 0 5 1501. 490. 4146. <
1232 2 20 0 5 3971. 1151. 4434. <
1233 2 22 0 5 222. 1159. 5485. <
1234 2 24 0 5 1885. -868. 6536. <
1235 2 -27 1 5 2471. 607. 2887. <
1236 2 -25 1 5 54. -307. 3038. <
1237 2 -23 1 5 357. -25. 2074. <
1238 2 -21 1 5 239. -585. 1588. <
1239 2 -19 1 5 646. 141. 1263. <
1240 2 -17 1 5 1149. 1529. 999. <
1241 2 -15 1 5 2072. 1768. 732. <
1242 2 -13 1 5 152. 423. 535. <
1243 2 -11 1 5 8. 134. 459. <
1244 2 -9 1 5 271. 125. 390. <
1245 2 -7 1 5 1605. 665. 353. <
1246 2 -5 1 5 1088. 1995. 412. o
1247 2 -3 1 5 1025. 208. 417. <
1248 2 -1 1 5 36. 99. 478. <
1249 2 1 1 5 2553. 1437. 569. <
1250 2 3 1 5 418. 763. 689. <
1251 2 5 1 5 233. -6. 851. <
1252 2 7 1 5 482. 285. 1128. <
1253 2 9 1 5 1306. 318. 1383. <
1254 2 11 1 5 276. 1262. 1718. <
1255 2 13 1 5 2193. 1286. 2074. <
1256 2 15 1 5 267. 52. 2453. <
1257 2 17 1 5 278. 187. 2992. <
1258 2 19 1 5 1925. 1192. 3428. <
1259 2 21 1 5 74. -599. 3874. <
1260 2 23 1 5 1368. 2978. 4845. <
1261 2 -26 2 5 1020. 392. 4012. <
1262 2 -24 2 5 84. -162. 3094. <
1263 2 -22 2 5 421. -190. 3339. <
1264 2 -20 2 5 2730. 1838. 2013. <
1265 2 -18 2 5 129. 483. 1808. <
1266 2 -16 2 5 418. -301. 1195. <
1267 2 -14 2 5 3216. 1856. 1057. <
1268 2 -12 2 5 393. 257. 819. <
1269 2 -10 2 5 312. -123. 1332. <
1270 2 -8 2 5 2093. 73. 808. <
1271 2 -6 2 5 1039. -65. 899. <
1272 2 -4 2 5 2190. 305. 682. <
1273 2 -2 2 5 1564. -15. 753. <
1274 2 0 2 5 991. 96. 896. <
1275 2 2 2 5 1769. -22. 839. <
1276 2 4 2 5 1946. -41. 991. <
1277 2 6 2 5 3020. -86. 1095. <
1278 2 8 2 5 1541. 40. 1358. <
1279 2 10 2 5 80. 2335. 1658. <
1280 2 12 2 5 3274. 559. 2030. <
1281 2 14 2 5 4500. 427. 2690. <
1282 2 16 2 5 3. 1181. 3168. <
1283 2 18 2 5 1008. -1260. 4012. <
1284 2 20 2 5 2870. -644. 4785. <
1285 2 22 2 5 189. 1202. 6026. <
1286 2 -23 3 5 194. 305. 5589. <
1287 2 -21 3 5 102. -232. 3720. <
1288 2 -19 3 5 360. 38. 2949. <
1289 2 -17 3 5 544. 399. 2375. <
1290 2 -15 3 5 1005. 887. 1869. <
1291 2 -13 3 5 93. 291. 1795. <
1292 2 -11 3 5 4. 29. 2694. <
1293 2 -9 3 5 159. -221. 1071. <
1294 2 -7 3 5 712. 304. 1107. <
1295 2 -5 3 5 513. 714. 1132. <
1296 2 -3 3 5 401. 385. 1079. <
1297 2 -1 3 5 31. -165. 1118. <
1298 2 1 3 5 1156. 1278. 1967. <
1299 2 3 3 5 201. 510. 1523. <
1300 2 5 3 5 73. -40. 1520. <
1301 2 7 3 5 247. 185. 2006. <
1302 2 9 3 5 711. -93. 1975. <
1303 2 11 3 5 135. 335. 2372. <
1304 2 13 3 5 985. 136. 2809. <
1305 2 15 3 5 159. -832. 3741. <
1306 2 17 3 5 196. 42. 4686. <
1307 2 19 3 5 1071. 3262. 5704. <
1308 2 -16 4 5 144. -448. 4637. <
1309 2 -14 4 5 1246. 656. 4135. <
1310 2 -12 4 5 163. -2537. 3759. <
1311 2 -10 4 5 86. -394. 5087. <
1312 2 -8 4 5 648. -600. 2041. <
1313 2 -6 4 5 383. 374. 2057. <
1314 2 -4 4 5 824. -310. 2009. <
1315 2 -2 4 5 499. -159. 2425. <
1316 2 0 4 5 262. -416. 1761. <
1317 2 2 4 5 587. -97. 2137. <
1318 2 4 4 5 775. -1323. 2441. <
1319 2 6 4 5 1100. -61. 2511. <
1320 2 8 4 5 456. -81. 2894. <
1321 2 10 4 5 15. 633. 3597. <
1322 2 12 4 5 1313. 1172. 3715. <
1323 2 14 4 5 1881. 1778. 4770. <
1324 2 16 4 5 0. -785. 9025. <
1325 2 -3 5 5 95. 1603. 8740. <
1326 2 -1 5 5 18. -921. 5381. <
1327 2 1 5 5 384. 3420. 6342. <
1328 2 3 5 5 86. 606. 5843. <
1329 2 -26 0 7 8692. 1579. 2334. <
1330 2 -24 0 7 1559. 895. 1873. <
1331 2 -6 0 7 4061. 108. 528. <
1332 2 -4 0 7 185. 522. 773. <
1333 2 -2 0 7 4841. -36. 1081. <
1334 2 0 0 7 2995. 470. 1351. <
1335 2 2 0 7 7184. 707. 1719. <
1336 2 4 0 7 608. 938. 1883. <
1337 2 6 0 7 1931. 177. 2328. <
1338 2 8 0 7 4481. 503. 2328. <
1339 2 10 0 7 1813. 317. 2597. <
1340 2 12 0 7 3364. 143. 3045. <
1341 2 14 0 7 2585. -936. 3429. <
1342 2 16 0 7 86. 3069. 4385. <
1343 2 18 0 7 1557. -666. 4561. <
1344 2 22 0 7 27. 549. 6524. <
1345 2 -27 1 7 5324. 4122. 3342. <
1346 2 -25 1 7 11400. 8024. 2942. <
1347 2 -23 1 7 17295. 11881. 2759. o
1348 2 -21 1 7 19818. 14655. 1879. o
1349 2 -19 1 7 13810. 12536. 1705. o
1350 2 -17 1 7 7278. 6311. 1340. o
1351 2 -15 1 7 11529. 11023. 974. o
1352 2 -13 1 7 26260. 31500. 1489. o
1353 2 -11 1 7 29181. 33556. 1396. o
1354 2 -9 1 7 23281. 27728. 755. o
1355 2 -7 1 7 25407. 26595. 788. o
1356 2 -5 1 7 26622. 29673. 783. o
1357 2 -3 1 7 21633. 23952. 845. o
1358 2 -1 1 7 25161. 26343. 1018. o
1359 2 1 1 7 30646. 28912. 1211. o
1360 2 3 1 7 24160. 22715. 1376. o
1361 2 5 1 7 22225. 18725. 1573. o
1362 2 7 1 7 30533. 35159. 2012. o
1363 2 9 1 7 24358. 26411. 2096. o
1364 2 11 1 7 9952. 10753. 2273. o
1365 2 13 1 7 9575. 6417. 3560. <
1366 2 15 1 7 18139. 20573. 4810. o
1367 2 17 1 7 19412. 16838. 3535. o
1368 2 19 1 7 14634. 11705. 6072. <
1369 2 21 1 7 12090. 8130. 7466. <
1370 2 -26 2 7 6566. 1913. 5376. <
1371 2 -24 2 7 1213. 1251. 2421. <
1372 2 -22 2 7 1403. -83. 2566. <
1373 2 -20 2 7 1143. 1192. 1424. <
1374 2 -18 2 7 1918. 488. 1093. <
1375 2 -16 2 7 3. 276. 1303. <
1376 2 -14 2 7 5420. 1019. 987. <
1377 2 -12 2 7 67. 393. 983. <
1378 2 -10 2 7 3559. -80. 1288. <
1379 2 -8 2 7 2362. 913. 911. <
1380 2 -6 2 7 2655. -37. 947. <
1381 2 -4 2 7 108. 634. 966. <
1382 2 -2 2 7 3129. -133. 1190. <
1383 2 0 2 7 2083. 253. 966. <
1384 2 2 2 7 4881. -187. 1806. <
1385 2 4 2 7 391. 1189. 1941. <
1386 2 6 2 7 1234. 398. 2440. <
1387 2 8 2 7 3100. 217. 2987. <
1388 2 10 2 7 1352. 423. 3525. <
1389 2 12 2 7 2412. -1011. 4486. <
1390 2 14 2 7 1745. 1281. 4825. <
1391 2 16 2 7 50. 1025. 4353. <
1392 2 18 2 7 1162. -82. 5329. <
1393 2 20 2 7 6058. 540. 6415. <
1394 2 -21 3 7 11303. 11111. 3863. <
1395 2 -19 3 7 7918. 7088. 3125. <
1396 2 -17 3 7 3912. 6304. 5333. <
1397 2 -15 3 7 5979. 5540. 2365. <
1398 2 -13 3 7 13556. 6850. 1736. o
1399 2 -11 3 7 14202. 4118. 1700. <
1400 2 -9 3 7 10677. 12714. 3211. o
1401 2 -7 3 7 11924. 7152. 1729. o
1402 2 -5 3 7 12374. 8922. 1528. o
1403 2 -3 3 7 9399. 11222. 1630. o
1404 2 -1 3 7 11203. 12630. 1635. o
1405 2 1 3 7 14476. 16790. 1812. o
1406 2 3 3 7 11180. 13309. 1962. o
1407 2 5 3 7 10216. 11593. 2103. o
1408 2 7 3 7 15320. 19082. 2392. o
1409 2 9 3 7 12732. 14687. 2582. o
1410 2 11 3 7 5076. 4783. 3120. <
1411 2 13 3 7 5242. 4065. 4111. <
1412 2 15 3 7 10600. 10259. 5299. <
1413 2 17 3 7 11053. 13169. 6143. <
1414 2 -14 4 7 1928. -422. 5958. <
1415 2 -12 4 7 49. 514. 5765. <
1416 2 -10 4 7 1408. -716. 4431. <
1417 2 -8 4 7 943. -900. 4355. <
1418 2 -6 4 7 929. 141. 3198. <
1419 2 -4 4 7 13. -21. 2994. <
1420 2 -2 4 7 1048. -112. 3232. <
1421 2 0 4 7 842. -611. 3800. <
1422 2 2 4 7 1894. -738. 2895. <
1423 2 4 4 7 106. 883. 2949. <
1424 2 6 4 7 345. -620. 3079. <
1425 2 8 4 7 1152. -1672. 3627. <
1426 2 10 4 7 639. 855. 4338. <
1427 2 12 4 7 989. -5401. 5572. <
1428 2 -8 0 8 6899. 4292. 381. o
1429 2 -6 0 8 605. 2050. 711. <
1430 2 -4 0 8 10531. 6332. 1033. o
1431 2 -2 0 8 5184. 8476. 1313. o
1432 2 0 0 8 6691. 2950. 1561. <
1433 2 2 0 8 1197. 2933. 1914. <
1434 2 4 0 8 13946. 11687. 3512. o
1435 2 10 0 8 958. 1569. 2723. <
1436 2 12 0 8 5462. 3742. 3709. <
1437 2 14 0 8 313. 1033. 4056. <
1438 2 16 0 8 6360. 2176. 4359. <
1439 2 18 0 8 5746. 6888. 5628. <
1440 2 20 0 8 7091. 2512. 6081. <
1441 2 22 0 8 98. 139. 10655. <
1442 2 -25 1 8 4666. 1098. 2471. <
1443 2 -23 1 8 84. -519. 2174. <
1444 2 -21 1 8 487. -550. 1425. <
1445 2 -19 1 8 3740. 1681. 1324. <
1446 2 -17 1 8 3943. 406. 1603. <
1447 2 -13 1 8 5217. 198. 1104. <
1448 2 -11 1 8 3347. 687. 1351. <
1449 2 -9 1 8 3698. -146. 606. <
1450 2 -7 1 8 2156. 91. 1040. <
1451 2 -5 1 8 3340. 597. 766. <
1452 2 -3 1 8 2677. -197. 808. <
1453 2 -1 1 8 7597. 646. 1070. <
1454 2 1 1 8 3412. 154. 1729. <
1455 2 3 1 8 3335. 126. 2237. <
1456 2 5 1 8 1706. -163. 2467. <
1457 2 7 1 8 4849. 29. 2061. <
1458 2 9 1 8 8461. 1069. 2393. <
1459 2 11 1 8 1268. 1647. 2494. <
1460 2 13 1 8 500. 910. 2820. <
1461 2 15 1 8 6594. 1346. 3127. <
1462 2 17 1 8 3492. -1139. 3942. <
1463 2 19 1 8 571. 401. 5033. <
1464 2 21 1 8 3777. -1371. 5813. <
1465 2 -24 2 8 6799. 3939. 4199. <
1466 2 -22 2 8 2955. 2724. 3559. <
1467 2 -20 2 8 2193. 1592. 3061. <
1468 2 -18 2 8 560. 1190. 1272. <
1469 2 -16 2 8 2453. 977. 1168. <
1470 2 -14 2 8 1146. 1898. 1133. <
1471 2 -12 2 8 7600. 4224. 1179. o
1472 2 -10 2 8 4767. 9037. 1307. o
1473 2 -8 2 8 4608. 3553. 1091. o
1474 2 -6 2 8 341. 1265. 1100. <
1475 2 -4 2 8 7074. 5209. 1240. o
1476 2 -2 2 8 3522. 5837. 1149. o
1477 2 0 2 8 4305. 1587. 1253. <
1478 2 2 2 8 741. 1234. 1486. <
1479 2 4 2 8 9728. 6422. 1602. o
1480 2 6 2 8 3158. 6542. 1874. o
1481 2 8 2 8 4298. 2060. 2386. <
1482 2 10 2 8 705. 1476. 2897. <
1483 2 12 2 8 4134. 1282. 3263. <
1484 2 14 2 8 231. 1001. 4105. <
1485 2 16 2 8 4584. 1708. 5112. <
1486 2 18 2 8 4464. 4165. 5784. <
1487 2 20 2 8 5485. 3384. 7503. <
1488 2 -21 3 8 278. -2353. 6453. <
1489 2 -19 3 8 2061. 924. 2989. <
1490 2 -17 3 8 2094. -141. 2555. <
1491 2 -15 3 8 37. 1353. 2381. <
1492 2 -13 3 8 2524. -652. 4233. <
1493 2 -11 3 8 1766. 123. 1793. <
1494 2 -9 3 8 1938. -621. 1749. <
1495 2 -7 3 8 970. 43. 1720. <
1496 2 -5 3 8 1441. -750. 2305. <
1497 2 -3 3 8 1317. -54. 1717. <
1498 2 -1 3 8 3916. 449. 1807. <
1499 2 1 3 8 1665. -872. 2076. <
1500 2 3 3 8 1437. -1253. 2214. <
1501 2 5 3 8 773. -18. 2127. <
1502 2 7 3 8 2615. 204. 2603. <
1503 2 9 3 8 4507. 164. 3057. <
1504 2 11 3 8 581. -1021. 3870. <
1505 2 13 3 8 193. 128. 6549. <
1506 2 15 3 8 3549. -1852. 6533. <
1507 2 17 3 8 2101. 165. 8941. <
1508 2 -14 4 8 424. 2081. 6259. <
1509 2 -12 4 8 2974. 5328. 6346. <
1510 2 -10 4 8 2119. 8976. 6895. <
1511 2 -8 4 8 1757. 623. 5053. <
1512 2 -6 4 8 97. -3766. 8120. <
1513 2 -4 4 8 2800. 843. 7931. <
1514 2 -2 4 8 1533. 3312. 3513. <
1515 2 0 4 8 1472. 487. 3320. <
1516 2 2 4 8 260. 422. 4595. <
1517 2 4 4 8 4109. 3674. 3630. <
1518 2 6 4 8 1349. 2861. 4385. <
1519 2 8 4 8 1515. 905. 4298. <
1520 2 10 4 8 360. 1933. 7143. <
1521 2 12 4 8 2067. -155. 7984. <
1522 2 -8 0 10 16433. 15836. 809. o
1523 2 -6 0 10 14747. 15786. 1167. o
1524 2 -4 0 10 25026. 22347. 1606. o
1525 2 -2 0 10 17370. 21308. 1949. o
1526 2 0 0 10 14148. 12911. 2219. o
1527 2 2 0 10 15580. 19165. 2693. o
1528 2 4 0 10 20231. 18521. 2935. o
1529 2 6 0 10 8209. 7342. 3313. <
1530 2 8 0 10 11726. 7051. 3450. <
1531 2 10 0 10 19614. 19966. 4011. o
1532 2 12 0 10 20390. 13396. 4907. <
1533 2 14 0 10 6527. 5543. 5022. <
1534 2 16 0 10 7321. 1746. 6284. <
1535 2 20 0 10 8377. 8314. 8958. <
1536 2 -13 1 10 2191. -79. 1122. <
1537 2 -11 1 10 5115. 237. 1138. <
1538 2 -9 1 10 33. 975. 781. <
1539 2 -7 1 10 6900. 292. 818. <
1540 2 -5 1 10 3032. 1285. 1043. <
1541 2 -3 1 10 5525. 268. 1197. <
1542 2 -1 1 10 561. 800. 1496. <
1543 2 1 1 10 2357. 124. 1769. <
1544 2 3 1 10 3647. 1747. 1958. <
1545 2 5 1 10 6028. 238. 2444. <
1546 2 7 1 10 843. -166. 2623. <
1547 2 9 1 10 2603. -35. 3198. <
1548 2 11 1 10 1284. -111. 3458. <
1549 2 13 1 10 1707. 319. 4019. <
1550 2 15 1 10 5880. 2889. 4600. <
1551 2 17 1 10 754. -103. 5245. <
1552 2 19 1 10 3. 1990. 6726. <
1553 2 -22 2 10 3016. 476. 2774. <
1554 2 -20 2 10 7664. 5474. 2467. <
1555 2 -18 2 10 15223. 15833. 2705. o
1556 2 -16 2 10 14046. 15411. 3013. o
1557 2 -14 2 10 5318. 5029. 1794. <
1558 2 -12 2 10 7858. 7638. 1300. o
1559 2 -10 2 10 11139. 7221. 1767. o
1560 2 -8 2 10 11435. 6208. 1800. o
1561 2 -6 2 10 10146. 2558. 1736. <
1562 2 -4 2 10 17805. 2973. 1908. <
1563 2 -2 2 10 12249. 10115. 1695. o
1564 2 0 2 10 9650. 8012. 1943. o
1565 2 2 2 10 11067. 13984. 2215. o
1566 2 4 2 10 14778. 13104. 2522. o
1567 2 6 2 10 5859. 5177. 2824. <
1568 2 8 2 10 8420. 6312. 4664. <
1569 2 10 2 10 14785. 15555. 5765. <
1570 2 12 2 10 15332. 9999. 4673. <
1571 2 14 2 10 4847. 1814. 7948. <
1572 2 16 2 10 5715. 2546. 7995. <
1573 2 18 2 10 5659. 1010. 17645. <
1574 2 -19 3 10 2815. -790. 5673. <
1575 2 -17 3 10 131. -45. 2295. <
1576 2 -15 3 10 1991. 91. 2346. <
1577 2 -13 3 10 1190. -69. 2557. <
1578 2 -11 3 10 2534. -552. 4483. <
1579 2 -9 3 10 46. 3508. 4520. <
1580 2 -7 3 10 3529. -704. 6093. <
1581 2 -5 3 10 1692. 201. 2802. <
1582 2 -3 3 10 2879. -172. 3359. <
1583 2 -1 3 10 207. 1255. 2795. <
1584 2 1 3 10 1072. 576. 2975. <
1585 2 3 3 10 1948. 896. 3748. <
1586 2 5 3 10 3387. -219. 4162. <
1587 2 7 3 10 416. -128. 5044. <
1588 2 9 3 10 1184. 1110. 6350. <
1589 2 11 3 10 633. -578. 7990. <
1590 2 13 3 10 1055. -5077. 9440. <
1591 2 -8 0 11 2444. 13. 851. <
1592 2 -6 0 11 9464. 631. 1275. <
1593 2 -4 0 11 2819. -237. 1576. <
1594 2 -2 0 11 3562. -216. 1981. <
1595 2 0 0 11 2689. -621. 2473. <
1596 2 2 0 11 8579. 207. 2965. <
1597 2 4 0 11 5735. -325. 3507. <
1598 2 6 0 11 3608. 915. 3830. <
1599 2 8 0 11 594. 1234. 4365. <
1600 2 10 0 11 7090. 145. 4954. <
1601 2 14 0 11 918. 2745. 6539. <
1602 2 16 0 11 1730. -1624. 7016. <
1603 2 -13 1 11 7406. 4703. 726. o
1604 2 -11 1 11 1067. 2342. 3660. <
1605 2 -9 1 11 13705. 8339. 888. o
1606 2 -7 1 11 8946. 8535. 967. o
1607 2 -5 1 11 11250. 4297. 1182. o
1608 2 -3 1 11 1984. 2198. 1445. <
1609 2 -1 1 11 17239. 6717. 1833. o
1610 2 1 1 11 6098. 5029. 2169. <
1611 2 3 1 11 7956. 1130. 2415. <
1612 2 5 1 11 1962. 1854. 2795. <
1613 2 7 1 11 14701. 5397. 3288. <
1614 2 9 1 11 3689. 1876. 5052. <
1615 2 11 1 11 10130. 6892. 5724. <
1616 2 13 1 11 5090. 7733. 4799. <
1617 2 15 1 11 8882. 4514. 5525. <
1618 2 17 1 11 115. 1902. 11774. <
1619 2 -20 2 11 167. 1075. 2002. <
1620 2 -18 2 11 3056. -35. 2355. <
1621 2 -16 2 11 3642. 798. 2780. <
1622 2 -14 2 11 3599. -93. 2651. <
1623 2 -12 2 11 201. 801. 1113. <
1624 2 -10 2 11 4611. 143. 1701. <
1625 2 -8 2 11 1784. -106. 1938. <
1626 2 -6 2 11 6946. 0. 2190. <
1627 2 -4 2 11 1949. 390. 2606. <
1628 2 -2 2 11 2356. 168. 1850. <
1629 2 0 2 11 1869. -374. 3519. <
1630 2 2 2 11 6352. -695. 3593. <
1631 2 4 2 11 4178. 768. 3440. <
1632 2 6 2 11 2457. -348. 3317. <
1633 2 8 2 11 373. 2837. 4161. <
1634 2 10 2 11 5265. -2646. 5979. <
1635 2 12 2 11 5929. -2275. 7609. <
1636 2 -17 3 11 5878. 1944. 5545. <
1637 2 -15 3 11 3172. 4517. 2216. <
1638 2 -13 3 11 4232. 2413. 2558. <
1639 2 -11 3 11 539. 1446. 2900. <
1640 2 -7 3 11 5224. 13914. 7206. <
1641 2 -5 3 11 5821. 8441. 8294. <
1642 2 -3 3 11 992. 3531. 8290. <
1643 2 -1 3 11 9612. 8326. 8281. <
1644 2 1 3 11 3551. 8487. 8547. <
1645 2 -8 0 13 3453. -103. 1254. <
1646 2 -6 0 13 106. 1195. 1649. <
1647 2 -4 0 13 3920. -221. 2246. <
1648 2 -2 0 13 2685. 816. 2807. <
1649 2 0 0 13 6612. 333. 3563. <
1650 2 2 0 13 465. 343. 4129. <
1651 2 -11 1 13 3440. 1733. 2038. <
1652 2 -9 1 13 9216. 5566. 1097. o
1653 2 -7 1 13 5279. 6488. 1413. o
1654 2 -5 1 13 4905. 3263. 1873. <
1655 2 -16 2 13 3679. 839. 2549. <
1656 2 -14 2 13 19. 865. 2861. <
1657 2 -12 2 13 3685. -181. 3139. <
1658 2 -10 2 13 2885. 281. 2186. <
1659 2 -8 2 13 2512. -181. 4449. <
1660 2 -9 3 13 5511. 4014. 5724. <
1661 2 -7 3 13 3299. 9026. 8759. <
1662 2 -5 3 13 2618. 9293. 10837. <
1663 2 -10 0 14 10068. 878. 585. <
1664 2 -9 1 14 953. -368. 2450. <
1665 2 -14 2 14 9962. 7442. 2989. <
1666 2 -12 2 14 6480. 10059. 3458. <
1667 2 -10 2 14 7599. 3240. 2248. <
1668 2 -8 2 14 668. 1788. 4705. <
1669 2 -6 2 14 11203. 11593. 7746. <
1670 2 -4 0 6 1129. 803. 683. <
1670 1 0 0 6 1129. 803. 683. <
1671 2 6 0 -9 1524. 108. 1213. <
1671 1 0 0 -9 1524. 108. 1213. <
1672 2 -8 0 12 71992. 72236. 2027. o
1672 1 0 0 12 71992. 72236. 2027. o
1673 2 -2 2 3 55271. 46431. 1000. o
1673 1 0 -2 3 55271. 46431. 1000. o
1674 2 4 2 -6 1235. -190. 1734. <
1674 1 0 -2 -6 1235. -190. 1734. <
1675 2 -6 2 9 931. -284. 1919. <
1675 1 0 -2 9 931. -284. 1919. <
1676 2 8 2 -12 62571. 117594. 6971. o
1676 1 0 -2 -12 62571. 117594. 6971. o
1677 2 0 4 0 624027. 607672. 8444. o
1677 1 0 -4 0 624027. 607672. 8444. o
1678 2 -2 4 3 34969. 39633. 2845. o
1678 1 0 -4 3 34969. 39633. 2845. o
1679 2 4 4 -6 1103. 1755. 2722. <
1679 1 0 -4 -6 1103. 1755. 2722. <
1680 2 6 4 -9 1404. 5881. 13230. <
1680 1 0 -4 -9 1404. 5881. 13230. <
1681 2 9 1 -15 126682. 137317. 4284. o
1681 1 1 -1 -15 126682. 137317. 4284. o
1682 2 -7 1 12 1599. 4304. 2872. <
1682 1 -1 -1 12 1599. 4304. 2872. <
1683 2 -5 -1 9 16785. 17349. 1330. o
1683 1 -1 1 9 16785. 17349. 1330. o
1684 2 3 -1 -6 54279. 62512. 1074. o
1684 1 1 1 -6 54279. 62512. 1074. o
1685 2 -1 -1 3 76672. 91211. 847. o
1685 1 -1 1 3 76672. 91211. 847. o
1686 2 1 1 0 79732. 66089. 632. o
1686 1 -1 -1 0 79732. 66089. 632. o
1687 2 3 1 -3 5551. 5247. 400. o
1687 1 -1 -1 -3 5551. 5247. 400. o
1688 2 5 1 -6 3119. 5590. 674. o
1688 1 -1 -1 -6 3119. 5590. 674. o
1689 2 7 1 -9 538058. 656298. 4324. o
1689 1 -1 -1 -9 538058. 656298. 4324. o
1690 2 9 -1 -12 132427. 121449. 1789. o
1690 1 -1 1 -12 132427. 121449. 1789. o
1691 2 7 3 -12 519. 4150. 11086. <
1691 1 1 -3 -12 519. 4150. 11086. <
1692 2 5 3 -9 6637. 1457. 2361. <
1692 1 1 -3 -9 6637. 1457. 2361. <
1693 2 3 -3 -6 38541. 23282. 1601. o
1693 1 1 3 -6 38541. 23282. 1601. o
1694 2 1 3 -3 53883. 69525. 2148. o
1694 1 1 -3 -3 53883. 69525. 2148. o
1695 2 -1 3 0 44734. 23092. 1784. o
1695 1 1 -3 0 44734. 23092. 1784. o
1696 2 -3 3 3 1965. 302. 1027. <
1696 1 1 -3 3 1965. 302. 1027. <
1697 2 5 3 -6 228. 412. 1546. <
1697 1 -1 -3 -6 228. 412. 1546. <
1698 2 -7 3 9 314673. 272214. 3661. o
1698 1 1 -3 9 314673. 272214. 3661. o
1699 2 9 3 -12 93255. 118091. 9042. o
1699 1 -1 -3 -12 93255. 118091. 9042. o
1700 2 -1 5 3 38282. 52710. 4903. o
1700 1 -1 -5 3 38282. 52710. 4903. o
1701 2 -1 5 0 29163. 7995. 4528. <
1701 1 1 -5 0 29163. 7995. 4528. <
1702 2 3 5 -3 140. -1199. 5987. <
1702 1 -1 -5 -3 140. -1199. 5987. <
1703 2 6 0 -12 10097. 7564. 2089. o
1703 1 2 0 -12 10097. 7564. 2089. o
1704 2 -4 0 9 33825. 26703. 1796. o
1704 1 -2 0 9 33825. 26703. 1796. o
1705 2 2 0 -6 1529520. 1469150. 8216. o
1705 1 2 0 -6 1529520. 1469150. 8216. o
1706 2 2 0 0 1572. -331. 442. <
1706 1 -2 0 0 1572. -331. 442. <
1707 2 -6 0 6 22701. 26109. 671. o
1707 1 2 0 6 22701. 26109. 671. o
1708 2 8 0 -9 232049. 280568. 2248. o
1708 1 -2 0 -9 232049. 280568. 2248. o
1709 2 6 2 -12 8108. 5989. 8740. <
1709 1 2 -2 -12 8108. 5989. 8740. <
1710 2 4 -2 -9 30303. 22193. 1880. o
1710 1 2 2 -9 30303. 22193. 1880. o
1711 2 2 -2 -6 1026600. 1154200. 6663. o
1711 1 2 2 -6 1026600. 1154200. 6663. o
1712 2 0 2 3 55013. 47253. 989. o
1712 1 -2 -2 3 55013. 47253. 989. o
1713 2 2 2 0 570. 2340. 541. o
1713 1 -2 -2 0 570. 2340. 541. o
1714 2 4 2 -3 1069. 3275. 932. o
1714 1 -2 -2 -3 1069. 3275. 932. o
1715 2 6 -2 -6 22430. 25924. 1165. o
1715 1 -2 2 -6 22430. 25924. 1165. o
1716 2 8 -2 -9 183133. 46831. 1905. o
1716 1 -2 2 -9 183133. 46831. 1905. o
1717 2 10 2 -12 5978. 6281. 3052. <
1717 1 -2 -2 -12 5978. 6281. 3052. <
1718 2 4 4 -9 24214. 40302. 13824. <
1718 1 2 -4 -9 24214. 40302. 13824. <
1719 2 2 4 -6 437611. 437737. 4768. o
1719 1 2 -4 -6 437611. 437737. 4768. o
1720 2 0 4 -3 34946. 37317. 2382. o
1720 1 2 -4 -3 34946. 37317. 2382. o
1721 2 -2 4 0 80. 1923. 2106. <
1721 1 2 -4 0 80. 1923. 2106. <
1722 2 4 4 -3 515. 3114. 2241. <
1722 1 -2 -4 -3 515. 3114. 2241. <
1723 2 6 4 -6 22711. 31650. 2917. o
1723 1 -2 -4 -6 22711. 31650. 2917. o
1724 2 8 4 -9 103674. 173014. 14749. o
1724 1 -2 -4 -9 103674. 173014. 14749. o
1725 2 5 1 -12 33633. 23774. 2072. o
1725 1 3 -1 -12 33633. 23774. 2072. o
1726 2 3 -1 -9 121920. 148594. 2632. o
1726 1 3 1 -9 121920. 148594. 2632. o
1727 2 -1 -1 6 57321. 62630. 1203. o
1727 1 -3 1 6 57321. 62630. 1203. o
1728 2 1 1 3 5372. 4533. 464. o
1728 1 -3 -1 3 5372. 4533. 464. o
1729 2 3 1 0 5033. 4001. 435. o
1729 1 -3 -1 0 5033. 4001. 435. o
1730 2 -5 -1 3 1536670. 1052180. 8524. o
1730 1 3 1 3 1536670. 1052180. 8524. o
1731 2 7 -1 -6 304465. 324614. 1925. o
1731 1 -3 1 -6 304465. 324614. 1925. o
1732 2 -9 1 9 10190. 5633. 728. o
1732 1 3 -1 9 10190. 5633. 728. o
1733 2 11 -1 -12 2479. 1420. 2192. <
1733 1 -3 1 -12 2479. 1420. 2192. <
1734 2 5 3 -12 27842. 46043. 13594. o
1734 1 3 -3 -12 27842. 46043. 13594. o
1735 2 3 3 -9 86495. 160217. 5609. o
1735 1 3 -3 -9 86495. 160217. 5609. o
1736 2 -1 3 6 39856. 27600. 1823. o
1736 1 -3 -3 6 39856. 27600. 1823. o
1737 2 -1 3 -3 1899. 717. 1397. <
1737 1 3 -3 -3 1899. 717. 1397. <
1738 2 -3 -3 0 335. 102. 1244. <
1738 1 3 3 0 335. 102. 1244. <
1739 2 5 3 -3 694564. 779013. 8716. o
1739 1 -3 -3 -3 694564. 779013. 8716. o
1740 2 7 3 -6 178559. 194694. 2859. o
1740 1 -3 -3 -6 178559. 194694. 2859. o
1741 2 -9 3 9 9567. 1758. 2261. <
1741 1 3 -3 9 9567. 1758. 2261. <
1742 2 11 3 -12 1202. 1030. 5244. <
1742 1 -3 -3 -12 1202. 1030. 5244. <
1743 2 -1 5 -3 140. 305. 4074. <
1743 1 3 -5 -3 140. 305. 4074. <
1744 2 3 5 0 949. 831. 4505. <
1744 1 -3 -5 0 949. 831. 4505. <
1745 2 5 5 -3 254219. 314199. 9550. o
1745 1 -3 -5 -3 254219. 314199. 9550. o
1746 2 4 0 -12 418852. 593. 4170. <
1746 1 4 0 -12 418852. 593. 4170. <
1747 2 2 0 -9 34258. 27106. 1885. o
1747 1 4 0 -9 34258. 27106. 1885. o
1748 2 0 0 -6 1229. 719. 1221. <
1748 1 4 0 -6 1229. 719. 1221. <
1749 2 4 0 0 2845. 4581. 823. o
1749 1 -4 0 0 2845. 4581. 823. o
1750 2 6 2 -15 15731. 10729. 8943. <
1750 1 4 -2 -15 15731. 10729. 8943. <
1751 2 -2 2 9 30673. 24494. 1705. o
1751 1 -4 -2 9 30673. 24494. 1705. o
1752 2 0 2 6 1330. 129. 1443. <
1752 1 -4 -2 6 1330. 129. 1443. <
1753 2 -2 2 -3 1173. 3480. 757. o
1753 1 4 -2 -3 1173. 3480. 757. o
1754 2 4 2 0 5084. 6483. 702. o
1754 1 -4 -2 0 5084. 6483. 702. o
1755 2 -6 -2 3 289974. 264000. 2599. o
1755 1 4 2 3 289974. 264000. 2599. o
1756 2 -8 2 6 2650. 2237. 814. <
1756 1 4 -2 6 2650. 2237. 814. <
1757 2 10 2 -9 6860. 9758. 1611. o
1757 1 -4 -2 -9 6860. 9758. 1611. o
1758 2 -12 2 12 68125. 59933. 3493. o
1758 1 4 -2 12 68125. 59933. 3493. o
1759 2 2 4 -9 24484. 30348. 12878. <
1759 1 4 -4 -9 24484. 30348. 12878. <
1760 2 0 -4 -6 1175. -875. 3422. <
1760 1 4 4 -6 1175. -875. 3422. <
1761 2 -2 4 -3 472. 3676. 2254. <
1761 1 4 -4 -3 472. 3676. 2254. <
1762 2 -4 -4 0 11760. 16598. 2664. o
1762 1 4 4 0 11760. 16598. 2664. o
1763 2 -6 4 3 141176. 34744. 2666. o
1763 1 4 -4 3 141176. 34744. 2666. o
1764 2 -8 4 6 454. 382. 4467. <
1764 1 4 -4 6 454. 382. 4467. <
1765 2 10 4 -9 2070. 2977. 10669. <
1765 1 -4 -4 -9 2070. 2977. 10669. <
1766 2 -3 1 12 34781. 19074. 2496. o
1766 1 -5 -1 12 34781. 19074. 2496. o
1767 2 1 -1 -9 16076. 14748. 1554. o
1767 1 5 1 -9 16076. 14748. 1554. o
1768 2 -1 -1 -6 3169. 4808. 929. o
1768 1 5 1 -6 3169. 4808. 929. o
1769 2 -3 1 -3 1524420. 1167300. 7189. o
1769 1 5 -1 -3 1524420. 1167300. 7189. o
1770 2 -5 1 0 478331. 486795. 4015. o
1770 1 5 -1 0 478331. 486795. 4015. o
1771 2 7 1 -3 466. 293. 388. <
1771 1 -5 -1 -3 466. 293. 388. <
1772 2 9 1 -6 7289. 6879. 528. o
1772 1 -5 -1 -6 7289. 6879. 528. o
1773 2 -11 1 9 4457. 4208. 1066. o
1773 1 5 -1 9 4457. 4208. 1066. o
1774 2 -13 1 12 224850. 241997. 2135. o
1774 1 5 -1 12 224850. 241997. 2135. o
1775 2 3 3 -12 28637. 43368. 14242. o
1775 1 5 -3 -12 28637. 43368. 14242. o
1776 2 1 3 -9 6320. 2629. 2706. <
1776 1 5 -3 -9 6320. 2629. 2706. <
1777 2 1 3 6 242. 1145. 1864. <
1777 1 -5 -3 6 242. 1145. 1864. <
1778 2 3 3 3 690484. 762143. 5728. o
1778 1 -5 -3 3 690484. 762143. 5728. o
1779 2 5 3 0 232522. 300718. 3855. o
1779 1 -5 -3 0 232522. 300718. 3855. o
1780 2 7 3 -3 2267. -286. 2201. <
1780 1 -5 -3 -3 2267. -286. 2201. <
1781 2 9 3 -6 3003. 3126. 2633. <
1781 1 -5 -3 -6 3003. 3126. 2633. <
1782 2 -11 3 9 427. -607. 3438. <
1782 1 5 -3 9 427. -607. 3438. <
1783 2 -13 3 12 150194. 189646. 10240. o
1783 1 5 -3 12 150194. 189646. 10240. o
1784 2 -3 5 -3 253359. 226160. 6688. o
1784 1 5 -5 -3 253359. 226160. 6688. o
1785 2 -5 5 0 104513. 128192. 6873. o
1785 1 5 -5 0 104513. 128192. 6873. o
1786 2 -7 5 3 4113. 165. 10101. <
1786 1 5 -5 3 4113. 165. 10101. <
1787 2 0 0 -9 1663. 281. 1999. <
1787 1 6 0 -9 1663. 281. 1999. <
1788 2 2 0 6 22278. 28095. 1871. o
1788 1 -6 0 6 22278. 28095. 1871. o
1789 2 6 0 0 1158. 2000. 1173. <
1789 1 -6 0 0 1158. 2000. 1173. <
1790 2 8 0 -3 20136. 21130. 578. o
1790 1 -6 0 -3 20136. 21130. 578. o
1791 2 2 -2 -12 8539. 4305. 4274. <
1791 1 6 2 -12 8539. 4305. 4274. <
1792 2 0 2 9 950. 759. 1980. <
1792 1 -6 -2 9 950. 759. 1980. <
1793 2 2 2 6 22100. 25557. 1419. o
1793 1 -6 -2 6 22100. 25557. 1419. o
1794 2 -4 2 -3 297189. 286976. 2606. o
1794 1 6 -2 -3 297189. 286976. 2606. o
1795 2 -6 -2 0 381. 294. 724. <
1795 1 6 2 0 381. 294. 724. <
1796 2 8 2 -3 11716. 7310. 826. o
1796 1 -6 -2 -3 11716. 7310. 826. o
1797 2 -10 2 6 280785. 378809. 2431. o
1797 1 6 -2 6 280785. 378809. 2431. o
1798 2 -12 2 9 253141. 308986. 3318. o
1798 1 6 -2 9 253141. 308986. 3318. o
1799 2 -14 2 12 61849. 47297. 4532. o
1799 1 6 -2 12 61849. 47297. 4532. o
1800 2 0 4 -9 1274. -3283. 11530. <
1800 1 6 -4 -9 1274. -3283. 11530. <
1801 2 -2 -4 -6 22486. 30937. 3393. o
1801 1 6 4 -6 22486. 30937. 3393. o
1802 2 4 4 3 142758. 113733. 3365. o
1802 1 -6 -4 3 142758. 113733. 3365. o
1803 2 6 4 0 1389. 440. 2437. <
1803 1 -6 -4 0 1389. 440. 2437. <
1804 2 8 4 -3 3083. 2330. 3711. <
1804 1 -6 -4 -3 3083. 2330. 3711. <
1805 2 10 4 -6 133243. 142147. 6193. o
1805 1 -6 -4 -6 133243. 142147. 6193. o
1806 2 12 4 -9 137513. 193305. 11580. o
1806 1 -6 -4 -9 137513. 193305. 11580. o
1807 2 -1 1 12 1764. 4904. 2449. <
1807 1 -7 -1 12 1764. 4904. 2449. <
1808 2 -1 1 -9 527955. 604184. 5281. o
1808 1 7 -1 -9 527955. 604184. 5281. o
1809 2 3 -1 6 300075. 274330. 2853. o
1809 1 -7 1 6 300075. 274330. 2853. o
1810 2 -5 1 -3 490. 342. 632. <
1810 1 7 -1 -3 490. 342. 632. <
1811 2 -7 1 0 10868. 13282. 679. o
1811 1 7 -1 0 10868. 13282. 679. o
1812 2 -9 1 3 84957. 99488. 1465. o
1812 1 7 -1 3 84957. 99488. 1465. o
1813 2 -11 1 6 414776. 534037. 6097. o
1813 1 7 -1 6 414776. 534037. 6097. o
1814 2 -13 1 9 9076. 9941. 2446. o
1814 1 7 -1 9 9076. 9941. 2446. o
1815 2 1 3 -12 526. 5935. 13849. <
1815 1 7 -3 -12 526. 5935. 13849. <
1816 2 1 3 9 310418. 174886. 4518. o
1816 1 -7 -3 9 310418. 174886. 4518. o
1817 2 -3 -3 -6 177330. 211096. 3514. o
1817 1 7 3 -6 177330. 211096. 3514. o
1818 2 5 3 3 2313. -99. 1796. <
1818 1 -7 -3 3 2313. -99. 1796. <
1819 2 7 3 0 3914. 11816. 2155. o
1819 1 -7 -3 0 3914. 11816. 2155. o
1820 2 9 3 -3 23500. 29827. 2439. o
1820 1 -7 -3 -3 23500. 29827. 2439. o
1821 2 11 3 -6 246959. 267762. 5340. o
1821 1 -7 -3 -6 246959. 267762. 5340. o
1822 2 -13 3 9 11856. 18852. 5325. o
1822 1 7 -3 9 11856. 18852. 5325. o
1823 2 -5 5 -3 4164. 112. 5796. <
1823 1 7 -5 -3 4164. 112. 5796. <
1824 2 7 5 0 565. 8859. 4683. <
1824 1 -7 -5 0 565. 8859. 4683. <
1825 2 2 0 9 240339. 286974. 4736. o
1825 1 -8 0 9 240339. 286974. 4736. o
1826 2 -4 0 -6 5613. 5132. 2241. <
1826 1 8 0 -6 5613. 5132. 2241. <
1827 2 8 0 0 777001. 917569. 9500. o
1827 1 -8 0 0 777001. 917569. 9500. o
1828 2 10 0 -3 637690. 659322. 3786. o
1828 1 -8 0 -3 637690. 659322. 3786. o
1829 2 0 2 12 61644. 75118. 4993. o
1829 1 -8 -2 12 61644. 75118. 4993. o
1830 2 2 -2 9 188216. 213599. 3454. o
1830 1 -8 2 9 188216. 213599. 3454. o
1831 2 4 2 6 2509. 1557. 1327. <
1831 1 -8 -2 6 2509. 1557. 1327. <
1832 2 6 -2 3 11741. 9104. 1072. o
1832 1 -8 2 3 11741. 9104. 1072. o
1833 2 -8 -2 0 489241. 530089. 3360. o
1833 1 8 2 0 489241. 530089. 3360. o
1834 2 10 2 -3 442120. 467741. 5379. o
1834 1 -8 -2 -3 442120. 467741. 5379. o
1835 2 -12 2 6 61549. 54290. 1259. o
1835 1 8 -2 6 61549. 54290. 1259. o
1836 2 -14 2 9 762. 635. 1440. <
1836 1 8 -2 9 762. 635. 1440. <
1837 2 -16 2 12 14674. 16353. 2927. o
1837 1 8 -2 12 14674. 16353. 2927. o
1838 2 -2 4 -9 105385. 124841. 10012. o
1838 1 8 -4 -9 105385. 124841. 10012. o
1839 2 4 4 6 483. 1056. 3010. <
1839 1 -8 -4 6 483. 1056. 3010. <
1840 2 -6 -4 -3 3106. 270. 2498. <
1840 1 8 4 -3 3106. 270. 2498. <
1841 2 -8 4 0 202795. 178354. 3972. o
1841 1 8 -4 0 202795. 178354. 3972. o
1842 2 10 4 -3 208790. 329231. 4796. o
1842 1 -8 -4 -3 208790. 329231. 4796. o
1843 2 -12 4 6 40517. 23949. 5945. o
1843 1 8 -4 6 40517. 23949. 5945. o
1844 2 -1 1 -12 133874. 135405. 4023. o
1844 1 9 -1 -12 133874. 135405. 4023. o
1845 2 3 -1 9 10522. 5136. 2117. <
1845 1 -9 1 9 10522. 5136. 2117. <
1846 2 -5 1 -6 7866. 5483. 1746. o
1846 1 9 -1 -6 7866. 5483. 1746. o
1847 2 -7 -1 -3 86444. 72057. 1613. o
1847 1 9 1 -3 86444. 72057. 1613. o
1848 2 9 1 0 569552. 568455. 3636. o
1848 1 -9 -1 0 569552. 568455. 3636. o
1849 2 -11 1 3 40840. 38662. 835. o
1849 1 9 -1 3 40840. 38662. 835. o
1850 2 -13 1 6 2903. 3071. 840. o
1850 1 9 -1 6 2903. 3071. 840. o
1851 2 -15 1 9 32833. 26849. 814. o
1851 1 9 -1 9 32833. 26849. 814. o
1852 2 -1 3 -12 94060. 166018. 16810. o
1852 1 9 -3 -12 94060. 166018. 16810. o
1853 2 3 3 9 9842. 336. 3365. <
1853 1 -9 -3 9 9842. 336. 3365. <
1854 2 5 3 6 3248. 8467. 2354. o
1854 1 -9 -3 6 3248. 8467. 2354. o
1855 2 -7 3 -3 23791. 23197. 1868. o
1855 1 9 -3 -3 23791. 23197. 1868. o
1856 2 -9 -3 0 302151. 328192. 3942. o
1856 1 9 3 0 302151. 328192. 3942. o
1857 2 11 3 -3 31070. 46965. 2047. o
1857 1 -9 -3 -3 31070. 46965. 2047. o
1858 2 13 3 -6 2752. -30. 1739. <
1858 1 -9 -3 -6 2752. -30. 1739. <
1859 2 15 3 -9 22357. 10794. 3094. o
1859 1 -9 -3 -9 22357. 10794. 3094. o
1860 2 -5 -5 -6 649. 3767. 7048. <
1860 1 9 5 -6 649. 3767. 7048. <
1861 2 -7 5 -3 870. 913. 5356. <
1861 1 9 -5 -3 870. 913. 5356. <
1862 2 -9 5 0 131297. 116467. 7784. o
1862 1 9 -5 0 131297. 116467. 7784. o
1863 2 -4 0 -9 10819. 17120. 3282. o
1863 1 10 0 -9 10819. 17120. 3282. o
1864 2 6 0 6 381728. 360974. 6058. o
1864 1 -10 0 6 381728. 360974. 6058. o
1865 2 10 0 0 65109. 77432. 2774. o
1865 1 -10 0 0 65109. 77432. 2774. o
1866 2 -12 0 3 362. 157. 1064. <
1866 1 10 0 3 362. 157. 1064. <
1867 2 -2 -2 -12 5662. 4930. 4891. <
1867 1 10 2 -12 5662. 4930. 4891. <
1868 2 4 -2 9 7128. 8673. 2395. o
1868 1 -10 2 9 7128. 8673. 2395. o
1869 2 6 -2 6 274126. 264085. 3056. o
1869 1 -10 2 6 274126. 264085. 3056. o
1870 2 8 2 3 435227. 489349. 3794. o
1870 1 -10 -2 3 435227. 489349. 3794. o
1871 2 -10 2 0 53481. 41556. 1316. o
1871 1 10 -2 0 53481. 41556. 1316. o
1872 2 12 2 -3 456. 511. 1123. <
1872 1 -10 -2 -3 456. 511. 1123. <
1873 2 -14 2 6 122727. 135252. 1996. o
1873 1 10 -2 6 122727. 135252. 1996. o
1874 2 -16 2 9 143027. 214769. 3511. o
1874 1 10 -2 9 143027. 214769. 3511. o
1875 2 -18 2 12 48961. 31861. 2953. o
1875 1 10 -2 12 48961. 31861. 2953. o
1876 2 -6 4 -6 131320. 92406. 4237. o
1876 1 10 -4 -6 131320. 92406. 4237. o
1877 2 -8 4 -3 207166. 270636. 4570. o
1877 1 10 -4 -3 207166. 270636. 4570. o
1878 2 -10 4 0 36891. 19644. 3352. o
1878 1 10 -4 0 36891. 19644. 3352. o
1879 2 -12 4 3 967. 2705. 4372. <
1879 1 10 -4 3 967. 2705. 4372. <
1880 2 -12 -4 4 8195. 7619. 8725. <
1880 1 10 4 4 8195. 7619. 8725. <
1881 2 14 4 -6 36785. 45571. 8472. o
1881 1 -10 -4 -6 36785. 45571. 8472. o
1882 2 3 1 12 2711. 583. 3463. <
1882 1 -11 -1 12 2711. 583. 3463. <
1883 2 -5 1 -9 4735. 5161. 2490. <
1883 1 11 -1 -9 4735. 5161. 2490. <
1884 2 7 -1 6 425733. 425873. 4260. o
1884 1 -11 1 6 425733. 425873. 4260. o
1885 2 -9 1 -3 41419. 41234. 1737. o
1885 1 11 -1 -3 41419. 41234. 1737. o
1886 2 11 1 0 3662. 1465. 912. <
1886 1 -11 -1 0 3662. 1465. 912. <
1887 2 -13 -1 3 152383. 144193. 1655. o
1887 1 11 1 3 152383. 144193. 1655. o
1888 2 15 1 -6 231837. 201777. 1934. o
1888 1 -11 -1 -6 231837. 201777. 1934. o
1889 2 -5 3 -9 468. 572. 3045. <
1889 1 11 -3 -9 468. 572. 3045. <
1890 2 -7 3 -6 250664. 247011. 3612. o
1890 1 11 -3 -6 250664. 247011. 3612. o
1891 2 9 3 3 31365. 39473. 2164. o
1891 1 -11 -3 3 31365. 39473. 2164. o
1892 2 -11 3 0 3077. 647. 1878. <
1892 1 11 -3 0 3077. 647. 1878. <
1893 2 13 3 -3 81854. 82509. 2686. o
1893 1 -11 -3 -3 81854. 82509. 2686. o
1894 2 -15 3 6 146289. 149904. 2587. o
1894 1 11 -3 6 146289. 149904. 2587. o
1895 2 -17 3 9 140091. 105514. 3789. o
1895 1 11 -3 9 140091. 105514. 3789. o
1896 2 -7 -5 -6 114811. 109866. 11799. o
1896 1 11 5 -6 114811. 109866. 11799. o
1897 2 -9 5 -3 26775. 23453. 9873. <
1897 1 11 -5 -3 26775. 23453. 9873. <
1898 2 -11 5 0 2743. 663. 10227. <
1898 1 11 -5 0 2743. 663. 10227. <
1899 2 -4 0 -12 79570. 71942. 5096. o
1899 1 12 0 -12 79570. 71942. 5096. o
1900 2 6 0 9 317845. 309800. 6512. o
1900 1 -12 0 9 317845. 309800. 6512. o
1901 2 -8 0 -6 73892. 68326. 3675. o
1901 1 12 0 -6 73892. 68326. 3675. o
1902 2 12 0 0 388067. 366901. 6283. o
1902 1 -12 0 0 388067. 366901. 6283. o
1903 2 14 0 -3 263349. 250835. 2877. o
1903 1 -12 0 -3 263349. 250835. 2877. o
1904 2 -16 0 6 153075. 194024. 1950. o
1904 1 12 0 6 153075. 194024. 1950. o
1905 2 -6 2 -9 249358. 281865. 4834. o
1905 1 12 -2 -9 249358. 281865. 4834. o
1906 2 -8 -2 -6 61942. 51149. 2782. o
1906 1 12 2 -6 61942. 51149. 2782. o
1907 2 -10 -2 -3 503. 1527. 1216. <
1907 1 12 2 -3 503. 1527. 1216. <
1908 2 12 -2 0 241132. 241346. 3175. o
1908 1 -12 2 0 241132. 241346. 3175. o
1909 2 -14 2 3 200115. 225882. 3532. o
1909 1 12 -2 3 200115. 225882. 3532. o
1910 2 -16 2 6 125637. 147001. 2073. o
1910 1 12 -2 6 125637. 147001. 2073. o
1911 2 -18 2 9 4619. 4793. 2909. <
1911 1 12 -2 9 4619. 4793. 2909. <
1912 2 8 4 6 40747. 14863. 4642. o
1912 1 -12 -4 6 40747. 14863. 4642. o
1913 2 10 4 3 1025. 1630. 3337. <
1913 1 -12 -4 3 1025. 1630. 3337. <
1914 2 -12 4 0 70666. 87172. 4280. o
1914 1 12 -4 0 70666. 87172. 4280. o
1915 2 14 4 -3 106840. 98474. 5901. o
1915 1 -12 -4 -3 106840. 98474. 5901. o
1916 2 -14 -4 4 15740. 14748. 10412. <
1916 1 12 4 4 15740. 14748. 10412. <
1917 2 16 4 -6 80372. 94967. 9665. o
1917 1 -12 -4 -6 80372. 94967. 9665. o
1918 2 5 -1 12 225913. 280942. 5481. o
1918 1 -13 1 12 225913. 280942. 5481. o
1919 2 -7 -1 -9 9421. 12638. 2899. o
1919 1 13 1 -9 9421. 12638. 2899. o
1920 2 9 -1 6 2931. 4056. 2157. <
1920 1 -13 1 6 2931. 4056. 2157. <
1921 2 -11 1 -3 149680. 165804. 4086. o
1921 1 13 -1 -3 149680. 165804. 4086. o
1922 2 13 -1 0 315258. 286601. 4728. o
1922 1 -13 1 0 315258. 286601. 4728. o
1923 2 -15 -1 3 251263. 256382. 2728. o
1923 1 13 1 3 251263. 256382. 2728. o
1924 2 -17 1 6 575. 296. 1371. <
1924 1 13 -1 6 575. 296. 1371. <
1925 2 -7 3 -9 12178. 11780. 3492. o
1925 1 13 -3 -9 12178. 11780. 3492. o
1926 2 9 -3 6 2792. 1048. 3932. <
1926 1 -13 3 6 2792. 1048. 3932. <
1927 2 11 -3 3 80887. 61172. 2403. o
1927 1 -13 3 3 80887. 61172. 2403. o
1928 2 13 3 0 185641. 234253. 3437. o
1928 1 -13 -3 0 185641. 234253. 3437. o
1929 2 15 3 -3 158998. 155287. 3701. o
1929 1 -13 -3 -3 158998. 155287. 3701. o
1930 2 -15 -3 4 542. -677. 5742. <
1930 1 13 3 4 542. -677. 5742. <
1931 2 17 3 -6 2027. 1757. 3514. <
1931 1 -13 -3 -6 2027. 1757. 3514. <
1932 2 19 3 -9 49804. 36664. 4117. o
1932 1 -13 -3 -9 49804. 36664. 4117. o
1933 2 -11 5 -3 34478. 18621. 11815. <
1933 1 13 -5 -3 34478. 18621. 11815. <
1934 2 -6 0 -12 73482. 67234. 5511. o
1934 1 14 0 -12 73482. 67234. 5511. o
1935 2 8 0 9 752. -389. 4232. <
1935 1 -14 0 9 752. -389. 4232. <
1936 2 10 0 6 194943. 202016. 5407. o
1936 1 -14 0 6 194943. 202016. 5407. o
1937 2 14 0 0 249844. 224361. 5185. o
1937 1 -14 0 0 249844. 224361. 5185. o
1938 2 16 0 -3 4261. 3931. 1454. <
1938 1 -14 0 -3 4261. 3931. 1454. <
1939 2 -18 0 6 39892. 61391. 3134. o
1939 1 14 0 6 39892. 61391. 3134. o
1940 2 -8 2 -9 842. 1773. 3724. <
1940 1 14 -2 -9 842. 1773. 3724. <
1941 2 -10 -2 -6 125734. 133578. 3177. o
1941 1 14 2 -6 125734. 133578. 3177. o
1942 2 -12 -2 -3 201648. 187310. 2832. o
1942 1 14 2 -3 201648. 187310. 2832. o
1943 2 14 -2 0 190212. 227469. 3208. o
1943 1 -14 2 0 190212. 227469. 3208. o
1944 2 16 2 -3 5181. 2087. 1599. <
1944 1 -14 -2 -3 5181. 2087. 1599. <
1945 2 -18 -2 6 28465. 25210. 1860. o
1945 1 14 2 6 28465. 25210. 1860. o
1946 2 -20 2 9 20994. 12203. 4026. o
1946 1 14 -2 9 20994. 12203. 4026. o
1947 2 10 4 6 37487. 36901. 4746. o
1947 1 -14 -4 6 37487. 36901. 4746. o
1948 2 12 4 3 107175. 87722. 5346. o
1948 1 -14 -4 3 107175. 87722. 5346. o
1949 2 14 4 0 109865. 138113. 5233. o
1949 1 -14 -4 0 109865. 138113. 5233. o
1950 2 16 4 -3 7367. 2476. 5603. <
1950 1 -14 -4 -3 7367. 2476. 5603. <
1951 2 -16 -4 4 15157. 26830. 13032. <
1951 1 14 4 4 15157. 26830. 13032. <
1952 2 7 1 12 2755. 6533. 4472. <
1952 1 -15 -1 12 2755. 6533. 4472. <
1953 2 -9 -1 -9 31461. 28482. 2983. o
1953 1 15 1 -9 31461. 28482. 2983. o
1954 2 -11 -1 -6 223890. 234783. 3869. o
1954 1 15 1 -6 223890. 234783. 3869. o
1955 2 -13 1 -3 250883. 291747. 5846. o
1955 1 15 -1 -3 250883. 291747. 5846. o
1956 2 15 -1 0 149. 910. 2021. <
1956 1 -15 1 0 149. 910. 2021. <
1957 2 -17 -1 3 287398. 326716. 3626. o
1957 1 15 1 3 287398. 326716. 3626. o
1958 2 -19 1 6 22147. 25149. 1233. o
1958 1 15 -1 6 22147. 25149. 1233. o
1959 2 -9 3 -9 21541. 7195. 4137. <
1959 1 15 -3 -9 21541. 7195. 4137. <
1960 2 -11 3 -6 142938. 149978. 5714. o
1960 1 15 -3 -6 142938. 149978. 5714. o
1961 2 13 3 3 158883. 135161. 3234. o
1961 1 -15 -3 3 158883. 135161. 3234. o
1962 2 15 3 0 1639. 2355. 2302. <
1962 1 -15 -3 0 1639. 2355. 2302. <
1963 2 17 3 -3 144690. 139444. 4896. o
1963 1 -15 -3 -3 144690. 139444. 4896. o
1964 2 -19 3 6 18466. 17690. 5487. o
1964 1 15 -3 6 18466. 17690. 5487. o
1965 2 -8 0 -12 23972. 25605. 6402. o
1965 1 16 0 -12 23972. 25605. 6402. o
1966 2 -10 0 -9 177858. 194827. 6395. o
1966 1 16 0 -9 177858. 194827. 6395. o
1967 2 12 0 6 155561. 160238. 5328. o
1967 1 -16 0 6 155561. 160238. 5328. o
1968 2 16 0 0 97265. 101100. 5756. o
1968 1 -16 0 0 97265. 101100. 5756. o
1969 2 -18 0 3 41093. 36565. 2380. o
1969 1 16 0 3 41093. 36565. 2380. o
1970 2 -20 0 6 307165. 280117. 4791. o
1970 1 16 0 6 307165. 280117. 4791. o
1971 2 -10 -2 -9 143169. 165429. 4894. o
1971 1 16 2 -9 143169. 165429. 4894. o
1972 2 -12 -2 -6 127239. 140651. 4752. o
1972 1 16 2 -6 127239. 140651. 4752. o
1973 2 14 -2 3 5148. 648. 2102. <
1973 1 -16 2 3 5148. 648. 2102. <
1974 2 16 2 0 66624. 70935. 3223. o
1974 1 -16 -2 0 66624. 70935. 3223. o
1975 2 -18 2 3 34999. 37557. 2692. o
1975 1 16 -2 3 34999. 37557. 2692. o
1976 2 -20 2 6 241768. 228574. 3495. o
1976 1 16 -2 6 241768. 228574. 3495. o
1977 2 -22 2 9 20043. 11166. 4748. <
1977 1 16 -2 9 20043. 11166. 4748. <
1978 2 12 4 6 80981. 78371. 6916. o
1978 1 -16 -4 6 80981. 78371. 6916. o
1979 2 -14 4 -3 7357. 1024. 4267. <
1979 1 16 -4 -3 7357. 1024. 4267. <
1980 2 16 4 0 26217. 17938. 5008. o
1980 1 -16 -4 0 26217. 17938. 5008. o
1981 2 9 1 12 106850. 91579. 6268. o
1981 1 -17 -1 12 106850. 91579. 6268. o
1982 2 11 1 9 211956. 215200. 4656. o
1982 1 -17 -1 9 211956. 215200. 4656. o
1983 2 13 1 6 633. 1592. 3085. <
1983 1 -17 -1 6 633. 1592. 3085. <
1984 2 -15 1 -3 291088. 314150. 5722. o
1984 1 17 -1 -3 291088. 314150. 5722. o
1985 2 17 1 0 21807. 22978. 2369. o
1985 1 -17 -1 0 21807. 22978. 2369. o
1986 2 -19 -1 3 263938. 290390. 3669. o
1986 1 17 1 3 263938. 290390. 3669. o
1987 2 21 1 -6 39695. 46528. 1698. o
1987 1 -17 -1 -6 39695. 46528. 1698. o
1988 2 11 -3 9 140165. 77100. 7963. o
1988 1 -17 3 9 140165. 77100. 7963. o
1989 2 13 -3 6 2140. 3947. 6676. <
1989 1 -17 3 6 2140. 3947. 6676. <
1990 2 -15 3 -3 146043. 148502. 4278. o
1990 1 17 -3 -3 146043. 148502. 4278. o
1991 2 17 3 0 18335. 11013. 4779. <
1991 1 -17 -3 0 18335. 11013. 4779. <
1992 2 19 3 -3 173944. 198608. 5843. o
1992 1 -17 -3 -3 173944. 198608. 5843. o
1993 2 -21 -3 6 33846. 20674. 5085. o
1993 1 17 3 6 33846. 20674. 5085. o
1994 2 -10 0 -12 55208. 51645. 7739. o
1994 1 18 0 -12 55208. 51645. 7739. o
1995 2 12 0 9 3810. 6100. 4432. <
1995 1 -18 0 9 3810. 6100. 4432. <
1996 2 14 0 6 38826. 41140. 4575. o
1996 1 -18 0 6 38826. 41140. 4575. o
1997 2 18 0 0 335220. 347851. 7219. o
1997 1 -18 0 0 335220. 347851. 7219. o
1998 2 20 0 -3 23771. 26725. 2270. o
1998 1 -18 0 -3 23771. 26725. 2270. o
1999 2 -22 0 6 129535. 113937. 3094. o
1999 1 18 0 6 129535. 113937. 3094. o
2000 2 12 -2 9 4694. 2361. 4775. <
2000 1 -18 2 9 4694. 2361. 4775. <
2001 2 -14 -2 -6 27749. 25473. 4845. o
2001 1 18 2 -6 27749. 25473. 4845. o
2002 2 -16 -2 -3 34147. 30429. 3075. o
2002 1 18 2 -3 34147. 30429. 3075. o
2003 2 -18 2 0 260956. 301769. 5259. o
2003 1 18 -2 0 260956. 301769. 5259. o
2004 2 -20 2 3 23463. 33057. 2829. o
2004 1 18 -2 3 23463. 33057. 2829. o
2005 2 -22 2 6 100481. 84346. 3321. o
2005 1 18 -2 6 100481. 84346. 3321. o
2006 2 -24 2 9 1403. 1131. 4893. <
2006 1 18 -2 9 1403. 1131. 4893. <
2007 2 -14 4 -6 11680. 5422. 7195. <
2007 1 18 -4 -6 11680. 5422. 7195. <
2008 2 -16 4 -3 23727. 24317. 6263. o
2008 1 18 -4 -3 23727. 24317. 6263. o
2009 2 -18 4 0 136135. 130176. 16495. o
2009 1 18 -4 0 136135. 130176. 16495. o
2010 2 13 1 9 94512. 95977. 4480. o
2010 1 -19 -1 9 94512. 95977. 4480. o
2011 2 15 1 6 22125. 25531. 3197. o
2011 1 -19 -1 6 22125. 25531. 3197. o
2012 2 17 -1 3 265431. 281046. 5900. o
2012 1 -19 1 3 265431. 281046. 5900. o
2013 2 19 1 0 47592. 41229. 2737. o
2013 1 -19 -1 0 47592. 41229. 2737. o
2014 2 -21 -1 3 71058. 75286. 2446. o
2014 1 19 1 3 71058. 75286. 2446. o
2015 2 23 1 -6 2519. 1394. 2028. <
2015 1 -19 -1 -6 2519. 1394. 2028. <
2016 2 -13 3 -9 50946. 49342. 12382. o
2016 1 19 -3 -9 50946. 49342. 12382. o
2017 2 15 -3 6 18407. 9908. 6405. <
2017 1 -19 3 6 18407. 9908. 6405. <
2018 2 -17 3 -3 174509. 193555. 4985. o
2018 1 19 -3 -3 174509. 193555. 4985. o
2019 2 -19 3 0 39480. 25669. 4590. o
2019 1 19 -3 0 39480. 25669. 4590. o
2020 2 -21 3 3 32000. 35958. 5309. o
2020 1 19 -3 3 32000. 35958. 5309. o
2021 2 -23 -3 6 884. -934. 6821. <
2021 1 19 3 6 884. -934. 6821. <
2022 2 14 0 9 21975. 15988. 5207. o
2022 1 -20 0 9 21975. 15988. 5207. o
2023 2 16 0 6 304285. 340561. 6725. o
2023 1 -20 0 6 304285. 340561. 6725. o
2024 2 -20 0 0 226229. 244536. 4832. o
2024 1 20 0 0 226229. 244536. 4832. o
2025 2 22 0 -3 9338. 5999. 3114. <
2025 1 -20 0 -3 9338. 5999. 3114. <
2026 2 -24 0 6 100634. 82982. 3402. o
2026 1 20 0 6 100634. 82982. 3402. o
2027 2 -14 -2 -9 19986. 15278. 5960. <
2027 1 20 2 -9 19986. 15278. 5960. <
2028 2 -16 -2 -6 239847. 237340. 6606. o
2028 1 20 2 -6 239847. 237340. 6606. o
2029 2 -18 2 -3 23718. 30089. 3970. o
2029 1 20 -2 -3 23718. 30089. 3970. o
2030 2 -20 2 0 170394. 165136. 4704. o
2030 1 20 -2 0 170394. 165136. 4704. o
2031 2 -22 -2 3 5610. 7274. 4707. <
2031 1 20 2 3 5610. 7274. 4707. <
2032 2 24 2 -6 85375. 58348. 4522. o
2032 1 -20 -2 -6 85375. 58348. 4522. o
2033 2 -16 4 -6 128953. 118332. 16851. o
2033 1 20 -4 -6 128953. 118332. 16851. o
2034 2 15 1 9 134362. 127841. 5494. o
2034 1 -21 -1 9 134362. 127841. 5494. o
2035 2 17 1 6 39500. 41491. 3589. o
2035 1 -21 -1 6 39500. 41491. 3589. o
2036 2 19 1 3 70562. 80659. 4061. o
2036 1 -21 -1 3 70562. 80659. 4061. o
2037 2 21 1 0 1389. 3290. 3515. <
2037 1 -21 -1 0 1389. 3290. 3515. <
2038 2 -23 -1 3 146911. 144435. 3106. o
2038 1 21 1 3 146911. 144435. 3106. o
2039 2 25 1 -6 84907. 62184. 2564. o
2039 1 -21 -1 -6 84907. 62184. 2564. o
2040 2 17 -3 6 33744. 19483. 6306. o
2040 1 -21 3 6 33744. 19483. 6306. o
2041 2 19 -3 3 31787. 27130. 5305. o
2041 1 -21 3 3 31787. 27130. 5305. o
2042 2 21 3 0 196. -1259. 13191. <
2042 1 -21 -3 0 196. -1259. 13191. <
2043 2 -23 -3 3 95932. 82398. 13110. o
2043 1 21 3 3 95932. 82398. 13110. o
2044 2 -16 0 -9 20585. 12995. 6472. <
2044 1 22 0 -9 20585. 12995. 6472. <
2045 2 18 0 6 130967. 129353. 5586. o
2045 1 -22 0 6 130967. 129353. 5586. o
2046 2 22 0 0 147746. 125223. 4316. o
2046 1 -22 0 0 147746. 125223. 4316. o
2047 2 24 0 -3 143433. 125678. 4043. o
2047 1 -22 0 -3 143433. 125678. 4043. o
2048 2 -26 0 6 30328. 19269. 3237. o
2048 1 22 0 6 30328. 19269. 3237. o
2049 2 -16 -2 -9 20307. 12081. 8457. <
2049 1 22 2 -9 20307. 12081. 8457. <
2050 2 -18 -2 -6 101520. 96668. 5449. o
2050 1 22 2 -6 101520. 96668. 5449. o
2051 2 -20 -2 -3 5622. 7383. 4994. <
2051 1 22 2 -3 5622. 7383. 4994. <
2052 2 -22 2 0 122072. 118823. 4710. o
2052 1 22 -2 0 122072. 118823. 4710. o
2053 2 24 2 -3 120223. 103334. 5026. o
2053 1 -22 -2 -3 120223. 103334. 5026. o
2054 2 -26 2 6 18630. 16268. 8818. <
2054 1 22 -2 6 18630. 16268. 8818. <
2055 2 17 1 9 11631. 8725. 5350. <
2055 1 -23 -1 9 11631. 8725. 5350. <
2056 2 -19 1 -6 2779. 3386. 4157. <
2056 1 23 -1 -6 2779. 3386. 4157. <
2057 2 21 -1 3 145488. 153722. 4622. o
2057 1 -23 1 3 145488. 153722. 4622. o
2058 2 -23 -1 0 98071. 108380. 4508. o
2058 1 23 1 0 98071. 108380. 4508. o
2059 2 -25 -1 3 139365. 138382. 3622. o
2059 1 23 1 3 139365. 138382. 3622. o
2060 2 -27 1 6 17377. 8818. 2745. o
2060 1 23 -1 6 17377. 8818. 2745. o
2061 2 -19 3 -6 970. -1500. 13010. <
2061 1 23 -3 -6 970. -1500. 13010. <
2062 2 -21 3 -3 95209. 98696. 14886. o
2062 1 23 -3 -3 95209. 98696. 14886. o
2063 2 18 0 9 2612. 816. 8308. <
2063 1 -24 0 9 2612. 816. 8308. <
2064 2 20 0 6 100733. 85621. 6174. o
2064 1 -24 0 6 100733. 85621. 6174. o
2065 2 -24 0 0 68978. 61205. 4938. o
2065 1 24 0 0 68978. 61205. 4938. o
2066 2 -26 0 3 10110. 6916. 3811. <
2066 1 24 0 3 10110. 6916. 3811. <
2067 2 -28 0 6 21385. 12075. 4474. <
2067 1 24 0 6 21385. 12075. 4474. <
2068 2 18 2 9 1485. 3056. 8631. <
2068 1 -24 -2 9 1485. 3056. 8631. <
2069 2 -20 -2 -6 85380. 84492. 6966. o
2069 1 24 2 -6 85380. 84492. 6966. o
2070 2 22 -2 3 119748. 112696. 9774. o
2070 1 -24 2 3 119748. 112696. 9774. o
2071 2 -24 -2 0 44261. 46077. 6289. o
2071 1 24 2 0 44261. 46077. 6289. o
2072 2 26 2 -3 7710. 7579. 5425. <
2072 1 -24 -2 -3 7710. 7579. 5425. <
2073 2 19 -1 9 131788. 114277. 6561. o
2073 1 -25 1 9 131788. 114277. 6561. o
2074 2 21 -1 6 85665. 80679. 5354. o
2074 1 -25 1 6 85665. 80679. 5354. o
2075 2 23 -1 3 139601. 146816. 5098. o
2075 1 -25 1 3 139601. 146816. 5098. o
2076 2 -25 -1 0 25726. 17751. 3638. o
2076 1 25 1 0 25726. 17751. 3638. o
2077 2 -27 -1 3 14719. 8795. 3535. <
2077 1 25 1 3 14719. 8795. 3535. <
2078 2 -20 0 -9 97366. 94229. 9437. o
2078 1 26 0 -9 97366. 94229. 9437. o
2079 2 -22 0 -6 30158. 25819. 7642. o
2079 1 26 0 -6 30158. 25819. 7642. o
2080 2 24 0 3 10460. 10547. 8425. <
2080 1 -26 0 3 10460. 10547. 8425. <
2081 2 -26 0 0 15503. 15307. 4837. o
2081 1 26 0 0 15503. 15307. 4837. o
2082 2 -28 0 3 115596. 86778. 4954. o
2082 1 26 0 3 115596. 86778. 4954. o
2083 2 -22 2 -6 18511. 14271. 16886. <
2083 1 26 -2 -6 18511. 14271. 16886. <
2084 2 -23 -1 -6 17421. 9771. 12695. <
2084 1 27 1 -6 17421. 9771. 12695. <
2085 2 -25 -1 -3 14664. 3265. 6916. <
2085 1 27 1 -3 14664. 3265. 6916. <
