#------------------------------------------------------------------------------
#$Date: 2020-06-17 01:23:57 +0300 (Wed, 17 Jun 2020) $
#$Revision: 253179 $
#$URL: file:///home/coder/svn-repositories/cod/cif/4/00/35/4003578.cif $
#------------------------------------------------------------------------------
#
# This file is available in the Crystallography Open Database (COD),
# http://www.crystallography.net/
#
# All data on this site have been placed in the public domain by the
# contributors.
#
data_4003578
loop_
_publ_author_name
'Adhikary, Amit'
'Yaghoobnejad Asl, Hooman'
'Sandineni, Prashanth'
'Balijapelly, Srikanth'
'Mohapatra, Sudip'
'Khatua, Sajal'
'Konar, Sanjit'
'Gerasimchuk, Nikolay'
'Chernatynskiy, Aleksandr V.'
'Choudhury, Amitava'
_publ_section_title
;
 Unusual Atmospheric Water Trapping and Water Induced Reversible
 Restacking of 2D Gallium Sulfide Layers in NaGaS2 Formed by
 Supertetrahedral Building Unit
;
_journal_name_full               'Chemistry of Materials'
_journal_paper_doi               10.1021/acs.chemmater.0c00836
_journal_year                    2020
_chemical_formula_sum            'Ga Na S2'
_chemical_formula_weight         156.83
_space_group_crystal_system      monoclinic
_space_group_IT_number           15
_space_group_name_Hall           '-C 2yc'
_space_group_name_H-M_alt        'C 1 2/c 1'
_audit_creation_method           SHELXL-2014/7
_cell_angle_alpha                90
_cell_angle_beta                 100.926(4)
_cell_angle_gamma                90
_cell_formula_units_Z            16
_cell_length_a                   10.226(3)
_cell_length_b                   10.227(3)
_cell_length_c                   13.506(5)
_cell_measurement_reflns_used    3109
_cell_measurement_temperature    240(2)
_cell_measurement_theta_max      27.82
_cell_measurement_theta_min      2.84
_cell_volume                     1386.9(8)
_computing_cell_refinement       'Bruker SAINT V7.60A (Bruker, 2008)'
_computing_data_collection       'Bruker SMART V5.631 (Bruker, 2002)'
_computing_data_reduction        'Bruker SAINT V7.60A (Bruker, 2008)'
_computing_molecular_graphics    'SHELXTL (Sheldrick, 2008)'
_computing_publication_material  'SHELXTL (Sheldrick, 2008)'
_computing_structure_refinement  'SHELXL-2014 (Sheldrick, 2014)'
_computing_structure_solution    'SHELXS-97 (Sheldrick, 2008)'
_diffrn_ambient_temperature      240(2)
_diffrn_measured_fraction_theta_full 1.000
_diffrn_measured_fraction_theta_max 0.944
_diffrn_measurement_device_type  'Bruker Smart-Apex CCD area detector'
_diffrn_measurement_method       '\w scans'
_diffrn_radiation_type           MoK\a
_diffrn_radiation_wavelength     0.71073
_diffrn_reflns_av_R_equivalents  0.0547
_diffrn_reflns_av_unetI/netI     0.0470
_diffrn_reflns_Laue_measured_fraction_full 1.000
_diffrn_reflns_Laue_measured_fraction_max 0.944
_diffrn_reflns_limit_h_max       13
_diffrn_reflns_limit_h_min       -13
_diffrn_reflns_limit_k_max       13
_diffrn_reflns_limit_k_min       -13
_diffrn_reflns_limit_l_max       17
_diffrn_reflns_limit_l_min       -17
_diffrn_reflns_number            7481
_diffrn_reflns_point_group_measured_fraction_full 1.000
_diffrn_reflns_point_group_measured_fraction_max 0.944
_diffrn_reflns_theta_full        25.242
_diffrn_reflns_theta_max         28.238
_diffrn_reflns_theta_min         2.843
_exptl_absorpt_coefficient_mu    8.976
_exptl_absorpt_correction_T_max  0.7457
_exptl_absorpt_correction_T_min  0.3680
_exptl_absorpt_correction_type   multi-scan
_exptl_absorpt_process_details   '(SADABS; Bruker, 2008)'
_exptl_crystal_colour            brownish
_exptl_crystal_density_diffrn    3.004
_exptl_crystal_density_meas      ?
_exptl_crystal_density_method    none
_exptl_crystal_description       plate
_exptl_crystal_F_000             1184
_exptl_crystal_size_max          0.200
_exptl_crystal_size_mid          0.150
_exptl_crystal_size_min          0.040
_refine_diff_density_max         1.346
_refine_diff_density_min         -0.990
_refine_diff_density_rms         0.206
_refine_ls_extinction_method     none
_refine_ls_goodness_of_fit_ref   1.130
_refine_ls_hydrogen_treatment    undef
_refine_ls_matrix_type           full
_refine_ls_number_parameters     74
_refine_ls_number_reflns         1624
_refine_ls_number_restraints     0
_refine_ls_restrained_S_all      1.130
_refine_ls_R_factor_all          0.0456
_refine_ls_R_factor_gt           0.0379
_refine_ls_shift/su_max          0.000
_refine_ls_shift/su_mean         0.000
_refine_ls_structure_factor_coef Fsqd
_refine_ls_weighting_details
'w=1/[\s^2^(Fo^2^)+(0.0423P)^2^+4.3234P] where P=(Fo^2^+2Fc^2^)/3'
_refine_ls_weighting_scheme      calc
_refine_ls_wR_factor_gt          0.0993
_refine_ls_wR_factor_ref         0.1049
_reflns_Friedel_coverage         0.000
_reflns_number_gt                1322
_reflns_number_total             1624
_reflns_threshold_expression     'I > 2\s(I)'
_cod_data_source_file            cm0c00836_si_002.cif
_cod_data_source_block           sad
_cod_depositor_comments
;
The following automatic conversions were performed:

data item '_exptl_crystal_density_meas' value 'none' was changed to
'?' -- the value is perceived as not measured.

Automatic conversion script
Id: cif_fix_values 7556 2019-12-06 15:28:31Z antanas 
;
_cod_original_sg_symbol_H-M      'C 2/c'
_cod_database_code               4003578
_shelx_shelxl_version_number     2014/7
_shelx_space_group_comment
;
The symmetry employed for this shelxl refinement is uniquely defined
by the following loop, which should always be used as a source of
symmetry information in preference to the above space-group names.
They are only intended as comments.
;
_shelx_estimated_absorpt_t_min   0.267
_shelx_estimated_absorpt_t_max   0.715
_shelx_res_file
;

    sad.res created by SHELXL-2014/7


TITL sad in C2/c
CELL 0.71073  10.2261  10.2271  13.5057  90.000 100.926  90.000
ZERR   16.00   0.0034   0.0034   0.0045   0.000   0.004   0.000
LATT  7
SYMM -X, Y, 0.5-Z
SFAC Na S  Ga
UNIT 16  32  16
LIST 6 ! automatically inserted. Change 6 to 4 for CHECKCIF!!
TEMP -33
SIZE 0.04 0.15 0.20
L.S. 20
BOND
ACTA
FMAP 2
PLAN 5
WGHT    0.042300    4.323400
FVAR       0.04428
GA1   3    0.099169    0.188771    0.151820    11.00000    0.01047    0.01210 =
         0.01272   -0.00070    0.00250    0.00153
GA2   3    0.148260    0.436112    0.348638    11.00000    0.00976    0.01225 =
         0.01274   -0.00094    0.00124   -0.00192
S1    2    0.050577    0.312323    0.452594    11.00000    0.04241    0.04838 =
         0.01058    0.00000    0.00127   -0.03512
S2    2    0.000000    0.054904    0.250000    10.50000    0.01793    0.01178 =
         0.02307    0.00000    0.01060    0.00000
S3    2    0.200155    0.062853    0.050105    11.00000    0.03345    0.03623 =
         0.00922   -0.00049    0.00140    0.02659
S4    2    0.257283    0.312310    0.250239    11.00000    0.01017    0.01706 =
         0.02344   -0.00608    0.00425   -0.00087
S5    2    0.000000    0.569345    0.250000    10.50000    0.01263    0.01215 =
         0.02204    0.00000   -0.00253    0.00000
NA1   1    0.282121    0.061483    0.378260    11.00000    0.05292    0.05957 =
         0.01777    0.00045    0.00248   -0.03806
NA2   1    0.465821    0.311922    0.118911    11.00000    0.05982    0.06260 =
         0.01994    0.00225    0.00372    0.04451

HKLF 4

REM  sad in C2/c
REM R1 =  0.0379 for    1322 Fo > 4sig(Fo)  and  0.0456 for all    1624 data
REM     74 parameters refined using      0 restraints

END

WGHT      0.0424      4.3517

REM Highest difference peak  1.346,  deepest hole -0.990,  1-sigma level  0.206
Q1    1   0.4002  0.1861  0.3517  11.00000  0.05    1.31
Q2    1   0.4480  0.3107  0.0422  11.00000  0.05    1.24
Q3    1   0.1509 -0.0593  0.3516  11.00000  0.05    1.15
Q4    1   0.3110  0.0658  0.4577  11.00000  0.05    0.97
Q5    1   0.0343  0.3406  0.4557  11.00000  0.05    0.88
;
_shelx_res_checksum              54388
_shelx_hkl_file
;
   2   0   0    0.06    0.02
  -2   0   0    0.05    0.02
  -2   0   0    0.06    0.07
  -4   0   0    1.34    0.15
   4   0   0    1.18    0.12
  -4   0   0    1.22    0.29
  -6   0   0    0.02    0.12
  -6   0   0    0.26    0.08
   6   0   0    0.19    0.05
  -8   0   0   31.34    2.42
   8   0   0   29.89    2.29
  -8   0   0   21.68    3.45
 -10   0   0    0.03    0.07
  10   0   0   -0.12    0.17
  10   0   0    0.00    0.07
  12   0   0    6.07    0.95
   1  -1   0    4.86    0.42
  -1  -1   0    4.47    0.42
  -1  -1   0    4.61    0.43
  -1   1   0    5.22    0.41
   1   1   0    5.99    0.59
  -3  -1   0   24.52    2.26
  -3  -1   0   29.21    2.23
   3  -1   0   27.81    2.22
   3  -1   0   24.26    2.16
  -3   1   0   21.99    3.17
   3   1   0   27.08    2.16
   3   1   0   29.59    3.12
  -3   1   0   29.88    2.26
   5  -1   0    0.72    0.09
  -5  -1   0    0.81    0.09
  -5  -1   0    0.70    0.11
   5   1   0    0.61    0.17
  -5   1   0    0.55    0.10
   5   1   0    0.44    0.07
  -5   1   0    0.48    0.23
   7  -1   0   44.39    3.57
  -7  -1   0   47.81    3.75
   7   1   0   47.11    3.57
  -7   1   0   35.63    5.27
   7   1   0   44.07    5.18
  -7   1   0   46.69    3.74
  -9  -1   0   17.07    1.57
   9  -1   0   20.26    1.49
  -9   1   0   18.54    1.57
   9   1   0   19.79    1.48
  -9   1   0   14.90    2.34
   9   1   0   15.35    2.17
 -11  -1   0   16.95    1.47
  11  -1   0   20.49    1.39
 -11   1   0   17.14    1.47
 -11   1   0   13.50    2.26
  11   1   0   12.39    2.01
 -13   1   0    7.31    0.74
   0  -2   0    0.15    0.03
   0  -2   0    0.05    0.02
   0   2   0    0.25    0.07
   0   2   0    0.11    0.02
  -2  -2   0   42.42    3.59
   2  -2   0   42.47    3.45
  -2  -2   0   39.46    3.55
   2  -2   0   42.31    3.55
  -2   2   0   44.64    3.58
   2   2   0   49.98    4.95
   4  -2   0    0.08    0.03
  -4  -2   0    0.03    0.03
   4  -2   0    0.04    0.03
  -4  -2   0    0.03    0.03
   4   2   0    0.03    0.07
  -4   2   0    0.04    0.04
   4   2   0    0.06    0.03
  -4   2   0    0.33    0.20
   6  -2   0  169.02   13.57
  -6  -2   0  167.95   14.15
  -6  -2   0  167.67   13.99
  -6   2   0  182.85   14.14
   6   2   0  167.72   19.47
   6   2   0  174.46   13.57
  -8  -2   0    0.14    0.08
   8  -2   0    0.27    0.08
  -8   2   0    0.26    0.09
   8   2   0    0.22    0.16
  -8   2   0    0.26    0.20
   8   2   0    0.26    0.07
 -10  -2   0    2.01    0.30
  10  -2   0    2.89    0.28
 -10   2   0    2.73    0.32
  10   2   0    2.25    0.48
 -10   2   0    1.59    0.60
  12  -2   0    0.49    0.16
 -12  -2   0    0.38    0.14
  12   2   0    0.22    0.24
 -12   2   0    0.36    0.13
 -12   2   0    0.16    0.43
   1  -3   0   51.04    4.23
  -1  -3   0   51.36    4.26
  -1  -3   0   52.80    4.23
  -1   3   0   46.95    5.93
   1   3   0   53.93    4.09
  -1   3   0   51.75    4.10
   1   3   0   52.87    5.87
   3  -3   0   32.38    2.71
  -3  -3   0   28.55    2.83
   3  -3   0   32.63    2.79
   3   3   0   36.38    3.90
  -3   3   0   36.16    2.82
   3   3   0   37.49    2.71
  -5  -3   0   35.13    3.02
  -5  -3   0   37.92    2.98
   5  -3   0   33.50    2.88
   5  -3   0   33.28    2.96
  -5   3   0   40.53    3.01
   5   3   0   35.28    2.90
   5   3   0   37.68    4.16
  -7  -3   0    0.10    0.08
   7  -3   0    0.35    0.08
  -7   3   0    0.18    0.08
  -7   3   0    0.45    0.29
   7   3   0    0.34    0.16
  -9  -3   0   19.40    1.75
   9  -3   0   21.16    1.65
   9   3   0   19.12    2.42
  -9   3   0   20.43    1.74
 -11  -3   0    1.11    0.22
  11  -3   0    1.36    0.21
 -11   3   0    1.48    0.23
 -11   3   0    1.06    0.48
  11   3   0    1.23    0.38
   0  -4   0   -0.57    0.04
   0  -4   0   -0.50    0.03
   0   4   0   -0.10    0.14
   0   4   0   -0.62    0.03
  -2  -4   0    0.04    0.04
  -2  -4   0    0.04    0.03
   2  -4   0    0.03    0.04
  -2   4   0    0.06    0.04
   2   4   0    0.14    0.08
  -2   4   0    0.19    0.22
   2   4   0    0.03    0.02
   4  -4   0    2.71    0.27
  -4  -4   0    2.99    0.28
   4  -4   0    2.47    0.27
  -4  -4   0    3.06    0.29
  -6  -4   0    0.24    0.09
  -6  -4   0    0.29    0.08
   6  -4   0    0.35    0.08
   6   4   0    0.29    0.15
  -6   4   0    0.17    0.07
  -6   4   0   -0.01    0.22
  -8  -4   0    1.86    0.24
   8  -4   0    1.46    0.19
  -8   4   0    2.31    0.23
  -8   4   0    1.46    0.57
   8   4   0    0.86    0.29
  10  -4   0    0.09    0.09
 -10  -4   0    0.11    0.10
 -10   4   0   -0.05    0.24
  10   4   0    0.20    0.19
 -12  -4   0    0.00    0.17
  12  -4   0    0.25    0.16
 -12   4   0   -0.16    0.51
  12   4   0    0.21    0.23
  -1  -5   0   63.65    5.04
  -1  -5   0   63.20    5.07
   1  -5   0   61.95    5.04
   1   5   0   62.94    7.01
   1   5   0   61.84    4.87
  -1   5   0   60.40    4.88
  -1   5   0   55.28    7.06
   3  -5   0   17.31    1.42
  -3  -5   0   16.44    1.43
   3  -5   0   16.74    1.37
  -3  -5   0   16.19    1.42
  -3   5   0   12.20    2.16
   3   5   0   18.95    1.99
   3   5   0   17.07    1.35
   5  -5   0   22.55    1.99
  -5  -5   0   23.58    2.03
   5  -5   0   24.40    1.94
  -5  -5   0   23.50    2.00
  -5   5   0   27.00    2.01
  -5   5   0   19.84    3.04
   5   5   0   24.40    2.81
   7  -5   0    3.26    0.33
  -7  -5   0    3.25    0.34
  -7  -5   0    3.55    0.37
  -7   5   0    2.76    0.81
   7   5   0    3.68    0.52
  -9  -5   0   12.83    1.13
   9  -5   0   14.16    1.06
  -9   5   0    8.85    1.81
   9   5   0   11.33    1.55
 -11  -5   0    3.16    0.43
  11  -5   0    3.62    0.38
  11   5   0    2.80    0.58
 -11   5   0    2.89    0.99
   0  -6   0    0.34    0.09
   0   6   0    0.39    0.08
   0   6   0    0.50    0.19
   0   6   0    0.38    0.05
  -2  -6   0   15.27    1.42
   2  -6   0   14.59    1.42
  -2  -6   0   18.60    1.43
  -2   6   0   16.89    1.38
   2   6   0   17.48    1.99
  -2   6   0   16.32    2.15
   2   6   0   18.00    1.36
   4  -6   0    0.28    0.07
  -4  -6   0    0.40    0.09
   4  -6   0    0.22    0.08
  -4  -6   0    0.32    0.08
   4   6   0    0.21    0.15
  -4   6   0    0.42    0.35
   6  -6   0   69.90    5.41
  -6  -6   0   69.38    5.59
  -6  -6   0   71.41    5.66
   6   6   0   65.37    7.77
  -6   6   0   59.49    8.08
  -8  -6   0    0.05    0.08
   8  -6   0    0.24    0.09
   8   6   0    0.39    0.20
  -8   6   0    0.46    0.41
 -10  -6   0    3.58    0.44
  10  -6   0    3.75    0.38
 -10   6   0    4.52    1.10
  10   6   0    2.35    0.56
  -1  -7   0    2.36    0.26
   1  -7   0    2.37    0.25
  -1   7   0    2.10    0.23
   1   7   0    1.97    0.22
   1   7   0    2.74    0.41
  -1   7   0    2.67    0.50
   3  -7   0   10.95    0.87
  -3  -7   0   10.45    0.91
  -3  -7   0   12.22    0.92
   3  -7   0   10.82    0.91
  -3   7   0    6.90    1.51
   3   7   0    8.42    1.27
   5  -7   0    0.54    0.12
   5  -7   0    0.51    0.10
  -5  -7   0    0.43    0.11
  -5  -7   0    0.63    0.14
  -5   7   0    1.38    0.64
   5   7   0    0.57    0.23
   7  -7   0   31.94    2.54
  -7  -7   0   34.53    2.68
  -7  -7   0   31.07    2.63
   7   7   0   27.56    3.66
  -7   7   0   32.20    4.10
  -9  -7   0   12.22    1.08
   9  -7   0   11.42    0.99
  -9   7   0   12.74    2.01
   9   7   0   10.38    1.46
   0  -8   0  478.16   36.47
   0   8   0  472.80   35.35
   0   8   0  390.90   50.67
  -2  -8   0   -0.03    0.05
   2  -8   0    0.01    0.06
   2  -8   0   -0.03    0.05
   2   8   0    0.06    0.14
  -2   8   0   -0.01    0.25
   4  -8   0    5.44    0.48
   4  -8   0    6.15    0.51
  -4  -8   0    5.08    0.51
  -4   8   0    3.70    1.06
   4   8   0    4.63    0.73
  -6  -8   0    0.15    0.10
   6  -8   0    0.11    0.08
  -6  -8   0    0.23    0.11
   6   8   0    0.08    0.19
  -6   8   0    0.41    0.56
   8  -8   0   15.61    1.26
  -8  -8   0   16.82    1.35
  -8   8   0   13.77    2.34
   8   8   0   12.28    1.83
 -10  -8   0   -0.05    0.17
  -1  -9   0    1.11    0.19
   1  -9   0    1.11    0.19
  -1   9   0    0.90    0.15
   1   9   0    1.15    0.31
  -1   9   0    1.53    0.43
   3  -9   0    8.15    0.69
   3  -9   0    9.06    0.73
  -3   9   0    4.95    1.29
   3   9   0    7.05    1.04
   5  -9   0    0.23    0.09
  -5  -9   0    0.18    0.11
   5  -9   0    0.35    0.11
   5   9   0    0.94    0.29
  -5   9   0    0.84    0.53
   7  -9   0   16.36    1.29
  -7  -9   0   16.15    1.36
  -7   9   0   14.92    2.51
   7   9   0   13.06    1.89
  -9  -9   0    5.95    0.63
   9  -9   0    5.33    0.53
  -9   9   0    6.01    1.43
   9   9   0    5.40    0.89
   0 -10   0    0.21    0.10
   0  10   0    0.01    0.22
   2 -10   0    0.71    0.13
  -2 -10   0    0.71    0.16
   2 -10   0    0.61    0.16
   2  10   0    0.91    0.28
  -2  10   0    1.50    0.53
   4 -10   0    0.07    0.08
   4 -10   0    0.17    0.11
  -4 -10   0    0.24    0.11
   4  10   0    0.13    0.23
  -4  10   0    0.80    0.59
   6 -10   0   63.94    4.69
  -6 -10   0   60.35    4.86
   6  10   0   49.75    6.76
   8 -10   0    0.21    0.10
  -8  10   0    0.02    0.64
   8  10   0    0.16    0.25
   1 -11   0    4.02    0.40
   1  11   0    2.56    0.62
  -1  11   0    3.00    0.75
   3 -11   0    8.46    0.70
   3 -11   0    8.06    0.75
   3  11   0    7.58    1.09
  -3  11   0    5.07    1.32
   5 -11   0   14.91    1.13
  -5 -11   0   14.18    1.20
  -5  11   0    9.45    2.11
   5  11   0   10.73    1.67
  -7 -11   0    0.76    0.21
   7 -11   0    1.37    0.21
   0 -12   0    0.13    0.14
   0  12   0    0.23    0.32
  -2 -12   0    0.10    0.09
   2 -12   0   -0.04    0.12
  -2  12   0    0.18    0.46
   2  12   0    0.62    0.33
   4 -12   0    1.65    0.25
   4 -12   0    2.56    0.34
  -4 -12   0    1.41    0.28
   4  12   0    4.22    0.63
  -4  12   0    3.77    0.93
  12   0  -1    0.21    0.22
 -12   0   1   -0.01    0.07
  10   0  -1    0.24    0.20
 -10   0   1    0.07    0.07
  -8   0   1    0.48    0.13
  -8   0   1    1.66    0.41
   8   0  -1    0.06    0.06
  -6   0   1    0.19    0.15
   6   0  -1   -0.03    0.03
  -6   0   1    0.03    0.06
  -6   0   1   -0.02    0.04
  -4   0   1   -0.29    0.17
  -2   0   1    0.01    0.01
  -2   0   1    0.04    0.06
  -2   0   1    0.04    0.03
  -2   0   1    0.00    0.02
   0   0   1    0.22    0.05
   0   0  -1    0.16    0.04
   2   0   1    0.00    0.01
  -2   0  -1    0.01    0.02
  -2   0  -1    0.03    0.07
   4   0   1    0.29    0.05
  -4   0  -1    0.02    0.04
  -4   0  -1   -0.02    0.11
  -6   0  -1   -0.18    0.11
  -6   0  -1   -0.14    0.05
   6   0   1   -0.09    0.04
  -8   0  -1    0.01    0.06
  -8   0  -1   -0.03    0.14
   8   0   1    0.05    0.06
  10   0   1    0.07    0.20
 -10   0  -1    0.02    0.08
  10   0   1   -0.03    0.06
  12   0   1    0.00    0.22
 -12   0  -1    0.06    0.10
 -13   1   1    6.51    0.67
 -11  -1   1    0.19    0.11
 -11   1   1    0.10    0.10
 -11   1   1    0.14    0.24
  11   1  -1    0.18    0.19
  -9  -1   1   15.21    1.41
   9  -1  -1   17.35    1.32
   9   1  -1   15.03    1.95
  -9   1   1   16.97    1.41
  -9   1   1   14.55    2.13
  -7  -1   1   19.92    1.64
   7  -1  -1   17.78    1.54
   7   1  -1   21.03    2.27
  -7   1   1   19.45    2.41
  -7   1   1   18.13    1.62
   7   1  -1   18.86    1.53
  -5  -1   1   73.60    5.61
  -5  -1   1   67.93    5.67
   5  -1  -1   61.79    5.43
   5   1  -1   62.40    5.42
  -5   1   1   67.29    5.67
   5   1  -1   70.88    7.82
  -5   1   1   65.42    7.91
  -5   1   1   78.72    5.60
   3  -1  -1   52.54    4.34
  -3  -1   1   57.30    4.48
  -3  -1   1   54.58    4.53
   3   1  -1   49.94    4.33
  -3   1   1   57.68    6.31
  -3   1   1   54.93    4.52
   3   1  -1   57.65    6.23
  -1  -1   1   37.52    3.32
   1  -1  -1   38.43    3.29
   1   1  -1   41.65    4.57
  -1   1   1   40.81    3.32
  -1   1   1   40.63    3.19
  -1  -1  -1   66.62    6.19
   1  -1   1   75.25    6.13
   1  -1   1   75.62    5.95
  -1  -1  -1   78.58    6.13
  -1   1  -1   82.92    6.20
   1   1   1   72.85    8.52
  -3  -1  -1   10.22    0.85
  -3  -1  -1    9.78    0.88
   3  -1   1    9.38    0.84
   3   1   1   10.00    1.22
   3   1   1   11.09    0.84
  -3   1  -1    7.99    1.28
  -3   1  -1   10.84    0.88
  -5  -1  -1   49.02    4.14
  -5  -1  -1   51.61    4.07
   5  -1   1   49.45    3.96
   5   1   1   49.26    3.96
  -5   1  -1   53.39    4.14
   5   1   1   45.98    5.71
  -7  -1  -1    8.14    0.71
   7  -1   1    7.91    0.66
   7   1   1    6.50    0.99
   7   1   1    7.98    0.65
  -7   1  -1    8.23    0.71
  -7   1  -1    6.68    1.13
   9  -1   1    5.30    0.43
  -9  -1  -1    4.28    0.46
  -9   1  -1    3.51    0.84
  -9   1  -1    4.05    0.45
   9   1   1    5.14    0.42
   9   1   1    3.36    0.67
 -11  -1  -1   22.06    1.82
  11   1   1   16.61    2.49
 -11   1  -1   22.51    2.85
 -11   1  -1   22.54    1.82
 -12  -2   1    0.19    0.12
  12   2  -1    0.25    0.25
 -12   2   1    0.22    0.11
 -12   2   1    0.24    0.33
  10  -2  -1   57.06    4.38
 -10  -2   1   54.11    4.60
 -10   2   1   49.19    6.57
 -10   2   1   56.07    4.59
  10   2  -1   54.69    6.35
  -8  -2   1    0.10    0.07
   8  -2  -1    0.09    0.06
  -8   2   1    0.03    0.06
  -8   2   1    0.42    0.24
   8   2  -1    0.20    0.15
  -6  -2   1   17.03    1.51
   6  -2  -1   17.12    1.46
   6  -2  -1   17.31    1.43
  -6  -2   1   19.02    1.49
  -6   2   1   14.79    2.19
   6   2  -1   17.61    1.42
   6   2  -1   19.58    2.10
  -6   2   1   18.10    1.50
  -4  -2   1    0.07    0.04
   4  -2  -1    0.13    0.04
  -4  -2   1    0.06    0.04
   4  -2  -1    0.10    0.04
   4   2  -1    0.04    0.07
   4   2  -1    0.11    0.03
  -4   2   1    0.33    0.19
  -4   2   1    0.11    0.04
  -2  -2   1   42.05    3.69
   2  -2  -1   43.83    3.65
  -2  -2   1   47.40    3.65
   2   2  -1   47.84    5.07
  -2   2   1   43.09    3.67
  -2   2   1   43.64    3.54
   0  -2  -1    0.04    0.02
   0  -2   1    0.01    0.02
   0  -2   1    0.01    0.01
   0  -2  -1    0.01    0.01
   0   2   1    0.03    0.05
   0   2   1    0.01    0.02
   0   2  -1    0.04    0.01
   0   2  -1    0.01    0.05
   2  -2   1  296.97   24.04
  -2  -2  -1  300.51   24.28
   2  -2   1  295.39   23.32
  -2  -2  -1  290.61   24.04
   2   2   1  286.85   33.39
   2   2   1  279.09   23.33
  -2   2  -1  318.35   24.27
  -4  -2  -1    0.27    0.07
   4  -2   1    0.10    0.04
   4  -2   1    0.21    0.04
  -4  -2  -1    0.25    0.05
   4   2   1    0.20    0.06
  -4   2  -1    0.33    0.20
  -4   2  -1    0.20    0.06
   4   2   1    0.18    0.09
  -6  -2  -1    3.29    0.34
   6  -2   1    3.14    0.30
  -6  -2  -1    3.65    0.30
  -6   2  -1    3.61    0.33
   6   2   1    2.22    0.46
   6   2   1    3.34    0.30
  -6   2  -1    2.70    0.63
  -8  -2  -1    0.27    0.10
   8  -2   1    0.18    0.08
   8   2   1    0.21    0.15
   8   2   1    0.25    0.08
  -8   2  -1    0.24    0.09
  -8   2  -1    0.45    0.25
 -10  -2  -1   83.04    7.07
  10  -2   1   92.70    6.77
 -10   2  -1   76.72    9.98
 -10   2  -1   83.45    7.06
  12  -2   1    0.12    0.12
 -12  -2  -1    0.05    0.09
  12   2   1   -0.20    0.20
 -12   2  -1    0.11    0.10
 -12   2  -1    0.14    0.47
  11  -3  -1   24.68    1.90
 -11  -3   1   22.56    2.02
  11   3  -1   21.43    2.79
  -9  -3   1   -0.04    0.08
   9  -3  -1    0.11    0.07
  -9   3   1    0.01    0.06
  -9   3   1    0.49    0.28
   9   3  -1    0.23    0.18
  -7  -3   1    9.89    0.95
   7  -3  -1   11.33    0.90
  -7  -3   1   10.82    0.93
   7   3  -1   12.48    1.34
  -7   3   1    8.13    1.44
  -7   3   1   10.67    0.94
   5  -3  -1    2.12    0.23
  -5  -3   1    2.23    0.23
  -5  -3   1    2.02    0.25
   5  -3  -1    2.29    0.22
   5   3  -1    2.26    0.22
  -5   3   1    2.20    0.55
   5   3  -1    3.11    0.36
  -5   3   1    2.37    0.23
  -3  -3   1    3.94    0.37
  -3  -3   1    3.96    0.36
   3  -3  -1    3.92    0.35
  -3   3   1    3.62    0.35
   3   3  -1    4.96    0.51
  -3   3   1    2.82    0.65
  -3   3   1    3.99    0.35
  -1  -3   1   26.52    2.21
   1  -3  -1   25.08    2.19
  -1   3   1   25.67    2.12
   1   3  -1   26.32    2.11
   1   3  -1   28.18    3.04
   1  -3   1    1.44    0.17
  -1  -3  -1    1.78    0.17
  -1  -3  -1    1.74    0.16
   1  -3   1    1.83    0.16
   1   3   1    1.86    0.16
  -1   3  -1    1.64    0.18
   1   3   1    1.56    0.24
  -1   3  -1    2.18    0.36
  -3  -3  -1   66.27    5.99
   3  -3   1   76.09    5.81
  -3  -3  -1   76.75    6.06
   3  -3   1   70.92    5.99
   3   3   1   73.53    8.34
  -3   3  -1   65.10    8.49
  -3   3  -1   78.55    6.05
   3   3   1   75.70    5.82
   5  -3   1   30.95    2.55
  -5  -3  -1   31.92    2.56
   5  -3   1   30.73    2.49
  -5  -3  -1   30.65    2.61
   5   3   1   29.63    3.59
  -5   3  -1   28.54    3.76
   5   3   1   31.36    2.52
  -5   3  -1   33.68    2.60
   7  -3   1   40.94    3.11
  -7  -3  -1   40.58    3.26
   7   3   1   38.96    3.12
   7   3   1   36.18    4.48
  -7   3  -1   39.60    3.24
  -7   3  -1   33.65    4.64
   9  -3   1   42.67    3.03
  -9  -3  -1   39.60    3.19
  -9   3  -1   37.59    3.16
  -9   3  -1   32.08    4.58
   9   3   1   32.60    4.37
  11  -3   1    3.66    0.37
 -11  -3  -1    3.16    0.40
 -11   3  -1    3.92    0.39
  11   3   1    2.19    0.58
 -11   3  -1    3.03    0.87
  12  -4  -1   14.15    1.09
 -12  -4   1   14.15    1.19
  12   4  -1    9.99    1.57
 -12   4   1    9.45    1.91
 -10  -4   1    0.08    0.10
  10  -4  -1    0.30    0.10
 -10   4   1    0.21    0.29
  10   4  -1    0.09    0.19
   8  -4  -1    5.38    0.49
  -8  -4   1    5.66    0.54
  -8   4   1    5.79    0.52
  -8   4   1    4.34    0.97
   8   4  -1    4.99    0.73
   6  -4  -1    0.23    0.07
  -6  -4   1    0.21    0.08
  -6  -4   1    0.16    0.06
   6  -4  -1    0.25    0.07
  -6   4   1    0.54    0.31
   6   4  -1    0.11    0.10
  -6   4   1    0.19    0.06
   4  -4  -1  919.70   77.26
   4  -4  -1  908.27   74.94
  -4  -4   1  934.06   78.02
  -4  -4   1  966.74   77.27
   4   4  -1  968.78  107.32
  -4   4   1 1000.00   78.01
  -2  -4   1    0.09    0.04
  -2  -4   1    0.16    0.05
   2  -4  -1    0.12    0.05
   2   4  -1    0.11    0.08
  -2   4   1    0.11    0.19
  -2   4   1    0.12    0.04
   2   4  -1    0.18    0.03
   0  -4   1    1.37    0.14
   0  -4  -1    0.89    0.13
   0   4  -1    1.17    0.22
   0   4  -1    1.06    0.12
   0   4   1    1.09    0.12
   0   4  -1    1.28    0.11
   0   4   1    1.06    0.22
  -2  -4  -1    0.11    0.04
  -2  -4  -1    0.14    0.05
   2  -4   1    0.04    0.04
   2  -4   1    0.04    0.03
  -2   4  -1    0.22    0.21
   2   4   1    0.22    0.10
  -2   4  -1    0.08    0.04
   2   4   1    0.14    0.04
  -4  -4  -1   38.44    3.16
  -4  -4  -1   34.69    3.11
   4  -4   1   36.14    3.10
   4  -4   1   38.90    3.02
   4   4   1   34.71    4.34
   4   4   1   42.43    3.02
  -4   4  -1   40.73    3.14
  -4   4  -1   34.64    4.56
  -6  -4  -1    0.11    0.06
   6  -4   1   -0.02    0.04
  -6  -4  -1    0.02    0.06
  -6   4  -1    0.01    0.21
   6   4   1    0.07    0.11
  -6   4  -1    0.06    0.06
   6   4   1    0.10    0.08
  -8  -4  -1    9.95    0.93
   8  -4   1   10.88    0.87
  -8   4  -1    8.24    1.53
  -8   4  -1   12.17    0.92
   8   4   1    8.08    1.26
  10  -4   1    0.30    0.11
 -10  -4  -1    0.35    0.15
  10   4   1    0.39    0.23
 -10   4  -1    0.01    0.27
  12  -4   1    6.21    0.62
 -11  -5   1   17.55    1.56
  11  -5  -1   18.43    1.45
 -11   5   1   11.95    2.40
  11   5  -1   17.69    2.14
  -9  -5   1    0.21    0.12
   9  -5  -1    0.15    0.09
   9   5  -1    0.58    0.21
  -9   5   1    0.69    0.38
   7  -5  -1    8.01    0.70
  -7  -5   1    8.29    0.75
  -7  -5   1    8.08    0.72
  -7   5   1    5.35    1.28
   7   5  -1    8.76    1.04
  -5  -5   1    1.48    0.21
  -5  -5   1    1.62    0.21
   5  -5  -1    1.99    0.20
   5  -5  -1    1.52    0.19
  -5   5   1    1.42    0.59
   5   5  -1    2.21    0.32
  -3  -5   1    2.14    0.23
  -3  -5   1    2.24    0.23
   3  -5  -1    1.93    0.22
  -3   5   1    1.50    0.52
   3   5  -1    2.51    0.34
  -3   5   1    1.84    0.22
   1  -5  -1   25.37    2.03
  -1  -5   1   25.05    2.03
  -1  -5   1   24.40    2.03
   1   5  -1   24.90    1.95
   1   5  -1   23.68    2.82
  -1   5   1   25.90    1.97
  -1   5   1   19.67    2.86
  -1  -5  -1    0.85    0.12
  -1  -5  -1    0.68    0.09
   1  -5   1    0.61    0.09
   1  -5   1    0.65    0.11
  -1   5  -1    0.83    0.25
  -1   5  -1    0.26    0.09
   1   5   1    0.66    0.09
   1   5   1    0.84    0.18
   3  -5   1   41.41    3.24
   3  -5   1   38.84    3.34
  -3  -5  -1   42.52    3.38
  -3  -5  -1   38.49    3.35
  -3   5  -1   33.53    4.86
  -3   5  -1   45.74    3.36
   3   5   1   42.49    3.23
   3   5   1   37.39    4.66
   5  -5   1   24.10    2.20
   5  -5   1   27.63    2.15
  -5  -5  -1   24.25    2.25
  -5   5  -1   29.98    3.43
   5   5   1   25.90    3.10
  -5   5  -1   29.92    2.23
  -7  -5  -1   47.29    3.74
   7  -5   1   45.04    3.56
   7   5   1   39.15    5.13
  -7   5  -1   48.21    5.46
   9  -5   1   15.68    1.29
  -9  -5  -1   16.13    1.38
   9   5   1   13.40    1.88
  -9   5  -1   17.50    2.24
  11  -5   1    0.50    0.18
 -11  -5  -1    0.29    0.19
 -11   5  -1    0.56    0.62
  11   5   1    0.61    0.27
  10  -6  -1   66.10    4.91
 -10  -6   1   67.75    5.16
 -10   6   1   49.40    7.34
  10   6  -1   56.37    7.05
  -8  -6   1   -0.02    0.07
   8  -6  -1    0.04    0.08
  -8   6   1    0.39    0.37
   8   6  -1    0.08    0.15
  -6  -6   1    1.72    0.25
   6  -6  -1    1.86    0.23
  -6  -6   1    2.36    0.26
   6  -6  -1    1.78    0.23
   6   6  -1    2.92    0.41
  -6   6   1    1.38    0.63
  -4  -6   1    0.06    0.07
  -4  -6   1    0.11    0.07
   4  -6  -1    0.06    0.07
   4  -6  -1    0.02    0.05
   4   6  -1    0.10    0.13
  -4   6   1    0.37    0.33
  -2  -6   1   18.07    1.47
   2  -6  -1   16.38    1.47
  -2   6   1   16.85    1.42
   2   6  -1   17.56    1.40
   2   6  -1   17.88    2.05
   0  -6   1    0.27    0.08
   0  -6  -1    0.18    0.07
   0   6  -1    0.26    0.15
   0   6  -1    0.35    0.05
   0   6  -1    0.33    0.07
   0   6   1    0.39    0.07
   0   6   1    0.18    0.16
  -2  -6  -1  161.37   12.97
   2  -6   1  156.87   12.96
  -2  -6  -1  169.14   13.08
   2  -6   1  166.14   12.56
   2   6   1  159.46   12.55
  -2   6  -1  135.84   18.15
  -4  -6  -1    0.05    0.05
  -4  -6  -1    0.05    0.06
   4  -6   1    0.05    0.06
   4  -6   1    0.09    0.05
  -4   6  -1   -0.09    0.34
   4   6   1    0.07    0.12
  -6  -6  -1    1.52    0.21
   6  -6   1    1.30    0.17
  -6  -6  -1    1.25    0.18
  -6   6  -1    2.72    0.76
   6   6   1    1.18    0.31
   8  -6   1    0.53    0.12
  -8  -6  -1    0.29    0.13
   8   6   1    0.26    0.18
  -8   6  -1    0.81    0.47
  10  -6   1   41.99    3.38
 -10  -6  -1   41.24    3.56
 -10   6  -1   42.33    5.32
  -9  -7   1   12.81    1.16
   9  -7  -1   12.21    1.08
   9   7  -1   13.55    1.61
  -9   7   1   10.10    2.00
   7  -7  -1   12.57    1.07
  -7  -7   1   12.94    1.12
  -7  -7   1   14.06    1.15
   7   7  -1   12.07    1.57
  -7   7   1    9.77    1.95
   5  -7  -1   18.50    1.58
  -5  -7   1   17.71    1.59
  -5  -7   1   20.21    1.62
   5  -7  -1   18.07    1.53
   5   7  -1   18.89    2.23
  -3  -7   1   12.25    1.12
   3  -7  -1   13.37    1.12
  -3  -7   1   12.96    1.12
   3   7  -1   12.72    1.57
  -3   7   1   13.27    1.09
   1  -7  -1   18.85    1.55
   1   7  -1   19.57    2.18
  -1   7   1   17.33    1.49
   1   7  -1   17.76    1.48
   1  -7   1   36.65    2.89
   1  -7   1   37.43    3.00
  -1  -7  -1   35.90    3.00
  -1   7  -1   32.28    4.25
   1   7   1   37.20    2.89
  -3  -7  -1    0.03    0.06
   3  -7   1    0.06    0.06
  -3  -7  -1    0.19    0.08
   3  -7   1    0.18    0.08
   3   7   1    0.35    0.19
  -3   7  -1    0.06    0.36
  -5  -7  -1   21.91    1.73
   5  -7   1   19.25    1.68
   5  -7   1   20.28    1.64
  -5   7  -1   21.63    2.80
   5   7   1   18.11    2.38
  -7  -7  -1    2.34    0.27
  -7  -7  -1    1.92    0.27
   7  -7   1    1.72    0.23
  -7   7  -1    2.78    0.84
   7   7   1    1.49    0.38
  -9  -7  -1    1.48    0.26
   9  -7   1    1.69    0.23
  -9   7  -1    3.45    0.99
   9   7   1    1.14    0.37
 -10  -8   1    0.32    0.19
  10  -8  -1    0.38    0.18
 -10   8   1    0.33    0.57
  10   8  -1    0.52    0.26
  -8  -8   1    4.48    0.51
   8  -8  -1    5.09    0.50
  -8  -8   1    5.93    0.57
  -8   8   1    9.63    1.54
  -6  -8   1    0.01    0.09
  -6  -8   1    0.01    0.08
   6  -8  -1   -0.07    0.06
   6   8  -1    0.24    0.19
  -6   8   1    0.50    0.59
   4  -8  -1    0.09    0.08
  -4  -8   1    0.15    0.08
   4  -8  -1    0.14    0.08
  -4  -8   1    0.08    0.07
   4   8  -1    0.22    0.20
  -4   8   1    0.22    0.43
   2  -8  -1    0.17    0.08
  -2  -8   1    0.03    0.06
   2   8  -1    0.20    0.16
  -2   8   1    0.22    0.26
  -2   8   1    0.15    0.07
   0  -8   1    0.88    0.15
   0  -8   1    0.43    0.09
   0  -8  -1    0.73    0.14
   2  -8   1    0.56    0.09
   2  -8   1    0.44    0.11
  -2  -8  -1    0.44    0.11
   2   8   1    0.22    0.16
  -2   8  -1    0.03    0.30
   4  -8   1    1.79    0.20
  -4  -8  -1    1.51    0.22
   4  -8   1    2.10    0.23
  -4   8  -1    1.28    0.64
   4   8   1    0.96    0.32
  -6  -8  -1    0.52    0.13
  -6  -8  -1    0.36    0.12
   6  -8   1    0.33    0.10
  -6   8  -1    0.33    0.55
   6   8   1    0.04    0.19
  -8  -8  -1    0.07    0.11
   8  -8   1    0.22    0.10
  -8   8  -1    0.52    0.53
   8   8   1    0.10    0.21
 -10  -8  -1   -0.04    0.17
   9  -9  -1    3.34    0.40
  -9  -9   1    4.37    0.49
   9   9  -1    3.88    0.69
  -9   9   1    3.38    1.11
  -7  -9   1    5.69    0.56
   7  -9  -1    5.45    0.52
  -7  -9   1    5.98    0.58
  -7   9   1    5.13    1.30
   7   9  -1    5.09    0.81
   5  -9  -1   31.32    2.49
   5  -9  -1   36.12    2.59
  -5  -9   1   27.79    2.58
   5   9  -1   26.92    3.60
  -3  -9   1   19.95    1.89
   3  -9  -1   24.00    1.90
   3  -9  -1   23.48    1.82
   3   9  -1   21.18    2.65
   1  -9  -1    7.35    0.67
  -1   9   1    8.01    0.64
  -1   9   1    4.87    1.03
   1   9  -1    7.29    0.98
  -1  -9  -1   13.57    1.27
   1  -9   1   16.02    1.20
   1  -9   1   14.89    1.27
  -1   9  -1   12.48    1.87
   3  -9   1    5.69    0.47
   3  -9   1    5.38    0.51
  -3  -9  -1    5.08    0.51
  -3   9  -1    4.25    1.04
   3   9   1    4.28    0.75
   5  -9   1   12.92    1.00
  -5   9  -1    9.24    1.92
   5   9   1   10.75    1.49
   7  -9   1    5.70    0.52
  -7  -9  -1    5.89    0.57
  -7   9  -1    8.94    1.62
   7   9   1    4.42    0.82
  -9  -9  -1    2.82    0.39
   9   9   1    1.80    0.51
   8 -10  -1    0.33    0.11
  -8 -10   1    0.36    0.14
   8  10  -1    0.46    0.27
  -8  10   1   -0.47    0.59
  -6 -10   1    3.56    0.43
   6 -10  -1    3.38    0.38
  -6  10   1    3.56    1.06
   6  10  -1    4.84    0.71
   4 -10  -1    0.36    0.13
  -4 -10   1    0.54    0.14
   4 -10  -1    0.48    0.12
   4  10  -1    0.34    0.27
  -4  10   1    0.42    0.57
  -2 -10   1    1.32    0.20
   2 -10  -1    0.54    0.16
  -2  10   1    1.08    0.47
  -2  10   1    1.02    0.17
   0 -10  -1    0.20    0.10
   0 -10   1    0.07    0.09
   0  10  -1    0.23    0.26
   0  10   1    0.21    0.23
  -2 -10  -1   47.74    4.06
   2 -10   1   53.73    3.91
   2 -10   1   50.51    4.06
  -2  10  -1   38.60    5.81
   4 -10   1    0.06    0.07
   4 -10   1    0.03    0.09
  -4 -10  -1    0.00    0.08
  -4  10  -1    0.30    0.52
   4  10   1   -0.35    0.19
  -6 -10  -1    2.96    0.38
   6 -10   1    3.25    0.34
   6  10   1    2.94    0.61
  -6  10  -1    4.50    1.17
   8 -10   1    0.17    0.10
  -7 -11   1    2.33    0.36
   7 -11  -1    2.89    0.33
   5 -11  -1    0.79    0.19
  -5 -11   1    0.84    0.20
   5 -11  -1    0.80    0.16
   5  11  -1    0.53    0.32
  -5  11   1    1.50    0.71
   3 -11  -1    1.28    0.18
  -3 -11   1    0.73    0.19
   3 -11  -1    1.13    0.22
  -3  11   1    1.56    0.60
   3  11  -1    1.37    0.37
   1 -11  -1    4.18    0.41
  -1 -11   1    2.85    0.37
   1  11  -1    2.52    0.60
  -1  11   1    2.68    0.71
  -1 -11  -1    1.52    0.24
  -1  11  -1    1.31    0.49
   1  11   1    1.14    0.40
   3  11   1   14.09    1.73
  -3  11  -1   11.26    2.03
   5  11   1    7.38    1.07
  -5  11  -1    7.40    1.57
  -7 -11  -1    5.71    0.60
   4 -12  -1  128.22   10.44
   4 -12  -1  137.20   10.11
   4  12  -1  113.90   14.56
   2 -12  -1    0.23    0.16
  -2 -12   1    0.21    0.16
   2  12  -1    0.01    0.25
  -2  12   1    0.54    0.40
   0 -12   1    2.87    0.41
   0 -12  -1    4.76    0.46
   0  12  -1    2.86    0.74
   0  12   1    2.68    0.70
  -2 -12  -1   -0.09    0.08
   2 -12   1    0.03    0.13
  -2  12  -1    0.41    0.42
   2  12   1    0.22    0.28
   4 -12   1   14.36    1.02
   4  12   1    9.93    1.52
  -4  12  -1    6.57    1.81
   1 -13   1    0.08    0.21
   3 -13   1    7.09    0.75
  12   0  -2    3.10    0.66
 -12   0   2    4.83    0.47
  10   0  -2    0.34    0.23
 -10   0   2    0.16    0.10
  -8   0   2  486.64   56.45
   8   0  -2  481.84   39.26
  -8   0   2  523.57   40.91
  -6   0   2    0.87    0.28
  -6   0   2    0.65    0.11
   6   0  -2    0.59    0.09
  -6   0   2    0.90    0.15
   4   0  -2    1.10    0.12
  -4   0   2    1.52    0.29
  -4   0   2    1.23    0.14
  -4   0   2    1.08    0.18
  -2   0   2    0.03    0.05
  -2   0   2    0.05    0.06
  -2   0   2    0.00    0.01
  -2   0   2    0.02    0.02
   0   0  -2   45.31    4.08
   0   0   2   47.03    4.05
   0   0   2   55.29    3.92
  -2   0  -2   -0.33    0.15
  -4   0  -2    6.82    0.59
  -4   0  -2    5.58    0.88
   4   0   2    6.94    0.55
  -6   0  -2    0.27    0.22
  -6   0  -2    0.46    0.11
   6   0   2    0.40    0.08
   8   0   2   24.24    1.85
  -8   0  -2   22.14    1.94
  -8   0  -2   20.24    2.84
 -10   0  -2    0.24    0.11
  10   0   2    0.40    0.26
  10   0   2    0.54    0.13
  12   0   2  108.05   12.66
 -12   0  -2  112.07    9.18
 -13  -1   2   -0.07    0.10
 -13   1   2   -0.02    0.10
 -11  -1   2    3.97    0.43
  11  -1  -2    2.73    0.60
 -11   1   2    2.93    0.79
 -11   1   2    3.61    0.41
  11   1  -2    4.05    0.63
   9  -1  -2    1.08    0.15
  -9  -1   2    1.13    0.19
  -9   1   2    1.20    0.19
  -9   1   2    1.53    0.48
   9   1  -2    1.55    0.33
   7  -1  -2    1.78    0.21
  -7  -1   2    2.19    0.28
  -7  -1   2    2.48    0.26
  -7   1   2    2.95    0.23
   7   1  -2    1.72    0.20
  -7   1   2    1.98    0.24
   7   1  -2    2.78    0.39
  -7   1   2    2.68    0.53
   5  -1  -2   27.93    2.26
  -5  -1   2   25.71    2.36
  -5  -1   2   31.25    2.35
   5   1  -2   27.38    3.25
  -5   1   2   27.05    2.36
  -5   1   2   32.79    2.34
   5   1  -2   24.75    2.24
  -5   1   2   30.21    3.36
  -3  -1   2    1.87    0.19
  -3  -1   2    1.96    0.19
   3   1  -2    1.67    0.16
  -3   1   2    2.19    0.20
  -3   1   2    2.26    0.35
  -3   1   2    1.85    0.19
   3   1  -2    1.99    0.26
  -3   1   2    2.18    0.18
  -1  -1   2   85.92    7.34
  -1  -1   2   81.32    7.05
  -1  -1   2   82.21    7.27
   1  -1  -2   94.19    7.33
   1   1  -2   90.85   10.09
  -1   1   2   90.64    7.05
  -1   1   2   94.52    7.28
  -1  -1  -2   69.50    5.11
   1  -1   2   67.39    5.11
   1  -1   2   68.87    4.96
  -1  -1  -2   67.25    5.16
   1   1   2   56.45    7.09
   1   1   2   54.16    4.97
  -1   1  -2   53.38    7.15
   3  -1   2  131.78   10.03
  -3  -1  -2  124.65   10.33
  -3  -1  -2  130.33   10.46
   3   1   2  107.77   14.38
  -3   1  -2  134.73   10.45
   3   1   2  135.67   10.04
  -3   1  -2  123.18   14.46
  -5  -1  -2   98.65    7.95
   5  -1   2   98.09    7.62
  -5   1  -2   97.65    7.94
  -5   1  -2   88.17   11.04
   5   1   2   96.25    7.62
  -7  -1  -2    1.92    0.24
   7  -1   2    1.99    0.21
  -7   1  -2    2.22    0.25
   7   1   2    1.58    0.36
  -7   1  -2    1.73    0.49
   7   1   2    1.93    0.21
  -9  -1  -2    6.48    0.63
   9  -1   2    6.85    0.58
   9   1   2    6.81    0.58
   9   1   2    5.31    0.87
  -9   1  -2    7.64    1.17
  -9   1  -2    6.11    0.62
 -11  -1  -2    1.79    0.27
  11  -1   2    1.87    0.24
  11   1   2    1.47    0.44
 -11   1  -2    2.39    0.70
 -11   1  -2    1.42    0.25
 -12  -2   2    0.07    0.09
  12   2  -2   -0.14    0.18
 -12   2   2    0.18    0.28
 -12   2   2    0.02    0.08
 -10  -2   2    0.87    0.18
  10  -2  -2    0.62    0.14
  10   2  -2    1.31    0.32
 -10   2   2    1.32    0.50
 -10   2   2    0.58    0.15
  -8  -2   2   -0.02    0.05
   8  -2  -2    0.02    0.06
  -8   2   2    0.05    0.06
  -8   2   2    0.24    0.18
   8   2  -2    0.01    0.12
  -6  -2   2   19.60    1.54
  -6  -2   2   17.69    1.56
   6  -2  -2   18.25    1.48
   6  -2  -2   19.07    1.52
  -6   2   2   17.71    1.55
   6   2  -2   18.13    2.14
  -6   2   2   18.07    2.28
   6   2  -2   17.58    1.46
   4  -2  -2    0.20    0.05
  -4  -2   2    0.19    0.06
  -4  -2   2    0.15    0.05
  -4   2   2    0.15    0.05
  -4   2   2    0.14    0.05
  -4   2   2    0.29    0.17
   4   2  -2    0.28    0.09
  -2  -2   2  319.32   25.72
  -2  -2   2  320.46   25.97
   2  -2  -2  293.00   25.71
  -2   2   2  324.20   25.96
  -2   2   2  318.44   24.95
   2   2  -2  320.79   35.71
   0  -2  -2    0.02    0.02
   0  -2   2    0.02    0.02
   0  -2   2    0.01    0.03
   0  -2  -2    0.03    0.02
   0   2   2    0.03    0.02
   0   2  -2   -0.01    0.06
   0   2   2    0.04    0.05
   0   2  -2    0.11    0.03
  -2  -2  -2    1.39    0.15
   2  -2   2    1.46    0.14
   2  -2   2    1.40    0.14
  -2  -2  -2    1.47    0.16
  -2   2  -2    1.63    0.35
   2   2   2    1.29    0.17
   2   2   2    1.56    0.21
   4  -2   2    0.15    0.05
  -4  -2  -2    0.15    0.04
  -4  -2  -2    0.22    0.07
  -4   2  -2    0.19    0.21
  -4   2  -2    0.19    0.06
   4   2   2    0.25    0.06
   4   2   2    0.24    0.10
   6  -2   2  205.06   15.82
  -6  -2  -2  203.10   16.49
  -6   2  -2  190.43   22.83
  -6   2  -2  195.76   16.47
   6   2   2  204.27   15.82
  -8  -2  -2    0.02    0.07
   8  -2   2    0.08    0.07
   8   2   2    0.08    0.16
  -8   2  -2    0.02    0.07
   8   2   2    0.07    0.08
  -8   2  -2    0.13    0.19
  10  -2   2    0.69    0.16
 -10  -2  -2    0.67    0.18
  10   2   2    0.94    0.32
 -10   2  -2    0.60    0.16
 -10   2  -2    1.05    0.47
 -12  -2  -2    0.05    0.10
  12  -2   2    0.08    0.14
 -12   2  -2    0.06    0.51
  12   2   2   -0.23    0.20
 -12   2  -2   -0.02    0.09
  11  -3  -2    9.23    0.85
 -11  -3   2    9.60    0.93
  11   3  -2   10.73    1.31
 -11   3   2   10.13    1.62
   9  -3  -2   22.29    1.85
  -9  -3   2   21.23    1.96
   9   3  -2   25.93    2.73
  -9   3   2   20.88    2.90
  -9   3   2   22.85    1.95
  -7  -3   2   14.39    1.21
  -7  -3   2   12.84    1.23
   7  -3  -2   14.52    1.16
  -7   3   2   13.40    1.21
  -7   3   2   13.88    1.86
   7   3  -2   15.22    1.70
   5  -3  -2   17.45    1.44
  -5  -3   2   16.72    1.51
   5  -3  -2   16.87    1.47
  -5  -3   2   18.43    1.49
   5   3  -2   19.04    2.07
  -5   3   2   18.05    1.49
  -5   3   2   15.60    2.21
  -3  -3   2   70.96    5.67
   3  -3  -2   64.65    5.65
  -3  -3   2   66.61    5.72
  -3   3   2   72.31    5.70
   3   3  -2   72.77    7.86
  -3   3   2   67.67    5.49
   1  -3  -2   10.18    0.87
  -1  -3   2    9.62    0.87
  -1  -3   2   10.25    0.82
  -1  -3   2    9.58    0.87
  -1   3   2    9.50    0.84
   1   3  -2   10.99    1.21
  -1  -3  -2   64.01    5.43
   1  -3   2   63.21    5.38
  -1  -3  -2   65.95    5.38
   1  -3   2   65.28    5.21
  -1   3  -2   70.53    7.56
   1   3   2   67.15    5.22
  -3  -3  -2   12.31    1.01
   3  -3   2   12.38    0.98
  -3  -3  -2   10.80    0.98
   3  -3   2   12.45    0.96
   3   3   2   10.73    0.97
  -3   3  -2   12.96    1.58
   3   3   2   10.59    1.38
  -3   3  -2   12.34    1.00
   5  -3   2    2.34    0.24
  -5  -3  -2    2.41    0.27
   5   3   2    2.02    0.38
  -5   3  -2    2.64    0.26
  -5   3  -2    3.23    0.63
   5   3   2    2.67    0.29
   7  -3   2   55.97    4.14
  -7  -3  -2   51.80    4.33
   7   3   2   54.69    4.17
  -7   3  -2   58.65    6.20
  -7   3  -2   49.76    4.31
   7   3   2   42.48    5.94
   9  -3   2   15.36    1.11
  -9  -3  -2   11.13    1.16
  -9   3  -2   13.62    1.16
   9   3   2   12.02    1.62
  -9   3  -2   11.85    1.82
  11  -3   2    3.21    0.36
 -11  -3  -2    3.04    0.39
 -11   3  -2    2.20    0.79
 -11   3  -2    3.04    0.37
  11   3   2    3.03    0.62
  12  -4  -2    2.17    0.29
 -12  -4   2    1.85    0.32
 -12   4   2    1.96    0.64
  12   4  -2    2.40    0.51
  10  -4  -2    0.07    0.08
 -10  -4   2   -0.11    0.08
  10   4  -2   -0.05    0.16
 -10   4   2    0.19    0.26
   8  -4  -2    0.02    0.06
  -8  -4   2    0.02    0.07
   8   4  -2    0.88    0.23
  -8   4   2    0.22    0.26
  -6  -4   2    0.06    0.06
  -6  -4   2    0.07    0.06
   6  -4  -2    0.07    0.06
   6  -4  -2    0.07    0.05
   6   4  -2    0.00    0.08
  -6   4   2    0.05    0.05
  -6   4   2   -0.15    0.18
  -4  -4   2    4.21    0.35
   4  -4  -2    3.23    0.32
  -4  -4   2    3.76    0.36
  -4   4   2    3.60    0.33
  -4   4   2    2.74    0.31
   2  -4  -2    0.13    0.05
  -2  -4   2    0.09    0.05
  -2  -4   2    0.11    0.05
  -2   4   2    0.26    0.22
  -2   4   2    0.09    0.04
   2   4  -2    0.21    0.09
   0  -4  -2    0.00    0.03
   0  -4   2   -0.01    0.04
   0  -4   2    0.00    0.02
   0  -4  -2    0.07    0.04
   0   4   2   -0.02    0.02
   0   4  -2    0.02    0.03
   0   4  -2    0.02    0.10
   0   4   2    0.05    0.09
   2  -4   2   -0.11    0.06
  -2  -4  -2    0.06    0.08
  -2  -4  -2   -0.02    0.07
   2  -4   2    0.00    0.06
   2   4   2    0.01    0.12
  -2   4  -2    0.09    0.07
  -2   4  -2    0.37    0.28
   2   4   2    0.03    0.07
  -4  -4  -2    0.04    0.05
  -4  -4  -2    0.07    0.04
   4  -4   2    0.20    0.06
   4  -4   2    0.09    0.04
   4   4   2   -0.04    0.07
   4   4   2    0.11    0.06
  -4   4  -2    0.02    0.04
  -4   4  -2    0.52    0.33
   6  -4   2    0.09    0.06
  -6  -4  -2    0.01    0.05
  -6  -4  -2    0.05    0.06
  -6   4  -2    0.16    0.20
  -6   4  -2    0.10    0.07
   6   4   2    0.12    0.09
   6   4   2    0.08    0.12
  -8  -4  -2    1.76    0.25
   8  -4   2    1.52    0.20
  -8   4  -2    1.79    0.58
   8   4   2    1.23    0.34
  -8   4  -2    1.49    0.22
  10  -4   2   -0.08    0.09
 -10  -4  -2    0.00    0.10
  10   4   2   -0.02    0.20
 -10   4  -2   -0.08    0.27
  12  -4   2    0.12    0.17
 -11  -5   2    6.85    0.69
  11  -5  -2    6.24    0.60
 -11   5   2    6.35    1.29
  11   5  -2    6.17    0.91
   9  -5  -2   31.05    2.51
  -9  -5   2   32.39    2.66
   9   5  -2   30.17    3.63
  -9   5   2   29.13    3.90
  -7  -5   2   19.73    1.61
   7  -5  -2   18.41    1.52
  -7  -5   2   18.49    1.58
  -7   5   2   15.86    2.42
   7   5  -2   18.65    2.20
  -5  -5   2   12.63    1.12
  -5  -5   2   12.02    1.09
   5  -5  -2   12.10    1.08
   5   5  -2   14.12    1.53
  -5   5   2   12.86    1.07
  -5   5   2   13.09    1.82
  -3  -5   2   36.92    2.97
   3  -5  -2   34.91    2.96
  -3  -5   2   37.68    2.99
  -3   5   2   28.91    4.31
  -3   5   2   34.57    2.87
   3   5  -2   38.78    4.12
   1  -5  -2   12.90    1.16
  -1  -5   2   12.89    1.10
  -1  -5   2   13.43    1.16
   1   5  -2   13.62    1.61
  -1   5   2   12.80    1.12
   1   5  -2   15.18    1.14
   1  -5   2   47.12    3.83
  -1  -5  -2   48.35    3.97
  -1  -5  -2   47.78    3.99
   1   5   2   47.69    3.84
  -1   5  -2   51.11    5.60
  -3  -5  -2   14.69    1.16
  -3  -5  -2   12.78    1.15
   3  -5   2   13.45    1.14
   3  -5   2   13.92    1.11
  -3   5  -2   14.29    1.14
   3   5   2   10.78    1.59
   3   5   2   15.04    1.11
  -3   5  -2   11.96    1.82
  -5  -5  -2    5.76    0.54
  -5  -5  -2    4.95    0.51
   5  -5   2    5.75    0.50
   5   5   2    6.81    0.52
  -5   5  -2    9.88    1.28
  -5   5  -2    6.41    0.52
   5   5   2    4.36    0.73
   7  -5   2   46.58    3.94
  -7  -5  -2   48.00    4.13
  -7   5  -2   58.54    6.04
   9  -5   2    4.06    0.41
  -9  -5  -2    4.13    0.46
  -9   5  -2    4.78    1.07
   9   5   2    4.17    0.67
  11  -5   2    2.02    0.30
 -11  -5  -2    1.80    0.33
 -11   5  -2    1.79    0.84
  11   5   2    2.52    0.51
 -10  -6   2    4.58    0.51
  10  -6  -2    3.56    0.42
  10   6  -2    4.24    0.63
 -10   6   2    5.13    1.08
  -8  -6   2    0.10    0.08
  -8  -6   2    0.21    0.11
   8  -6  -2    0.35    0.10
   8   6  -2    0.23    0.15
  -8   6   2    0.29    0.35
  -6  -6   2    2.51    0.28
  -6  -6   2    1.85    0.27
   6  -6  -2    2.35    0.27
   6  -6  -2    2.07    0.25
  -6   6   2    3.23    0.81
   6   6  -2    2.70    0.41
  -4  -6   2   -0.05    0.05
  -4  -6   2   -0.03    0.05
   4  -6  -2   -0.02    0.06
  -4   6   2    0.06    0.05
   4   6  -2   -0.04    0.11
  -4   6   2    0.37    0.36
   2  -6  -2  151.89   12.96
  -2  -6   2  168.93   12.54
  -2  -6   2  160.47   13.08
  -2  -6   2  161.41   12.97
  -2   6   2  164.89   12.58
   2   6  -2  144.52   18.00
   0  -6  -2    0.03    0.05
   0  -6   2    0.01    0.03
   0  -6   2    0.02    0.05
   0   6   2    0.03    0.04
   0   6  -2   -0.03    0.12
   0   6  -2    0.06    0.04
   0   6   2   -0.01    0.12
   2  -6   2    3.50    0.33
  -2  -6  -2    3.48    0.35
  -2  -6  -2    3.78    0.37
   2  -6   2    3.56    0.36
  -2   6  -2    3.62    0.74
   2   6   2    3.45    0.33
  -2   6  -2    4.49    0.34
  -4  -6  -2    0.02    0.05
   4  -6   2    0.10    0.06
  -4  -6  -2    0.06    0.06
   4  -6   2    0.02    0.04
   4   6   2    0.06    0.04
  -4   6  -2   -0.04    0.32
   4   6   2   -0.09    0.10
  -6  -6  -2  139.55   11.64
   6  -6   2  141.97   11.16
  -8  -6  -2    0.00    0.08
   8  -6   2    0.00    0.07
  -8   6  -2   -0.14    0.32
   8   6   2   -0.26    0.12
  10  -6   2    0.56    0.17
 -10  -6  -2    0.29    0.18
  10   6   2   -0.10    0.20
 -10   6  -2    0.45    0.61
 -11  -7   2    3.15    0.44
  11  -7  -2    2.67    0.36
  -9  -7   2    0.77    0.20
   9  -7  -2    0.84    0.17
   9   7  -2    0.78    0.26
  -9   7   2    1.04    0.58
  -7  -7   2    1.80    0.26
  -7  -7   2    1.58    0.23
   7  -7  -2    1.58    0.22
  -7   7   2    2.39    0.81
   7   7  -2    1.55    0.35
   5  -7  -2    8.50    0.75
  -5  -7   2    8.42    0.79
   5  -7  -2    8.93    0.78
  -5  -7   2    9.06    0.80
   5   7  -2    9.56    1.11
  -5   7   2    5.35    1.39
   3  -7  -2    4.09    0.39
  -3  -7   2    3.48    0.38
  -3  -7   2    4.07    0.38
   3   7  -2    3.55    0.54
  -3   7   2    3.99    0.37
  -3   7   2    3.66    0.86
   1  -7  -2   46.83    3.83
  -1  -7   2   44.81    3.68
   1   7  -2   47.56    5.34
  -1   7   2   43.48    3.70
   1   7  -2   48.64    3.82
  -1  -7  -2   28.94    2.38
   1  -7   2   27.80    2.28
   1   7   2   27.73    2.29
  -1   7  -2   30.07    3.41
  -3  -7  -2   37.02    2.95
   3  -7   2   35.98    2.94
   3  -7   2   35.87    2.84
  -3  -7  -2   36.75    2.96
  -3   7  -2   36.53    4.40
   3   7   2   31.43    2.83
  -5  -7  -2   64.44    5.20
   5  -7   2   57.59    5.03
  -5  -7  -2   65.00    5.26
  -5   7  -2   68.93    7.67
   7  -7   2    4.49    0.42
  -7  -7  -2    5.48    0.48
   7   7   2    3.13    0.64
  -7   7  -2    6.56    1.22
   9  -7   2    1.37    0.21
  -9  -7  -2    0.98    0.22
   9   7   2    0.86    0.32
  -9   7  -2    1.04    0.69
  10  -8  -2    0.01    0.14
 -10  -8   2    0.08    0.17
  10   8  -2    0.19    0.23
 -10   8   2   -0.19    0.49
   8  -8  -2  224.93   17.62
  -8  -8   2  218.40   18.18
  -8  -8   2  243.41   18.38
   8   8  -2  234.81   25.28
  -8   8   2  181.34   25.62
  -6  -8   2    0.51    0.14
   6  -8  -2    0.62    0.14
   6  -8  -2    0.39    0.11
  -6  -8   2    0.44    0.13
   6   8  -2    0.69    0.26
  -6   8   2    0.12    0.50
  -4  -8   2    4.46    0.50
  -4  -8   2    5.82    0.50
   4  -8  -2    5.63    0.51
  -4   8   2    5.10    0.49
   4   8  -2    5.24    0.72
  -4   8   2    2.82    0.99
  -2  -8   2   -0.02    0.07
   2  -8  -2    0.01    0.06
  -2   8   2    0.00    0.05
   2   8  -2   -0.11    0.12
  -2   8   2    0.12    0.30
   0  -8   2   26.14    2.20
   0  -8  -2   29.75    2.32
   0   8   2   26.22    2.22
   0   8  -2   28.64    3.28
  -2  -8  -2    0.03    0.06
   2  -8   2    0.07    0.07
   2  -8   2    0.15    0.06
  -2   8  -2    0.22    0.32
   2   8   2    0.03    0.14
   2   8   2    0.08    0.05
  -4  -8  -2   11.30    0.90
   4  -8   2    9.86    0.85
  -4   8  -2    6.38    1.57
  -6  -8  -2    0.09    0.09
   6  -8   2    0.08    0.07
  -6  -8  -2    0.08    0.08
  -6   8  -2   -0.13    0.53
   6   8   2   -0.03    0.17
  -8  -8  -2    7.49    0.70
   8  -8   2    7.63    0.64
   8   8   2    5.43    0.95
  -8   8  -2    9.85    1.65
 -10  -8  -2    0.24    0.21
   9  -9  -2    0.38    0.14
  -9  -9   2    0.26    0.17
   9   9  -2    0.11    0.30
  -9   9   2    0.34    0.59
  -7  -9   2    0.81    0.18
   7  -9  -2    0.43    0.13
  -7  -9   2    0.58    0.16
   7   9  -2    0.64    0.30
  -7   9   2    2.01    0.84
  -5  -9   2    8.56    0.93
   5  -9  -2   11.65    0.95
   5  -9  -2   12.09    0.91
  -5   9   2    6.75    1.66
   5   9  -2   10.40    1.34
  -3  -9   2    0.05    0.09
   3  -9  -2    0.17    0.10
  -3   9   2    0.93    0.53
  -3   9   2    0.11    0.08
   3   9  -2    0.33    0.18
  -1  -9   2   19.37    1.72
   1  -9  -2   21.06    1.73
  -1   9   2   20.30    1.65
   1   9  -2   19.22    2.42
  -1  -9  -2   17.79    1.56
   1  -9   2   18.04    1.47
  -1   9  -2   16.11    2.28
   1   9   2   19.24    1.49
   3  -9   2   31.15    2.32
  -3  -9  -2   28.53    2.42
  -3   9  -2   22.81    3.61
   5  -9   2   15.39    1.14
   5   9   2   11.44    1.67
  -5   9  -2   11.91    2.17
   7  -9   2    0.06    0.08
  -7   9  -2   -0.19    0.60
   7   9   2    0.09    0.23
   8 -10  -2    0.00    0.08
  -8 -10   2    0.05    0.10
  -8  10   2   -0.33    0.60
   8  10  -2   -0.06    0.29
  -6 -10   2    3.61    0.45
   6 -10  -2    4.03    0.41
   6  10  -2    4.88    0.74
  -4 -10   2    0.19    0.12
   4 -10  -2    0.21    0.13
   4 -10  -2    0.30    0.10
  -4  10   2    0.70    0.54
   4  10  -2    0.45    0.23
   2 -10  -2   53.48    4.48
  -2 -10   2   52.20    4.47
  -2  10   2   55.04    4.33
   2  10  -2   54.34    6.26
   0 -10   2    0.05    0.09
   0 -10  -2    0.07    0.09
   0  10   2    0.15    0.24
   0  10  -2    0.48    0.32
   2 -10   2    2.00    0.24
  -2 -10  -2    3.19    0.33
   2 -10   2    2.06    0.29
  -2  10  -2    2.61    0.77
   2  10   2    2.66    0.50
  -4 -10  -2    0.29    0.12
   4 -10   2    0.24    0.09
   4 -10   2    0.15    0.10
  -4  10  -2   -0.22    0.49
   4  10   2   -0.04    0.22
   6 -10   2   39.22    2.94
  -6  10  -2   40.45    4.88
   6  10   2   30.86    4.26
  -7 -11   2    1.30    0.27
   7 -11  -2    2.25    0.27
  -7  11   2    1.81    1.03
  -5 -11   2    6.08    0.65
   5 -11  -2    6.53    0.61
   5 -11  -2    7.57    0.67
   5  11  -2    6.40    1.00
  -5  11   2    4.54    1.32
  -3 -11   2   16.06    1.56
   3 -11  -2   19.66    1.50
   3 -11  -2   18.79    1.57
   3  11  -2   18.93    2.24
  -3  11   2   13.29    2.42
  -1 -11   2    0.02    0.11
   1 -11  -2    0.15    0.12
   1  11  -2    0.24    0.28
  -1  11   2    0.62    0.33
  -1 -11  -2    3.97    0.42
   1 -11   2    4.99    0.45
  -1  11  -2    4.64    0.93
   1  11   2    2.11    0.63
   3 -11   2    1.31    0.18
  -3 -11  -2    1.09    0.22
   3 -11   2    1.51    0.25
  -3  11  -2    1.31    0.70
   3  11   2    1.21    0.36
   5 -11   2    0.30    0.10
  -5 -11  -2    0.27    0.12
  -5  11  -2   -0.65    0.78
   5  11   2   -0.39    0.22
   4 -12  -2    2.72    0.33
   4 -12  -2    2.57    0.38
   4  12  -2    2.53    0.59
  -4  12   2    6.28    1.24
   2 -12  -2    0.60    0.19
  -2 -12   2    0.32    0.19
   2  12  -2    0.20    0.36
  -2  12   2    0.58    0.47
   0 -12   2   -0.02    0.14
   0 -12  -2    0.00    0.14
   0  12  -2    0.04    0.43
   0  12   2    0.20    0.31
   2 -12   2    0.40    0.18
  -2 -12  -2    0.47    0.15
   2  12   2    0.43    0.33
  -2  12  -2    0.89    0.75
   4  12   2    0.49    0.27
  -4  12  -2    0.24    1.00
   1 -13   2    6.60    0.70
   3 -13   2    5.46    0.63
 -12   0   3   -0.03    0.09
  12   0  -3   -0.01    0.19
 -10   0   3   -0.02    0.06
  10   0  -3    0.08    0.17
   8   0  -3    0.21    0.07
  -8   0   3    1.37    0.36
  -8   0   3    0.49    0.14
   6   0  -3    0.00    0.04
  -6   0   3   -0.05    0.04
  -6   0   3   -0.03    0.10
  -6   0   3   -0.02    0.08
  -4   0   3   -0.01    0.04
  -4   0   3    0.01    0.03
  -4   0   3    0.05    0.08
  -4   0   3    0.17    0.11
  -2   0   3   -0.65    0.05
   0   0   3    0.13    0.06
   0   0  -3   -0.07    0.07
   0   0   3    0.05    0.04
   2   0   3   -0.03    0.04
  -2   0  -3   -0.09    0.04
  -2   0  -3   -0.01    0.09
   2   0   3   -0.01    0.03
   4   0   3    0.07    0.04
  -4   0  -3    0.08    0.05
  -4   0  -3    0.14    0.15
   6   0   3    0.07    0.05
  -6   0  -3    0.09    0.06
  -6   0  -3    0.19    0.20
  -8   0  -3    0.00    0.16
  -8   0  -3    0.07    0.08
   8   0   3    0.01    0.06
 -10   0  -3    0.09    0.09
  10   0   3    0.09    0.09
  10   0   3    0.00    0.22
  12   0   3    0.05    0.26
 -12   0  -3    0.02    0.11
 -13  -1   3   14.78    1.43
 -13   1   3   16.62    1.44
 -11  -1   3    4.10    0.49
  11  -1  -3    5.07    0.73
  11   1  -3    4.58    0.73
 -11   1   3    5.25    0.51
   9  -1  -3    7.30    0.67
  -9  -1   3    7.95    0.74
  -9   1   3    7.83    0.73
   9   1  -3    8.44    1.01
  -9   1   3    7.84    1.18
  -7  -1   3   39.97    3.47
  -7  -1   3   39.19    3.48
   7  -1  -3   39.35    3.31
  -7   1   3   47.20    4.94
  -7   1   3   38.20    3.46
   7   1  -3   45.89    4.78
   7   1  -3   37.69    3.30
  -7   1   3   47.34    3.43
  -5  -1   3   14.20    1.27
  -5  -1   3   16.03    1.28
   5   1  -3   14.26    1.73
  -5   1   3   14.75    1.83
  -5   1   3   15.29    1.21
  -5   1   3   14.55    1.26
   5   1  -3   13.34    1.19
  -5   1   3   16.32    1.27
  -3  -1   3   73.88    5.98
  -3  -1   3   71.46    5.92
  -3  -1   3   73.78    5.72
  -3   1   3   71.23    8.26
  -3   1   3   72.54    5.97
  -3   1   3   72.80    5.93
  -3   1   3   72.53    5.73
   3   1  -3   70.38    8.20
   1  -1  -3   39.40    2.91
  -1  -1   3   29.96    2.89
  -1   1   3   36.85    2.80
  -1   1   3   33.25    2.90
   1   1  -3   35.10    3.99
   1   1  -3   36.33    2.90
  -1  -1  -3    7.44    0.59
   1  -1   3    6.05    0.56
  -1  -1  -3    7.34    0.58
   1  -1   3    6.57    0.58
  -1   1  -3    6.48    0.87
   1   1   3    5.64    0.58
  -3  -1  -3  152.67   12.12
  -3  -1  -3  142.72   12.26
   3  -1   3  141.83   11.77
   3   1   3  152.34   11.78
  -3   1  -3  150.31   16.95
  -3   1  -3  153.58   12.26
   5  -1   3   35.51    2.98
  -5  -1  -3   37.93    3.12
   5   1   3   34.73    4.29
  -5   1  -3   39.94    3.12
   5   1   3   37.18    2.98
  -5   1  -3   38.15    4.41
  -7  -1  -3    5.45    0.55
   7  -1   3    6.47    0.52
   7   1   3    5.84    0.51
  -7   1  -3    6.18    0.96
   7   1   3    4.75    0.77
  -7   1  -3    5.88    0.55
  -9  -1  -3   16.57    1.54
   9  -1   3   18.72    1.46
  -9   1  -3   15.97    1.53
  -9   1  -3   19.07    2.36
   9   1   3   19.60    1.47
   9   1   3   15.76    2.13
  11  -1   3    7.77    1.12
  11  -1   3    8.55    0.74
 -11  -1  -3    7.45    0.78
 -11   1  -3    7.25    0.77
  11   1   3    8.96    1.13
 -12  -2   3    0.03    0.09
 -12   2   3    0.12    0.28
  12   2  -3   -0.19    0.19
 -12   2   3   -0.09    0.09
 -10  -2   3    0.87    0.19
  10  -2  -3    0.99    0.16
 -10   2   3    1.41    0.49
  10   2  -3    1.53    0.33
 -10   2   3    1.00    0.19
  -8  -2   3    0.03    0.06
   8  -2  -3    0.16    0.06
  -8  -2   3    0.06    0.10
  -8   2   3    0.03    0.15
   8   2  -3    0.10    0.13
  -8   2   3    0.10    0.07
   6  -2  -3  173.53   13.86
  -6  -2   3  172.82   14.45
  -6  -2   3  185.12   14.31
  -6   2   3  177.63   14.44
   6   2  -3  179.60   19.86
  -6   2   3  179.40   20.00
   6   2  -3  160.18   13.83
  -4  -2   3    0.11    0.05
  -4  -2   3    0.13    0.05
   4   2  -3    0.16    0.08
  -4   2   3    0.07    0.04
  -4   2   3    0.23    0.17
  -4   2   3    0.13    0.05
  -4   2   3    0.02    0.04
   2  -2  -3    1.26    0.15
   2  -2  -3    1.31    0.13
  -2  -2   3    1.28    0.15
  -2  -2   3    1.30    0.15
  -2   2   3    1.44    0.30
   2   2  -3    1.88    0.20
  -2   2   3    1.39    0.14
   0  -2   3    0.09    0.02
   0  -2   3    0.09    0.04
   0  -2  -3    0.05    0.03
   0  -2  -3    0.11    0.03
   0   2   3   -0.01    0.02
   0   2  -3    0.04    0.08
   0   2  -3   -0.02    0.05
   0   2   3    0.09    0.06
  -2  -2  -3  468.80   36.24
   2  -2   3  442.87   35.15
   2  -2   3  457.58   36.24
  -2  -2  -3  459.91   36.60
   2   2   3  387.44   35.17
  -2   2  -3  455.85   50.45
  -4  -2  -3    0.08    0.03
   4  -2   3    0.00    0.03
  -4  -2  -3    0.03    0.04
  -4   2  -3    0.14    0.18
   4   2   3   -0.07    0.07
  -4   2  -3    0.05    0.05
   4   2   3   -0.02    0.05
  -6  -2  -3    0.21    0.08
   6  -2   3    0.15    0.06
   6   2   3    0.13    0.14
  -6   2  -3    0.15    0.19
   6   2   3    0.03    0.06
  -6   2  -3    0.10    0.08
  -8  -2  -3    0.06    0.08
   8  -2   3    0.12    0.08
   8   2   3    0.05    0.08
  -8   2  -3   -0.15    0.14
   8   2   3    0.11    0.16
  -8   2  -3    0.13    0.09
 -10  -2  -3    0.31    0.13
  10  -2   3    0.37    0.12
 -10   2  -3    0.12    0.23
  10   2   3    0.15    0.21
 -10   2  -3    0.26    0.11
  12  -2   3   -0.09    0.15
 -12   2  -3   -0.13    0.50
 -12   2  -3    0.07    0.11
  12   2   3   -0.11    0.22
  11  -3  -3    1.56    0.20
 -11  -3   3    0.58    0.19
  11   3  -3    1.64    0.38
 -11   3   3    2.15    0.62
  -9  -3   3    8.78    0.84
   9  -3  -3    9.02    0.77
   9   3  -3    9.33    1.16
  -9   3   3    9.72    1.36
  -9   3   3    8.58    0.82
  -7  -3   3    3.86    0.44
   7  -3  -3    4.74    0.41
  -7  -3   3    5.52    0.45
   7  -3  -3    3.76    0.40
  -7   3   3    5.16    0.44
   7   3  -3    4.36    0.60
  -7   3   3    4.02    0.78
  -5  -3   3   41.12    3.69
   5  -3  -3   41.93    3.68
  -5  -3   3   42.71    3.74
   5   3  -3   46.27    5.13
  -5   3   3   48.32    5.29
  -5   3   3   48.26    3.72
  -5   3   3   46.32    3.59
   3  -3  -3   48.81    4.27
  -3  -3   3   53.34    4.28
  -3  -3   3   51.57    4.32
  -3   3   3   53.32    4.15
  -3   3   3   42.85    6.04
  -3   3   3   56.24    4.30
   3   3  -3   55.99    5.93
   1  -3  -3  129.33   10.97
   1  -3  -3  146.04   11.07
  -1  -3   3  134.32   10.62
  -1  -3   3  131.19   10.98
   1   3  -3  135.89   15.24
   1   3  -3  140.02   11.06
  -1   3   3  124.89   10.64
  -1  -3  -3  175.87   14.28
   1  -3   3  170.38   13.84
   1  -3   3  171.57   14.28
  -1  -3  -3  159.04   14.41
  -1   3  -3  188.98   19.93
   1   3   3  186.62   13.86
   3  -3   3    3.59    0.30
   3  -3   3    3.43    0.30
  -3  -3  -3    3.36    0.30
  -3  -3  -3    3.75    0.32
  -3   3  -3    3.99    0.32
  -3   3  -3    3.64    0.67
   3   3   3    2.41    0.42
   3   3   3    2.64    0.32
   5  -3   3    5.89    0.49
  -5  -3  -3    5.51    0.49
  -5  -3  -3    5.31    0.52
   5   3   3    4.50    0.71
  -5   3  -3    5.61    0.51
   5   3   3    6.15    0.54
  -5   3  -3    7.03    0.94
   7  -3   3    3.40    0.35
  -7  -3  -3    3.83    0.39
   7   3   3    3.67    0.40
  -7   3  -3    3.84    0.37
  -7   3  -3    4.64    0.82
   7   3   3    3.32    0.56
   9  -3   3    0.56    0.14
  -9  -3  -3    0.33    0.14
   9   3   3    0.83    0.29
  -9   3  -3    0.56    0.14
  -9   3  -3    0.52    0.31
  11  -3   3    1.53    0.25
 -11  -3  -3    1.80    0.28
  11   3   3    1.84    0.48
 -11   3  -3    1.46    0.25
 -11   3  -3    1.91    0.71
 -12  -4   3  136.47   11.57
  12  -4  -3  138.52   11.05
  12   4  -3  144.52   15.90
 -12   4   3  135.60   16.25
 -10  -4   3    0.68    0.18
  10  -4  -3    1.06    0.17
 -10   4   3    0.63    0.35
  10   4  -3    0.85    0.28
   8  -4  -3    5.34    0.49
  -8  -4   3    5.16    0.54
  -8  -4   3    5.72    0.52
   8   4  -3    5.05    0.72
  -8   4   3    6.41    1.03
  -6  -4   3    0.10    0.08
   6  -4  -3    0.11    0.06
  -6  -4   3    0.21    0.08
  -6   4   3    0.14    0.06
  -6   4   3    0.20    0.07
   6   4  -3    0.22    0.12
  -6   4   3    0.14    0.21
  -4  -4   3   40.86    3.31
  -4  -4   3   37.38    3.34
   4  -4  -3   36.79    3.29
  -4   4   3   38.08    4.77
   4   4  -3   40.67    4.58
  -4   4   3   41.29    3.21
  -4   4   3   43.44    3.31
  -2  -4   3   -0.27    0.05
   2  -4  -3   -0.37    0.04
  -2  -4   3   -0.27    0.05
  -2   4   3   -0.33    0.04
   2   4  -3   -0.13    0.09
  -2   4   3   -0.01    0.23
   0  -4  -3    6.53    0.60
   0  -4   3    6.86    0.62
   0  -4   3    7.27    0.58
   0  -4  -3    6.87    0.61
   0   4  -3    7.70    0.61
   0   4  -3    7.04    0.88
   0   4   3    6.90    0.59
   2  -4   3    0.07    0.05
   2  -4   3    0.00    0.03
  -2  -4  -3    0.04    0.04
  -2  -4  -3    0.04    0.05
  -2   4  -3    0.15    0.07
   2   4   3    0.07    0.05
  -2   4  -3   -0.02    0.19
   2   4   3   -0.02    0.07
  -4  -4  -3   46.34    3.87
  -4  -4  -3   43.62    3.82
   4  -4   3   47.88    3.81
   4  -4   3   48.36    3.71
   4   4   3   41.57    3.72
  -4   4  -3   48.84    3.86
  -4   4  -3   49.51    5.56
  -6  -4  -3    0.28    0.09
   6  -4   3    0.23    0.08
  -6   4  -3    0.19    0.08
  -6   4  -3    0.19    0.26
   6   4   3    0.19    0.11
   6   4   3    0.19    0.15
   8  -4   3  258.12   19.41
  -8  -4  -3  242.79   20.22
   8   4   3  238.85   27.81
  -8   4  -3  240.47   20.20
  10  -4   3    0.22    0.13
 -10  -4  -3    0.14    0.14
  10   4   3   -0.04    0.21
 -10   4  -3    0.26    0.36
  11  -5  -3    0.74    0.17
 -11  -5   3    0.77    0.24
  11   5  -3    0.78    0.27
 -11   5   3    1.39    0.55
  -9  -5   3   11.69    1.06
   9  -5  -3   11.32    0.98
  -9   5   3   11.37    1.68
   9   5  -3   11.55    1.43
   7  -5  -3    0.56    0.12
  -7  -5   3    0.59    0.13
  -7  -5   3    0.64    0.15
  -7   5   3    0.75    0.37
   7   5  -3    0.90    0.22
  -5  -5   3   29.32    2.49
   5  -5  -3   27.21    2.45
  -5  -5   3   29.47    2.46
   5   5  -3   33.06    3.42
  -5   5   3   25.96    3.65
  -5   5   3   30.24    2.39
  -3  -5   3   34.18    2.68
   3  -5  -3   29.79    2.66
  -3  -5   3   31.80    2.69
   3   5  -3   35.40    3.70
  -3   5   3   31.19    2.58
  -3   5   3   29.09    3.91
  -1  -5   3   79.68    6.76
   1  -5  -3   81.04    6.75
  -1  -5   3   82.26    6.52
  -1   5   3   85.52    9.45
   1   5  -3   83.51    9.38
  -1   5   3   79.06    6.54
   1   5  -3   86.21    6.79
   1  -5   3   96.00    7.71
   1  -5   3   94.38    7.46
  -1  -5  -3  100.07    7.72
  -1  -5  -3   95.61    7.77
   1   5   3   90.60    7.47
  -1   5  -3   80.57    7.79
  -1   5  -3  103.68   10.81
   3  -5   3    0.26    0.07
  -3  -5  -3    0.35    0.09
   3  -5   3    0.34    0.08
  -3  -5  -3    0.28    0.08
   3   5   3    0.27    0.14
   3   5   3    0.45    0.09
  -3   5  -3    0.30    0.30
  -3   5  -3    0.38    0.08
   5  -5   3    9.22    0.78
  -5  -5  -3    9.96    0.83
  -5  -5  -3    9.85    0.80
   5   5   3    8.84    0.80
  -5   5  -3   11.43    1.46
  -5   5  -3    9.78    0.81
   5   5   3    6.90    1.12
  -7  -5  -3    5.12    0.48
   7  -5   3    3.99    0.42
  -7   5  -3    5.34    1.00
   7   5   3    3.71    0.64
  -7   5  -3    5.34    0.45
   9  -5   3    1.70    0.23
  -9  -5  -3    1.16    0.24
  -9   5  -3    2.12    0.71
   9   5   3    1.45    0.37
  11  -5   3    0.20    0.17
 -11  -5  -3    0.19    0.19
  11   5   3    0.59    0.29
 -11   5  -3    0.06    0.51
  10  -6  -3    2.96    0.36
 -10  -6   3    3.42    0.43
 -10   6   3    4.83    1.00
  10   6  -3    3.47    0.56
  -8  -6   3    0.31    0.13
   8  -6  -3    0.24    0.09
  -8  -6   3    0.24    0.09
   8   6  -3    0.32    0.17
  -8   6   3    0.23    0.40
  -6  -6   3   72.07    5.91
  -6  -6   3   74.89    5.98
   6  -6  -3   67.85    5.89
  -6   6   3   69.71    5.73
  -6   6   3   67.30    8.50
   6   6  -3   76.92    8.20
   4  -6  -3    0.22    0.09
  -4  -6   3    0.35    0.10
  -4  -6   3    0.30    0.09
  -4   6   3    0.11    0.38
  -4   6   3    0.35    0.09
   4   6  -3    0.32    0.15
  -2  -6   3    3.22    0.28
  -2  -6   3    2.96    0.33
   2  -6  -3    3.06    0.33
  -2   6   3    3.43    0.32
   2   6  -3    3.42    0.48
  -2   6   3    4.64    0.73
   0  -6   3    0.04    0.06
   0  -6   3    0.09    0.04
   0  -6  -3    0.06    0.06
   0   6  -3    0.12    0.06
   0   6  -3    0.12    0.14
   0   6   3    0.03    0.04
   0   6   3   -0.12    0.11
  -2  -6  -3  196.67   15.29
   2  -6   3  177.91   15.15
   2  -6   3  180.84   14.68
  -2  -6  -3  189.84   15.16
   2   6   3  182.81   14.69
  -2   6  -3  186.54   21.24
  -4  -6  -3    0.09    0.06
  -4  -6  -3    0.06    0.05
   4  -6   3    0.10    0.06
   4  -6   3    0.11    0.06
  -4   6  -3   -0.07    0.33
   4   6   3    0.14    0.13
   4   6   3    0.05    0.05
  -6  -6  -3    1.96    0.26
   6  -6   3    1.83    0.22
  -6   6  -3    3.07    0.79
   6   6   3    1.97    0.39
  -8  -6  -3    0.13    0.10
   8  -6   3    0.04    0.08
   8   6   3    0.13    0.18
  -8   6  -3    0.20    0.34
  10  -6   3    0.20    0.16
 -10  -6  -3    0.20    0.17
 -10   6  -3    1.36    0.74
  10   6   3    0.09    0.24
  11  -7  -3    2.62    0.33
 -11  -7   3    2.05    0.38
 -11   7   3    2.41    0.85
   9  -7  -3    5.74    0.56
  -9  -7   3    6.12    0.63
   9   7  -3    5.96    0.83
  -9   7   3    6.42    1.31
  -7  -7   3   25.72    2.35
  -7  -7   3   28.01    2.39
   7  -7  -3   27.73    2.27
  -7   7   3   26.77    3.62
   7   7  -3   30.31    3.28
  -5  -7   3    3.16    0.36
  -5  -7   3    3.45    0.36
   5  -7  -3    3.76    0.36
  -5   7   3    3.37    0.89
   5   7  -3    3.62    0.54
  -5   7   3    3.24    0.35
  -3  -7   3   13.13    1.11
  -3  -7   3   10.56    1.08
   3  -7  -3   12.74    1.09
  -3   7   3   13.44    1.82
   3   7  -3   14.45    1.54
  -3   7   3   12.34    1.06
   1  -7  -3    7.31    0.70
  -1  -7   3    8.81    0.71
  -1  -7   3    7.26    0.64
  -1   7   3    7.19    1.06
   1   7  -3    8.72    0.67
   1   7  -3    8.19    1.00
  -1   7   3    6.69    0.66
  -1  -7  -3    0.08    0.07
   1  -7   3    0.12    0.05
   1  -7   3    0.08    0.07
  -1   7  -3    0.40    0.24
   1   7   3    0.14    0.05
   1   7   3    0.29    0.15
   3  -7   3   47.06    3.84
  -3  -7  -3   48.65    3.87
  -3  -7  -3   48.32    3.85
   3  -7   3   48.45    3.71
  -3   7  -3   46.71    5.63
   3   7   3   47.84    3.71
   3   7   3   37.87    5.33
   5  -7   3   21.85    1.77
  -5  -7  -3   21.58    1.85
  -5  -7  -3   22.20    1.84
  -5   7  -3   27.56    3.03
   5   7   3   19.05    2.56
   7  -7   3    3.24    0.33
  -7  -7  -3    3.49    0.38
  -7   7  -3    5.60    1.14
   7   7   3    2.73    0.54
  -9  -7  -3    2.27    0.33
   9  -7   3    2.17    0.30
   9   7   3    2.28    0.49
  -9   7  -3    3.89    1.08
  10  -8  -3    0.08    0.15
 -10  -8   3    0.03    0.16
 -10   8   3    0.17    0.56
  10   8  -3    0.16    0.25
  -8  -8   3    5.21    0.58
  -8  -8   3    6.38    0.63
   8  -8  -3    5.57    0.56
   8   8  -3    5.98    0.85
  -8   8   3   11.05    1.61
   6  -8  -3    0.23    0.09
  -6  -8   3    0.12    0.10
   6  -8  -3    0.24    0.10
  -6  -8   3    0.25    0.11
  -6   8   3    0.43    0.52
   6   8  -3    0.12    0.19
   4  -8  -3    1.74    0.23
  -4  -8   3    1.60    0.21
  -4  -8   3    1.45    0.23
  -4   8   3    1.46    0.21
  -4   8   3    1.01    0.63
   4   8  -3    1.47    0.34
   2  -8  -3    0.49    0.13
  -2  -8   3    0.45    0.13
  -2   8   3    0.61    0.35
  -2   8   3    0.52    0.11
   2   8  -3    0.65    0.23
   0  -8   3    0.07    0.07
   0  -8  -3    0.13    0.08
   0  -8   3   -0.03    0.05
   0   8   3    0.17    0.07
   0   8   3    0.00    0.18
   0   8  -3   -0.04    0.18
   2  -8   3    0.32    0.10
  -2  -8  -3    0.28    0.10
   2  -8   3    0.17    0.06
  -2   8  -3    0.12    0.34
   2   8   3    0.25    0.07
   2   8   3    0.16    0.16
   4  -8   3    1.43    0.19
  -4  -8  -3    1.76    0.23
   4  -8   3    1.45    0.21
   4   8   3    1.49    0.36
  -4   8  -3    1.66    0.70
  -6  -8  -3    0.00    0.07
  -6  -8  -3    0.03    0.09
   6  -8   3    0.08    0.07
  -6   8  -3    0.20    0.52
   6   8   3    0.08    0.20
  -8  -8  -3    0.19    0.12
   8  -8   3    0.16    0.09
  -8   8  -3    0.19    0.62
   8   8   3    0.38    0.25
  -9  -9   3    2.47    0.36
   9  -9  -3    2.14    0.32
  -9   9   3    1.65    0.88
   9   9  -3    2.41    0.53
   7  -9  -3   13.27    1.12
  -7  -9   3   12.27    1.17
  -7   9   3   13.53    2.23
   7   9  -3   13.17    1.64
  -5  -9   3    6.20    0.57
   5  -9  -3    5.09    0.55
   5   9  -3    5.97    0.80
  -5   9   3    4.61    1.19
  -5   9   3    5.47    0.54
   3  -9  -3   18.56    1.66
  -3  -9   3   19.76    1.68
  -3   9   3   19.96    1.61
   3   9  -3   19.45    2.33
  -3   9   3   18.42    2.62
   1  -9  -3   10.84    1.07
  -1  -9   3   11.76    1.08
  -1   9   3   12.77    1.63
   1   9  -3   12.70    1.56
  -1   9   3   13.03    1.04
  -1  -9  -3    4.22    0.45
   1  -9   3    4.31    0.44
   1  -9   3    4.58    0.39
   1   9   3    4.67    0.41
  -1   9  -3    5.30    0.86
   1   9   3    3.18    0.66
   3  -9   3   26.97    2.03
   3  -9   3   26.41    2.12
  -3  -9  -3   24.89    2.12
   3   9   3   21.86    2.96
  -3   9  -3   22.87    3.24
   5  -9   3    3.66    0.37
  -5  -9  -3    4.14    0.42
  -5   9  -3    4.00    1.10
   5   9   3    3.86    0.66
   7  -9   3    3.32    0.34
   7   9   3    2.72    0.58
  -7   9  -3    4.25    1.20
   8 -10  -3   -0.10    0.08
  -8 -10   3   -0.19    0.10
   8  10  -3   -0.15    0.29
  -8  10   3   -0.36    0.68
  -6 -10   3   59.31    5.49
   6 -10  -3   71.51    5.49
   6 -10  -3   69.46    5.31
   6  10  -3   63.89    7.64
  -4 -10   3    0.05    0.09
   4 -10  -3    0.06    0.09
   4  10  -3    0.06    0.19
  -4  10   3    0.03    0.48
  -4  10   3    0.06    0.08
   2 -10  -3    3.60    0.39
  -2 -10   3    2.55    0.37
  -2  10   3    3.07    0.34
  -2  10   3    3.11    0.78
   2  10  -3    3.72    0.61
   0 -10   3    0.04    0.09
   0 -10  -3    0.17    0.10
   0  10   3    0.04    0.07
   0  10   3   -0.06    0.24
   0  10  -3    0.27    0.27
  -2 -10  -3   74.74    5.88
   2 -10   3   74.51    5.87
   2 -10   3   74.26    5.65
   2  10   3   68.10    8.19
  -2  10  -3   59.18    8.35
  -4 -10  -3   -0.01    0.07
   4 -10   3    0.11    0.08
   4  10   3   -0.39    0.19
  -4  10  -3   -0.33    0.52
   6 -10   3    0.46    0.11
  -6 -10  -3    0.19    0.11
   6  10   3    0.57    0.31
  -6  10  -3    0.21    0.75
   7 -11  -3    3.78    0.38
  -7 -11   3    3.01    0.43
  -7  11   3    3.21    1.13
   5 -11  -3   19.16    1.62
  -5 -11   3   16.41    1.60
   5 -11  -3   18.60    1.54
   5  11  -3   18.77    2.28
   3 -11  -3   11.02    1.08
  -3 -11   3   11.49    1.08
  -3  11   3   11.01    1.91
  -3  11   3   12.34    1.04
   3  11  -3   12.67    1.56
   1 -11  -3   15.72    1.48
  -1 -11   3   16.92    1.50
   1  11  -3   17.93    2.18
  -1  11   3   18.10    1.43
  -1  11   3   15.10    2.21
   1 -11   3   26.04    2.13
  -1 -11  -3   23.91    2.13
   1  11   3   24.85    3.05
  -1  11  -3   23.98    3.16
   3 -11   3    2.89    0.39
  -3 -11  -3    4.13    0.41
  -3  11  -3    1.76    0.88
   3  11   3    3.70    0.65
   5 -11   3    1.46    0.20
  -5  11  -3    1.32    1.03
   5  11   3    0.93    0.39
   4 -12  -3   16.57    1.36
   4 -12  -3   14.69    1.26
   4  12  -3   15.63    1.96
  -4  12   3    9.34    2.20
  -2 -12   3   -0.01    0.16
   2 -12  -3    0.06    0.16
   2  12  -3    0.32    0.42
  -2  12   3   -0.50    0.39
   0 -12   3    9.84    1.02
   0 -12  -3   12.99    1.04
   0  12  -3   10.43    1.67
   0  12   3    9.82    1.53
  -2 -12  -3    0.11    0.10
   2 -12   3    0.12    0.16
   2  12   3    0.23    0.30
  -2  12  -3    0.13    0.68
   4  12   3    5.26    0.88
  -1  13   3    7.71    1.44
  12   0  -4    4.31    0.69
 -12   0   4    4.31    0.49
 -10   0   4    0.26    0.11
  10   0  -4    0.18    0.18
   8   0  -4   35.46    3.65
  -8   0   4   29.40    2.64
   8   0  -4   27.84    2.49
  -8   0   4   33.88    2.65
   6   0  -4   -0.12    0.05
  -6   0   4   -0.04    0.13
  -6   0   4    0.07    0.11
  -6   0   4   -0.08    0.05
  -4   0   4    7.52    0.74
  -4   0   4    7.70    0.65
  -4   0   4    8.54    0.70
  -4   0   4    7.72    0.99
   2   0  -4   -0.08    0.03
  -2   0   4   -0.09    0.02
   2   0  -4   -0.05    0.03
  -2   0   4   -0.10    0.06
   0   0  -4   74.28    6.25
   0   0   4   83.73    6.00
   0   0   4   67.86    6.19
   2   0   4    0.05    0.04
  -2   0  -4    0.15    0.10
  -2   0  -4    0.04    0.04
   2   0   4    0.01    0.03
  -4   0  -4  619.77   69.08
   4   0   4  604.00   48.18
  -4   0  -4  606.92   50.16
  -6   0  -4    0.06    0.17
  -6   0  -4    0.23    0.09
   6   0   4    0.22    0.07
   8   0   4   12.58    1.05
  -8   0  -4   12.50    1.12
  -8   0  -4   11.73    1.68
 -10   0  -4    0.07    0.09
  10   0   4    0.20    0.26
  10   0   4    0.04    0.09
  12   0   4   17.32    2.18
 -13  -1   4    5.24    0.59
 -13   1   4    5.79    0.60
 -11  -1   4    1.76    0.26
  11  -1  -4    1.56    0.38
  11   1  -4    1.25    0.34
 -11   1   4    1.29    0.23
   9  -1  -4   21.52    1.73
  -9  -1   4   19.03    1.84
   9   1  -4   22.85    2.53
  -9   1   4   20.87    1.84
  -9   1   4   23.33    2.73
  -7  -1   4   31.65    2.65
  -7  -1   4   30.64    2.68
   7  -1  -4   28.13    2.51
  -7   1   4   35.20    2.64
   7   1  -4   28.98    2.50
  -7   1   4   29.52    2.64
   7   1  -4   35.74    3.63
  -7   1   4   33.33    3.77
  -5  -1   4   90.26    7.50
  -5  -1   4   87.79    7.54
  -5  -1   4   91.47    7.22
  -5   1   4   90.49    7.49
  -5   1   4   98.45   10.45
   5   1  -4   88.85   10.35
  -5   1   4   91.28    7.53
  -5   1   4   91.86    7.23
  -3  -1   4  185.69   14.91
  -3  -1   4  183.65   15.04
  -3  -1   4  186.46   14.42
  -3   1   4  164.86   14.91
   3   1  -4  183.46   20.66
  -3   1   4  191.05   15.03
  -3   1   4  183.92   14.43
  -3   1   4  180.42   20.70
   1  -1  -4    0.13    0.08
  -1  -1   4    0.12    0.05
  -1  -1   4    0.17    0.06
   1   1  -4    0.20    0.05
  -1   1   4    0.02    0.03
   1   1  -4    0.20    0.05
  -1   1   4    0.10    0.06
   1  -1   4    7.72    0.66
  -1  -1  -4    7.52    0.66
   1  -1   4    7.23    0.62
  -1   1  -4    6.75    0.94
   1   1   4    7.69    0.65
   1   1   4    7.12    0.65
  -3  -1  -4   17.48    1.28
   3  -1   4   14.05    1.25
  -3  -1  -4   14.47    1.31
   3  -1   4   14.39    1.29
  -3   1  -4   16.75    1.89
   3   1   4   13.95    1.80
   3   1   4   16.19    1.27
  -3   1  -4   16.88    1.32
  -5  -1  -4    1.04    0.16
   5  -1   4    0.85    0.13
  -5   1  -4    0.79    0.30
  -5   1  -4    0.87    0.15
   5   1   4    1.55    0.27
   5   1   4    1.08    0.15
  -7  -1  -4    0.28    0.11
   7  -1   4    0.36    0.10
   7   1   4    0.63    0.23
  -7   1  -4    0.38    0.12
  -7   1  -4    0.44    0.28
   7   1   4    0.56    0.12
   9  -1   4    0.61    0.14
  -9  -1  -4    1.04    0.19
   9   1   4    0.53    0.15
  -9   1  -4    1.05    0.42
   9   1   4    1.13    0.32
  -9   1  -4    0.34    0.14
  11  -1   4   26.90    2.10
  11  -1   4   28.24    3.09
 -11  -1  -4   21.97    2.19
 -11   1  -4   22.51    2.19
  11   1   4   27.02    3.06
 -12  -2   4    0.31    0.13
 -12   2   4    0.20    0.11
  12   2  -4    0.20    0.22
 -12   2   4    0.20    0.32
 -10  -2   4   56.17    5.08
  10  -2  -4   58.38    4.84
  10   2  -4   66.48    6.99
 -10   2   4   63.42    7.23
 -10   2   4   59.96    5.07
  -8  -2   4    0.42    0.12
  -8  -2   4    0.44    0.15
   8  -2  -4    0.54    0.10
   8   2  -4    0.51    0.17
  -8   2   4    0.40    0.27
  -8   2   4    0.48    0.11
  -6  -2   4    3.51    0.35
  -6  -2   4    3.80    0.36
  -6   2   4    3.22    0.32
  -6   2   4    2.93    0.33
  -6   2   4    4.68    0.65
   6   2  -4    3.59    0.46
  -6   2   4    4.76    0.36
   6   2  -4    2.82    0.28
  -4  -2   4    0.03    0.04
  -4  -2   4    0.18    0.06
  -4   2   4    0.04    0.04
  -4   2   4    0.14    0.06
  -4   2   4    0.08    0.04
  -4   2   4    0.07    0.11
   4   2  -4    0.09    0.07
   2  -2  -4  487.38   37.68
  -2  -2   4  416.94   36.19
  -2  -2   4  437.48   37.33
   2   2  -4  437.18   51.82
  -2   2   4  495.88   37.35
   2   2  -4  473.55   37.67
  -2   2   4  463.45   36.21
   0  -2   4    0.00    0.02
   0  -2  -4    0.00    0.04
   0  -2  -4   -0.01    0.03
   0  -2   4    0.02    0.03
   0   2   4    0.05    0.06
   0   2  -4    0.10    0.10
   0   2  -4   -0.11    0.07
   0   2   4    0.05    0.04
   2  -2   4    0.28    0.06
   2  -2   4    0.17    0.05
  -2  -2  -4    0.38    0.06
  -2  -2  -4    0.23    0.07
   2   2   4    0.28    0.09
   2   2   4    0.40    0.10
  -2   2  -4    0.71    0.26
  -2   2  -4    0.33    0.09
  -4  -2  -4    0.06    0.04
   4  -2   4    0.12    0.05
  -4  -2  -4    0.04    0.04
  -4   2  -4    0.08    0.05
  -4   2  -4    0.08    0.17
   4   2   4    0.07    0.07
   4   2   4    0.08    0.09
   6  -2   4    0.62    0.11
  -6  -2  -4    0.68    0.13
   6   2   4    0.60    0.14
   6   2   4    0.71    0.22
  -6   2  -4    0.84    0.34
  -6   2  -4    0.69    0.14
   8  -2   4   -0.03    0.07
  -8  -2  -4    0.02    0.08
  -8   2  -4   -0.08    0.18
  -8   2  -4   -0.09    0.07
   8   2   4    0.00    0.17
   8   2   4    0.19    0.10
 -10  -2  -4   43.47    4.15
  10  -2   4   52.88    3.98
 -10   2  -4   43.63    4.14
 -10   2  -4   54.57    6.02
  10   2   4   54.20    5.75
  12  -2   4    0.23    0.20
 -12   2  -4    0.24    0.15
  11  -3  -4   21.05    1.72
 -11  -3   4   20.55    1.85
 -11   3   4   21.06    2.78
  11   3  -4   20.99    2.52
   9  -3  -4    6.37    0.58
  -9  -3   4    6.40    0.64
   9   3  -4    6.61    0.87
  -9   3   4    6.77    0.63
  -9   3   4    7.30    1.13
   7  -3  -4   12.83    1.02
   7  -3  -4   10.88    1.04
  -7  -3   4   11.47    1.07
  -7  -3   4   10.92    1.08
  -7   3   4   12.33    1.06
   7   3  -4   15.21    1.48
   5  -3  -4   15.75    1.31
  -5  -3   4   14.11    1.33
  -5  -3   4   14.42    1.31
  -5   3   4   15.86    1.27
  -5   3   4   15.64    1.94
  -5   3   4   16.02    1.31
   5   3  -4   16.30    1.81
  -3  -3   4    0.05    0.06
  -3  -3   4    0.00    0.05
   3  -3  -4    0.03    0.04
   3  -3  -4   -0.01    0.06
   3   3  -4    0.08    0.08
  -3   3   4    0.17    0.22
  -3   3   4    0.15    0.06
  -1  -3   4  144.58   11.97
   1  -3  -4  150.13   11.96
  -1  -3   4  150.95   11.58
   1  -3  -4  128.18   12.06
   1   3  -4  152.44   16.60
   1   3  -4  159.54   12.06
  -1   3   4  140.47   11.60
   1  -3   4   74.81    5.82
  -1  -3  -4   70.76    6.06
  -1  -3  -4   77.37    6.01
   1  -3   4   70.71    6.01
  -1   3  -4   60.81    6.08
  -1   3  -4   76.13    8.44
   1   3   4   83.42    5.85
   3  -3   4    7.82    0.65
  -3  -3  -4    8.03    0.68
  -3  -3  -4    8.03    0.66
   3  -3   4    7.87    0.66
   3   3   4    6.57    0.92
  -3   3  -4    8.78    0.69
  -3   3  -4    8.50    1.12
   3   3   4    6.32    0.67
  -5  -3  -4    7.44    0.65
  -5  -3  -4    7.08    0.61
   5  -3   4    7.40    0.61
  -5   3  -4    7.13    0.64
  -5   3  -4    6.89    1.10
   5   3   4    6.43    0.88
   5   3   4    6.85    0.65
   7  -3   4   16.16    1.37
  -7  -3  -4   15.66    1.44
  -7   3  -4   18.79    2.19
  -7   3  -4   15.74    1.43
   7   3   4   16.40    1.42
   7   3   4   17.59    2.00
  -9  -3  -4   15.91    1.63
   9  -3   4   19.28    1.56
  -9   3  -4   18.84    1.63
   9   3   4   19.90    2.28
  -9   3  -4   19.95    2.50
 -11  -3  -4   -0.06    0.16
  11  -3   4    0.29    0.15
 -11   3  -4   -0.04    0.33
 -11   3  -4    0.01    0.10
  11   3   4   -0.19    0.23
 -12  -4   4    1.88    0.32
  12  -4  -4    2.10    0.28
  12   4  -4    1.83    0.45
 -12   4   4    2.64    0.72
  10  -4  -4    0.05    0.08
 -10  -4   4    0.04    0.10
 -10   4   4   -0.06    0.20
  10   4  -4    0.00    0.16
  -8  -4   4    1.85    0.26
   8  -4  -4    1.74    0.22
  -8  -4   4    1.97    0.25
   8   4  -4    1.54    0.32
  -8   4   4    1.76    0.53
  -6  -4   4    0.27    0.09
  -6  -4   4    0.07    0.08
   6  -4  -4    0.20    0.07
  -6   4   4    0.23    0.07
   6   4  -4    0.31    0.12
  -6   4   4    0.17    0.07
  -6   4   4    0.38    0.27
  -4  -4   4    0.04    0.05
   4  -4  -4    0.03    0.03
  -4  -4   4   -0.02    0.05
   4  -4  -4    0.03    0.05
   4   4  -4    0.04    0.08
  -4   4   4    0.18    0.28
  -4   4   4    0.06    0.05
   2  -4  -4    0.18    0.07
  -2  -4   4    0.15    0.07
  -2   4   4    0.37    0.23
   2   4  -4    0.27    0.11
  -2   4   4    0.14    0.06
   2   4  -4    0.05    0.04
   0  -4  -4    0.13    0.04
   0  -4  -4    0.12    0.06
   0  -4   4    0.19    0.05
   0  -4   4   -0.01    0.05
   0   4  -4    0.00    0.12
   0   4   4    0.06    0.05
   0   4   4    0.20    0.11
   0   4  -4    0.12    0.08
   2  -4   4    0.05    0.04
  -2  -4  -4    0.12    0.06
  -2  -4  -4    0.07    0.05
   2  -4   4    0.07    0.05
  -2   4  -4    0.06    0.22
   2   4   4    0.12    0.09
  -2   4  -4    0.26    0.09
   2   4   4    0.08    0.06
  -4  -4  -4    0.20    0.07
  -4  -4  -4    0.30    0.08
   4  -4   4    0.13    0.06
   4  -4   4    0.28    0.08
   4   4   4    0.11    0.09
   4   4   4    0.35    0.13
  -4   4  -4    0.35    0.29
  -4   4  -4    0.18    0.07
   6  -4   4    0.04    0.06
  -6  -4  -4    0.03    0.07
  -6   4  -4    0.11    0.07
   6   4   4    0.23    0.11
   6   4   4   -0.08    0.13
  -6   4  -4   -0.13    0.20
  -8  -4  -4    0.51    0.15
   8  -4   4    0.43    0.12
  -8   4  -4    0.94    0.42
   8   4   4    0.71    0.26
  -8   4  -4    0.33    0.12
  10  -4   4    0.02    0.12
 -10  -4  -4    0.18    0.15
  10   4   4   -0.11    0.22
 -10   4  -4    0.14    0.28
  11  -5  -4   14.78    1.31
 -11  -5   4   15.54    1.43
  11   5  -4   16.42    1.92
 -11   5   4   15.16    2.19
  -9  -5   4    5.97    0.61
   9  -5  -4    5.30    0.54
   9   5  -4    6.58    0.81
  -9   5   4    6.80    1.12
  -7  -5   4   21.14    1.80
  -7  -5   4   21.94    1.83
   7  -5  -4   18.65    1.77
  -7   5   4   23.58    2.75
   7   5  -4   22.40    2.49
  -5  -5   4   20.84    1.72
  -5  -5   4   20.16    1.73
   5  -5  -4   18.24    1.70
   5   5  -4   21.78    2.36
  -5   5   4   20.29    1.66
  -5   5   4   20.13    2.61
   3  -5  -4    2.28    0.27
  -3  -5   4    2.86    0.29
  -3  -5   4    2.69    0.28
  -3   5   4    2.73    0.65
   3   5  -4    3.11    0.38
  -3   5   4    2.29    0.26
  -1  -5   4   80.87    6.50
  -1  -5   4   78.93    6.27
   1  -5  -4   74.99    6.49
   1   5  -4   82.11    9.02
  -1   5   4   73.29    6.29
   1   5  -4   84.96    6.53
  -1  -5  -4   36.94    3.12
   1  -5   4   37.55    3.11
  -1  -5  -4   38.61    3.11
   1  -5   4   36.49    2.99
   1   5   4   34.47    4.30
  -1   5  -4   37.94    3.15
  -1   5  -4   41.00    4.42
   1   5   4   38.37    3.01
   3  -5   4   11.00    0.91
  -3  -5  -4   10.68    0.92
   3  -5   4   10.39    0.88
  -3  -5  -4   11.61    0.93
   3   5   4    9.42    1.27
  -3   5  -4   10.24    1.51
   5  -5   4   26.40    2.09
  -5  -5  -4   27.03    2.20
  -5  -5  -4   26.62    2.16
   5   5   4   22.89    3.00
  -5   5  -4   26.46    2.18
  -5   5  -4   32.81    3.34
   5   5   4   22.46    2.11
   7  -5   4   10.22    0.93
  -7  -5  -4   10.28    1.00
  -7   5  -4   11.70    0.98
  -7   5  -4   14.95    1.70
   7   5   4   10.54    1.36
   9  -5   4    7.57    0.70
  -9  -5  -4    6.81    0.75
  -9   5  -4    9.00    1.40
   9   5   4    8.52    1.06
  11   5   4    3.77    0.67
 -10  -6   4   69.12    5.61
  10  -6  -4   65.18    5.34
  10   6  -4   65.79    7.67
   8  -6  -4    0.20    0.09
  -8  -6   4    0.04    0.09
  -8  -6   4    0.28    0.11
  -8   6   4   -0.14    0.26
   8   6  -4    0.14    0.14
   6  -6  -4    1.50    0.21
  -6  -6   4    1.51    0.23
  -6  -6   4    1.59    0.23
  -6   6   4    1.70    0.22
  -6   6   4    2.56    0.70
   6   6  -4    2.04    0.33
   4  -6  -4    0.07    0.06
  -4  -6   4    0.07    0.07
  -4  -6   4    0.08    0.07
  -4   6   4   -0.10    0.37
  -4   6   4    0.04    0.05
   4   6  -4    0.12    0.12
   2  -6  -4  189.00   16.21
  -2  -6   4  213.56   16.23
  -2   6   4  185.44   15.71
   2   6  -4  206.69   22.51
   2   6  -4  199.02   16.33
   0  -6  -4    0.19    0.07
   0  -6   4    0.11    0.07
   0  -6   4    0.31    0.06
   0   6   4    0.13    0.06
   0   6  -4    0.38    0.10
   0   6   4    0.15    0.16
   0   6  -4    0.24    0.18
  -2  -6  -4    0.27    0.07
   2  -6   4    0.15    0.06
  -2  -6  -4    0.18    0.08
   2  -6   4    0.12    0.08
   2   6   4    0.09    0.14
  -2   6  -4    0.14    0.08
  -2   6  -4    0.18    0.30
   2   6   4    0.15    0.07
  -4  -6  -4    0.17    0.08
   4  -6   4    0.30    0.09
   4  -6   4    0.26    0.07
  -4  -6  -4    0.25    0.09
   4   6   4    0.08    0.07
  -4   6  -4   -0.14    0.32
   4   6   4    0.25    0.16
  -4   6  -4    0.37    0.10
  -6  -6  -4    0.20    0.11
   6  -6   4    0.26    0.09
  -6   6  -4    1.05    0.44
   6   6   4    0.47    0.21
   8  -6   4    0.32    0.10
  -8  -6  -4    0.24    0.13
  -8   6  -4    0.04    0.35
   8   6   4    0.46    0.23
 -10  -6  -4   26.84    2.49
  10  -6   4   26.40    2.36
  10   6   4   29.72    3.42
 -10   6  -4   37.03    3.92
  11  -7  -4    3.00    0.39
 -11   7   4    4.71    1.02
   9  -7  -4   16.00    1.40
  -9  -7   4   16.43    1.50
  -9  -7   4   16.15    1.46
   9   7  -4   17.06    2.02
  -9   7   4   19.15    2.41
  -7  -7   4   18.90    1.67
   7  -7  -4   19.04    1.62
   7  -7  -4   18.01    1.58
  -7  -7   4   18.83    1.64
  -7   7   4   18.41    2.59
   7   7  -4   20.55    2.28
  -5  -7   4   46.14    4.02
  -5  -7   4   48.00    4.05
   5  -7  -4   47.49    4.01
  -5   7   4   48.32    3.90
   5   7  -4   51.84    5.57
   3  -7  -4   65.39    5.40
  -3  -7   4   65.60    5.41
  -3   7   4   70.50    7.78
  -3   7   4   65.23    5.23
   3   7  -4   62.92    5.40
   3   7  -4   65.86    7.49
  -1  -7   4    1.83    0.18
  -1  -7   4    1.61    0.24
   1  -7  -4    1.75    0.24
  -1   7   4    2.17    0.22
   1   7  -4    1.83    0.20
  -1   7   4    2.72    0.48
   1   7  -4    2.01    0.37
   1  -7   4    4.67    0.45
   1  -7   4    4.61    0.40
  -1  -7  -4    4.99    0.45
   1   7   4    4.46    0.42
  -1   7  -4    4.21    0.46
  -1   7  -4    4.48    0.77
   1   7   4    4.89    0.65
   3  -7   4    3.06    0.33
  -3  -7  -4    3.02    0.32
   3  -7   4    3.35    0.31
  -3  -7  -4    3.59    0.35
   3   7   4    3.25    0.31
  -3   7  -4    2.93    0.80
   3   7   4    3.26    0.51
   5  -7   4    0.18    0.09
  -5  -7  -4    0.39    0.10
  -5  -7  -4    0.38    0.12
   5   7   4    0.57    0.23
  -5   7  -4    0.59    0.51
   7  -7   4    2.78    0.30
  -7  -7  -4    2.82    0.34
   7   7   4    1.90    0.45
  -7   7  -4    4.34    0.96
   9  -7   4    1.51    0.23
  -9  -7  -4    1.47    0.27
   9   7   4    1.30    0.39
  -9   7  -4    2.74    0.98
  10  -8  -4    0.21    0.16
 -10  -8   4    0.04    0.16
  10   8  -4    0.41    0.27
 -10   8   4   -0.43    0.41
  -8  -8   4   13.20    1.37
   8  -8  -4   15.56    1.33
  -8  -8   4   17.57    1.43
  -8   8   4   20.81    2.43
   8   8  -4   15.59    1.93
   6  -8  -4    0.03    0.09
  -6  -8   4    0.03    0.08
  -6  -8   4    0.03    0.08
  -6   8   4    0.03    0.08
  -6   8   4    0.29    0.49
   6   8  -4    0.08    0.17
   4  -8  -4   10.91    0.95
  -4  -8   4   11.63    0.96
  -4  -8   4    9.90    0.96
  -4   8   4    8.21    1.66
   4   8  -4   10.50    1.32
  -4   8   4   10.83    0.92
   2  -8  -4    0.01    0.08
  -2  -8   4   -0.07    0.06
   2   8  -4    0.12    0.16
  -2   8   4    0.00    0.05
  -2   8   4    0.08    0.27
   2   8  -4    0.00    0.05
   0  -8  -4   22.72    1.89
   0  -8   4   21.46    1.88
   0  -8   4   21.10    1.78
   0   8   4   23.19    2.68
   0   8  -4   23.17    2.69
   0   8   4   22.25    1.81
   2  -8   4    0.00    0.05
  -2  -8  -4    0.01    0.06
   2  -8   4    0.08    0.08
   2   8   4    0.09    0.06
  -2   8  -4    0.46    0.37
   2   8   4    0.01    0.14
   4  -8   4  226.69   17.44
  -4  -8  -4  193.67   18.00
  -4   8  -4  217.99   25.36
   4   8   4  243.36   25.04
  -6  -8  -4    0.06    0.09
  -6  -8  -4    0.10    0.08
   6  -8   4    0.10    0.08
   6   8   4    0.04    0.19
  -6   8  -4    0.10    0.46
   8  -8   4    4.98    0.52
  -8  -8  -4    5.86    0.59
  -8   8  -4    9.76    1.56
   8   8   4    5.61    0.82
   9  -9  -4    4.94    0.53
  -9  -9   4    4.71    0.54
  -9  -9   4    5.78    0.61
  -9   9   4    5.98    1.36
   9   9  -4    5.87    0.85
  -7  -9   4   12.81    1.18
   7  -9  -4   12.73    1.12
  -7  -9   4   12.70    1.18
  -7   9   4   14.55    2.23
   7   9  -4   13.44    1.63
  -5  -9   4   16.16    1.49
   5  -9  -4   17.15    1.48
  -5   9   4   17.01    1.44
   5   9  -4   18.25    2.07
  -5   9   4   14.70    2.42
   3  -9  -4   39.77    3.25
  -3  -9   4   36.86    3.26
   3   9  -4   41.88    4.53
  -3   9   4   37.76    3.15
  -3   9   4   37.13    4.80
  -1  -9   4   -0.01    0.08
   1  -9  -4    0.12    0.09
  -1   9   4    0.05    0.06
   1   9  -4   -0.03    0.20
  -1   9   4    0.27    0.27
  -1  -9  -4    5.29    0.57
   1  -9   4    5.79    0.58
   1   9   4    6.31    0.55
  -1   9  -4    6.70    1.03
   1   9   4    6.47    0.86
   3  -9   4    2.02    0.27
  -3  -9  -4    2.43    0.29
   3  -9   4    1.98    0.23
   3   9   4    2.13    0.44
  -3   9  -4    1.46    0.66
   5  -9   4    1.23    0.18
  -5  -9  -4    0.99    0.20
   5   9   4    1.48    0.37
  -5   9  -4    0.94    0.66
   7  -9   4    0.01    0.08
  -7   9  -4    0.21    0.67
   7   9   4   -0.01    0.22
   8 -10  -4    0.33    0.11
  -8 -10   4    0.36    0.14
   8  10  -4   -0.17    0.27
  -8  10   4    0.03    0.57
   6 -10  -4    3.64    0.38
   6 -10  -4    3.63    0.42
  -6 -10   4    2.93    0.42
   6  10  -4    3.74    0.63
   4 -10  -4   -0.06    0.09
  -4 -10   4   -0.05    0.08
  -4  10   4    0.12    0.09
   4  10  -4   -0.02    0.18
  -4  10   4   -0.05    0.51
   2 -10  -4   79.44    6.69
  -2 -10   4   78.29    6.70
  -2  10   4   83.41    9.54
  -2  10   4   80.45    6.48
   2  10  -4   84.44    9.34
   0 -10  -4    0.12    0.09
   0 -10   4    0.16    0.10
   0  10   4    0.32    0.26
   0  10   4   -0.04    0.07
   0  10  -4   -0.07    0.25
   2 -10   4    0.89    0.18
   2  10   4    0.72    0.30
  -2  10  -4    1.13    0.55
  -4 -10  -4    0.18    0.11
   4 -10   4    0.03    0.07
   4  10   4   -0.21    0.19
  -4  10  -4    0.97    0.66
  -6 -10  -4   -0.06    0.09
   6 -10   4    0.29    0.10
  -6  10  -4   -0.57    0.70
   6  10   4    0.51    0.30
  -7 -11   4    0.79    0.21
  -7  11   4    0.82    0.75
  -5 -11   4    3.05    0.41
   5 -11  -4    3.24    0.40
  -5  11   4    3.23    0.38
   5  11  -4    2.93    0.60
  -5  11   4    1.76    0.84
  -3 -11   4    0.48    0.17
   3 -11  -4    1.12    0.23
  -3  11   4    0.80    0.57
  -3  11   4    0.61    0.16
   3  11  -4    1.24    0.39
   1 -11  -4   23.01    2.04
  -1 -11   4   22.44    2.03
  -1  11   4   23.87    1.95
  -1  11   4   25.39    3.02
  -1 -11  -4    9.34    0.90
   1 -11   4    9.67    0.90
   1  11   4    9.85    1.34
  -1  11  -4    9.37    1.53
  -3 -11  -4    3.99    0.40
   3 -11   4    2.29    0.34
  -3  11  -4    1.84    0.90
   3  11   4    2.48    0.54
  -5 -11  -4    1.67    0.26
   5 -11   4    1.02    0.18
   5  11   4    1.23    0.42
  -5  11  -4    0.71    0.97
   4 -12  -4    0.12    0.18
  -4 -12   4    0.10    0.11
  -4  12   4    0.66    0.62
  -4  12   4    0.10    0.14
   4  12  -4    0.15    0.37
   2 -12  -4    0.35    0.19
  -2 -12   4    0.34    0.19
  -2  12   4    0.46    0.17
  -2  12   4    0.13    0.42
   2  12  -4    0.27    0.43
   0 -12   4    0.15    0.17
   0 -12  -4    0.18    0.17
   0  12   4    0.78    0.38
   0  12  -4    0.49    0.54
   2 -12   4   -0.06    0.15
  -2  12  -4    0.57    0.75
   2  12   4   -0.11    0.25
  -4 -12  -4    0.13    0.12
   4  12   4    0.50    0.29
  -1  13   4    7.25    1.37
  12   0  -5    0.17    0.18
 -12   0   5   -0.01    0.08
 -10   0   5   -0.02    0.07
  10   0  -5    0.07    0.14
  -8   0   5    0.22    0.11
   8   0  -5    0.32    0.14
   8   0  -5   -0.01    0.05
  -8   0   5    0.02    0.05
  -6   0   5    0.05    0.04
   6   0  -5    0.06    0.09
  -6   0   5    0.01    0.09
  -6   0   5    0.00    0.04
   4   0  -5    0.14    0.08
  -4   0   5    0.17    0.05
  -4   0   5   -0.04    0.04
  -4   0   5    0.06    0.09
   2   0  -5    0.00    0.04
   2   0  -5    0.13    0.04
  -2   0   5   -0.14    0.06
  -2   0   5    0.06    0.03
   0   0   5   -0.52    0.07
   0   0   5   -0.63    0.08
   0   0  -5   -0.35    0.13
  -2   0  -5   -0.01    0.08
  -2   0  -5    0.04    0.06
   2   0   5    0.00    0.05
   2   0   5    0.06    0.06
  -4   0  -5    0.15    0.04
   4   0   5    0.09    0.05
  -4   0  -5    0.08    0.07
  -4   0  -5    0.08    0.13
   6   0   5    0.02    0.06
  -6   0  -5   -0.03    0.15
  -6   0  -5    0.06    0.07
   8   0   5   -0.15    0.15
  -8   0  -5    0.21    0.11
   8   0   5    0.10    0.08
  10   0   5   -0.21    0.21
  10   0   5   -0.01    0.11
 -10   0  -5   -0.03    0.09
 -13  -1   5    2.27    0.37
  13  -1  -5    3.15    0.57
 -13   1   5    3.43    0.40
  11  -1  -5    5.43    0.76
 -11  -1   5    4.77    0.53
  11   1  -5    5.74    0.75
 -11   1   5    4.75    0.53
  -9  -1   5   12.99    1.19
   9  -1  -5   13.70    1.10
   9   1  -5   14.10    1.61
  -9   1   5   13.44    1.78
  -9   1   5   12.19    1.17
  -7  -1   5    0.11    0.07
  -7  -1   5    0.18    0.13
  -7   1   5    0.36    0.11
  -7   1   5    0.21    0.08
  -7   1   5    0.35    0.21
   7   1  -5    0.17    0.11
  -5  -1   5   82.82    6.97
  -5  -1   5   87.17    6.67
  -5  -1   5   81.57    6.94
  -5   1   5   78.24    6.94
   5   1  -5   80.63    9.55
  -5   1   5   87.51    6.96
  -5   1   5   87.87    6.68
  -5   1   5   86.82    9.64
   3  -1  -5   71.30    6.21
  -3  -1   5   74.90    6.21
  -3  -1   5   79.99    5.98
   3   1  -5   78.14    8.55
   3   1  -5   72.50    6.21
  -3   1   5   81.63    8.60
  -3   1   5   79.25    5.99
  -3   1   5   64.36    6.21
  -1  -1   5   14.43    1.28
  -1  -1   5   13.98    1.23
   1   1  -5   14.82    1.71
   1   1  -5   15.23    1.27
  -1   1   5   16.53    1.23
   1  -1   5    9.61    0.82
   1  -1   5   10.43    0.78
  -1  -1  -5    9.45    0.82
   1   1   5   10.23    0.81
  -1   1  -5    9.28    1.14
   1   1   5    8.56    0.80
   1   1   5    8.34    1.07
   3  -1   5   23.07    1.95
  -3  -1  -5   23.90    2.04
   3  -1   5   21.40    2.01
  -3  -1  -5   26.61    2.00
  -3   1  -5   25.30    2.05
   3   1   5   22.44    1.97
  -3   1  -5   24.49    2.86
   3   1   5   24.81    2.78
  -5  -1  -5   38.03    3.34
   5  -1   5   39.83    3.19
  -5   1  -5   39.41    3.34
  -5   1  -5   42.81    4.70
   5   1   5   44.29    4.60
   5   1   5   35.41    3.20
   7  -1   5    8.49    0.77
  -7  -1  -5    8.88    0.83
   7   1   5    8.73    0.78
   7   1   5   10.00    1.15
  -7   1  -5    8.90    1.26
  -7   1  -5    8.66    0.82
  -9  -1  -5   17.34    1.71
   9  -1   5   18.60    1.63
   9   1   5   19.05    1.64
  -9   1  -5   24.64    2.62
   9   1   5   22.46    2.38
  -9   1  -5   18.01    1.71
  11  -1   5    3.97    0.72
 -11  -1  -5    4.11    0.49
  11  -1   5    4.20    0.47
  11   1   5    4.28    0.71
 -11   1  -5    3.58    0.47
  12  -2  -5    0.37    0.22
 -12  -2   5    0.45    0.14
  12   2  -5    0.33    0.23
  10  -2  -5    2.70    0.30
 -10  -2   5    2.58    0.35
  10   2  -5    2.73    0.48
 -10   2   5    3.96    0.73
 -10   2   5    3.34    0.36
  -8  -2   5   -0.02    0.05
  -8  -2   5    0.14    0.13
   8  -2  -5    0.05    0.06
  -8   2   5    0.34    0.10
  -8   2   5    0.04    0.06
   8   2  -5    0.10    0.11
  -8   2   5    0.19    0.17
  -6  -2   5  206.24   17.22
  -6  -2   5  205.18   17.36
   6   2  -5  207.22   23.85
  -6   2   5  206.26   23.96
  -6   2   5  220.00   17.21
  -6   2   5  216.16   16.67
  -6   2   5  213.56   17.35
  -4  -2   5    0.41    0.05
  -4  -2   5    0.46    0.11
  -4  -2   5    0.21    0.07
   4  -2  -5    0.29    0.05
   4   2  -5    0.33    0.09
  -4   2   5    0.39    0.15
  -4   2   5    0.41    0.11
  -4   2   5    0.37    0.07
  -2  -2   5    0.22    0.07
  -2  -2   5    0.21    0.05
   2  -2  -5    0.33    0.08
  -2   2   5    0.29    0.06
   2   2  -5    0.20    0.05
  -2   2   5    0.20    0.08
  -2   2   5    0.42    0.16
   2   2  -5    0.27    0.07
   0  -2   5    0.01    0.03
   0  -2  -5    0.01    0.04
   0  -2   5    0.00    0.04
   0  -2  -5    0.45    0.09
   0   2  -5    0.02    0.09
   0   2   5    0.11    0.06
   0   2  -5    0.05    0.10
   0   2   5    0.04    0.05
  -2  -2  -5    1.21    0.15
  -2  -2  -5    1.57    0.18
   2  -2   5    1.14    0.15
   2  -2   5    1.26    0.14
   2   2   5    1.34    0.20
   2   2   5    1.19    0.19
  -2   2  -5    1.56    0.20
  -2   2  -5    1.58    0.35
  -4  -2  -5    0.14    0.07
  -4  -2  -5    0.22    0.06
   4  -2   5    0.14    0.06
  -4   2  -5    0.16    0.08
  -4   2  -5    0.28    0.21
   4   2   5    0.01    0.06
   4   2   5    0.12    0.11
  -6  -2  -5   99.03    8.64
   6  -2   5  102.22    8.28
  -6   2  -5  115.70   12.04
  -6   2  -5   98.73    8.64
   6   2   5  109.34   11.88
   6   2   5  103.04    8.32
  -8  -2  -5    0.24    0.11
   8  -2   5    0.18    0.09
   8   2   5    0.24    0.20
   8   2   5    0.32    0.13
  -8   2  -5    0.31    0.26
  -8   2  -5    0.31    0.12
  10  -2   5    4.83    0.48
 -10  -2  -5    4.39    0.53
 -10   2  -5    5.01    0.97
  10   2   5    4.33    0.73
 -10   2  -5    4.91    0.52
  11  -3  -5   12.80    1.09
 -11  -3   5   11.74    1.17
  11   3  -5   13.16    1.60
 -11   3   5   14.23    1.87
   9  -3  -5   36.11    2.92
  -9  -3   5   33.93    3.07
  -9   3   5   35.19    4.38
  -9   3   5   36.03    3.06
   9   3  -5   39.19    4.20
  -7  -3   5   65.75    5.48
   7  -3  -5   60.47    5.40
  -7  -3   5   61.36    5.43
  -7   3   5   68.50    7.66
  -7   3   5   67.07    5.25
  -7   3   5   68.28    5.46
   7   3  -5   69.24    7.50
  -5  -3   5    0.21    0.09
   5  -3  -5    0.28    0.09
  -5  -3   5    0.25    0.09
   5   3  -5    0.34    0.12
  -5   3   5    0.39    0.08
  -5   3   5    0.34    0.20
  -5   3   5    0.23    0.07
   3  -3  -5    7.59    0.64
  -3  -3   5    7.45    0.67
   3  -3  -5    7.34    0.67
   3   3  -5    7.32    0.89
  -3   3   5    7.80    0.64
   3   3  -5    7.38    0.64
  -3   3   5    7.17    1.01
  -1  -3   5   16.77    1.34
   1  -3  -5   17.75    1.41
  -1  -3   5   14.97    1.40
   1   3  -5   16.85    1.39
   1   3  -5   17.53    1.92
  -1   3   5   15.65    1.35
   1  -3   5    0.53    0.10
  -1  -3  -5    0.55    0.10
   1  -3   5    0.47    0.08
  -1  -3  -5    0.51    0.10
   1   3   5    0.57    0.12
  -1   3  -5    0.76    0.26
   1   3   5    1.16    0.15
  -1   3  -5    0.50    0.15
   3  -3   5    0.96    0.13
   3  -3   5    0.77    0.12
  -3  -3  -5    0.98    0.14
  -3  -3  -5    0.83    0.13
   3   3   5    0.77    0.18
  -3   3  -5    0.93    0.17
   3   3   5    0.99    0.17
  -3   3  -5    1.05    0.38
  -5  -3  -5    5.79    0.54
  -5  -3  -5    5.49    0.50
   5  -3   5    5.77    0.50
   5   3   5    5.57    0.72
  -5   3  -5    5.94    0.93
   5   3   5    5.56    0.55
  -5   3  -5    5.40    0.54
  -7  -3  -5   48.82    4.47
   7  -3   5   52.05    4.27
  -7   3  -5   50.06    4.46
  -7   3  -5   59.67    6.35
   7   3   5   59.86    6.15
   7   3   5   51.56    4.32
  -9  -3  -5   21.26    2.05
   9  -3   5   23.27    1.94
  -9   3  -5   21.46    2.03
   9   3   5   28.39    2.84
  -9   3  -5   23.89    3.02
  11  -3   5    8.19    0.76
 -11  -3  -5    6.60    0.80
 -11   3  -5    8.34    1.46
  11   3   5    9.37    1.12
 -11   3  -5    7.00    0.76
 -12  -4   5   13.95    1.28
  12  -4  -5   12.60    1.16
 -12   4   5   14.81    2.03
  12   4  -5   14.46    1.73
  10  -4  -5    0.07    0.08
 -10  -4   5   -0.04    0.08
  10   4  -5    0.05    0.14
 -10   4   5   -0.09    0.21
   8  -4  -5   12.75    1.05
  -8  -4   5   14.40    1.12
  -8  -4   5   12.97    1.12
   8   4  -5   10.71    1.49
  -8   4   5   11.64    1.66
  -6  -4   5    0.07    0.07
  -6  -4   5    0.04    0.06
   6  -4  -5    0.08    0.07
  -6   4   5    0.10    0.05
   6   4  -5    0.04    0.08
  -6   4   5   -0.11    0.19
  -6   4   5    0.10    0.05
  -4  -4   5   46.63    3.88
  -4  -4   5   47.05    3.85
   4  -4  -5   44.45    3.83
   4  -4  -5   45.34    3.84
  -4   4   5   48.16    3.72
   4   4  -5   48.11    5.31
  -4   4   5   46.07    5.47
   2  -4  -5    0.27    0.08
  -2  -4   5    0.22    0.08
  -2  -4   5    0.31    0.05
   2  -4  -5    0.04    0.07
   2   4  -5    0.25    0.05
   2   4  -5    0.24    0.11
  -2   4   5    0.31    0.22
  -2   4   5    0.08    0.05
   0  -4   5  599.32   50.99
   0  -4  -5  600.71   51.46
   0  -4  -5  625.33   50.99
   0  -4   5  598.61   49.43
   0   4  -5  575.73   51.48
   0   4  -5  695.06   70.85
   0   4   5  602.41   49.45
   0   4   5  714.70   70.83
   2  -4   5    0.26    0.06
  -2  -4  -5    0.04    0.04
   2  -4   5   -0.05    0.05
  -2  -4  -5   -0.02    0.04
   2   4   5    0.08    0.09
  -2   4  -5    0.05    0.20
   2   4   5    0.01    0.06
  -2   4  -5   -0.03    0.07
   4  -4   5   15.56    1.28
  -4  -4  -5   16.74    1.32
  -4  -4  -5   14.47    1.34
   4   4   5   13.23    1.30
   4   4   5   15.57    1.83
  -4   4  -5   16.71    1.35
  -4   4  -5   16.70    2.05
   6  -4   5    0.12    0.07
  -6  -4  -5    0.03    0.08
   6   4   5    0.23    0.16
   6   4   5    0.07    0.10
  -6   4  -5    0.14    0.08
  -6   4  -5    0.34    0.23
  -8  -4  -5   29.17    2.76
   8  -4   5   31.25    2.63
  -8   4  -5   37.70    4.06
  -8   4  -5   32.37    2.75
   8   4   5   33.62    3.79
  10  -4   5    0.10    0.13
 -10  -4  -5    0.00    0.15
 -10   4  -5    0.04    0.31
  10   4   5    0.12    0.25
 -10   4  -5    0.10    0.10
 -11  -5   5   10.65    1.04
  11  -5  -5    9.98    0.94
  11   5  -5   11.90    1.37
 -11   5   5   10.40    1.69
   9  -5  -5   17.06    1.44
  -9  -5   5   15.75    1.50
  -9  -5   5   16.56    1.53
   9   5  -5   18.58    2.07
  -9   5   5   18.97    2.32
   7  -5  -5   65.22    5.40
  -7  -5   5   61.24    5.42
  -7  -5   5   64.72    5.48
  -7   5   5   65.32    5.26
   7   5  -5   68.90    7.51
  -7   5   5   69.66    7.74
   5  -5  -5    0.02    0.07
  -5  -5   5    0.09    0.07
  -5  -5   5    0.18    0.08
  -5   5   5    0.64    0.39
  -5   5   5    0.04    0.05
   5   5  -5    0.05    0.09
   3  -5  -5    5.62    0.55
  -3  -5   5    6.25    0.56
   3   5  -5    6.33    0.52
  -3   5   5    4.69    0.94
   3   5  -5    5.91    0.74
  -3   5   5    5.91    0.53
  -1  -5   5    6.20    0.61
   1  -5  -5    6.48    0.61
  -1  -5   5    6.52    0.55
   1  -5  -5    6.89    0.58
  -1   5   5    8.94    0.93
   1   5  -5    6.68    0.84
   1   5  -5    6.72    0.59
  -1   5   5    6.34    0.58
   1  -5   5    1.21    0.17
  -1  -5  -5    1.07    0.16
  -1  -5  -5    0.98    0.14
   1  -5   5    1.12    0.13
   1   5   5    1.07    0.15
  -1   5  -5    1.21    0.22
   1   5   5    1.50    0.24
  -1   5  -5    1.38    0.39
  -3  -5  -5    0.20    0.07
   3  -5   5    0.22    0.08
   3  -5   5    0.34    0.08
  -3  -5  -5    0.24    0.08
   3   5   5    0.47    0.12
  -3   5  -5    0.34    0.11
   3   5   5    0.30    0.14
  -3   5  -5    0.43    0.32
   5  -5   5    0.80    0.13
  -5  -5  -5    0.63    0.13
  -5  -5  -5    0.45    0.13
   5   5   5    0.85    0.17
  -5   5  -5    0.62    0.14
   5   5   5    1.03    0.23
  -5   5  -5    1.09    0.40
   7  -5   5   39.26    3.28
  -7  -5  -5   38.50    3.44
  -7   5  -5   49.87    5.03
  -7   5  -5   39.42    3.42
   7   5   5   40.98    4.72
   9  -5   5    9.67    0.95
  -9  -5  -5    9.57    1.02
  -9   5  -5   12.05    1.67
   9   5   5   13.52    1.43
 -10  -6   5    3.57    0.43
  10  -6  -5    2.94    0.36
 -10   6   5    4.21    0.89
  10   6  -5    3.24    0.54
   8  -6  -5    0.00    0.08
  -8  -6   5    0.10    0.09
  -8  -6   5   -0.05    0.08
  -8   6   5    0.67    0.38
   8   6  -5    0.06    0.13
   6  -6  -5  145.25   12.38
  -6  -6   5  142.98   12.40
  -6  -6   5  150.12   12.53
   6   6  -5  158.94   17.20
  -6   6   5  162.44   17.48
  -6   6   5  151.77   12.03
  -4  -6   5    0.04    0.06
   4  -6  -5   -0.05    0.05
  -4  -6   5    0.00    0.05
  -4   6   5    0.51    0.40
  -4   6   5    0.02    0.05
   4   6  -5   -0.09    0.10
  -2  -6   5    0.07    0.07
   2  -6  -5    0.19    0.08
  -2   6   5    0.18    0.06
   2   6  -5    0.07    0.13
  -2   6   5    0.02    0.27
   2   6  -5    0.23    0.06
   0  -6   5    0.41    0.11
   0  -6   5    0.21    0.05
   0  -6  -5    0.17    0.08
   0   6  -5    0.43    0.22
   0   6  -5    0.11    0.11
   0   6   5    0.30    0.08
   0   6   5    0.28    0.17
  -2  -6  -5    0.50    0.10
   2  -6   5    0.58    0.10
   2  -6   5    0.63    0.13
  -2  -6  -5    0.69    0.13
   2   6   5    0.75    0.21
   2   6   5    0.54    0.12
  -2   6  -5    0.33    0.35
  -2   6  -5    0.45    0.14
   4  -6   5    0.08    0.06
  -4  -6  -5    0.39    0.10
  -4  -6  -5    0.20    0.08
  -4   6  -5    0.17    0.08
   4   6   5    0.10    0.08
  -4   6  -5   -0.47    0.32
   4   6   5    0.13    0.15
   6  -6   5   70.05    5.89
  -6  -6  -5   72.36    6.16
   6   6   5   72.55    8.45
  -6   6  -5   85.43    8.79
  -8  -6  -5    0.07    0.11
   8  -6   5    0.14    0.09
   8   6   5    0.14    0.20
  -8   6  -5    0.45    0.35
 -10  -6  -5    3.53    0.50
 -10   6  -5    5.66    1.20
  10   6   5    3.87    0.66
  11  -7  -5    0.36    0.18
 -11   7   5    1.53    0.60
   9  -7  -5    6.12    0.59
  -9  -7   5    6.22    0.62
  -9  -7   5    6.19    0.65
  -9   7   5    6.18    1.20
   9   7  -5    6.52    0.85
  -7  -7   5    0.83    0.18
   7  -7  -5    1.17    0.19
  -7  -7   5    0.84    0.19
  -7   7   5    1.13    0.19
   7   7  -5    1.15    0.28
  -7   7   5    1.20    0.54
  -5  -7   5   52.61    4.13
   5  -7  -5   48.38    4.08
  -5  -7   5   44.73    4.09
  -5   7   5   47.02    5.96
   5   7  -5   51.55    5.66
  -5   7   5   49.82    3.97
  -3  -7   5   27.19    2.15
   3  -7  -5   24.83    2.13
  -3   7   5   24.73    2.06
   3   7  -5   23.62    2.10
  -3   7   5   28.75    3.24
   3   7  -5   25.15    2.94
   1  -7  -5    5.22    0.53
  -1  -7   5    5.82    0.54
   1   7  -5    5.36    0.76
  -1   7   5    7.31    0.86
   1   7  -5    5.39    0.51
  -1   7   5    5.53    0.50
  -1  -7  -5    2.82    0.32
   1  -7   5    2.60    0.33
   1  -7   5    2.66    0.28
   1   7   5    3.69    0.49
  -1   7  -5    3.70    0.66
   1   7   5    3.53    0.31
  -1   7  -5    3.14    0.35
   3  -7   5   14.66    1.29
  -3  -7  -5   15.79    1.36
   3  -7   5   16.72    1.36
   3   7   5   16.77    1.90
   3   7   5   16.46    1.32
  -3   7  -5   12.60    2.10
   5  -7   5   27.60    2.35
  -5  -7  -5   27.67    2.44
  -5  -7  -5   28.98    2.47
   5   7   5   30.89    3.40
  -5   7  -5   31.49    3.74
   7  -7   5    0.08    0.08
  -7  -7  -5    0.08    0.10
  -7   7  -5    0.16    0.38
   7   7   5    0.15    0.20
   9  -7   5   13.92    1.21
  -9  -7  -5   12.20    1.29
   9   7   5   15.06    1.78
  -9   7  -5   17.43    2.25
 -10  -8   5    0.09    0.17
  10  -8  -5    0.39    0.18
  10   8  -5    0.34    0.26
 -10   8   5    0.03    0.45
  -8  -8   5    0.19    0.11
   8  -8  -5    0.05    0.12
  -8  -8   5    0.01    0.10
  -8   8   5   -0.05    0.40
   8   8  -5    0.18    0.19
  -6  -8   5    0.32    0.12
   6  -8  -5    0.22    0.11
  -6  -8   5    0.22    0.11
  -6   8   5   -0.21    0.50
  -6   8   5    0.12    0.09
   6   8  -5    0.03    0.16
  -4  -8   5    1.42    0.24
   4  -8  -5    1.21    0.22
   4   8  -5    1.68    0.33
  -4   8   5    1.03    0.61
   4   8  -5    1.61    0.18
  -4   8   5    1.61    0.22
   2  -8  -5    0.05    0.08
  -2  -8   5   -0.01    0.08
   2   8  -5    0.06    0.07
   2   8  -5   -0.03    0.14
  -2   8   5    0.22    0.09
  -2   8   5    0.07    0.29
   0  -8   5    0.16    0.10
   0  -8  -5    0.00    0.06
   0   8  -5    0.04    0.22
   0   8   5    0.00    0.05
   0   8   5   -0.14    0.16
  -2  -8  -5    0.10    0.08
   2  -8   5    0.21    0.09
   2  -8   5    0.00    0.05
   2   8   5    0.17    0.08
   2   8   5   -0.01    0.14
  -2   8  -5    0.16    0.36
   4  -8   5    0.33    0.11
  -4  -8  -5    0.47    0.13
  -4   8  -5   -0.15    0.43
   4   8   5    0.57    0.26
   6  -8   5    0.19    0.09
   6   8   5    0.49    0.24
  -6   8  -5    0.50    0.47
  -8  -8  -5    0.11    0.14
   8  -8   5    0.12    0.10
   8   8   5   -0.20    0.22
  -8   8  -5    0.77    0.62
  -9  -9   5    4.95    0.58
  -9  -9   5    5.37    0.63
   9  -9  -5    5.78    0.58
   9   9  -5    6.52    0.88
  -9   9   5    8.16    1.39
  -7  -9   5    1.28    0.26
  -7  -9   5    2.02    0.28
   7  -9  -5    2.11    0.29
   7   9  -5    1.96    0.42
  -7   9   5    1.80    0.28
  -7   9   5    3.49    1.05
   5  -9  -5   11.73    1.05
  -5  -9   5   12.00    1.07
  -5   9   5   11.30    1.02
   5   9  -5   12.62    1.00
   5   9  -5   11.71    1.46
  -5   9   5    6.75    1.72
   3  -9  -5   12.26    1.13
  -3  -9   5   11.88    1.14
   3   9  -5   14.11    1.59
  -3   9   5   12.59    1.85
  -3   9   5   12.81    1.10
   1  -9  -5   16.98    1.54
  -1  -9   5   17.55    1.55
  -1   9   5   21.05    2.29
   1   9  -5   17.18    2.18
  -1   9   5   17.43    1.48
   1  -9   5   15.79    1.48
  -1  -9  -5   18.02    1.50
   1   9   5   16.87    1.42
   1   9   5   19.63    2.11
  -1   9  -5   14.82    2.18
   3  -9   5    7.57    0.67
   3  -9   5    6.17    0.60
  -3  -9  -5    7.07    0.68
   3   9   5    7.94    0.96
  -3   9  -5    5.95    1.28
   5  -9   5    6.64    0.64
  -5  -9  -5    7.21    0.70
   5   9   5    8.30    1.02
  -5   9  -5    7.19    1.43
   7  -9   5    6.16    0.62
   7   9   5    7.34    0.96
  -7   9  -5    8.55    1.56
  -8 -10   5    0.11    0.12
  -8  10   5    0.27    0.57
   6 -10  -5   39.34    3.49
  -6 -10   5   40.81    3.52
   6  10  -5   46.27    4.89
  -6  10   5   40.20    3.40
  -4 -10   5    0.16    0.11
   4 -10  -5    0.67    0.17
  -4  10   5    0.34    0.13
   4  10  -5    0.32    0.22
  -4  10   5   -0.24    0.42
  -2 -10   5    0.79    0.20
   2 -10  -5    0.83    0.20
   2  10  -5    1.17    0.34
  -2  10   5    0.66    0.44
  -2  10   5    0.68    0.16
   0 -10  -5    0.43    0.14
   0 -10   5    0.68    0.16
   0  10   5    0.57    0.31
   0  10   5    0.39    0.12
   0  10  -5    0.62    0.35
  -2 -10  -5    0.09    0.10
   2 -10   5    0.21    0.11
   2  10   5    0.38    0.23
  -2  10  -5    0.66    0.49
  -4 -10  -5    0.21    0.11
   4 -10   5    0.12    0.08
   4  10   5    0.10    0.23
  -4  10  -5   -0.09    0.54
   6 -10   5   25.80    2.33
  -6  10  -5   31.64    3.93
   6  10   5   31.07    3.43
  -7  11   5   14.52    2.38
  -5 -11   5    0.42    0.16
   5 -11  -5    0.56    0.20
  -5  11   5    0.27    0.15
   5  11  -5    0.76    0.34
  -5  11   5    0.27    0.60
  -3 -11   5    2.79    0.45
   3 -11  -5    4.75    0.48
  -3  11   5    3.34    0.90
   3  11  -5    4.55    0.72
  -3  11   5    3.54    0.42
  -1 -11   5    1.76    0.30
   1 -11  -5    1.61    0.29
   1  11  -5    1.83    0.55
  -1  11   5    1.73    0.26
  -1  11   5    2.92    0.68
   1 -11   5    0.50    0.16
  -1 -11  -5    0.27    0.13
  -1  11  -5    0.87    0.53
   1  11   5    0.63    0.32
  -3 -11  -5    2.68    0.35
  -3  11  -5    1.09    0.83
   3  11   5    2.52    0.50
   5 -11   5    0.50    0.12
  -5 -11  -5    0.27    0.13
  -5  11  -5   -0.22    0.91
   5  11   5    0.27    0.29
   4 -12  -5    5.30    0.57
  -4  12   5    2.32    0.93
  -4  12   5    5.06    0.52
   2 -12  -5    0.05    0.18
  -2 -12   5    0.06    0.19
   2  12  -5    0.28    0.46
  -2  12   5    0.00    0.12
  -2  12   5    0.18    0.46
   0 -12   5  113.19    9.18
   0 -12  -5  107.93    9.18
   0  12   5  121.47   12.91
   0  12  -5  102.45   12.89
   2 -12   5    0.07    0.17
   2  12   5    0.14    0.28
  -2  12  -5   -0.16    0.71
   4  12   5    5.50    0.89
  -1  13   5    0.73    0.53
  12   0  -6   10.82    1.39
 -12   0   6   11.20    1.04
 -10   0   6    0.06    0.07
  10   0  -6    0.03    0.13
   8   0  -6   23.90    2.71
  -8   0   6   23.41    1.99
  -8   0   6   21.99    2.03
  -6   0   6    0.43    0.08
  -6   0   6    0.69    0.12
   6   0  -6    0.51    0.14
  -6   0   6    0.82    0.19
   4   0  -6  581.04   71.71
  -4   0   6  649.05   50.10
   4   0  -6  608.35   52.13
  -4   0   6  703.65   51.76
   2   0  -6    0.17    0.04
   2   0  -6    0.17    0.06
  -2   0   6    0.22    0.06
  -2   0   6    0.11    0.09
   0   0   6   17.66    1.45
   0   0  -6   15.67    1.44
   0   0   6   16.82    1.38
   2   0   6    0.12    0.07
  -2   0  -6    0.01    0.09
   2   0   6    0.22    0.08
  -2   0  -6    0.12    0.07
  -4   0  -6   84.69    6.92
   4   0   6   74.41    6.62
  -4   0  -6   92.70    6.81
  -4   0  -6   80.49    9.54
  -6   0  -6    0.06    0.16
  -6   0  -6    0.05    0.08
   6   0   6    0.02    0.06
  -8   0  -6   22.68    2.08
   8   0   6   25.42    2.86
   8   0   6   23.69    1.98
 -10   0  -6    0.19    0.13
  10   0   6    0.27    0.17
  10   0   6    0.74    0.30
  13  -1  -6    8.55    1.17
 -13  -1   6    9.89    0.89
  13   1  -6    8.69    1.18
 -13   1   6    8.38    0.86
 -11  -1   6   28.45    2.58
  11  -1  -6   32.63    3.54
  11   1  -6   29.37    3.51
 -11   1   6   29.33    2.57
  -9  -1   6    0.29    0.14
   9  -1  -6    0.14    0.13
  -9  -1   6   -0.02    0.06
  -9   1   6   -0.07    0.14
  -9   1   6    0.07    0.07
   9   1  -6    0.06    0.12
  -7  -1   6    4.96    0.50
  -7  -1   6    5.43    0.61
  -7   1   6    5.74    0.47
   7   1  -6    5.12    0.66
  -7   1   6    4.89    0.53
  -7   1   6    5.04    0.49
  -7   1   6    4.90    0.76
  -5  -1   6    7.58    0.69
  -5  -1   6    7.21    0.58
  -5  -1   6    7.10    0.63
  -5   1   6    5.69    0.66
   5   1  -6    6.19    0.82
  -5   1   6    7.59    0.63
  -5   1   6    6.96    0.59
  -5   1   6    7.28    0.90
   3  -1  -6    0.57    0.08
  -3  -1   6    0.46    0.07
  -3  -1   6    0.56    0.14
  -3   1   6    0.48    0.12
   3   1  -6    0.52    0.09
  -3   1   6    0.62    0.09
  -3   1   6    0.38    0.12
   3   1  -6    0.43    0.07
   1  -1  -6   -0.04    0.12
  -1  -1   6    0.23    0.11
  -1  -1   6    0.40    0.10
   1   1  -6    0.18    0.10
  -1   1   6    0.33    0.10
   1   1  -6    0.20    0.09
  -1   1   6    0.08    0.11
  -1  -1  -6    7.35    0.87
   1  -1   6   10.44    0.84
   1  -1   6   10.62    0.90
  -1   1  -6    7.92    0.89
  -1   1  -6   11.04    1.22
   1   1   6   10.56    1.15
   1   1   6   12.26    0.88
  -3  -1  -6  103.23    7.87
   3  -1   6   94.74    7.64
  -3  -1  -6   94.37    7.97
   3  -1   6   86.14    7.87
   3   1   6   86.20    7.66
   3   1   6   99.48   10.91
  -3   1  -6  108.69    7.99
  -3   1  -6   96.57   10.99
  -5  -1  -6   58.24    4.89
   5  -1   6   57.35    4.68
  -5   1  -6   57.53    4.89
   5   1   6   57.55    4.70
  -5   1  -6   56.90    6.79
   5   1   6   62.82    6.69
   7  -1   6   36.18    3.01
  -7  -1  -6   37.14    3.16
  -7   1  -6   37.57    4.45
  -7   1  -6   34.91    3.15
   7   1   6   42.22    4.32
   7   1   6   34.68    3.02
   9  -1   6   19.30    1.65
  -9  -1  -6   16.18    1.72
  -9   1  -6   19.46    2.54
  -9   1  -6   18.90    1.73
   9   1   6   21.15    1.67
   9   1   6   22.53    2.38
 -11  -1  -6    0.83    0.23
  11  -1   6    1.33    0.40
  11  -1   6    1.12    0.28
  11   1   6    1.10    0.38
 -11   1  -6    1.13    0.25
  11   1   6    1.13    0.32
 -12  -2   6    0.02    0.09
  12  -2  -6    0.17    0.20
  12   2  -6    0.04    0.17
 -10  -2   6   79.23    7.22
 -10   2   6   88.21   10.11
  10   2  -6   91.85    9.91
 -10   2   6   87.56    7.22
  -8  -2   6    0.01    0.11
  -8  -2   6    0.06    0.07
  -8   2   6    0.06    0.05
  -8   2   6    0.06    0.05
   8   2  -6    0.13    0.12
  -8   2   6    0.20    0.11
  -8   2   6    0.22    0.19
  -6  -2   6    0.12    0.07
  -6  -2   6    0.26    0.11
   6   2  -6    0.05    0.08
  -6   2   6    0.29    0.11
  -6   2   6    0.08    0.14
  -6   2   6    0.07    0.06
  -6   2   6    0.01    0.05
  -4  -2   6    0.08    0.07
  -4  -2   6    0.09    0.05
   4  -2  -6    0.03    0.04
  -4  -2   6    0.05    0.03
   4   2  -6    0.18    0.07
  -4   2   6    0.11    0.09
  -4   2   6    0.05    0.04
  -4   2   6   -0.01    0.06
  -2  -2   6    0.81    0.11
  -2  -2   6    1.14    0.16
   2  -2  -6    0.97    0.16
   2   2  -6    0.97    0.15
  -2   2   6    1.27    0.14
  -2   2   6    0.92    0.17
  -2   2   6    0.73    0.18
   2   2  -6    1.00    0.12
   0  -2  -6    0.06    0.06
   0  -2  -6    0.08    0.05
   0  -2   6    0.06    0.06
   0  -2   6    0.17    0.06
   0   2  -6    0.02    0.12
   0   2   6    0.07    0.06
   0   2   6    0.25    0.08
   0   2  -6    0.07    0.12
  -2  -2  -6  156.69   12.14
   2  -2   6  146.64   12.15
   2  -2   6  145.45   11.76
  -2  -2  -6  136.16   12.26
  -2   2  -6  151.03   16.92
   2   2   6  150.64   11.81
   2   2   6  153.80   16.82
   4  -2   6    0.15    0.06
  -4  -2  -6    0.18    0.08
  -4  -2  -6    0.23    0.06
  -4   2  -6    0.13    0.09
   4   2   6    0.14    0.10
  -4   2  -6    0.08    0.17
   4   2   6    0.12    0.11
  -6  -2  -6   12.44    1.15
   6  -2   6   12.37    1.08
  -6   2  -6   13.30    1.16
  -6   2  -6   15.47    1.72
   6   2   6   13.02    1.55
   6   2   6   11.73    1.12
   8  -2   6    0.05    0.09
  -8  -2  -6    0.39    0.14
  -8   2  -6    0.22    0.12
   8   2   6    0.18    0.19
   8   2   6    0.16    0.13
  -8   2  -6    0.25    0.27
 -10  -2  -6   35.04    3.28
  10  -2   6   38.34    3.13
  10   2   6   44.01    4.51
  10   2   6   40.56    3.19
 -10   2  -6   36.90    4.70
 -10   2  -6   34.35    3.27
 -11  -3   6    0.71    0.17
 -11   3   6    0.88    0.39
  11   3  -6    0.61    0.23
  -9  -3   6   30.47    2.75
   9  -3  -6   30.28    2.60
  -9  -3   6   34.64    2.78
  -9   3   6   33.76    3.93
  -9   3   6   34.19    2.74
   9   3  -6   31.55    3.74
   7  -3  -6   27.95    2.23
  -7  -3   6   24.54    2.26
  -7  -3   6   24.87    2.25
  -7   3   6   27.45    2.24
  -7   3   6   25.64    2.16
  -7   3   6   29.48    3.22
   7   3  -6   26.53    3.07
  -5  -3   6   11.50    1.00
  -5  -3   6   12.02    1.01
   5  -3  -6   10.82    0.95
   5  -3  -6   10.85    0.99
  -5   3   6   12.03    0.95
  -5   3   6   11.98    1.44
   5   3  -6   10.97    1.33
   3  -3  -6    4.15    0.42
   3  -3  -6    4.60    0.40
  -3  -3   6    4.47    0.42
  -3  -3   6    4.99    0.37
   3   3  -6    3.82    0.53
   3   3  -6    4.16    0.38
  -3   3   6    4.23    0.63
  -3   3   6    4.08    0.39
   1  -3  -6   25.92    2.02
  -1  -3   6   23.95    1.94
  -1  -3   6   21.13    2.01
  -1   3   6   24.54    1.95
   1   3  -6   22.73    2.76
   1   3  -6   25.52    2.02
  -1  -3  -6   65.25    5.21
   1  -3   6   63.23    5.04
   1  -3   6   62.09    5.21
  -1  -3  -6   66.44    5.27
  -1   3  -6   66.58    5.30
   1   3   6   61.56    5.08
  -1   3  -6   53.40    7.30
   1   3   6   67.65    7.20
   3  -3   6   13.68    1.15
   3  -3   6   13.00    1.19
  -3  -3  -6   13.58    1.22
  -3  -3  -6   15.11    1.20
   3   3   6   14.83    1.64
   3   3   6   13.14    1.19
  -3   3  -6   13.39    1.24
  -3   3  -6   15.45    1.81
  -5  -3  -6   44.57    4.06
   5  -3   6   45.90    3.89
  -5   3  -6   54.71    5.74
  -5   3  -6   47.40    4.07
   5   3   6   49.78    5.56
   5   3   6   51.10    3.94
  -7  -3  -6    6.87    0.78
   7  -3   6    8.35    0.74
   7   3   6    8.46    0.79
   7   3   6    9.88    1.08
  -7   3  -6    7.77    0.78
  -7   3  -6    9.38    1.24
   9  -3   6    5.44    0.54
  -9  -3  -6    4.76    0.60
   9   3   6    6.17    0.80
  -9   3  -6    5.58    0.58
   9   3   6    5.37    0.61
  -9   3  -6    6.09    1.03
 -11   3  -6   11.27    1.14
 -11   3  -6   10.22    1.84
  11   3   6   14.07    1.59
 -12  -4   6    0.09    0.10
  12   4  -6   -0.17    0.16
 -12   4   6    0.17    0.30
 -10  -4   6    0.09    0.09
  10  -4  -6    0.08    0.08
 -10   4   6    0.19    0.21
  10   4  -6   -0.17    0.12
  -8  -4   6    1.58    0.24
   8  -4  -6    1.57    0.22
  -8  -4   6    1.67    0.26
   8   4  -6    1.68    0.30
  -8   4   6    1.51    0.45
  -8   4   6    1.64    0.22
  -6  -4   6    0.01    0.06
  -6  -4   6    0.07    0.07
   6  -4  -6    0.07    0.07
   6   4  -6   -0.05    0.07
  -6   4   6    0.15    0.06
  -6   4   6    0.01    0.17
   4  -4  -6    0.17    0.08
   4  -4  -6    0.29    0.07
  -4  -4   6    0.18    0.09
   4   4  -6    0.15    0.06
  -4   4   6    0.34    0.08
  -4   4   6    0.42    0.27
   4   4  -6    0.26    0.11
   2  -4  -6    0.07    0.09
   2  -4  -6    0.08    0.07
  -2  -4   6    0.17    0.06
  -2  -4   6    0.08    0.06
   2   4  -6    0.10    0.10
  -2   4   6    0.09    0.05
  -2   4   6    0.26    0.22
   2   4  -6    0.06    0.05
   0  -4   6    0.07    0.07
   0  -4   6    0.03    0.04
   0  -4  -6    0.33    0.08
   0  -4  -6    0.17    0.07
   0   4  -6    0.12    0.11
   0   4  -6    0.14    0.15
   0   4   6    0.11    0.07
   0   4   6    0.21    0.12
  -2  -4  -6    0.28    0.08
   2  -4   6    0.15    0.07
  -2  -4  -6    0.26    0.08
   2  -4   6    0.21    0.07
   2   4   6    0.21    0.09
   2   4   6    0.17    0.10
  -2   4  -6    0.08    0.11
  -2   4  -6    0.13    0.23
  -4  -4  -6    0.17    0.07
  -4  -4  -6    0.09    0.08
   4  -4   6    0.11    0.06
  -4   4  -6    0.36    0.28
  -4   4  -6    0.09    0.09
   4   4   6    0.38    0.14
   4   4   6    0.17    0.10
  -6  -4  -6    0.10    0.09
   6  -4   6   -0.02    0.06
   6   4   6   -0.15    0.09
  -6   4  -6    0.56    0.27
   6   4   6    0.41    0.17
  -6   4  -6    0.17    0.09
  -8  -4  -6   -0.09    0.09
   8  -4   6    0.10    0.10
   8   4   6    0.05    0.18
   8   4   6   -0.10    0.13
  -8   4  -6    0.01    0.24
  -8   4  -6    0.10    0.10
  10  -4   6    0.09    0.16
 -10  -4  -6    0.08    0.18
 -10   4  -6    0.17    0.12
 -10   4  -6    0.10    0.31
  10   4   6   -0.08    0.22
 -11  -5   6    0.02    0.14
  11  -5  -6    0.29    0.13
 -11   5   6    0.64    0.36
  11   5  -6    0.36    0.18
   9  -5  -6   11.53    1.01
  -9  -5   6   11.37    1.08
  -9  -5   6   11.78    1.08
  -9   5   6   13.09    1.68
   9   5  -6   11.88    1.44
   7  -5  -6   23.72    2.08
  -7  -5   6   24.77    2.13
  -7  -5   6   23.59    2.11
  -7   5   6   24.87    2.04
  -7   5   6   27.86    3.10
   7   5  -6   25.14    2.88
   5  -5  -6   26.15    2.27
  -5  -5   6   27.04    2.31
  -5  -5   6   27.88    2.29
  -5   5   6   25.48    3.30
   5   5  -6   28.12    3.13
  -5   5   6   27.19    2.21
   3  -5  -6    6.91    0.63
  -3  -5   6    7.32    0.64
   3   5  -6    6.49    0.84
  -3   5   6    4.96    0.99
  -3   5   6    7.03    0.60
   3   5  -6    7.26    0.60
   1  -5  -6   16.68    1.46
   1  -5  -6   17.28    1.44
  -1  -5   6   15.86    1.38
  -1  -5   6   17.10    1.47
  -1   5   6   17.52    1.41
   1   5  -6   17.62    1.45
   1   5  -6   18.01    2.02
  -1  -5  -6   36.62    3.07
   1  -5   6   36.19    2.95
   1  -5   6   37.36    3.07
  -1  -5  -6   34.43    3.07
  -1   5  -6   32.63    4.34
   1   5   6   37.42    2.98
   1   5   6   41.44    4.24
  -1   5  -6   38.11    3.12
   3  -5   6   24.59    2.00
  -3  -5  -6   22.18    2.02
   3  -5   6   24.05    1.94
  -3  -5  -6   24.61    2.01
  -3   5  -6   20.20    2.96
   3   5   6   24.28    1.98
   3   5   6   26.48    2.78
  -3   5  -6   22.66    2.04
   5  -5   6   27.89    2.28
  -5  -5  -6   27.84    2.35
  -5  -5  -6   26.36    2.38
   5   5   6   23.69    2.30
  -5   5  -6   30.91    3.50
   5   5   6   30.18    3.26
  -5   5  -6   30.10    2.39
  -7  -5  -6   16.09    1.43
   7  -5   6   14.99    1.34
   7   5   6   16.88    1.94
  -7   5  -6   17.95    2.18
   7   5   6   15.93    1.39
  -7   5  -6   15.52    1.41
  -9  -5  -6    2.46    0.40
   9  -5   6    2.66    0.36
   9   5   6    3.79    0.56
  -9   5  -6    3.68    0.84
  10  -6  -6   38.57    3.32
 -10  -6   6   40.68    3.50
  10   6  -6   40.36    4.75
 -10   6   6   47.55    5.09
  -8  -6   6    0.29    0.12
  -8  -6   6    0.30    0.13
  -8   6   6    0.36    0.35
  -8   6   6    0.41    0.12
   8   6  -6    0.44    0.17
  -6  -6   6    2.97    0.35
   6  -6  -6    2.69    0.32
  -6  -6   6    2.53    0.32
   6   6  -6    3.03    0.43
  -6   6   6    2.64    0.31
  -6   6   6    3.36    0.74
   4  -6  -6    0.41    0.11
  -4  -6   6    0.06    0.08
  -4   6   6   -0.01    0.36
   4   6  -6    0.37    0.15
  -4   6   6    0.23    0.08
   4   6  -6    0.22    0.07
   2  -6  -6    0.48    0.12
  -2  -6   6    0.44    0.13
  -2   6   6    1.16    0.38
   2   6  -6    0.67    0.11
  -2   6   6    0.90    0.13
   2   6  -6    1.00    0.22
   0  -6   6    0.12    0.05
   0  -6   6   -0.02    0.06
   0  -6  -6    0.00    0.05
   0   6  -6    0.05    0.17
   0   6   6    0.12    0.06
   0   6   6    0.04    0.15
   0   6  -6    0.04    0.11
  -2  -6  -6   99.76    7.79
   2  -6   6   96.06    7.52
  -2  -6  -6   87.46    7.83
   2  -6   6   90.75    7.78
   2   6   6  102.60   10.79
  -2   6  -6   84.42   10.95
   2   6   6  100.51    7.56
  -4  -6  -6    0.10    0.07
  -4  -6  -6    0.04    0.06
   4  -6   6    0.01    0.06
   4   6   6    0.11    0.10
  -4   6  -6    0.07    0.08
   4   6   6    0.02    0.14
  -4   6  -6   -0.22    0.32
  -6  -6  -6    7.20    0.66
   6  -6   6    6.38    0.60
   6   6   6    6.39    0.87
   6   6   6    5.94    0.65
  -6   6  -6    8.98    1.27
   8  -6   6    0.14    0.09
  -8  -6  -6    0.17    0.13
  -8   6  -6   -0.11    0.33
   8   6   6   -0.04    0.18
  10   6   6   38.23    4.49
 -11   7   6   14.97    2.14
  -9  -7   6    0.01    0.11
   9  -7  -6    0.02    0.10
  -9  -7   6   -0.01    0.10
  -9   7   6    0.07    0.31
   9   7  -6    0.15    0.16
  -7  -7   6    5.08    0.52
   7  -7  -6    5.10    0.50
  -7  -7   6    5.32    0.53
   7   7  -6    4.92    0.69
  -7   7   6    4.78    1.02
  -7   7   6    4.88    0.49
  -5  -7   6    4.71    0.50
   5  -7  -6    4.88    0.48
  -5   7   6    5.34    1.01
   5   7  -6    4.78    0.65
  -5   7   6    4.81    0.47
   3  -7  -6    1.11    0.19
  -3  -7   6    0.99    0.20
   3   7  -6    1.16    0.25
  -3   7   6    0.97    0.17
  -3   7   6    1.13    0.49
   3   7  -6    1.36    0.15
  -1  -7   6    0.32    0.11
   1  -7  -6    0.48    0.12
  -1   7   6    0.61    0.27
   1   7  -6    0.50    0.23
  -1   7   6    0.36    0.10
   1   7  -6    0.40    0.12
   1  -7   6    0.99    0.18
   1  -7   6    0.86    0.13
  -1  -7  -6    1.27    0.20
  -1   7  -6    0.86    0.20
   1   7   6    1.17    0.27
   1   7   6    1.02    0.17
  -1   7  -6    1.65    0.46
  -3  -7  -6   49.19    4.21
   3  -7   6   44.84    4.05
   3  -7   6   53.33    4.21
   3   7   6   50.57    4.09
   3   7   6   56.63    5.85
  -5  -7  -6   31.01    2.82
   5  -7   6   31.87    2.71
  -5  -7  -6   34.49    2.85
   5   7   6   35.54    3.91
  -5   7  -6   36.85    4.23
   7  -7   6    9.52    0.91
  -7  -7  -6   10.19    0.99
  -7   7  -6   12.58    1.66
   7   7   6   11.57    1.35
  -9  -7  -6   16.77    1.74
   9   7   6   20.01    2.37
  -9   7  -6   25.55    2.87
 -10  -8   6    0.01    0.16
 -10   8   6   -0.67    0.34
  10   8  -6    0.05    0.24
  -8  -8   6    8.16    0.74
  -8  -8   6    7.54    0.72
  -8   8   6    6.65    0.68
  -8   8   6    7.43    1.32
   8   8  -6    7.02    0.97
  -6  -8   6   -0.07    0.08
  -6  -8   6    0.09    0.09
   6  -8  -6    0.19    0.11
  -6   8   6    0.13    0.10
  -6   8   6    0.60    0.51
   6   8  -6    0.10    0.18
   4  -8  -6  252.60   20.77
   4   8  -6  259.16   28.82
   4   8  -6  256.28   20.91
  -4   8   6  248.83   20.14
  -2  -8   6    0.18    0.11
   2  -8  -6    0.39    0.12
  -2   8   6    0.14    0.08
  -2   8   6    0.11    0.30
   2   8  -6    0.08    0.16
   2   8  -6    0.33    0.09
   0  -8  -6   11.66    1.11
   0  -8   6   12.49    1.12
   0   8   6   11.16    1.06
   0   8  -6   12.69    1.62
   0   8   6   15.95    1.61
   2  -8   6   -0.02    0.08
   2  -8   6   -0.05    0.05
  -2  -8  -6    0.09    0.09
  -2   8  -6   -0.21    0.33
   2   8   6    0.10    0.15
   2   8   6    0.11    0.08
   4  -8   6   27.68    2.36
  -4  -8  -6   27.98    2.47
   4   8   6   34.55    3.44
  -4   8  -6   24.63    3.68
   6  -8   6   -0.01    0.07
  -6   8  -6   -0.49    0.37
   6   8   6   -0.05    0.19
  -8  -8  -6   10.29    0.95
   8  -8   6    8.79    0.85
  -8   8  -6   11.35    1.84
   8   8   6    9.61    1.26
  -9  -9   6    0.12    0.17
  -9  -9   6   -0.02    0.11
  -9   9   6    0.40    0.43
   9   9  -6    0.25    0.28
   7  -9  -6    1.24    0.23
  -7  -9   6    1.38    0.24
  -7  -9   6    1.50    0.26
  -7   9   6    1.22    0.65
  -7   9   6    1.20    0.23
   7   9  -6    1.17    0.35
   5  -9  -6    0.24    0.12
  -5  -9   6    0.09    0.11
   5   9  -6    0.23    0.20
   5   9  -6    0.08    0.08
  -5   9   6    0.27    0.47
  -5   9   6    0.11    0.09
   3  -9  -6    0.56    0.16
  -3  -9   6    0.54    0.16
   3   9  -6    1.40    0.32
  -3   9   6    0.49    0.14
  -3   9   6    0.56    0.49
   1  -9  -6    3.53    0.42
  -1  -9   6    4.11    0.42
   1   9  -6    3.99    0.65
  -1   9   6    4.67    0.75
  -1   9   6    2.97    0.37
  -1  -9  -6    0.57    0.15
   1  -9   6    0.37    0.14
   1   9   6    0.77    0.26
  -1   9  -6    0.82    0.45
   1   9   6    0.52    0.13
   3  -9   6   22.07    1.93
  -3  -9  -6   25.36    2.05
  -3   9  -6   19.51    3.05
   3   9   6   26.29    2.82
   5  -9   6    9.85    0.91
  -5  -9  -6   10.58    0.98
  -5   9  -6    9.72    1.78
   5   9   6   12.03    1.38
   7  -9   6   16.63    1.54
   7   9   6   19.31    2.25
  -7   9  -6   22.46    2.77
  -8 -10   6   -0.04    0.11
  -8  10   6   -0.71    0.42
  -6 -10   6    0.14    0.12
   6 -10  -6    0.53    0.17
  -6  10   6    0.25    0.53
  -6  10   6    0.46    0.16
   6  10  -6    0.43    0.29
  -4 -10   6    0.10    0.11
   4 -10  -6    0.33    0.14
   4  10  -6    0.15    0.20
  -4  10   6   -0.18    0.45
  -4  10   6    0.29    0.12
   2 -10  -6    0.19    0.11
  -2 -10   6    0.19    0.13
   2  10  -6   -0.02    0.21
  -2  10   6    0.06    0.09
  -2  10   6    1.05    0.45
   0 -10  -6    0.36    0.13
   0 -10   6    0.24    0.14
   0  10   6    0.13    0.28
   0  10  -6    0.63    0.35
   0  10   6    0.30    0.11
  -2 -10  -6   46.27    3.76
   2 -10   6   47.54    3.75
  -2  10  -6   37.98    5.40
  -4 -10  -6    0.05    0.09
   4 -10   6   -0.01    0.07
  -4  10  -6   -0.52    0.55
   4  10   6   -0.19    0.18
   6 -10   6    3.67    0.39
  -6  10  -6    5.21    1.35
  -7  11   6    4.76    1.21
   5 -11  -6    1.76    0.30
  -5  11   6    1.21    0.72
  -5  11   6    1.32    0.26
   5  11  -6    2.00    0.48
  -3 -11   6    1.69    0.34
   3 -11  -6    2.24    0.33
  -3  11   6    2.00    0.29
   3  11  -6    1.63    0.49
  -3  11   6    1.42    0.64
  -1 -11   6    8.45    0.77
   1 -11  -6    6.96    0.74
  -1  11   6    8.23    1.27
   1  11  -6    8.47    1.16
  -1  11   6    6.52    0.69
   1 -11   6   19.16    1.64
  -1 -11  -6   16.42    1.62
  -1  11  -6   15.14    2.44
   1  11   6   23.35    2.38
  -3 -11  -6    0.32    0.13
   3  11   6    0.01    0.20
  -3  11  -6    0.27    0.73
   5 -11   6    7.06    0.63
  -5 -11  -6    6.63    0.70
  -4  12   6    0.04    0.16
  -4  12   6    0.01    0.60
   2 -12  -6    0.09    0.20
  -2 -12   6   -0.06    0.20
   2  12  -6    0.03    0.44
  -2  12   6    0.03    0.14
  -2  12   6    0.67    0.50
   0 -12   6    0.15    0.21
   0 -12  -6   -0.03    0.10
   0  12  -6    0.13    0.62
   2 -12   6    0.01    0.20
  12   0  -7    0.23    0.18
 -12   0   7   -0.03    0.09
 -10   0   7   -0.05    0.06
  10   0  -7   -0.10    0.10
   8   0  -7    0.13    0.10
  -8   0   7   -0.01    0.05
  -8   0   7   -0.02    0.10
   6   0  -7    0.01    0.06
  -6   0   7    0.02    0.04
  -6   0   7    0.05    0.05
  -6   0   7   -0.02    0.11
   4   0  -7    0.04    0.05
  -4   0   7    0.05    0.04
   4   0  -7    0.11    0.06
  -4   0   7    0.17    0.11
  -2   0   7   -0.04    0.04
   2   0  -7    0.06    0.07
  -2   0   7    0.07    0.09
   0   0  -7   -0.07    0.10
   0   0   7   -0.02    0.05
   0   0   7    0.05    0.08
  -2   0  -7   -0.19    0.10
   2   0   7   -0.26    0.08
  -2   0  -7   -0.19    0.07
   2   0   7   -0.24    0.08
   4   0   7    0.00    0.06
  -4   0  -7    0.10    0.13
  -4   0  -7    0.07    0.08
  -6   0  -7    0.05    0.13
  -6   0  -7    0.08    0.08
   6   0   7    0.03    0.08
   8   0   7    0.30    0.24
  -8   0  -7    0.50    0.15
   8   0   7    0.35    0.13
  10   0   7    0.13    0.17
 -10   0  -7   -0.13    0.11
  10   0   7    0.19    0.24
  13  -1  -7    4.86    0.80
  13   1  -7    6.76    0.85
 -13   1   7    5.83    0.61
 -11  -1   7    9.70    0.99
  11  -1  -7   11.12    1.34
 -11   1   7   10.74    0.99
  11   1  -7   11.06    1.33
   9  -1  -7   18.96    2.27
  -9  -1   7   20.41    1.75
  -9  -1   7   17.66    1.67
  -9   1   7   20.30    1.67
   9   1  -7   18.93    2.25
  -9   1   7   19.43    1.69
  -7  -1   7    3.32    0.44
  -7  -1   7    3.01    0.32
  -7   1   7    3.11    0.30
  -7   1   7    3.23    0.32
  -7   1   7    2.43    0.38
  -7   1   7    3.16    0.54
   7   1  -7    2.76    0.40
  -5  -1   7   14.94    1.50
   5  -1  -7   16.54    1.41
  -5  -1   7   17.62    1.37
   5   1  -7   16.00    1.95
  -5   1   7   18.46    2.03
  -5   1   7   18.16    1.38
  -5   1   7   16.52    1.50
   5   1  -7   16.54    1.42
  -3  -1   7   62.43    5.25
   3  -1  -7   62.79    7.14
  -3  -1   7   70.74    5.02
   3  -1  -7   60.37    5.21
  -3   1   7   59.11    5.24
   3   1  -7   60.30    7.14
   3   1  -7   61.38    5.21
  -3   1   7   67.38    5.02
   1  -1  -7   46.58    3.32
  -1  -1   7   43.87    3.16
  -1  -1   7   37.59    3.30
  -1   1   7   32.31    3.27
   1   1  -7   33.75    3.28
  -1   1   7   41.18    3.17
   1  -1   7   71.28    5.91
   1  -1   7   70.90    6.12
   1   1   7   80.33    5.93
  -1   1  -7   73.55    8.44
  -1   1  -7   74.49    6.17
   3  -1   7   41.99    3.32
   3  -1   7   38.79    3.42
  -3  -1  -7   41.89    3.41
  -3  -1  -7   41.45    3.48
  -3   1  -7   42.61    3.49
  -3   1  -7   40.94    4.77
   3   1   7   36.68    3.33
   3   1   7   44.52    4.71
   5  -1   7   11.43    1.03
  -5  -1  -7   12.33    1.10
  -5   1  -7   13.50    1.11
   5   1   7   12.37    1.45
   5   1   7   11.54    1.05
  -5   1  -7   11.52    1.54
   7  -1   7   28.78    2.40
  -7  -1  -7   27.45    2.52
  -7   1  -7   30.62    3.56
   7   1   7   29.27    2.42
  -7   1  -7   27.99    2.52
   7   1   7   31.34    3.42
   9  -1   7    2.61    0.36
  -9  -1  -7    2.77    0.40
  -9   1  -7    2.61    0.63
   9   1   7    3.30    0.41
   9   1   7    3.25    0.53
  -9   1  -7    2.82    0.40
  11  -1   7    2.22    0.50
  11   1   7    1.70    0.42
  12  -2  -7    0.02    0.18
 -12  -2   7    0.10    0.09
  12   2  -7    0.26    0.20
 -10  -2   7    0.54    0.15
  10   2  -7    0.82    0.23
 -10   2   7    0.88    0.17
 -10   2   7    0.82    0.32
  -8  -2   7    0.15    0.08
  -8  -2   7    0.11    0.12
  -8   2   7   -0.03    0.05
  -8   2   7    0.22    0.10
   8   2  -7    0.00    0.09
  -8   2   7    0.07    0.07
  -8   2   7    0.17    0.15
  -6  -2   7    0.72    0.14
  -6  -2   7    0.74    0.17
   6  -2  -7    0.57    0.10
  -6   2   7    0.87    0.18
   6   2  -7    0.55    0.15
  -6   2   7    0.96    0.25
  -6   2   7    0.59    0.11
  -4  -2   7    0.10    0.08
  -4  -2   7    0.14    0.04
   4  -2  -7    0.07    0.06
   4   2  -7   -0.01    0.05
  -4   2   7    0.21    0.11
  -4   2   7    0.06    0.08
  -4   2   7    0.11    0.05
   4   2  -7    0.07    0.06
  -2  -2   7  124.72   10.89
  -2  -2   7  132.89   11.27
   2   2  -7  132.52   15.56
   2   2  -7  149.36   11.33
  -2   2   7  148.69   10.91
   0  -2   7    0.01    0.05
   0  -2   7    0.09    0.07
   0  -2  -7   -0.02    0.07
   0   2   7    0.01    0.07
   0   2  -7    0.19    0.14
   0   2   7    0.13    0.08
   0   2  -7    0.02    0.13
  -2  -2  -7   23.80    1.88
   2  -2   7   21.88    1.77
  -2  -2  -7   21.68    1.83
   2  -2   7   19.34    1.85
  -2   2  -7   20.65    2.58
   2   2   7   20.85    1.80
   2   2   7   23.22    2.49
  -4  -2  -7    0.00    0.07
   4  -2   7   -0.03    0.05
  -4  -2  -7    0.16    0.07
  -4   2  -7    0.19    0.19
   4   2   7   -0.02    0.08
   4   2   7    0.14    0.11
  -4   2  -7    0.11    0.08
   6  -2   7   81.94    6.77
  -6  -2  -7   84.38    7.08
   6   2   7   75.94    6.80
  -6   2  -7   88.70    7.09
  -6   2  -7   87.48    9.81
   6   2   7   90.49    9.68
   8  -2   7    0.04    0.10
  -8  -2  -7    0.05    0.10
  -8   2  -7    0.03    0.09
  -8   2  -7    0.07    0.20
   8   2   7   -0.02    0.12
   8   2   7    0.00    0.17
  10  -2   7    1.55    0.30
 -10  -2  -7    1.32    0.29
 -10   2  -7    1.50    0.29
  10   2   7    2.72    0.46
  10   2   7    1.56    0.34
 -10   2  -7    1.57    0.54
 -11  -3   7    3.49    0.41
 -11   3   7    2.70    0.70
  11   3  -7    3.67    0.55
  -9  -3   7    1.85    0.28
  -9  -3   7    3.13    0.41
  -9   3   7    2.81    0.56
   9   3  -7    2.13    0.37
   7  -3  -7    1.08    0.19
  -7  -3   7    1.09    0.22
  -7  -3   7    1.24    0.20
  -7   3   7    1.60    0.19
   7   3  -7    1.27    0.23
  -7   3   7    1.28    0.35
  -7   3   7    1.39    0.18
  -5  -3   7    0.23    0.09
   5  -3  -7    0.30    0.07
  -5  -3   7    0.18    0.08
   5   3  -7    0.21    0.10
  -5   3   7    0.34    0.17
   5   3  -7    0.16    0.07
  -5   3   7    0.43    0.09
  -5   3   7    0.21    0.11
   3  -3  -7    1.40    0.20
   3  -3  -7    1.11    0.20
  -3  -3   7    1.36    0.21
  -3  -3   7    1.64    0.16
  -3   3   7    1.42    0.18
  -3   3   7    1.37    0.28
   3   3  -7    1.50    0.16
   3   3  -7    1.45    0.22
  -1  -3   7   90.17    7.60
  -1  -3   7   88.68    7.84
   1  -3  -7   97.91    7.86
   1   3  -7   98.80   10.86
  -1   3   7   98.66   10.88
   1   3  -7   99.26    7.91
  -1   3   7   95.76    7.61
   1  -3   7   79.20    6.72
  -1  -3  -7   85.85    6.73
   1  -3   7   80.56    6.51
  -1  -3  -7   82.31    6.80
   1   3   7   69.56    6.54
  -1   3  -7   94.90    6.83
  -3  -3  -7   51.29    4.42
  -3  -3  -7   54.63    4.36
   3  -3   7   45.92    4.36
   3  -3   7   52.72    4.23
  -3   3  -7   53.27    6.16
   3   3   7   56.80    4.27
   3   3   7   55.98    6.03
   5  -3   7   51.52    4.34
  -5  -3  -7   54.37    4.55
   5   3   7   55.66    4.39
  -5   3  -7   56.40    6.34
   5   3   7   53.55    6.19
  -5   3  -7   54.32    4.56
  -7  -3  -7    2.04    0.31
   7  -3   7    1.93    0.27
   7   3   7    2.23    0.40
  -7   3  -7    2.47    0.57
  -7   3  -7    2.50    0.33
   7   3   7    2.78    0.35
  -9  -3  -7    1.00    0.27
   9  -3   7    1.43    0.26
   9   3   7    1.51    0.30
  -9   3  -7    1.37    0.27
  -9   3  -7    0.85    0.41
   9   3   7    1.40    0.34
 -12   4   7    5.32    1.00
  12   4  -7    4.89    0.72
  10  -4  -7    0.49    0.12
 -10  -4   7    0.22    0.11
 -10   4   7    0.32    0.25
  10   4  -7    0.53    0.20
  -8  -4   7  242.24   21.34
   8  -4  -7  264.15   21.14
  -8  -4   7  248.80   21.16
  -8   4   7  252.66   20.50
   8   4  -7  262.26   29.31
  -8   4   7  285.26   29.50
  -6  -4   7    0.56    0.14
   6  -4  -7    0.67    0.14
  -6  -4   7    0.64    0.15
  -6   4   7    0.87    0.29
  -6   4   7    0.64    0.12
   6   4  -7    0.68    0.16
   4  -4  -7   16.05    1.38
  -4  -4   7   15.79    1.41
   4  -4  -7   18.10    1.42
  -4   4   7   15.83    1.35
   4   4  -7   16.95    1.38
  -4   4   7   16.08    2.00
   4   4  -7   15.68    1.90
   2  -4  -7    0.00    0.06
   2  -4  -7   -0.20    0.08
  -2  -4   7    0.04    0.06
  -2  -4   7    0.03    0.06
  -2   4   7   -0.04    0.20
  -2   4   7    0.06    0.06
   2   4  -7    0.01    0.06
   2   4  -7    0.00    0.09
   0  -4   7   76.01    5.79
   0  -4  -7   73.56    6.05
   0  -4  -7   79.03    6.00
   0  -4   7   69.21    5.99
   0   4  -7   60.48    6.05
   0   4   7   74.95    5.83
   0   4  -7   76.72    8.35
   2  -4   7    0.06    0.06
  -2  -4  -7    0.09    0.07
   2  -4   7    0.12    0.06
  -2  -4  -7    0.07    0.06
  -2   4  -7    0.19    0.13
  -2   4  -7    0.36    0.25
   2   4   7    0.00    0.10
   2   4   7    0.06    0.08
  -4  -4  -7   39.65    3.15
  -4  -4  -7   35.21    3.19
   4  -4   7   39.36    3.06
   4   4   7   38.17    3.10
  -4   4  -7   39.47    4.53
   4   4   7   37.34    4.35
  -4   4  -7   36.29    3.21
   6  -4   7    0.18    0.09
  -6  -4  -7    0.26    0.11
  -6   4  -7    0.21    0.25
   6   4   7    0.33    0.14
  -6   4  -7   -0.01    0.08
   6   4   7    0.42    0.17
   8  -4   7    1.44    0.25
  -8  -4  -7    1.68    0.29
  -8   4  -7    1.87    0.29
   8   4   7    1.47    0.36
   8   4   7    1.93    0.34
  -8   4  -7    2.61    0.60
 -10   4  -7    0.58    0.46
 -10   4  -7    0.41    0.17
 -11  -5   7    1.30    0.28
  11  -5  -7    1.54    0.23
 -11   5   7    1.01    0.47
  11   5  -7    1.62    0.33
  -9  -5   7    0.23    0.12
  -9  -5   7    0.17    0.10
  -9   5   7    0.17    0.09
   9   5  -7    0.37    0.16
  -9   5   7    0.49    0.30
  -7  -5   7    0.24    0.11
   7  -5  -7    0.16    0.09
  -7  -5   7    0.14    0.09
  -7   5   7    0.25    0.10
   7   5  -7    0.28    0.14
  -7   5   7    0.72    0.30
  -5  -5   7    6.91    0.61
   5  -5  -7    6.00    0.59
  -5   5   7    6.51    0.57
   5   5  -7    6.13    0.78
   5   5  -7    6.09    0.55
  -5   5   7    6.10    0.93
   3  -5  -7    5.08    0.49
  -3  -5   7    6.16    0.52
   3   5  -7    4.88    0.65
  -3   5   7    5.41    0.47
  -3   5   7    3.24    0.76
   3   5  -7    5.40    0.46
   1  -5  -7   52.20    4.55
  -1  -5   7   58.71    4.55
   1  -5  -7   56.63    4.54
  -1  -5   7   52.86    4.36
   1   5  -7   55.04    4.56
  -1   5   7   54.91    4.39
   1   5  -7   54.25    6.28
   1  -5   7   52.69    4.46
  -1  -5  -7   50.43    4.49
   1  -5   7   51.84    4.30
  -1  -5  -7   55.73    4.47
   1   5   7   62.34    6.17
  -1   5  -7   43.01    6.26
   1   5   7   57.82    4.35
  -1   5  -7   56.60    4.53
   3  -5   7   50.11    4.28
  -3  -5  -7   55.17    4.30
   3  -5   7   51.67    4.14
  -3  -5  -7   55.88    4.34
   3   5   7   53.48    5.92
  -3   5  -7   49.01    6.11
   3   5   7   45.97    4.18
  -5  -5  -7   23.86    2.33
   5  -5   7   27.78    2.23
   5   5   7   28.03    3.18
   5   5   7   26.05    2.28
  -5   5  -7   32.75    3.43
  -5   5  -7   27.92    2.36
  -7  -5  -7    0.62    0.18
   7  -5   7    0.31    0.10
   7   5   7    0.37    0.15
  -7   5  -7    0.19    0.12
   7   5   7    0.24    0.17
  -7   5  -7    0.57    0.33
   9  -5   7    4.36    0.48
  -9  -5  -7    4.47    0.56
  -9   5  -7    4.11    0.91
  10  -6  -7    0.53    0.16
 -10  -6   7    0.44    0.19
  10   6  -7    0.34    0.18
 -10   6   7    0.95    0.37
  -8  -6   7    0.09    0.10
   8  -6  -7    0.02    0.09
  -8  -6   7    0.12    0.10
  -8   6   7    0.09    0.08
  -8   6   7    0.01    0.22
   8   6  -7    0.12    0.14
  -6  -6   7    0.41    0.13
  -6  -6   7    0.24    0.10
   6  -6  -7    0.16    0.09
  -6   6   7   -0.09    0.24
  -6   6   7    0.26    0.10
   6   6  -7    0.33    0.16
  -4  -6   7    0.41    0.12
   4  -6  -7    0.46    0.13
   4   6  -7    0.18    0.14
  -4   6   7    0.53    0.39
  -4   6   7    0.29    0.10
   4   6  -7    0.28    0.08
  -2  -6   7  101.13    8.07
   2  -6  -7   96.56    8.06
  -2   6   7  106.61   11.31
   2   6  -7   91.69   11.15
   2   6  -7   98.63    8.09
  -2   6   7   95.85    7.80
   0  -6   7    0.02    0.07
   0  -6   7    0.00    0.05
   0  -6  -7    0.05    0.07
   0   6   7   -0.13    0.12
   0   6  -7   -0.07    0.19
   0   6   7    0.62    0.13
   0   6  -7   -0.05    0.15
   2  -6   7   12.11    1.02
  -2  -6  -7   11.40    1.02
   2  -6   7   11.86    0.96
  -2  -6  -7   11.16    1.01
   2   6   7   12.64    1.01
  -2   6  -7    9.17    1.55
  -2   6  -7    9.17    1.02
   2   6   7   12.91    1.39
  -4  -6  -7    0.19    0.10
  -4  -6  -7    0.15    0.09
   4  -6   7    0.23    0.09
   4   6   7   -0.05    0.13
  -4   6  -7    0.02    0.30
  -4   6  -7    0.34    0.13
   4   6   7    0.03    0.11
   6  -6   7   46.26    3.88
  -6  -6  -7   45.48    4.07
   6   6   7   42.20    3.93
  -6   6  -7   55.28    5.84
   6   6   7   53.73    5.56
   8  -6   7    0.13    0.10
  -8  -6  -7    0.07    0.16
  -8   6  -7    0.06    0.33
 -11   7   7    6.60    1.21
  -9  -7   7    3.34    0.45
  -9  -7   7    3.90    0.46
   9   7  -7    3.98    0.57
  -9   7   7    4.06    0.82
  -7  -7   7    3.34    0.37
  -7  -7   7    2.63    0.34
   7  -7  -7    2.82    0.34
  -7   7   7    4.03    0.80
   7   7  -7    2.20    0.44
  -7   7   7    2.84    0.33
  -5  -7   7   10.41    0.97
   5  -7  -7   10.40    0.96
   5   7  -7   10.87    1.30
   5   7  -7   11.06    0.92
  -5   7   7    8.05    1.52
  -5   7   7   11.17    0.93
  -3  -7   7   38.79    3.12
   3  -7  -7   39.51    3.11
   3   7  -7   37.43    4.28
  -3   7   7   35.02    3.00
   3   7  -7   37.15    3.08
  -3   7   7   33.23    4.46
   1  -7  -7    7.32    0.77
  -1  -7   7    8.79    0.80
  -1   7   7    7.85    0.75
   1   7  -7    8.98    0.78
   1   7  -7    8.63    1.11
  -1   7   7   10.63    1.18
  -1  -7  -7   21.53    1.89
   1  -7   7   23.64    1.89
   1  -7   7   21.25    1.79
   1   7   7   21.65    1.82
   1   7   7   24.58    2.60
  -1   7  -7   18.34    2.71
  -1   7  -7   22.37    1.90
  -3  -7  -7    8.38    0.78
   3  -7   7    8.24    0.73
   3   7   7    8.66    0.77
  -3   7  -7    5.46    1.28
   3   7   7    9.57    1.07
  -5  -7  -7    4.17    0.44
   5  -7   7    3.81    0.40
  -5   7  -7    4.67    0.97
   5   7   7    4.34    0.48
  -7  -7  -7   14.55    1.36
   7  -7   7   14.05    1.27
  -7   7  -7   18.40    2.17
 -10  -8   7    0.14    0.13
 -10   8   7    0.16    0.35
  -8  -8   7    0.19    0.12
  -8  -8   7    0.25    0.14
  -8   8   7    0.75    0.37
  -8   8   7    0.26    0.10
   8   8  -7    0.37    0.21
  -6  -8   7    0.02    0.09
   6  -8  -7    0.07    0.09
  -6   8   7    0.18    0.10
   6   8  -7    0.10    0.16
  -6   8   7    0.71    0.50
   6   8  -7    0.06    0.08
  -4  -8   7    0.41    0.15
   4  -8  -7    0.53    0.15
  -4   8   7    0.64    0.47
   4   8  -7    0.50    0.21
  -4   8   7    0.48    0.13
   4   8  -7    0.37    0.10
  -2  -8   7    0.26    0.12
   2  -8  -7    0.59    0.14
   2   8  -7    0.20    0.19
   2   8  -7    0.19    0.10
  -2   8   7    0.26    0.10
  -2   8   7    0.34    0.33
   0  -8   7    0.00    0.09
   0  -8  -7    0.07    0.08
   0   8  -7    0.17    0.24
   0   8   7    0.00    0.07
   0   8   7    0.23    0.20
   2  -8   7    0.30    0.12
  -2  -8  -7    0.10    0.10
   2  -8   7    0.39    0.10
   2   8   7    0.40    0.13
  -2   8  -7    0.15    0.35
  -4  -8  -7    0.13    0.10
   4  -8   7    0.07    0.07
  -4   8  -7   -0.09    0.46
   4   8   7   -0.01    0.09
   6  -8   7    0.06    0.08
  -6   8  -7    0.50    0.42
  -8   8  -7    1.50    0.78
  -9  -9   7   15.87    1.51
  -9  -9   7   17.68    1.54
  -7  -9   7    2.13    0.33
   7  -9  -7    2.21    0.32
   7   9  -7    2.12    0.44
  -7   9   7    2.22    0.79
   7   9  -7    2.62    0.26
  -7   9   7    1.87    0.30
  -5  -9   7    4.94    0.53
   5  -9  -7    4.84    0.52
  -5   9   7    5.40    0.51
   5   9  -7    4.92    0.46
  -5   9   7    3.22    0.93
   5   9  -7    5.49    0.72
  -3  -9   7   17.15    1.46
   3  -9  -7   16.31    1.44
   3   9  -7   17.38    1.99
  -3   9   7   15.42    1.38
  -3   9   7   14.59    2.19
  -1  -9   7    9.87    0.86
   1  -9  -7    8.61    0.84
  -1   9   7    8.44    0.80
   1   9  -7    9.27    1.22
   1  -9   7   17.27    1.49
  -1  -9  -7   17.63    1.50
   1   9   7   17.62    1.43
  -1   9  -7   14.04    2.18
   3  -9   7   13.08    1.09
  -3  -9  -7   13.78    1.18
   3   9   7   13.34    1.13
  -3   9  -7    9.46    1.87
   5  -9   7    2.34    0.28
  -5   9  -7    2.89    0.89
  -7   9  -7   11.29    1.95
   8  10  -7    0.48    0.14
  -6 -10   7    0.10    0.12
   6 -10  -7    0.17    0.15
   6  10  -7    0.14    0.25
  -6  10   7   -0.06    0.12
   4 -10  -7   -0.02    0.11
  -4 -10   7    0.11    0.14
   4  10  -7    0.05    0.20
  -4  10   7   -0.05    0.09
  -2 -10   7   48.50    3.95
   2 -10  -7   46.02    3.93
   2  10  -7   45.53    5.47
  -2  10   7   47.00    3.79
   0 -10  -7    0.04    0.09
   0 -10   7    0.13    0.13
   0  10   7   -0.08    0.08
   0  10  -7   -0.01    0.31
  -2 -10  -7    4.74    0.49
   2 -10   7    3.92    0.48
  -2  10  -7    3.97    0.98
  -4 -10  -7    0.02    0.10
   4 -10   7    0.22    0.10
  -4  10  -7    0.58    0.75
   6 -10   7   31.35    2.57
  -5 -11   7    0.12    0.12
   5 -11  -7    0.31    0.19
   5  11  -7    0.13    0.31
  -5  11   7    0.08    0.16
  -3 -11   7    0.53    0.22
   3 -11  -7    0.89    0.24
  -3  11   7    0.61    0.19
   3  11  -7    0.55    0.36
  -1 -11   7   23.45    2.00
   1 -11  -7   21.83    1.98
   1  11  -7   21.79    2.84
  -1  11   7   23.34    1.90
   1 -11   7   14.50    1.25
  -1 -11  -7   14.03    1.25
  -1  11  -7   10.60    1.94
  -3 -11  -7    6.57    0.65
  -3  11  -7    4.42    1.33
  -2  12   7    0.02    0.17
   2  12  -7    0.16    0.49
   0 -12   7   13.46    1.26
   0  12  -7   12.81    2.02
 -12   0   8  114.59    9.40
  12   0  -8  111.23   12.87
 -10   0   8    0.85    0.17
  10   0  -8    0.87    0.22
  -8   0   8   12.58    1.15
  -8   0   8   12.26    1.08
   8   0  -8   11.77    1.44
  -6   0   8    0.34    0.13
   6   0  -8    0.07    0.07
  -6   0   8    0.07    0.04
   6   0  -8    0.06    0.06
  -4   0   8   80.71    6.15
   4   0  -8   72.62    8.77
   4   0  -8   73.16    6.38
  -4   0   8   86.23    6.45
  -2   0   8   -0.23    0.05
   2   0  -8   -0.11    0.11
  -2   0   8    0.00    0.13
   0   0  -8   69.75    5.97
   0   0   8   71.05    5.73
   0   0   8   74.69    5.95
   2   0   8    0.24    0.10
  -2   0  -8    0.04    0.10
   2   0   8    0.03    0.07
  -4   0  -8    1.86    0.28
   4   0   8    1.35    0.23
   6   0   8    0.19    0.17
   6   0   8    0.27    0.13
  -6   0  -8    0.27    0.14
   8   0   8  204.24   17.13
  -8   0  -8  227.60   17.87
  10   0   8    0.14    0.23
 -10   0  -8    0.22    0.14
  13  -1  -8    0.06    0.20
 -11  -1   8    0.36    0.13
  11  -1  -8    0.67    0.21
 -11   1   8    0.43    0.14
  11   1  -8    0.44    0.20
  -9  -1   8    3.36    0.41
  -9  -1   8    5.23    0.56
   9  -1  -8    3.62    0.53
  -9   1   8    4.14    0.41
  -9   1   8    3.82    0.48
   9   1  -8    3.64    0.52
  -7  -1   8    0.88    0.22
   7  -1  -8    1.04    0.14
  -7  -1   8    1.02    0.17
   7  -1  -8    1.18    0.21
  -7   1   8    1.10    0.15
  -7   1   8    0.91    0.22
   7   1  -8    0.95    0.19
  -5  -1   8   54.56    4.24
   5  -1  -8   51.66    6.06
   5  -1  -8   51.39    4.40
  -5  -1   8   52.04    4.48
  -5   1   8   55.24    4.26
   5   1  -8   56.36    4.41
  -5   1   8   58.54    4.49
   5   1  -8   48.55    6.05
   3  -1  -8   81.08    6.60
  -3  -1   8   70.25    6.62
  -3  -1   8   86.00    6.36
  -3   1   8   85.45    6.37
   3   1  -8   79.34    6.60
  -3   1   8   80.29    6.63
   3   1  -8   76.29    9.05
  -1  -1   8   77.83    5.70
  -1  -1   8   73.16    5.93
   1  -1  -8   81.32    5.96
  -1   1   8   61.04    5.90
  -1   1   8   63.88    5.70
   1  -1   8   65.54    5.65
   1  -1   8   72.63    5.86
   1   1   8   71.81    5.66
  -1   1  -8   73.02    5.91
   3  -1   8    0.48    0.12
  -3  -1  -8    0.70    0.18
   3  -1   8    0.54    0.14
  -3  -1  -8    0.55    0.12
  -3   1  -8    0.75    0.21
   3   1   8    0.51    0.14
  -3   1  -8    0.46    0.16
   5  -1   8    2.22    0.29
  -5  -1  -8    2.28    0.32
  -5   1  -8    2.65    0.34
   5   1   8    1.94    0.31
   7  -1   8    0.08    0.11
  -7  -1  -8    0.30    0.14
  -7   1  -8    0.21    0.13
   7   1   8    0.02    0.13
  -9  -1  -8    4.06    0.49
   9  -1   8    3.12    0.44
   9   1   8    2.83    0.46
  -9   1  -8    3.69    0.48
  12  -2  -8   -0.10    0.16
 -12  -2   8    0.02    0.08
  12   2  -8    0.16    0.17
  10  -2  -8    0.08    0.13
 -10  -2   8    0.16    0.08
 -10   2   8    0.02    0.06
  10   2  -8    0.41    0.17
  -8  -2   8    0.29    0.10
  -8  -2   8    0.41    0.18
  -8   2   8    0.11    0.12
   8   2  -8    0.18    0.12
  -8   2   8    0.33    0.10
  -8   2   8    0.30    0.21
  -8   2   8    0.37    0.10
  -6  -2   8   93.89    7.75
   6  -2  -8   94.41    7.71
   6   2  -8   98.32    7.72
  -6   2   8   84.28    7.72
  -6   2   8   95.02   10.70
  -6   2   8   99.74    7.44
   6   2  -8   88.24   10.61
  -4  -2   8    0.18    0.06
   4  -2  -8    0.14    0.08
  -4  -2   8    0.10    0.09
   4   2  -8    0.26    0.07
   4   2  -8    0.14    0.07
  -4   2   8    0.23    0.11
  -4   2   8    0.20    0.07
  -4   2   8    0.04    0.08
   2  -2  -8   17.51    1.71
  -2  -2   8   20.47    1.62
  -2  -2   8   18.04    1.71
  -2   2   8   21.16    1.63
   2   2  -8   19.72    2.27
   2   2  -8   21.36    1.68
   0  -2   8   -0.05    0.08
   0  -2   8    0.10    0.06
   0  -2  -8    0.04    0.10
   0   2  -8    0.24    0.16
   0   2   8    0.15    0.09
   0   2  -8    0.00    0.14
   0   2   8    0.06    0.10
  -2  -2  -8   95.08    8.58
   2  -2   8  107.94    8.23
   2  -2   8   95.21    8.50
  -2  -2  -8  103.13    8.48
   2   2   8  113.13    8.25
  -2   2  -8  105.76   11.80
  -4  -2  -8    0.09    0.09
   4  -2   8    0.01    0.06
  -4   2  -8   -0.04    0.16
  -4   2  -8    0.03    0.10
   4   2   8   -0.03    0.07
   6  -2   8    5.46    0.53
  -6  -2  -8    5.58    0.59
  -6   2  -8    5.59    0.60
  -6   2  -8    5.92    0.85
   6   2   8    5.49    0.57
   8  -2   8    0.10    0.13
  -8  -2  -8    0.10    0.15
   8   2   8    0.05    0.14
  -8   2  -8    0.09    0.12
  10  -2   8    0.33    0.24
  10   2   8    0.40    0.28
 -10   2  -8    0.25    0.15
 -11  -3   8    1.68    0.26
  11   3  -8    1.31    0.32
 -11   3   8    2.00    0.53
   9  -3  -8    7.29    0.71
  -9  -3   8    6.40    0.70
  -9  -3   8    7.34    0.78
  -9   3   8    8.55    1.10
  -9   3   8    7.89    0.68
   9   3  -8    7.34    0.92
  -7  -3   8   38.64    3.32
  -7  -3   8   36.79    3.33
   7  -3  -8   41.51    3.26
  -7   3   8   41.13    4.62
   7   3  -8   38.19    4.50
  -7   3   8   39.47    3.32
  -7   3   8   38.76    3.17
   5  -3  -8   22.32    1.95
  -5  -3   8   23.48    2.01
  -5   3   8   23.67    2.76
   5   3  -8   21.47    2.68
  -5   3   8   23.70    1.91
   5   3  -8   25.80    1.96
  -5   3   8   23.53    2.02
  -3  -3   8   27.27    2.57
  -3  -3   8   33.45    2.70
   3  -3  -8   32.63    2.69
   3   3  -8   34.84    2.67
   3   3  -8   31.65    3.65
  -3   3   8   32.76    2.59
   1  -3  -8   40.40    3.29
  -1  -3   8   35.32    3.25
   1  -3  -8   39.57    3.27
  -1  -3   8   40.69    3.15
  -1   3   8   41.19    3.16
   1   3  -8   42.28    4.49
   1   3  -8   33.72    3.27
   1  -3   8    9.50    0.87
  -1  -3  -8    9.64    0.87
   1  -3   8    9.59    0.82
  -1  -3  -8    9.44    0.88
  -1   3  -8    8.53    1.25
  -1   3  -8   12.62    0.93
   1   3   8    9.01    0.86
  -3  -3  -8   40.93    3.48
   3  -3   8   41.95    3.37
  -3  -3  -8   44.10    3.55
   3   3   8   45.09    3.42
  -3   3  -8   37.66    4.89
  -5  -3  -8    7.57    0.71
   5  -3   8    7.26    0.65
  -5   3  -8    6.83    0.72
  -5   3  -8    7.48    1.03
   5   3   8    6.86    0.69
  -7  -3  -8    3.19    0.43
   7  -3   8    2.84    0.38
  -7   3  -8    3.92    0.71
   7   3   8    3.90    0.45
  -7   3  -8    4.20    0.47
   9  -3   8    6.47    0.66
  -9  -3  -8    6.05    0.74
   9   3   8    6.82    0.70
  -9   3  -8    6.92    0.71
  12   4  -8    0.15    0.18
 -10  -4   8    0.16    0.15
  10  -4  -8   -0.02    0.09
 -10  -4   8    0.12    0.09
 -10   4   8    0.14    0.23
  10   4  -8   -0.02    0.11
   8  -4  -8    0.45    0.14
  -8  -4   8    0.45    0.14
  -8  -4   8    0.69    0.18
   8   4  -8    0.30    0.14
  -8   4   8    0.46    0.24
  -8   4   8    0.49    0.12
   6  -4  -8    0.02    0.09
  -6  -4   8    0.10    0.08
  -6   4   8   -0.05    0.14
  -6   4   8    0.09    0.06
   6   4  -8    0.05    0.07
   6   4  -8    0.13    0.10
   4  -4  -8    0.19    0.12
  -4  -4   8    0.25    0.10
   4  -4  -8    0.24    0.10
   4   4  -8    0.23    0.11
   4   4  -8    0.20    0.07
  -4   4   8    0.05    0.06
  -2  -4   8    0.07    0.08
  -2  -4   8    0.31    0.09
   2  -4  -8    0.14    0.11
   2  -4  -8    0.19    0.09
   2   4  -8    0.23    0.09
   2   4  -8    0.20    0.12
  -2   4   8    0.11    0.06
   0  -4   8   -0.05    0.06
   0  -4  -8    0.14    0.08
   0  -4  -8    0.00    0.05
   0  -4   8   -0.05    0.05
   0   4  -8   -0.10    0.12
   0   4   8   -0.01    0.06
   0   4  -8   -0.03    0.16
  -2  -4  -8    0.20    0.09
  -2  -4  -8    0.14    0.08
   2  -4   8    0.10    0.07
   2  -4   8    0.14    0.09
  -2   4  -8    0.16    0.13
  -2   4  -8    0.37    0.27
   2   4   8    0.05    0.08
  -4  -4  -8    0.30    0.12
  -4  -4  -8    0.42    0.11
   4  -4   8    0.22    0.09
  -4   4  -8    0.17    0.22
  -4   4  -8    0.29    0.13
   4   4   8    0.08    0.12
  -6  -4  -8    0.03    0.10
   6  -4   8    0.06    0.08
   6   4   8    0.08    0.12
  -6   4  -8    0.03    0.10
  -6   4  -8   -0.04    0.18
   8  -4   8    0.45    0.17
  -8  -4  -8    0.46    0.20
  -8   4  -8    0.33    0.17
   8   4   8    0.41    0.19
  -8   4  -8    0.36    0.31
 -10   4  -8    0.19    0.16
  11  -5  -8    0.74    0.19
 -11  -5   8    1.21    0.26
  11   5  -8    1.18    0.28
  -9  -5   8    4.84    0.54
  -9  -5   8    5.14    0.58
  -9   5   8    5.23    0.51
   9   5  -8    4.83    0.68
  -9   5   8    6.29    0.92
  -7  -5   8   27.39    2.38
  -7  -5   8   27.78    2.37
   7  -5  -8   27.35    2.35
  -7   5   8   27.24    2.27
  -7   5   8   28.10    3.34
   7   5  -8   28.09    3.20
   5  -5  -8   14.67    1.27
  -5  -5   8   14.15    1.28
  -5   5   8   13.90    1.21
   5   5  -8   15.05    1.70
   5   5  -8   14.14    1.22
   3  -5  -8   42.77    3.48
  -3  -5   8   41.17    3.49
   3   5  -8   42.99    3.46
   3   5  -8   38.65    4.76
  -3   5   8   43.05    3.36
  -1  -5   8   31.79    2.57
   1  -5  -8   34.92    2.69
  -1  -5   8   32.77    2.69
   1   5  -8   28.51    2.69
  -1   5   8   35.05    2.61
   1   5  -8   29.16    3.70
  -1  -5  -8   10.97    1.04
   1  -5   8   13.48    1.06
   1  -5   8   12.01    0.98
  -1  -5  -8   12.74    1.05
  -1   5  -8   12.60    1.07
   1   5   8   11.90    1.03
  -1   5  -8    8.22    1.49
  -3  -5  -8   30.03    2.47
  -3  -5  -8   32.19    2.45
   3  -5   8   29.46    2.35
  -3   5  -8   29.71    3.53
   3   5   8   23.20    2.38
   5  -5   8    4.88    0.44
  -5  -5  -8    3.80    0.47
  -5   5  -8    4.47    0.49
  -5   5  -8    4.83    0.85
   5   5   8    3.93    0.49
  -7  -5  -8    2.70    0.36
   7  -5   8    2.09    0.29
   7   5   8    2.16    0.34
  -7   5  -8    2.48    0.35
  -9  -5  -8   13.52    1.31
 -10  -6   8    0.52    0.18
 -10  -6   8    0.08    0.14
  10  -6  -8    0.13    0.13
  10   6  -8    0.15    0.16
   8  -6  -8    0.18    0.10
  -8  -6   8    0.12    0.10
  -8  -6   8    0.08    0.10
   8   6  -8    0.10    0.13
  -8   6   8    0.04    0.07
  -6  -6   8   71.45    5.83
   6  -6  -8   73.78    5.82
   6   6  -8   70.22    5.81
   6   6  -8   66.67    8.01
  -6   6   8   69.69    5.63
  -4  -6   8    0.02    0.09
   4  -6  -8   -0.02    0.08
   4   6  -8    0.09    0.07
  -4   6   8    0.17    0.08
   4   6  -8    0.00    0.11
   2  -6  -8   11.89    1.04
  -2  -6   8   11.50    1.04
   2   6  -8   12.95    1.41
   2   6  -8    9.90    1.00
  -2   6   8   11.99    0.99
   0  -6   8    0.04    0.06
   0  -6   8   -0.04    0.08
   0  -6  -8    0.03    0.06
   0   6  -8    0.22    0.16
   0   6  -8    0.01    0.22
   0   6   8    0.04    0.07
  -2  -6  -8   80.85    6.53
  -2  -6  -8   81.04    6.57
   2  -6   8   83.85    6.52
   2  -6   8   79.74    6.30
   2   6   8   76.04    6.34
  -2   6  -8   72.50    6.58
   4  -6   8    0.11    0.08
  -4  -6  -8    0.06    0.08
  -4  -6  -8    0.04    0.09
   4   6   8    0.12    0.12
  -4   6  -8    0.39    0.35
  -4   6  -8    0.24    0.13
  -6  -6  -8    2.73    0.36
   6  -6   8    2.56    0.32
  -6   6  -8    3.64    0.73
   6   6   8    2.50    0.39
   8  -6   8    0.14    0.11
  -8  -6  -8    0.15    0.18
  -8   6  -8    0.30    0.38
  -9  -7   8    0.27    0.13
  -9  -7   8    0.09    0.14
  -9   7   8    0.14    0.08
   9   7  -8    0.36    0.19
  -7  -7   8    1.72    0.26
   7  -7  -8    1.19    0.21
   7   7  -8    0.95    0.26
  -7   7   8    1.19    0.20
   7   7  -8    0.95    0.16
  -5  -7   8   41.18    3.28
   5  -7  -8   39.06    3.26
   5   7  -8   38.76    3.23
  -5   7   8   37.05    3.15
   5   7  -8   38.34    4.48
  -3  -7   8   31.59    2.69
   3  -7  -8   32.65    2.69
  -3   7   8   30.87    2.58
   3   7  -8   30.83    3.67
   3   7  -8   32.43    2.65
  -1  -7   8   34.74    2.96
   1  -7  -8   36.81    2.97
   1   7  -8   33.84    4.11
  -1   7   8   35.22    2.86
  -1  -7  -8   40.14    3.30
   1  -7   8   39.72    3.15
   1  -7   8   38.70    3.28
  -1   7  -8   30.43    4.64
  -1   7  -8   44.63    3.33
   1   7   8   40.12    3.20
   3  -7   8    1.93    0.23
  -3  -7  -8    1.94    0.28
  -3   7  -8    1.00    0.57
   3   7   8    2.44    0.31
  -3   7  -8    1.44    0.26
   5  -7   8    0.52    0.13
  -5  -7  -8    0.65    0.17
  -5   7  -8    0.39    0.39
   5   7   8    0.57    0.18
   7  -7   8    0.58    0.14
  -7  -7  -8    0.67    0.22
  -7   7  -8    0.60    0.38
 -10  -8   8    0.39    0.16
   8  -8  -8    5.25    0.55
  -8  -8   8    5.43    0.57
   8   8  -8    5.43    0.50
  -8   8   8    4.71    0.52
   8   8  -8    5.49    0.74
   6  -8  -8    0.11    0.11
  -6  -8   8    0.11    0.10
  -6   8   8    0.03    0.06
   6   8  -8    0.06    0.08
   6   8  -8    0.04    0.15
  -4  -8   8   29.59    2.37
   4  -8  -8   28.95    2.35
  -4   8   8   25.07    2.25
   4   8  -8   26.77    3.21
   4   8  -8   27.42    2.30
   2  -8  -8   -0.03    0.09
  -2  -8   8    0.06    0.10
   2   8  -8    0.03    0.18
  -2   8   8    0.11    0.09
   2   8  -8    0.01    0.10
   0  -8  -8   24.33    1.98
   0  -8   8   23.01    1.97
   0   8  -8   22.35    1.98
   0   8   8   23.85    1.91
   0   8  -8   20.23    2.78
  -2  -8  -8    0.04    0.10
   2  -8   8    0.10    0.07
   2  -8   8    0.09    0.10
   2   8   8    0.06    0.10
  -2   8  -8   -0.22    0.37
  -4  -8  -8    1.50    0.26
   4  -8   8    1.43    0.21
  -4   8  -8    1.51    0.65
   6  -8   8    0.20    0.11
  -6   8  -8   -0.33    0.37
  -7  -9   8    1.41    0.27
   7  -9  -8    1.56    0.28
  -7   9   8    1.16    0.23
   7   9  -8    1.44    0.36
   7   9  -8    1.82    0.21
   5  -9  -8    9.10    0.87
  -5  -9   8    8.75    0.87
   5   9  -8    9.52    0.81
  -5   9   8    8.13    0.83
   5   9  -8    9.83    1.18
  -3  -9   8   21.24    1.90
   3  -9  -8   21.32    1.89
   3   9  -8   22.52    2.60
  -3   9   8   21.57    1.81
  -1  -9   8   20.16    1.70
   1  -9  -8   19.68    1.70
  -1   9   8   18.97    1.63
   1   9  -8   18.47    2.38
  -1  -9  -8   20.81    1.63
   1  -9   8   19.76    1.61
   1   9   8   18.39    1.55
  -1   9  -8   13.17    2.32
  -3  -9  -8    0.72    0.19
   3   9   8    0.92    0.21
  -3   9  -8    0.20    0.47
   5  -9   8    4.23    0.43
  -5   9  -8    4.47    1.07
   8  10  -8    0.49    0.14
   6 -10  -8   26.60    2.32
  -6  10   8   25.77    2.24
   6  10  -8   27.88    3.19
   4 -10  -8    0.17    0.16
  -4 -10   8    0.21    0.18
   4  10  -8    0.10    0.23
  -4  10   8    0.05    0.11
  -2 -10   8    3.59    0.49
   2 -10  -8    4.74    0.51
  -2  10   8    3.96    0.44
   2  10  -8    3.98    0.72
   0 -10   8    0.21    0.13
   0 -10  -8    0.13    0.10
   0  10   8    0.16    0.11
   0  10  -8    0.03    0.33
  -2 -10  -8   33.29    2.72
  -2  10  -8   23.89    3.91
   2  10   8   35.18    2.62
  -4 -10  -8    0.33    0.16
  -4  10  -8    0.55    0.80
   5 -11  -8    2.15    0.37
   5  11  -8    1.96    0.51
  -3 -11   8    1.63    0.34
   3 -11  -8    1.31    0.32
   3  11  -8    2.17    0.55
  -3  11   8    1.90    0.30
  -1 -11   8    2.69    0.41
   1 -11  -8    2.95    0.40
  -1  11   8    2.72    0.36
   1  11  -8    2.71    0.69
   1 -11   8    0.10    0.17
  -1 -11  -8    0.01    0.10
  -1  11  -8    0.81    0.67
  -3  11  -8    4.25    1.27
 -12   0   9    0.29    0.11
 -10   0   9    0.03    0.07
 -10   0   9    0.00    0.15
   8   0  -9    0.01    0.08
  -8   0   9    0.09    0.14
   6   0  -9    0.06    0.06
  -6   0   9    0.00    0.04
  -6   0   9    0.11    0.13
  -4   0   9    0.00    0.09
  -4   0   9    0.02    0.05
   4   0  -9    0.21    0.08
  -2   0   9   -0.10    0.09
   2   0  -9   -0.10    0.12
  -2   0   9   -0.02    0.06
   0   0   9    0.09    0.11
   0   0  -9    0.36    0.15
   0   0   9    0.06    0.07
   2   0   9    0.13    0.11
  -2   0  -9   -0.04    0.09
   2   0   9    0.46    0.13
   4   0   9   -0.06    0.08
  -4   0  -9    0.19    0.12
  -6   0  -9    0.14    0.12
   6   0   9    0.24    0.14
  -8   0  -9    0.07    0.12
   8   0   9    0.03    0.15
 -11  -1   9   18.59    1.67
 -11   1   9   19.13    1.67
  -9  -1   9   10.44    0.94
  -9  -1   9    9.35    0.84
  -9   1   9    8.65    0.83
  -9   1   9    7.88    0.87
   7  -1  -9   22.70    1.89
  -7  -1   9   21.67    1.99
   7   1  -9   22.68    1.89
  -7   1   9   23.28    1.84
  -7   1   9   21.12    1.98
  -5  -1   9   33.60    2.72
  -5  -1   9   34.71    2.92
   5  -1  -9   32.93    2.82
  -5   1   9   33.79    2.73
  -5   1   9   35.95    2.91
   5   1  -9   33.51    2.82
  -3  -1   9    8.74    0.85
  -3  -1   9   10.77    0.97
   3  -1  -9    9.64    0.90
  -3   1   9   11.63    0.97
  -3   1   9   10.55    0.86
   3   1  -9   10.32    0.88
  -1  -1   9   42.18    3.53
  -1  -1   9   44.99    3.37
   1  -1  -9   46.22    3.54
   1   1  -9   40.41    3.53
  -1   1   9   37.77    3.51
  -1   1   9   39.20    3.38
   1  -1   9   10.99    0.92
   1  -1   9    9.72    0.96
  -1  -1  -9    8.84    0.96
  -1   1  -9   12.42    1.00
   1   1   9   11.07    0.92
  -3  -1  -9    3.55    0.44
   3  -1   9    3.98    0.38
  -3  -1  -9    3.16    0.35
   3   1   9    3.84    0.40
  -3   1  -9    2.87    0.42
   5  -1   9   13.17    1.11
  -5  -1  -9   13.09    1.19
  -5   1  -9   14.52    1.21
   5   1   9   10.18    1.10
   7  -1   9   15.73    1.42
  -7  -1  -9   18.83    1.54
   7   1   9   13.26    1.42
  -7   1  -9   18.94    1.54
  -9  -1  -9    8.51    0.91
   9  -1   9    9.03    0.88
   9   1   9    7.98    0.90
  -9   1  -9    9.64    0.93
 -12  -2   9    0.20    0.11
 -10  -2   9   44.44    4.28
 -10  -2   9   57.12    4.37
 -10   2   9   53.14    4.29
  -8  -2   9    0.19    0.09
  -8  -2   9    0.18    0.14
   8  -2  -9    0.18    0.09
  -8   2   9    0.42    0.10
   8   2  -9    0.16    0.11
  -8   2   9    0.22    0.14
  -6  -2   9   12.01    1.09
   6  -2  -9   11.29    0.97
  -6   2   9   11.96    0.96
   6   2  -9   11.73    0.97
  -6   2   9    9.08    1.04
  -4  -2   9    0.10    0.05
  -4  -2   9    0.17    0.11
   4  -2  -9   -0.03    0.09
  -4   2   9    0.10    0.06
   4   2  -9    0.10    0.07
  -4   2   9    0.26    0.11
  -2  -2   9   95.44    8.37
   2  -2  -9   97.88    8.42
  -2  -2   9   99.11    8.06
  -2   2   9  104.66    8.08
   2   2  -9  109.73    8.40
   0  -2  -9    0.12    0.11
   0  -2   9    0.05    0.07
   0  -2   9   -0.03    0.09
   0   2   9    0.08    0.07
   0   2   9    0.14    0.12
   0   2  -9    0.07    0.15
  -2  -2  -9    8.11    0.89
  -2  -2  -9    8.69    0.86
   2  -2   9    9.59    0.84
   2  -2   9   10.86    0.90
  -2   2  -9    9.25    0.90
   2   2   9   11.16    0.86
  -4  -2  -9    0.12    0.11
   4  -2   9    0.35    0.12
   4   2   9    0.11    0.10
  -4   2  -9    0.24    0.13
   6  -2   9    0.13    0.11
  -6  -2  -9    0.21    0.14
  -6   2  -9    0.14    0.13
   6   2   9    0.18    0.12
  -8  -2  -9    0.21    0.16
   8  -2   9   -0.09    0.15
   8   2   9   -0.05    0.15
  -8   2  -9    0.04    0.12
 -11  -3   9    0.70    0.17
  -9  -3   9   20.79    1.97
   9  -3  -9   21.37    1.96
  -9  -3   9   21.69    2.04
  -9   3   9   24.63    1.89
   9   3  -9   24.08    2.65
  -7  -3   9   30.49    2.81
   7  -3  -9   34.33    2.73
  -7   3   9   33.89    2.67
   7   3  -9   32.69    3.77
   7   3  -9   32.57    2.74
  -7   3   9   31.72    2.81
  -5  -3   9   48.69    4.11
   5  -3  -9   47.99    4.06
  -5   3   9   45.05    4.11
  -5   3   9   50.98    3.93
   5   3  -9   51.12    4.06
  -3  -3   9   53.11    4.11
   3  -3  -9   41.87    4.10
  -3  -3   9   43.76    3.92
  -3   3   9   57.60    3.96
  -3   3   9   43.91    4.11
   3   3  -9   54.53    4.08
  -1  -3   9    0.37    0.11
   1  -3  -9    0.72    0.17
   1  -3  -9    0.35    0.11
  -1  -3   9    0.68    0.16
   1   3  -9    0.21    0.15
  -1   3   9    0.53    0.13
  -1  -3  -9    0.66    0.18
   1  -3   9    0.56    0.16
  -1  -3  -9    0.89    0.17
   1  -3   9    1.00    0.16
   1   3   9    1.09    0.21
  -1   3  -9    0.60    0.20
  -3  -3  -9    0.41    0.11
   3  -3   9    0.24    0.10
  -3  -3  -9    0.33    0.13
  -3   3  -9    0.11    0.14
   3   3   9    0.18    0.11
  -5  -3  -9    8.93    0.76
   5  -3   9    6.76    0.67
  -5   3  -9    6.32    0.74
   5   3   9    7.78    0.71
   7  -3   9    2.40    0.34
  -7  -3  -9    2.52    0.39
  -7   3  -9    2.66    0.40
   7   3   9    2.84    0.39
  -9  -3  -9    0.46    0.27
   9  -3   9    0.04    0.20
   9   3   9    0.17    0.24
  -9   3  -9   -0.01    0.15
 -10  -4   9    0.04    0.16
 -10  -4   9   -0.01    0.06
  10   4  -9   -0.04    0.10
 -10   4   9    0.26    0.11
  -8  -4   9   27.99    2.44
  -8  -4   9   27.90    2.41
   8  -4  -9   29.44    2.40
   8   4  -9   26.40    3.23
  -8   4   9   28.84    2.30
   6  -4  -9    0.09    0.09
  -6  -4   9    0.14    0.11
  -6   4   9   -0.02    0.05
   6   4  -9    0.17    0.09
   6   4  -9    0.13    0.10
  -4  -4   9   35.84    2.93
   4  -4  -9   35.43    2.93
  -4   4   9   37.58    2.82
   4   4  -9   35.14    2.89
   4   4  -9   30.69    3.96
   2  -4  -9    0.04    0.08
  -2  -4   9    0.96    0.13
  -2  -4   9    0.15    0.09
   2  -4  -9    0.78    0.17
   2   4  -9    0.07    0.10
  -2   4   9    0.04    0.06
   0  -4  -9    1.47    0.23
   0  -4  -9    1.64    0.24
   0  -4   9    1.86    0.25
   0  -4   9    1.34    0.19
   0   4  -9    1.11    0.26
   0   4   9    1.52    0.24
   2  -4   9    0.04    0.07
   2  -4   9    0.14    0.10
  -2  -4  -9    0.14    0.08
  -2  -4  -9    0.10    0.08
   2   4   9   -0.05    0.11
  -2   4  -9    0.16    0.12
  -4  -4  -9  292.42   25.28
   4  -4   9  303.18   24.26
   4   4   9  324.27   24.30
   6  -4   9    0.01    0.09
  -6  -4  -9   -0.01    0.11
   6   4   9    0.09    0.12
  -6   4  -9    0.05    0.12
  -8  -4  -9   11.79    1.24
   8  -4   9   12.32    1.15
  -8   4  -9   14.86    1.26
   8   4   9   13.36    1.19
  11  -5  -9    0.17    0.15
  11   5  -9    0.50    0.21
  -9  -5   9    8.78    0.88
  -9  -5   9    9.19    0.91
   9  -5  -9   10.60    0.88
   9   5  -9    8.69    1.13
  -9   5   9    9.20    0.83
   7  -5  -9   30.76    2.63
  -7  -5   9   30.18    2.65
   7   5  -9   32.58    3.59
   7   5  -9   30.70    2.59
  -7   5   9   30.31    2.54
   5  -5  -9   27.74    2.35
  -5  -5   9   25.24    2.34
   5   5  -9   28.69    3.17
  -5   5   9   27.06    2.25
   5   5  -9   27.83    2.30
  -3  -5   9   50.15    3.93
   3  -5  -9   48.45    3.92
  -3   5   9   49.10    3.79
   3   5  -9   44.95    3.90
   3   5  -9   43.48    5.36
  -1  -5   9    0.60    0.16
  -1  -5   9    1.02    0.15
   1  -5  -9    0.61    0.15
   1  -5  -9    0.84    0.17
   1   5  -9    0.53    0.18
  -1   5   9    1.13    0.19
   1   5  -9    1.02    0.27
   1  -5   9    2.52    0.31
  -1  -5  -9    2.59    0.31
   1  -5   9    2.44    0.27
  -1  -5  -9    2.31    0.31
  -1   5  -9    2.64    0.34
   1   5   9    1.99    0.31
  -3  -5  -9    0.09    0.10
   3  -5   9    0.19    0.09
  -3  -5  -9    0.08    0.09
   3   5   9   -0.05    0.12
  -3   5  -9    0.02    0.12
   5  -5   9    4.76    0.48
  -5  -5  -9    4.88    0.52
   5   5   9    5.26    0.53
  -5   5  -9    4.39    0.55
   7  -5   9    0.40    0.16
  -7  -5  -9    1.15    0.27
   7   5   9    1.11    0.25
  -7   5  -9    0.90    0.23
 -10  -6   9   26.59    2.41
 -10  -6   9   26.66    2.40
 -10   6   9   29.10    2.30
  10   6  -9   27.36    3.22
  -8  -6   9    0.35    0.14
   8  -6  -9    0.25    0.14
  -8   6   9    0.23    0.10
   8   6  -9    0.19    0.16
   8   6  -9    0.26    0.10
  -6  -6   9    6.74    0.61
   6  -6  -9    5.76    0.58
   6   6  -9    5.93    0.53
   6   6  -9    5.30    0.75
  -6   6   9    5.66    0.55
  -4  -6   9   -0.08    0.08
   4  -6  -9    0.05    0.09
   4   6  -9   -0.03    0.12
   4   6  -9    0.00    0.07
  -4   6   9    0.05    0.07
  -2  -6   9   77.14    6.51
   2  -6  -9   81.91    6.52
  -2   6   9   79.79    6.30
   2   6  -9   78.54    8.99
   2   6  -9   76.25    6.53
   0  -6  -9    0.03    0.07
   0  -6   9    0.23    0.12
   0  -6   9    0.07    0.07
   0   6  -9    0.27    0.26
   0   6  -9    0.49    0.18
   0   6   9    0.07    0.09
   2  -6   9    5.81    0.57
  -2  -6  -9    5.68    0.57
   2  -6   9    6.25    0.53
  -2  -6  -9    6.12    0.57
   2   6   9    4.51    0.58
  -2   6  -9    6.22    0.60
  -2   6  -9    4.32    0.96
   4  -6   9    0.03    0.09
  -4  -6  -9    0.04    0.11
  -4   6  -9   -0.04    0.12
   4   6   9   -0.08    0.09
   6  -6   9    0.61    0.16
  -6  -6  -9    0.70    0.20
  -6   6  -9    1.18    0.22
   6   6   9    1.00    0.24
  -8  -6  -9    0.27    0.23
  -9  -7   9    6.38    0.67
   9   7  -9    6.47    0.59
  -9   7   9    5.75    0.61
   9   7  -9    6.67    0.86
  -7  -7   9    2.51    0.37
   7  -7  -9    2.73    0.37
   7   7  -9    2.63    0.29
   7   7  -9    2.91    0.45
  -7   7   9    2.83    0.34
   5  -7  -9   15.13    1.32
  -5  -7   9   14.55    1.33
   5   7  -9   14.50    1.26
  -5   7   9   14.67    1.26
   5   7  -9   14.74    1.76
  -3  -7   9    0.07    0.10
   3  -7  -9   -0.03    0.08
  -3   7   9   -0.05    0.06
   3   7  -9    0.18    0.16
   3   7  -9    0.07    0.09
  -1  -7   9   27.04    2.30
   1  -7  -9   26.57    2.30
  -1   7   9   27.25    2.22
   1   7  -9   26.20    3.18
   1  -7   9    7.44    0.65
  -1  -7  -9    7.46    0.72
   1  -7   9    7.55    0.72
  -1   7  -9    5.38    1.11
  -1   7  -9    8.21    0.73
   1   7   9    7.44    0.70
   3  -7   9    3.21    0.31
  -3  -7  -9    3.86    0.40
  -3   7  -9    2.63    0.75
   3   7   9    2.41    0.36
  -3   7  -9    1.97    0.34
   5  -7   9    2.59    0.29
   5   7   9    1.57    0.32
  -7  -7  -9    6.80    0.72
   7  -7   9    6.12    0.61
   8  -8  -9    0.23    0.17
  -8  -8   9   -0.02    0.12
  -8   8   9    0.28    0.12
   8   8  -9    0.12    0.11
   8   8  -9   -0.29    0.17
   6  -8  -9    0.17    0.14
  -6  -8   9    0.31    0.14
  -6   8   9    0.22    0.09
   6   8  -9    0.25    0.19
   6   8  -9    0.24    0.11
  -4  -8   9    0.15    0.13
   4  -8  -9    0.12    0.11
  -4   8   9    0.03    0.09
   4   8  -9    0.21    0.17
   4   8  -9   -0.02    0.08
   2  -8  -9    0.14    0.11
  -2  -8   9    0.20    0.13
  -2   8   9    0.28    0.12
   2   8  -9    0.32    0.23
   2   8  -9    0.17    0.14
   0  -8  -9    0.26    0.13
   0  -8   9    0.50    0.16
   0   8  -9    0.41    0.35
   0   8  -9    0.76    0.20
   0   8   9    0.56    0.15
  -2  -8  -9    0.16    0.12
   2   8   9    0.27    0.13
  -2   8  -9    0.08    0.42
  -4  -8  -9    0.02    0.12
   4  -8   9    0.45    0.12
   4   8   9    0.23    0.15
   6  -8   9    0.00    0.10
   7  -9  -9   13.72    1.18
   7   9  -9   12.06    1.56
  -7   9   9   11.17    1.10
   7   9  -9   13.13    1.10
   5  -9  -9    7.89    0.73
  -5  -9   9    7.13    0.72
   5   9  -9    6.88    0.64
  -5   9   9    6.82    0.68
   5   9  -9    6.92    0.94
   3  -9  -9    6.06    0.60
  -3  -9   9    5.37    0.60
   3   9  -9    5.75    0.54
   3   9  -9    5.27    0.79
  -3   9   9    5.12    0.55
   1  -9  -9   12.55    1.14
  -1  -9   9   12.25    1.13
  -1   9   9   12.10    1.08
  -1  -9  -9    3.16    0.42
   1  -9   9    3.37    0.41
  -1   9  -9    2.11    0.70
   1   9   9    3.06    0.39
  -3  -9  -9    5.95    0.58
   3   9   9    5.00    0.56
  -3   9  -9    3.96    1.07
   6 -10  -9    3.19    0.48
   6  10  -9    4.07    0.64
   4 -10  -9   -0.04    0.16
  -4 -10   9    0.20    0.21
   4  10  -9    0.10    0.24
  -4  10   9   -0.01    0.13
   2 -10  -9   30.73    2.77
  -2 -10   9   32.58    2.77
   2  10  -9   31.02    3.85
  -2  10   9   34.45    2.68
   0 -10   9    0.06    0.15
   0 -10  -9    0.10    0.11
   0  10   9    0.44    0.16
   0  10  -9    0.55    0.42
  -2 -10  -9    1.38    0.28
   2  10   9    1.75    0.30
  -2  10  -9    1.05    0.70
  -4 -10  -9    0.02    0.14
   5  11  -9   12.84    1.68
   3  11  -9   12.32    1.70
  -3  11   9   12.90    1.15
  -1 -11   9    0.80    0.28
  -1  11   9    0.74    0.23
   1  11  -9    0.47    0.54
   1 -11   9    1.57    0.33
   1  11   9    1.85    0.32
  -1  11  -9    1.62    0.86
 -12   0  10   13.79    1.27
 -10   0  10   -0.20    0.15
  10   0 -10    0.12    0.11
   8   0 -10   22.86    2.08
  -8   0  10   29.25    2.23
  -6   0  10    0.14    0.13
   6   0 -10   -0.01    0.07
  -6   0  10    0.08    0.07
  -4   0  10    1.74    0.20
   4   0 -10    1.33    0.20
  -4   0  10    1.59    0.30
  -2   0  10    0.04    0.06
  -2   0  10    0.06    0.12
   2   0 -10    0.21    0.16
   0   0  10  460.10   40.70
   0   0  10  557.60   42.03
   0   0 -10  529.99   42.40
   2   0  10    0.05    0.08
  -2   0 -10    0.26    0.16
   2   0  10    0.07    0.12
   4   0  10   35.07    2.73
  -4   0 -10   30.47    2.86
  -6   0 -10    0.10    0.13
   6   0  10    0.06    0.13
   8   0  10    6.16    0.71
  -8   0 -10    6.50    0.76
  11  -1 -10   17.38    1.39
 -11  -1  10   14.19    1.43
  -9  -1  10   21.65    1.90
   9  -1 -10   22.23    1.77
  -9   1  10   19.19    1.86
   9   1 -10   20.11    1.77
  -7  -1  10   40.89    3.50
   7  -1 -10   41.24    3.40
  -7   1  10   41.99    3.50
  -7   1  10   41.74    3.30
   7   1 -10   39.26    3.40
  -5  -1  10    0.78    0.22
   5  -1 -10    0.76    0.14
  -5  -1  10    0.76    0.13
   5   1 -10    0.89    0.14
  -5   1  10    0.88    0.23
  -5   1  10    1.20    0.16
  -3  -1  10    0.51    0.13
  -3  -1  10    0.95    0.22
   3  -1 -10    1.12    0.21
  -3   1  10    1.02    0.16
   3   1 -10    1.06    0.18
  -3   1  10    0.97    0.22
  -1  -1  10    0.24    0.09
  -1  -1  10    0.23    0.13
   1  -1 -10    0.43    0.17
   1   1 -10    0.17    0.17
  -1   1  10    0.01    0.09
  -1   1  10    0.11    0.12
  -1  -1 -10   13.43    1.19
   1  -1  10   14.06    1.13
   1  -1  10   12.78    1.18
  -1   1 -10   14.81    1.20
   1   1  10    9.95    1.15
   1   1  10   13.60    1.12
   3  -1  10    2.23    0.31
  -3  -1 -10    1.64    0.34
  -3   1 -10    2.24    0.36
   3   1  10    3.32    0.34
  -5  -1 -10    0.85    0.24
   5  -1  10    0.15    0.12
   5   1  10    0.07    0.11
  -5   1 -10    0.07    0.13
   7  -1  10   27.23    2.34
  -7  -1 -10   28.85    2.49
   7   1  10   27.13    2.35
  -7   1 -10   27.93    2.48
   9   1  10    7.71    0.86
 -10  -2  10    5.02    0.61
 -10  -2  10    3.96    0.48
 -10   2  10    4.59    0.57
   8  -2 -10    0.06    0.08
  -8  -2  10    0.25    0.16
  -8   2  10    0.08    0.13
   8   2 -10   -0.01    0.09
  -8   2  10    0.09    0.07
   6  -2 -10   76.26    6.11
  -6  -2  10   67.25    6.17
   6   2 -10   74.03    6.11
  -6   2  10   78.77    5.90
  -6   2  10   70.62    6.16
  -4  -2  10    0.21    0.14
   4  -2 -10   -0.03    0.12
  -4  -2  10    0.10    0.06
   4   2 -10   -0.04    0.07
  -4   2  10    0.09    0.11
  -4   2  10    0.13    0.06
   2  -2 -10   11.76    0.91
  -2  -2  10    9.63    0.92
  -2  -2  10   10.27    0.83
  -2   2  10    8.25    0.89
   2   2 -10    8.40    0.88
  -2   2  10    9.03    0.84
   0  -2  10    0.01    0.05
   0  -2 -10    0.14    0.12
   0  -2  10   -0.05    0.10
   0   2 -10    0.16    0.14
   0   2  10   -0.04    0.10
   0   2  10    0.01    0.07
   2  -2  10    0.24    0.12
  -2  -2 -10   -0.01    0.06
  -2  -2 -10   -0.08    0.11
   2  -2  10    0.08    0.09
   2   2  10    0.10    0.08
  -2   2 -10    0.28    0.14
  -4  -2 -10    0.00    0.12
   4  -2  10    0.20    0.11
   4   2  10    0.04    0.09
  -4   2 -10   -0.03    0.12
  -6  -2 -10   78.36    6.49
   6  -2  10   76.34    6.19
   6   2  10   77.87    6.21
  -6   2 -10   74.72    6.50
  -8  -2 -10    0.08    0.23
   8  -2  10    0.12    0.21
  -8   2 -10    0.21    0.18
   8   2  10   -0.16    0.18
 -11  -3  10    1.67    0.27
   9  -3 -10   11.50    1.17
  -9  -3  10   12.85    1.26
  -9   3  10   14.82    1.13
   9   3 -10   12.66    1.12
  -7  -3  10    0.03    0.10
   7   3 -10    0.02    0.08
  -7   3  10    0.13    0.07
  -7   3  10   -0.15    0.11
   5  -3 -10   30.15    2.41
  -5  -3  10   27.86    2.47
  -5   3  10   28.22    2.33
   5   3 -10   27.88    2.39
   3  -3 -10   10.34    0.96
  -3  -3  10   10.74    0.90
  -3  -3  10   11.42    1.00
  -3   3  10   11.13    0.92
  -3   3  10    7.88    0.97
   3   3 -10   10.98    0.93
   1  -3 -10    3.73    0.44
  -1  -3  10    3.22    0.44
  -1  -3  10    4.93    0.41
   1  -3 -10    5.37    0.46
   1   3 -10    2.79    0.44
  -1   3  10    3.22    0.41
   1  -3  10    5.25    0.55
  -1  -3 -10    5.02    0.52
   1  -3  10    4.56    0.49
  -1   3 -10    6.24    0.57
   1   3  10    5.34    0.53
   3  -3  10   25.09    2.00
  -3  -3 -10   24.52    2.06
  -3  -3 -10   23.57    2.11
  -3   3 -10   20.54    2.10
   3   3  10   26.02    2.01
   5  -3  10   27.57    2.29
  -5  -3 -10   31.78    2.45
   5   3  10   27.76    2.30
  -5   3 -10   23.53    2.42
   7  -3  10    0.65    0.18
  -7  -3 -10    0.99    0.28
   7   3  10    0.52    0.20
  -7   3 -10    1.10    0.28
   9   3  10    8.81    0.93
 -10  -4  10    0.05    0.08
 -10  -4  10   -0.01    0.17
  10   4 -10    0.15    0.13
 -10   4  10    0.08    0.08
   8  -4 -10    0.25    0.14
  -8  -4  10    0.06    0.12
   8   4 -10   -0.14    0.09
  -8   4  10    0.20    0.08
  -6  -4  10    0.03    0.11
   6  -4 -10   -0.04    0.09
  -6   4  10    0.08    0.07
   6   4 -10    0.12    0.08
   4  -4 -10    0.23    0.12
  -4  -4  10    0.21    0.13
  -4   4  10    0.05    0.06
   4   4 -10    0.28    0.10
  -2  -4  10    0.02    0.07
   2  -4 -10   -0.06    0.11
  -2  -4  10    0.12    0.11
   2  -4 -10    0.09    0.08
  -2   4  10    0.09    0.07
   2   4 -10   -0.09    0.12
   0  -4  10   -0.12    0.05
   0  -4 -10    0.28    0.11
   0  -4 -10   -0.04    0.11
   0  -4  10    0.08    0.11
   0   4  10   -0.01    0.08
   0   4 -10    0.05    0.15
   2  -4  10    0.22    0.12
  -2  -4 -10    0.21    0.11
   2  -4  10    0.00    0.07
  -2  -4 -10   -0.11    0.10
   2   4  10   -0.09    0.09
  -2   4 -10    0.09    0.13
   4  -4  10    0.54    0.16
  -4  -4 -10    0.61    0.18
   4   4  10    0.46    0.17
  -4   4 -10    0.30    0.17
   6  -4  10    0.16    0.11
  -6  -4 -10   -0.01    0.12
  -6   4 -10    0.10    0.13
   6   4  10   -0.13    0.11
  -8  -4 -10    0.30    0.25
   8  -4  10    0.08    0.12
  -8   4 -10    0.14    0.16
   8   4  10   -0.01    0.20
   9  -5 -10    7.81    0.71
  -9  -5  10    6.63    0.74
   9   5 -10    6.94    0.64
  -9   5  10    6.63    0.66
   7  -5 -10    4.77    0.50
  -7  -5  10    4.94    0.53
   7   5 -10    3.84    0.40
  -7   5  10    3.62    0.41
  -5  -5  10   15.17    1.42
   5  -5 -10   15.91    1.42
  -5   5  10   16.33    1.35
   5   5 -10   15.83    1.35
  -3  -5  10    7.16    0.67
   3  -5 -10    6.15    0.64
  -3   5  10    6.92    0.62
   3   5 -10    6.06    0.60
  -1  -5  10   11.79    0.97
   1  -5 -10    9.85    0.95
  -1   5  10    9.48    0.92
  -1  -5 -10   12.15    1.12
  -1  -5 -10   12.55    1.12
   1  -5  10   12.84    1.05
   1  -5  10   12.63    1.11
   1   5  10   10.09    1.08
  -1   5 -10   13.16    1.13
   3  -5  10   21.63    1.69
  -3  -5 -10   19.25    1.77
  -3  -5 -10   22.48    1.77
  -3   5 -10   17.01    1.77
   3   5  10   20.18    1.73
  -5  -5 -10   11.44    1.05
   5  -5  10   11.54    0.97
  -5   5 -10    8.53    1.03
   5   5  10   12.44    1.03
   7  -5  10    2.32    0.34
  -7  -5 -10    3.12    0.45
   7   5  10    2.62    0.40
  -7   5 -10    2.69    0.42
 -10  -6  10    4.05    0.58
 -10   6  10    4.60    0.49
   8  -6 -10    0.07    0.12
  -8  -6  10    0.18    0.12
  -8   6  10   -0.03    0.06
   8   6 -10    0.20    0.11
  -6  -6  10   42.13    3.68
   6  -6 -10   43.30    3.66
  -6   6  10   45.69    3.54
   6   6 -10   43.05    3.63
   4  -6 -10    0.17    0.11
  -4  -6  10    0.36    0.16
  -4   6  10    0.27    0.10
   4   6 -10    0.19    0.10
  -2  -6  10    6.42    0.60
   2  -6 -10    6.21    0.60
   2   6 -10    4.78    0.56
  -2   6  10    5.63    0.56
   0  -6 -10    0.34    0.14
   0  -6  10    0.29    0.14
   0   6  10    0.27    0.13
   0   6 -10    0.26    0.18
   2  -6  10    0.34    0.11
  -2  -6 -10    0.17    0.11
  -2   6 -10    0.30    0.16
   2   6  10    0.05    0.11
  -4  -6 -10    0.03    0.11
   4  -6  10    0.11    0.10
  -4   6 -10   -0.35    0.12
   4   6  10    0.08    0.13
   6  -6  10   42.30    3.36
  -6  -6 -10   42.25    3.55
   6   6  10   43.61    3.42
  -6   6 -10   36.44    3.52
   9  -7 -10   17.74    1.53
  -9  -7  10   17.40    1.55
  -9   7  10   16.91    1.46
   9   7 -10   15.99    1.45
   7  -7 -10   17.06    1.43
  -7  -7  10   15.68    1.43
   7   7 -10   15.86    1.35
  -7   7  10   14.38    1.35
   5  -7 -10    0.45    0.16
  -5  -7  10    0.58    0.18
  -5   7  10    0.40    0.12
   5   7 -10    0.36    0.12
  -3  -7  10    3.59    0.44
   3  -7 -10    3.50    0.44
  -3   7  10    3.16    0.38
   3   7 -10    3.21    0.37
   1  -7 -10    0.24    0.11
  -1  -7  10    0.25    0.13
   1   7 -10    0.06    0.17
  -1   7  10    0.19    0.12
  -1  -7 -10    4.48    0.50
   1  -7  10    4.44    0.49
   1   7  10    3.53    0.47
  -1   7 -10    4.03    0.47
  -3  -7 -10    2.62    0.35
   3  -7  10    2.08    0.27
   3   7  10    1.50    0.32
  -3   7 -10    1.87    0.32
   5  -7  10    0.15    0.10
   5   7  10   -0.04    0.16
  -7  -7 -10   16.03    1.52
   8  -8 -10    9.98    0.99
   8   8 -10   10.12    0.90
  -8   8  10   10.07    0.92
   6  -8 -10    0.04    0.13
  -6  -8  10    0.07    0.10
   6   8 -10    0.03    0.09
  -6   8  10   -0.01    0.07
  -4  -8  10    1.63    0.30
   4  -8 -10    0.95    0.24
  -4   8  10    1.62    0.25
   4   8 -10    1.23    0.20
   2  -8 -10    0.13    0.12
  -2  -8  10    0.04    0.12
  -2   8  10    0.06    0.10
   2   8 -10   -0.07    0.12
   0  -8 -10  199.94   16.14
   0  -8  10  198.80   16.13
   0   8  10  198.18   15.65
   0   8 -10  190.05   16.25
  -2  -8 -10    0.22    0.12
   2   8  10    0.07    0.13
   4   8  10   10.11    0.98
   7  -9 -10   16.44    1.55
   7   9 -10   17.51    1.48
  -5  -9  10    0.11    0.20
   5  -9 -10    0.16    0.18
   5   9 -10    0.15    0.10
  -5   9  10    0.06    0.13
  -3  -9  10    1.39    0.29
   3  -9 -10    1.21    0.27
  -3   9  10    1.24    0.24
   3   9 -10    0.98    0.22
  -1  -9  10    0.19    0.15
   1  -9 -10    0.03    0.11
  -1   9  10    0.13    0.12
  -1  -9 -10    3.08    0.42
   1  -9  10    3.05    0.40
   1   9  10    2.26    0.38
  -3  -9 -10    1.63    0.30
   3   9  10    1.34    0.30
   5  -9  10    0.04    0.11
  -4 -10  10    0.23    0.22
   4 -10 -10    0.06    0.21
  -4  10  10    0.05    0.17
   2 -10 -10    1.60    0.30
  -2 -10  10    1.57    0.35
  -2  10  10    1.99    0.32
   0 -10 -10    0.09    0.12
   0 -10  10    0.00    0.17
   0  10  10   -0.03    0.15
  -2 -10 -10    0.30    0.15
   2  10  10    0.11    0.20
   1  11  10    1.91    0.37
  12   0 -11   -0.15    0.17
  10   0 -11    0.09    0.12
 -10   0  11    0.10    0.16
  -8   0  11    0.47    0.18
   8   0 -11    0.38    0.12
  -6   0  11   -0.05    0.05
  -6   0  11    0.14    0.14
   6   0 -11   -0.09    0.08
   4   0 -11    0.06    0.11
  -4   0  11    0.00    0.05
  -4   0  11    0.07    0.12
   2   0 -11    0.04    0.16
  -2   0  11    0.08    0.12
  -2   0  11    0.04    0.07
   0   0 -11    0.92    0.22
   0   0  11    0.81    0.16
   2   0  11    0.06    0.08
   2   0  11    0.06    0.11
  -2   0 -11    0.10    0.14
  -4   0 -11    0.07    0.15
   4   0  11    0.07    0.10
  -6   0 -11   -0.04    0.14
   6   0  11   -0.02    0.14
   8   0  11   -0.15    0.22
  -8   0 -11    0.02    0.15
  11  -1 -11    0.00    0.15
  11   1 -11   -0.01    0.14
  -9  -1  11   13.93    1.20
   9  -1 -11   12.17    1.05
   9   1 -11   11.66    1.05
  -9   1  11   11.10    1.15
  -7  -1  11    7.15    0.79
   7  -1 -11    7.56    0.69
  -7   1  11    7.65    0.80
   7   1 -11    7.24    0.69
  -7   1  11    8.99    0.70
  -5  -1  11   10.29    1.00
   5  -1 -11    9.64    0.91
   5   1 -11    9.57    0.90
  -5   1  11   11.29    0.90
  -5   1  11   11.78    1.02
  -3  -1  11    4.55    0.44
   3  -1 -11    2.89    0.46
  -3  -1  11    5.39    0.56
  -3   1  11    4.56    0.44
   3   1 -11    4.34    0.48
  -3   1  11    6.09    0.55
  -1  -1  11   34.38    3.06
   1  -1 -11   36.66    3.05
  -1  -1  11   34.43    2.91
  -1   1  11   36.34    2.94
   1   1 -11   35.03    3.06
  -1   1  11   39.14    3.07
  -1  -1 -11   41.44    3.74
   1  -1  11   44.50    3.58
   1  -1  11   48.33    3.72
  -1   1 -11   48.29    3.75
   1   1  11   43.86    3.57
   1   1  11   38.69    3.69
  -3  -1 -11    2.27    0.42
   3  -1  11    3.47    0.39
   3   1  11    3.31    0.38
  -3   1 -11    2.91    0.44
   5  -1  11   10.30    0.98
  -5  -1 -11   10.04    1.06
   5   1  11   12.73    1.00
  -5   1 -11    9.22    1.05
  -7  -1 -11    3.36    0.54
   7  -1  11    3.74    0.50
  -7   1 -11    3.94    0.54
   7   1  11    2.21    0.43
 -10  -2  11   40.92    3.09
 -10   2  11   30.81    3.01
  10   2 -11   34.51    2.93
   8  -2 -11    0.18    0.10
  -8  -2  11    0.11    0.14
  -8   2  11    0.15    0.08
   8   2 -11    0.09    0.10
  -8   2  11   -0.05    0.14
  -6  -2  11    5.17    0.67
   6  -2 -11    6.16    0.55
  -6   2  11    5.98    0.67
  -6   2  11    6.22    0.55
   6   2 -11    5.44    0.54
   4  -2 -11   -0.06    0.14
  -4  -2  11    0.16    0.14
   4   2 -11    0.02    0.10
  -4   2  11    0.08    0.07
  -4   2  11    0.07    0.14
  -2  -2  11    0.10    0.06
  -2  -2  11    0.12    0.14
   2  -2 -11    0.12    0.15
  -2   2  11    0.18    0.09
  -2   2  11    0.32    0.15
   2   2 -11    0.01    0.15
   0  -2  11    0.11    0.13
   0  -2 -11    0.13    0.14
   0  -2  11    0.18    0.09
   0   2  11    0.05    0.12
   0   2 -11    0.15    0.16
   0   2  11    0.04    0.09
  -2  -2 -11   95.60    9.32
   2  -2  11  108.81    9.06
  -2   2 -11  125.69    9.46
   2   2  11  125.34    9.06
   4  -2  11   -0.01    0.10
  -4  -2 -11    0.08    0.16
  -4   2 -11   -0.02    0.14
   4   2  11    0.37    0.14
   6  -2  11    0.53    0.17
  -6  -2 -11    0.23    0.20
   6   2  11    0.33    0.18
  -6   2 -11    0.35    0.19
   8   2  11    0.11    0.25
  -8   2 -11    0.25    0.20
   9  -3 -11    0.48    0.17
  -9  -3  11    0.51    0.22
   9   3 -11    0.73    0.16
  -9   3  11    0.53    0.14
  -7  -3  11    3.07    0.47
  -7   3  11    3.57    0.35
  -7   3  11    3.13    0.47
   7   3 -11    3.00    0.33
   5  -3 -11    0.24    0.16
  -5  -3  11    0.09    0.13
  -5   3  11    0.17    0.14
   5   3 -11    0.12    0.09
  -5   3  11    0.10    0.08
   3  -3 -11    7.83    0.69
  -3  -3  11    7.20    0.73
  -3   3  11    4.71    0.71
  -3   3  11    7.64    0.65
   3   3 -11    6.77    0.66
   1  -3 -11    3.21    0.36
  -1  -3  11    3.39    0.30
  -1  -3  11    2.73    0.40
   1  -3 -11    2.53    0.35
  -1   3  11    1.89    0.31
   1   3 -11    1.91    0.35
   1  -3  11   -0.02    0.08
   1  -3  11    0.15    0.13
  -1  -3 -11    0.05    0.14
  -1  -3 -11    0.00    0.08
   1   3  11   -0.02    0.09
  -1   3 -11    0.25    0.16
   3  -3  11   37.96    2.96
  -3  -3 -11   29.78    3.09
  -3   3 -11   37.52    3.12
   3   3  11   38.58    2.96
  -5  -3 -11   18.04    1.81
   5  -3  11   20.12    1.71
   5   3  11   21.38    1.71
  -7  -3 -11    8.76    0.95
   7  -3  11    8.53    0.84
   7   3  11    8.92    0.85
  -7   3 -11    8.33    0.91
 -10  -4  11    0.09    0.17
  10   4 -11   -0.12    0.13
  -8  -4  11    1.22    0.29
   8  -4 -11    1.19    0.26
   8   4 -11    1.39    0.20
  -8   4  11    1.61    0.23
   6  -4 -11    0.16    0.12
  -6  -4  11    0.19    0.14
   6   4 -11    0.34    0.11
  -6   4  11    0.30    0.10
  -4  -4  11  265.87   22.38
   4  -4 -11  254.45   22.36
  -4   4  11  287.83   21.66
   4   4 -11  284.12   22.51
   2  -4 -11    0.65    0.18
   2  -4 -11    0.50    0.16
  -2  -4  11    0.33    0.16
   2   4 -11    0.26    0.17
  -2   4  11    0.39    0.14
   0  -4 -11   27.08    2.77
   0  -4  11   35.87    2.80
   0  -4 -11   31.73    2.76
   0  -4  11   33.57    2.66
   0   4  11   29.53    2.68
   0   4 -11   37.63    2.79
  -2  -4 -11    0.08    0.13
  -2  -4 -11    0.12    0.11
   2  -4  11    0.27    0.12
  -2   4 -11    0.09    0.13
   2   4  11    0.12    0.12
  -4  -4 -11    4.79    0.57
   4  -4  11    5.42    0.51
  -4   4 -11    3.65    0.57
   4   4  11    5.19    0.53
   6  -4  11    0.33    0.14
  -6  -4 -11    0.14    0.18
  -6   4 -11    0.32    0.16
   6   4  11    0.28    0.17
   9  -5 -11   -0.05    0.15
  -9  -5  11    0.13    0.15
  -9   5  11   -0.03    0.08
   9   5 -11    0.00    0.10
  -7  -5  11    0.32    0.16
   7  -5 -11    0.99    0.22
   7   5 -11    0.72    0.14
  -7   5  11    0.47    0.14
   5  -5 -11    0.35    0.15
  -5  -5  11    0.02    0.12
   5   5 -11    0.09    0.10
  -5   5  11    0.08    0.08
  -3  -5  11    6.91    0.69
   3  -5 -11    6.29    0.66
   3   5 -11    6.44    0.64
  -3   5  11    6.63    0.63
  -1  -5  11    4.76    0.52
   1  -5 -11    4.25    0.49
  -1   5  11    3.92    0.47
   1   5 -11    4.10    0.50
  -1  -5 -11    0.15    0.13
   1  -5  11   -0.14    0.12
  -1  -5 -11    0.06    0.10
   1  -5  11    0.02    0.08
   1   5  11    0.02    0.10
  -1   5 -11    0.03    0.15
  -3  -5 -11   28.52    2.48
   3  -5  11   31.08    2.40
   3   5  11   28.41    2.43
  -3   5 -11   27.36    2.51
   5  -5  11    9.72    0.94
  -5  -5 -11    9.87    1.02
   5   5  11   11.74    1.00
  -7  -5 -11    9.76    1.06
   7   5  11   12.65    1.01
  -7   5 -11    8.23    0.99
 -10  -6  11   35.50    3.02
 -10   6  11   33.30    2.84
   8  -6 -11    0.19    0.14
  -8  -6  11    0.11    0.12
  -8   6  11   -0.07    0.06
   8   6 -11   -0.05    0.09
  -6  -6  11    2.06    0.37
   6  -6 -11    2.53    0.37
   6   6 -11    2.55    0.29
  -6   6  11    3.03    0.34
   4  -6 -11    0.14    0.12
  -4  -6  11    0.25    0.15
  -4   6  11    0.02    0.08
   4   6 -11    0.10    0.10
   2  -6 -11    0.09    0.10
  -2  -6  11    0.32    0.15
   2   6 -11   -0.01    0.12
  -2   6  11    0.05    0.10
   0  -6  11    0.26    0.15
   0  -6 -11    0.49    0.16
   0   6 -11    0.30    0.17
   0   6  11    0.24    0.14
  -2  -6 -11   78.94    6.35
   2  -6  11   80.89    6.12
  -2   6 -11   81.05    6.39
   2   6  11   63.70    6.15
  -4  -6 -11    0.06    0.11
   4  -6  11   -0.05    0.10
   4   6  11   -0.11    0.13
  -4   6 -11   -0.03    0.14
  -6  -6 -11    1.13    0.33
   6  -6  11    1.49    0.28
   6   6  11    1.44    0.33
  -6   6 -11    1.47    0.31
   9  -7 -11   10.80    1.08
  -7  -7  11    6.04    0.63
   7  -7 -11    5.44    0.64
   7   7 -11    5.06    0.52
  -7   7  11    6.04    0.57
   5  -7 -11    2.36    0.38
  -5  -7  11    2.15    0.37
   5   7 -11    2.08    0.26
  -5   7  11    1.86    0.29
   3  -7 -11    2.41    0.39
  -3  -7  11    3.79    0.44
  -3   7  11    2.79    0.36
   3   7 -11    2.32    0.34
   1  -7 -11   15.70    1.34
  -1  -7  11   16.03    1.34
   1   7 -11   12.13    1.31
  -1   7  11   14.91    1.29
   1  -7  11   27.36    2.27
  -1  -7 -11   26.92    2.28
   1   7  11   22.13    2.20
  -1   7 -11   27.95    2.27
   3  -7  11    0.47    0.15
  -3  -7 -11    0.81    0.20
   3   7  11    0.27    0.19
  -3   7 -11    0.69    0.20
   5  -7  11    6.99    0.66
   5   7  11    6.27    0.74
   8  -8 -11    0.38    0.26
  -6  -8  11    0.12    0.14
   6  -8 -11    0.17    0.20
  -6   8  11    0.21    0.10
   6   8 -11   -0.12    0.09
  -4  -8  11    0.34    0.21
   4  -8 -11    0.39    0.19
   4   8 -11    0.21    0.13
  -4   8  11    0.17    0.13
  -2  -8  11    0.31    0.18
   2  -8 -11    0.21    0.14
   2   8 -11    0.24    0.16
  -2   8  11    0.22    0.14
   0  -8 -11    0.00    0.11
   0  -8  11    0.18    0.16
   0   8  11    0.03    0.14
   0   8 -11    0.07    0.15
  -2  -8 -11    0.29    0.14
   2   8  11    0.17    0.17
   4  -8  11    0.14    0.11
   4   8  11   -0.04    0.23
  -5  -9  11   14.17    1.24
   5  -9 -11   14.09    1.22
  -5   9  11   11.70    1.13
   5   9 -11   11.56    1.11
   3  -9 -11    6.02    0.67
  -3  -9  11    6.81    0.67
   3   9 -11    4.38    0.57
  -3   9  11    5.67    0.60
  -1  -9  11    6.98    0.75
   1  -9 -11    6.92    0.74
  -1   9  11    7.36    0.73
  -1  -9 -11    8.33    0.86
   1   9  11    8.86    0.88
  -3  -9 -11    3.29    0.46
   3   9  11    2.41    0.45
  -2 -10  11    0.14    0.25
  -2  10  11    0.19    0.22
   0 -10  11   -0.18    0.21
   0  10  11   -0.02    0.19
   2  10  11   28.94    2.48
  10   0 -12    0.44    0.15
 -10   0  12    0.81    0.23
  -8   0  12  225.87   17.47
   8   0 -12  200.89   17.48
  -6   0  12    1.01    0.26
   6   0 -12    0.77    0.16
  -4   0  12   38.70    2.80
   4   0 -12   30.40    2.72
  -4   0  12   29.20    2.61
  -2   0  12    0.04    0.08
  -2   0  12    0.19    0.13
   2   0 -12    0.32    0.18
   0   0  12    2.68    0.40
   0   0 -12    2.98    0.40
   0   0  12    3.52    0.36
   2   0  12    0.11    0.08
  -2   0 -12    0.23    0.17
   4   0  12    1.23    0.24
  -4   0 -12    1.09    0.33
   6   0  12    0.20    0.20
  -6   0 -12    0.33    0.20
  11   1 -12    1.78    0.27
   9  -1 -12    0.27    0.12
  -9  -1  12    0.03    0.13
  -9   1  12   -0.03    0.13
   9   1 -12    0.05    0.11
  -7  -1  12    4.91    0.57
   7  -1 -12    3.91    0.42
   7   1 -12    4.02    0.42
  -7   1  12    5.00    0.57
   5  -1 -12    4.52    0.48
  -5  -1  12    5.06    0.58
  -5   1  12    5.65    0.59
   5   1 -12    4.63    0.46
  -5   1  12    4.02    0.44
  -3  -1  12   -0.12    0.08
   3  -1 -12    0.05    0.17
  -3  -1  12   -0.02    0.13
   3   1 -12   -0.09    0.15
  -3   1  12   -0.01    0.08
  -3   1  12    0.00    0.13
  -1  -1  12   44.46    3.68
   1  -1 -12   45.00    3.68
  -1  -1  12   42.56    3.51
  -1   1  12   46.31    3.68
  -1   1  12   43.06    3.53
   1   1 -12   39.91    3.67
   1  -1  12   31.55    2.67
   1  -1  12   35.95    2.80
  -1  -1 -12   33.85    2.82
   1   1  12   29.96    2.67
  -1   1 -12   34.41    2.82
   1   1  12   30.98    2.79
   3  -1  12   16.31    1.35
  -3  -1 -12   13.48    1.43
   3   1  12   16.14    1.33
  -3   1 -12   15.31    1.44
   5  -1  12   15.49    1.31
  -5   1 -12   10.68    1.35
   5   1  12   17.66    1.33
  -7  -1 -12    1.32    0.44
   7  -1  12    1.56    0.39
  -7   1 -12    1.24    0.33
   7   1  12    1.76    0.36
 -10  -2  12    1.34    0.30
 -10   2  12    1.27    0.30
  10   2 -12    1.31    0.22
   8  -2 -12   -0.02    0.10
  -8  -2  12    0.20    0.14
   8   2 -12   -0.03    0.11
  -8   2  12    0.03    0.16
  -6  -2  12    0.16    0.13
   6  -2 -12    0.24    0.14
   6   2 -12    0.26    0.11
  -6   2  12    0.13    0.15
  -6   2  12    0.24    0.09
   4  -2 -12    0.14    0.18
  -4  -2  12    0.44    0.21
   4   2 -12    0.29    0.15
  -4   2  12    0.33    0.11
  -4   2  12    0.41    0.18
  -2  -2  12  115.22    9.46
   2  -2 -12  125.31    9.49
  -2   2  12   95.53    9.11
  -2   2  12  122.36    9.46
   0  -2 -12    0.14    0.09
   0  -2  12    0.03    0.08
   0  -2 -12    0.13    0.14
   0  -2  12    0.05    0.13
   0   2 -12   -0.07    0.13
   0   2  12    0.14    0.11
  -2  -2 -12    0.22    0.17
  -2  -2 -12    0.38    0.13
   2  -2  12    0.06    0.10
   2   2  12    0.33    0.12
  -2   2 -12    0.52    0.19
   4  -2  12    0.16    0.13
  -4  -2 -12    0.02    0.18
   4   2  12    0.27    0.14
  -4   2 -12    0.13    0.16
  -6  -2 -12   29.62    3.26
   6  -2  12   42.21    3.15
   6   2  12   39.96    3.11
 -11  -3  12    4.58    0.63
  -9  -3  12    5.55    0.67
   9  -3 -12    4.98    0.59
   9   3 -12    5.01    0.50
  -7  -3  12    3.35    0.48
  -7   3  12    3.19    0.34
  -7   3  12    2.63    0.44
   7   3 -12    2.38    0.30
  -5  -3  12   16.78    1.69
  -5   3  12   19.70    1.57
  -5   3  12   18.14    1.69
   5   3 -12   18.72    1.59
  -3  -3  12   32.70    2.84
   3  -3 -12   37.40    2.80
   3  -3 -12   36.21    2.80
  -3   3  12   30.33    2.68
   3   3 -12   28.41    2.78
  -3   3  12   31.41    2.83
   1  -3 -12    3.09    0.40
   1  -3 -12    3.73    0.40
  -1  -3  12    3.18    0.45
  -1  -3  12    3.21    0.31
  -1   3  12    2.22    0.35
   1   3 -12    2.34    0.39
   1  -3  12   10.15    0.97
   1  -3  12   11.78    1.06
  -1  -3 -12    9.54    1.01
  -1   3 -12   12.85    1.05
   1   3  12   11.39    1.00
   3  -3  12    5.19    0.51
  -3  -3 -12    3.27    0.55
   3   3  12    5.26    0.51
  -3   3 -12    4.99    0.59
  -5  -3 -12    0.94    0.28
   5  -3  12    1.15    0.25
   5   3  12    0.79    0.22
  -5   3 -12    0.34    0.22
   7   3  12   11.07    0.96
  -7   3 -12    8.19    1.03
  10  -4 -12    0.09    0.22
 -10  -4  12    0.04    0.17
  -8  -4  12    0.22    0.16
   8  -4 -12    0.32    0.17
   8   4 -12    0.23    0.12
  -8   4  12    0.15    0.09
   6  -4 -12    0.18    0.13
  -6  -4  12    0.20    0.14
  -6   4  12    0.03    0.08
   6   4 -12    0.25    0.11
  -4  -4  12    0.74    0.23
   4  -4 -12    0.50    0.17
   4   4 -12    0.41    0.16
  -4   4  12    0.56    0.15
   2  -4 -12    0.13    0.10
  -2  -4  12    0.28    0.18
   2  -4 -12    0.24    0.16
  -2   4  12    0.18    0.10
   2   4 -12   -0.03    0.15
   0  -4  12    0.09    0.08
   0  -4 -12   -0.10    0.14
   0  -4 -12   -0.09    0.09
   0  -4  12    0.02    0.15
   0   4 -12   -0.09    0.13
   0   4  12   -0.04    0.08
  -2  -4 -12    0.00    0.14
  -2  -4 -12   -0.12    0.11
   2  -4  12   -0.03    0.10
  -2   4 -12    0.28    0.15
   2   4  12    0.10    0.12
   4  -4  12    0.27    0.13
  -4  -4 -12    0.35    0.20
  -4   4 -12    0.87    0.25
   4   4  12    0.34    0.18
   6  -4  12   -0.16    0.12
  -6  -4 -12   -0.28    0.21
  -6   4 -12    0.24    0.17
   6   4  12   -0.10    0.17
   9  -5 -12   11.77    1.16
  -9  -5  12   12.91    1.22
   9   5 -12   11.37    1.06
  -9   5  12   12.89    1.09
   7  -5 -12    1.96    0.35
  -7  -5  12    2.27    0.40
   7   5 -12    2.08    0.26
  -7   5  12    2.31    0.30
  -5  -5  12    9.92    0.97
   5  -5 -12    8.59    0.92
   5   5 -12    9.63    0.86
  -5   5  12    9.96    0.87
   3  -5 -12   22.56    2.09
  -3  -5  12   26.57    2.14
   3   5 -12   22.39    2.07
  -3   5  12   24.85    2.02
  -1  -5  12    4.92    0.59
   1  -5 -12    4.46    0.55
   1   5 -12    4.87    0.56
  -1   5  12    5.14    0.55
   1  -5  12   13.49    1.13
   1  -5  12   12.58    1.04
  -1  -5 -12   10.66    1.08
  -1  -5 -12    8.70    1.07
  -1   5 -12   13.21    1.09
   1   5  12   11.42    1.06
  -3  -5 -12    4.87    0.67
   3  -5  12    6.61    0.63
  -3   5 -12    6.89    0.69
   3   5  12    7.07    0.67
  -5  -5 -12    1.47    0.34
   5  -5  12    1.64    0.30
  -5   5 -12    1.86    0.38
   5   5  12    1.79    0.36
   8  -6 -12    0.24    0.19
  -8  -6  12    0.41    0.16
   8   6 -12    0.07    0.11
  -8   6  12    0.23    0.11
   6  -6 -12    0.58    0.19
  -6  -6  12    0.73    0.21
  -6   6  12    0.55    0.15
   6   6 -12    0.48    0.14
  -4  -6  12   -0.11    0.13
   4  -6 -12    0.03    0.12
   4   6 -12    0.11    0.13
  -4   6  12   -0.05    0.07
  -2  -6  12   79.30    6.09
   2  -6 -12   69.91    6.06
  -2   6  12   69.03    5.86
   0  -6  12    0.08    0.15
   0  -6 -12    0.03    0.12
   0   6  12    0.07    0.13
   0   6 -12    0.22    0.16
   2  -6  12    0.47    0.16
  -2  -6 -12    0.16    0.15
  -2   6 -12    0.19    0.15
   2   6  12    0.32    0.19
   4  -6  12    0.11    0.11
   4   6  12    0.00    0.19
  -4   6 -12   -0.06    0.16
  -6   6 -12   26.00    2.34
   7  -7 -12    0.76    0.27
   7   7 -12    0.97    0.18
  -7   7  12    0.90    0.19
  -5  -7  12    1.01    0.29
   5  -7 -12    0.65    0.25
   5   7 -12    0.89    0.18
  -5   7  12    0.58    0.16
   3  -7 -12    0.35    0.15
  -3  -7  12    0.86    0.25
  -3   7  12    0.34    0.13
   3   7 -12    0.42    0.18
  -1  -7  12   30.73    2.32
   1  -7 -12   27.23    2.30
   1   7 -12   23.90    2.27
  -1   7  12   23.86    2.21
  -1  -7 -12   16.81    1.51
   1   7  12   14.65    1.46
  -1   7 -12   17.64    1.48
  -3   7 -12    8.45    0.84
   3   7  12    8.19    0.86
   5  -7  12   13.39    1.16
   5   7  12   12.08    1.23
   6  -8 -12    0.52    0.26
  -6  -8  12    0.50    0.18
   6   8 -12    0.23    0.14
  -6   8  12    0.34    0.13
   4  -8 -12   12.41    1.15
  -4  -8  12   12.45    1.16
   4   8 -12   10.85    1.06
  -4   8  12   11.39    1.07
  -2  -8  12    0.00    0.18
   2  -8 -12    0.12    0.12
  -2   8  12   -0.08    0.14
   2   8 -12    0.03    0.17
   0  -8  12    6.11    0.69
   0  -8 -12    5.97    0.69
   0   8  12    5.13    0.65
   0   8 -12    6.19    0.62
  -2  -8 -12    0.13    0.13
   2   8  12    0.38    0.24
   5   9 -12    4.56    0.49
  -3  -9  12    0.13    0.25
   3  -9 -12    0.19    0.15
   3   9 -12    0.76    0.21
  -3   9  12    0.31    0.21
  -1  -9  12    9.69    0.98
  -1   9  12    9.25    0.94
  -1  -9 -12    7.66    0.75
   1   9  12    5.84    0.75
 -10   0  13    0.19    0.18
  10   0 -13   -0.02    0.14
   8   0 -13    0.01    0.12
  -8   0  13    0.31    0.18
   6   0 -13    0.11    0.13
  -6   0  13    0.14    0.15
   4   0 -13    0.05    0.15
  -4   0  13    0.27    0.17
  -4   0  13   -0.01    0.08
   2   0 -13    0.15    0.17
  -2   0  13   -0.01    0.07
  -2   0  13    0.10    0.14
   0   0  13    0.09    0.14
   0   0 -13    0.15    0.15
   0   0  13   -0.02    0.07
  -2   0 -13   -0.14    0.15
   2   0  13    0.06    0.09
  -4   0 -13    0.06    0.24
   4   0  13    0.21    0.12
  -6   0 -13   -0.10    0.30
   6   0  13   -0.04    0.21
 -11  -1  13    2.16    0.41
 -11   1  13    1.04    0.32
   9  -1 -13    6.90    0.64
  -9  -1  13    7.76    0.77
   9   1 -13    6.44    0.64
  -9   1  13    6.52    0.77
   7  -1 -13   25.07    2.16
  -7  -1  13   26.61    2.26
  -7   1  13   27.26    2.25
   7   1 -13   23.87    2.15
  -5  -1  13    4.78    0.60
   5  -1 -13    4.71    0.54
  -5   1  13    4.43    0.48
   5   1 -13    5.20    0.52
  -5   1  13    5.84    0.62
  -3  -1  13   11.78    1.04
   3  -1 -13   11.33    1.01
  -3  -1  13   11.10    0.94
  -3   1  13    8.40    0.92
  -3   1  13   11.33    1.03
  -1  -1  13    9.71    1.00
  -1  -1  13   11.06    0.93
   1  -1 -13   11.03    1.00
  -1   1  13    9.83    0.94
   1   1 -13   10.24    0.99
  -1   1  13   11.56    1.02
  -1  -1 -13    0.97    0.26
   1  -1  13    0.91    0.19
   1  -1  13    1.64    0.28
   1   1  13    0.56    0.21
   1   1  13    0.85    0.19
  -3  -1 -13   15.09    1.47
   3  -1  13   15.46    1.36
   3   1  13   14.63    1.33
  -3   1 -13   17.37    1.48
   5  -1  13    3.56    0.44
  -5  -1 -13    1.68    0.47
   5   1  13    3.45    0.43
  -5   1 -13    2.36    0.47
 -10  -2  13    0.59    0.20
  10   2 -13    0.03    0.16
 -10   2  13    0.01    0.17
  -8  -2  13    0.09    0.15
  -8   2  13    0.52    0.21
   8   2 -13    0.31    0.14
  -6  -2  13   73.86    6.12
   6  -2 -13   68.16    6.07
   6   2 -13   70.54    6.05
  -6   2  13   72.97    5.85
  -6   2  13   80.99    6.13
  -4  -2  13    0.13    0.16
   4  -2 -13   -0.15    0.17
  -4   2  13    0.32    0.18
   4   2 -13   -0.06    0.15
  -4   2  13   -0.08    0.07
  -2  -2  13    0.29    0.11
  -2  -2  13    0.31    0.16
   2  -2 -13    0.47    0.19
   2   2 -13    0.49    0.22
  -2   2  13    0.51    0.20
  -2   2  13    0.01    0.09
   0  -2  13    0.34    0.16
   0  -2 -13    0.17    0.10
   0  -2 -13    0.22    0.16
   0  -2  13   -0.01    0.08
   0   2  13    0.02    0.09
   0   2 -13    0.13    0.15
  -2  -2 -13   64.09    5.52
   2  -2  13   63.05    5.26
   2   2  13   64.82    5.25
  -2   2 -13   68.44    5.50
   4  -2  13   -0.03    0.11
  -4  -2 -13    0.07    0.20
  -4   2 -13   -0.03    0.16
   4   2  13   -0.02    0.13
  -6  -2 -13    3.42    0.64
   6  -2  13    4.20    0.54
  -6   2 -13    3.12    0.58
   6   2  13    5.00    0.54
  -9  -3  13    2.08    0.38
   9  -3 -13    1.45    0.32
   9   3 -13    1.51    0.25
  -7  -3  13    0.73    0.23
   7   3 -13    0.40    0.15
  -7   3  13    0.29    0.12
  -7   3  13    0.65    0.22
  -5  -3  13   22.25    2.16
   5  -3 -13   19.89    2.08
  -5   3  13   29.03    2.20
  -5   3  13   24.41    2.02
   5   3 -13   26.29    2.08
  -3  -3  13   19.52    1.96
   3  -3 -13   25.42    1.92
   3  -3 -13   23.12    1.93
  -3   3  13   19.04    1.84
  -1  -3  13   16.59    1.52
   1  -3 -13   16.34    1.48
   1  -3 -13   17.31    1.48
  -1  -3  13   17.08    1.39
   1   3 -13   15.67    1.47
  -1   3  13   15.63    1.43
   1  -3  13   21.13    1.76
  -1  -3 -13   19.61    1.83
  -1  -3 -13   21.02    1.87
   1   3  13   20.75    1.77
  -1   3 -13   21.22    1.84
  -3  -3 -13    2.09    0.41
   3  -3  13    2.42    0.36
   3   3  13    2.28    0.34
  -3   3 -13    2.40    0.40
  -5  -3 -13    3.27    0.56
   5  -3  13    3.45    0.47
  -5   3 -13    2.90    0.51
   5   3  13    3.27    0.44
  10  -4 -13    0.70    0.31
  -8  -4  13   10.31    1.10
   8  -4 -13    9.42    1.04
  -8   4  13   12.31    0.99
   8   4 -13   10.59    0.96
  -6  -4  13    0.01    0.13
   6  -4 -13    0.27    0.15
   6   4 -13    0.11    0.13
  -6   4  13    0.10    0.09
  -4  -4  13    4.82    0.63
   4  -4 -13    3.51    0.52
  -4   4  13    5.64    0.50
   4   4 -13    4.29    0.51
   2  -4 -13    0.21    0.14
  -2  -4  13    0.16    0.17
   2  -4 -13    0.25    0.16
  -2   4  13    0.07    0.10
   2   4 -13    0.02    0.17
   0  -4 -13    1.43    0.29
   0  -4  13    1.28    0.31
   0  -4 -13    1.90    0.31
   0  -4  13    1.57    0.25
   0   4  13    0.79    0.22
   0   4 -13    1.83    0.29
   2  -4  13    0.40    0.16
  -2  -4 -13    0.25    0.18
  -2  -4 -13    0.35    0.15
   2   4  13    0.68    0.20
  -2   4 -13    0.13    0.15
   4  -4  13    0.95    0.23
  -4  -4 -13    0.35    0.24
   4   4  13    0.90    0.25
  -4   4 -13    0.55    0.22
   9  -5 -13    4.29    0.62
  -9   5  13    5.28    0.53
   7  -5 -13    0.14    0.19
  -7  -5  13    0.38    0.19
  -7   5  13    0.19    0.09
   7   5 -13    0.20    0.12
   5  -5 -13    8.99    0.96
  -5  -5  13   10.20    1.02
   5   5 -13    9.69    0.89
  -5   5  13   10.10    0.90
   3  -5 -13   16.04    1.59
  -3  -5  13   21.07    1.67
  -3   5  13   16.84    1.53
  -1  -5  13   16.10    1.36
   1  -5 -13   12.63    1.28
  -1   5  13   12.44    1.24
   1   5 -13   15.42    1.29
  -1  -5 -13   12.73    1.39
   1  -5  13   16.92    1.35
   1   5  13   14.58    1.37
  -1   5 -13   16.93    1.40
  -3  -5 -13    0.13    0.18
   3  -5  13    0.42    0.16
  -3   5 -13    0.50    0.20
   3   5  13    0.38    0.19
  -5  -5 -13    2.44    0.53
   5  -5  13    3.80    0.48
  -5   5 -13    3.50    0.53
   5   5  13    4.00    0.52
   8  -6 -13    0.26    0.24
  -8   6  13    0.34    0.12
   6  -6 -13   32.74    3.19
  -6  -6  13   38.51    3.26
  -6   6  13   39.74    3.09
   6   6 -13   37.91    3.15
   4  -6 -13    0.07    0.11
  -4  -6  13    0.00    0.19
  -4   6  13   -0.02    0.08
   4   6 -13    0.16    0.16
   2  -6 -13    0.33    0.16
  -2  -6  13    0.47    0.23
  -2   6  13    0.32    0.13
   2   6 -13    0.42    0.20
   0  -6  13    0.00    0.19
   0  -6 -13   -0.06    0.11
   0   6 -13    0.48    0.16
   0   6  13    0.02    0.17
   2  -6  13   39.06    3.07
  -2  -6 -13   32.43    3.16
   2   6  13   35.75    3.09
  -2   6 -13   40.36    3.19
   4  -6  13    0.26    0.14
   4   6  13   -0.14    0.21
  -4   6 -13   -0.17    0.16
  -5  -7  13    1.85    0.43
   5  -7 -13    2.18    0.42
   5   7 -13    1.84    0.30
  -5   7  13    2.21    0.33
  -3  -7  13    4.13    0.54
   3  -7 -13    4.06    0.50
  -3   7  13    2.88    0.39
   3   7 -13    1.93    0.37
  -1  -7  13    3.75    0.51
   1  -7 -13    3.19    0.47
  -1   7  13    2.25    0.43
   1   7 -13    3.06    0.41
  -1  -7 -13    0.20    0.15
   1   7  13   -0.18    0.20
  -1   7 -13    0.28    0.16
   3   7  13    9.72    1.04
  -3   7 -13   11.18    1.04
   4  -8 -13    0.29    0.27
  -4  -8  13   -0.03    0.27
   4   8 -13    0.12    0.16
  -4   8  13   -0.05    0.10
  -2  -8  13    0.10    0.25
  -2   8  13    0.29    0.22
   2   8 -13    0.11    0.19
   0  -8 -13    0.08    0.13
   0   8  13    0.04    0.22
   0   8 -13    0.18    0.15
  -2  -8 -13    0.19    0.17
   3   9 -13    4.58    0.56
  -1  -9  13    3.16    0.54
  10   0 -14   -0.15    0.17
  -8   0  14    6.12    0.72
   8   0 -14    6.21    0.61
   6   0 -14    0.01    0.17
  -6   0  14    0.17    0.15
  -4   0  14    0.92    0.20
   4   0 -14    0.67    0.25
  -4   0  14    1.41    0.30
  -2   0  14    0.45    0.19
  -2   0  14    0.15    0.09
   2   0 -14    0.65    0.22
   0   0  14    0.36    0.13
   0   0  14    0.58    0.19
   0   0 -14    0.68    0.21
   2   0  14    0.07    0.10
  -2   0 -14    0.07    0.20
  -4   0 -14  190.68   15.79
   4   0  14  188.26   15.08
  -9  -1  14    9.48    0.92
   9  -1 -14    7.95    0.81
   9   1 -14    8.72    0.81
  -9   1  14    9.07    0.91
   7  -1 -14   16.22    1.44
  -7  -1  14   17.71    1.53
  -7   1  14   15.55    1.49
   7   1 -14   16.00    1.43
  -5  -1  14   14.96    1.33
  -5   1  14   15.47    1.32
  -5   1  14   13.61    1.22
   5   1 -14   12.62    1.27
  -3  -1  14   20.86    1.81
  -3  -1  14   22.88    1.71
  -3   1  14   17.06    1.69
   3   1 -14   17.61    1.78
  -3   1  14   23.25    1.82
  -1  -1  14    0.65    0.22
   1  -1 -14    1.24    0.26
  -1  -1  14    0.85    0.18
  -1   1  14    1.05    0.26
  -1   1  14    0.92    0.20
   1   1 -14    1.04    0.25
   1  -1  14    5.34    0.53
  -1  -1 -14    6.24    0.65
   1   1  14    5.74    0.63
  -1   1 -14    5.35    0.59
   1   1  14    4.90    0.53
  -3  -1 -14    0.62    0.29
   3  -1  14    0.87    0.20
  -3   1 -14    0.92    0.31
   3   1  14    0.40    0.15
   5  -1  14    1.27    0.27
  -5  -1 -14    0.04    0.36
   5   1  14    1.13    0.29
  -5   1 -14    0.83    0.26
  -8  -2  14    0.16    0.16
  -8   2  14    0.09    0.17
   8   2 -14    0.10    0.16
  -6  -2  14    0.71    0.21
   6  -2 -14    0.47    0.22
  -6   2  14    0.40    0.13
  -6   2  14    0.25    0.17
   6   2 -14    0.07    0.18
   4  -2 -14    0.17    0.19
  -4  -2  14    0.11    0.17
   4   2 -14   -0.21    0.18
  -4   2  14    0.04    0.09
  -4   2  14    0.16    0.17
  -2  -2  14   76.23    5.41
  -2  -2  14   66.16    5.62
   2  -2 -14   70.33    5.62
   2   2 -14   60.19    5.62
  -2   2  14   72.39    5.64
  -2   2  14   57.96    5.40
   0  -2 -14    0.36    0.18
   0  -2  14    0.36    0.17
   0  -2  14    0.39    0.12
   0  -2 -14    0.30    0.12
   0   2 -14    0.21    0.17
   0   2  14    0.13    0.11
  -2  -2 -14   14.32    1.25
   2  -2  14   11.32    1.11
  -2   2 -14   12.73    1.20
   2   2  14   12.53    1.12
   4  -2  14    0.02    0.12
  -4  -2 -14   -0.17    0.27
   4   2  14    0.04    0.15
  -4   2 -14   -0.12    0.15
   9  -3 -14    2.31    0.42
  -7  -3  14    3.37    0.54
   7   3 -14    3.57    0.42
  -7   3  14    4.36    0.58
  -7   3  14    3.49    0.42
  -5  -3  14    6.56    0.78
  -5   3  14    5.51    0.61
   5   3 -14    6.94    0.67
  -5   3  14    7.13    0.80
  -3  -3  14    0.02    0.18
   3  -3 -14    0.51    0.19
   3  -3 -14    0.13    0.09
  -3   3  14   -0.09    0.09
   3   3 -14   -0.08    0.19
   1  -3 -14   15.57    1.42
  -1  -3  14   14.91    1.46
  -1  -3  14   14.81    1.33
   1  -3 -14   18.97    1.46
   1   3 -14   15.32    1.41
  -1   3  14   15.65    1.38
  -1  -3 -14    5.51    0.61
  -1  -3 -14    6.79    0.67
   1  -3  14    5.30    0.56
  -1   3 -14    5.61    0.60
   1   3  14    5.47    0.57
   3  -3  14    4.22    0.51
  -3  -3 -14    3.25    0.58
  -3   3 -14    5.41    0.61
   3   3  14    4.91    0.54
  -5  -3 -14    2.51    0.54
   8  -4 -14    0.24    0.23
  -8   4  14   -0.04    0.09
   8   4 -14    0.02    0.18
  -6  -4  14    0.18    0.25
   6  -4 -14    0.11    0.19
  -6   4  14    0.17    0.10
   6   4 -14    0.17    0.18
  -4  -4  14    0.38    0.24
   4  -4 -14    0.48    0.17
   4   4 -14    0.15    0.17
  -4   4  14    0.23    0.13
   2  -4 -14    0.29    0.14
  -2  -4  14    0.49    0.23
   2   4 -14    0.12    0.18
  -2   4  14   -0.05    0.11
   0  -4 -14    0.08    0.18
   0  -4 -14    0.13    0.14
   0  -4  14    0.08    0.11
   0  -4  14    0.31    0.20
   0   4  14   -0.01    0.10
   0   4 -14    0.24    0.16
   2  -4  14   -0.02    0.11
  -2  -4 -14   -0.25    0.17
  -2   4 -14    0.12    0.15
   2   4  14    0.13    0.17
  -4  -4 -14    0.14    0.29
   4  -4  14    0.23    0.15
   4   4  14   -0.10    0.20
  -4   4 -14    0.01    0.15
   7  -5 -14    5.21    0.68
  -7   5  14    5.82    0.58
   7   5 -14    5.60    0.56
   5  -5 -14    3.70    0.54
  -5  -5  14    3.91    0.63
   5   5 -14    4.15    0.48
  -5   5  14    4.07    0.47
  -3  -5  14    0.32    0.26
   3  -5 -14    0.58    0.18
  -3   5  14    0.40    0.15
   3   5 -14    0.34    0.20
   1  -5 -14   11.31    1.08
  -1  -5  14   11.72    1.15
  -1   5  14    9.85    1.03
   1   5 -14   12.21    1.07
  -1  -5 -14    3.27    0.46
   1   5  14    3.23    0.45
  -1   5 -14    2.94    0.41
   3  -5  14    5.03    0.64
   3   5  14    6.34    0.68
  -3   5 -14    6.67    0.68
   6  -6 -14    0.87    0.31
  -6  -6  14    1.01    0.39
   6   6 -14    1.02    0.22
  -6   6  14    0.86    0.20
   4  -6 -14   -0.08    0.11
  -4  -6  14   -0.12    0.25
   4   6 -14    0.00    0.16
  -4   6  14   -0.02    0.08
  -2  -6  14   37.94    2.84
   2  -6 -14   29.75    2.74
  -2   6  14   28.08    2.64
   2   6 -14   31.85    2.73
   0  -6 -14   -0.01    0.15
   0   6  14    0.46    0.25
   0   6 -14    0.69    0.21
   2   6  14    4.91    0.63
  -2   6 -14    5.42    0.60
   5   7 -14    8.92    0.88
  -3  -7  14   13.46    1.16
  -3   7  14   10.06    0.97
   3   7 -14    8.90    0.99
   1  -7 -14    1.25    0.28
  -1  -7  14    1.20    0.38
  -1   7  14    0.82    0.31
   1   7 -14    1.24    0.27
  -1  -7 -14    3.38    0.49
  -1   7 -14    2.74    0.40
  -2  -8  14    0.28    0.33
   2   8 -14    0.04    0.18
   0   8 -14    1.88    0.31
   8   0 -15    0.03    0.21
   6   0 -15    0.28    0.24
  -6   0  15    0.13    0.14
  -4   0  15   -0.04    0.09
   4   0 -15    0.08    0.23
  -4   0  15    0.05    0.17
   2   0 -15    0.41    0.20
  -2   0  15    0.00    0.09
  -2   0  15    0.15    0.16
   0   0  15   -0.16    0.15
   0   0  15    0.04    0.08
   0   0 -15    0.08    0.17
  -2   0 -15    0.36    0.28
   2   0  15   -0.05    0.08
   9  -1 -15    4.00    0.49
   7  -1 -15    0.23    0.24
  -7  -1  15   -0.15    0.14
   7   1 -15    0.02    0.21
  -7   1  15    0.08    0.13
   5  -1 -15    8.67    0.86
  -5  -1  15   12.41    0.95
  -5   1  15    8.33    0.78
   5   1 -15    5.63    0.83
  -3  -1  15    6.18    0.68
   3  -1 -15    5.65    0.61
   3   1 -15    5.66    0.65
  -3   1  15    6.60    0.66
  -3   1  15    4.87    0.56
  -1  -1  15    8.43    0.88
  -1  -1  15    9.68    0.82
   1  -1 -15    9.57    0.87
   1   1 -15    8.30    0.86
  -1   1  15    7.87    0.80
  -1   1  15    8.82    0.88
   1  -1  15    5.84    0.60
  -1  -1 -15    7.10    0.72
   1   1  15    6.48    0.63
  -1   1 -15    6.22    0.69
   3  -1  15    3.96    0.48
  -3  -1 -15    4.44    0.64
  -3   1 -15    4.69    0.64
   3   1  15    4.28    0.48
   8   2 -15    0.22    0.21
  -6  -2  15   35.59    3.08
   6   2 -15   35.03    3.03
  -6   2  15   31.37    2.90
  -6   2  15   40.49    3.08
   4  -2 -15    0.45    0.21
  -4  -2  15    0.47    0.23
  -4   2  15    0.09    0.11
   4   2 -15    0.32    0.26
  -4   2  15    0.29    0.23
  -2  -2  15   10.55    1.08
   2  -2 -15   11.68    1.05
  -2   2  15   11.89    1.11
  -2   2  15   11.13    1.01
   2   2 -15   10.43    1.06
   0  -2 -15    0.11    0.19
   0  -2  15    0.56    0.22
   0  -2 -15    0.10    0.11
   0  -2  15   -0.02    0.08
   0   2  15    0.23    0.10
   0   2 -15    0.18    0.19
   2  -2  15    2.94    0.39
  -2  -2 -15    4.58    0.57
   2   2  15    2.88    0.41
  -2   2 -15    3.60    0.48
   7  -3 -15   12.40    1.14
  -7  -3  15   10.51    1.14
  -7   3  15   11.37    1.06
   7   3 -15   12.38    1.10
   5  -3 -15    0.37    0.14
  -5  -3  15    0.44    0.27
   5   3 -15    0.45    0.28
  -5   3  15    0.28    0.14
   3  -3 -15    5.46    0.53
   3  -3 -15    4.85    0.55
  -3  -3  15    5.30    0.63
   3   3 -15    3.39    0.55
  -3   3  15    3.62    0.49
  -1  -3  15    1.16    0.30
   1  -3 -15    0.71    0.20
   1  -3 -15    0.75    0.20
   1   3 -15    0.81    0.22
  -1   3  15    0.63    0.18
  -1  -3 -15    1.10    0.32
   1  -3  15    0.87    0.19
  -1   3 -15    0.45    0.20
   1   3  15    0.66    0.18
  -3  -3 -15    0.39    0.32
   3  -3  15    0.70    0.19
  -3   3 -15    0.76    0.26
   3   3  15    0.79    0.27
  -6  -4  15   -0.04    0.29
   6  -4 -15    0.32    0.24
   6   4 -15    0.21    0.24
  -6   4  15    0.14    0.10
  -4  -4  15    0.94    0.33
   4  -4 -15    0.44    0.17
  -4   4  15    0.74    0.19
   4   4 -15    0.22    0.19
   2  -4 -15    0.35    0.15
  -2  -4  15    0.32    0.25
   2   4 -15    0.30    0.20
  -2   4  15   -0.09    0.10
   0  -4 -15  206.08   16.39
   0  -4 -15  201.00   16.24
   0   4 -15  186.36   16.34
   2  -4  15    0.02    0.13
  -2  -4 -15    0.26    0.28
  -2   4 -15    0.41    0.18
   2   4  15    0.24    0.20
  -7   5  15   11.89    1.09
   5  -5 -15    0.15    0.16
  -5  -5  15    0.43    0.37
  -5   5  15    0.09    0.11
   5   5 -15    0.35    0.21
  -3  -5  15    3.04    0.57
   3  -5 -15    2.34    0.40
   3   5 -15    2.50    0.42
  -3   5  15    2.44    0.38
  -1  -5  15    0.23    0.28
   1  -5 -15    0.19    0.15
  -1   5  15   -0.04    0.13
   1   5 -15    0.47    0.18
  -1  -5 -15    1.17    0.28
   1   5  15    1.09    0.31
  -1   5 -15    1.98    0.31
   3  -5  15    0.90    0.23
  -4  -6  15   -0.16    0.33
  -4   6  15    0.15    0.13
   4   6 -15   -0.04    0.17
  -2  -6  15    4.76    0.71
  -2   6  15    3.25    0.48
   2   6 -15    4.01    0.49
   0  -6 -15   -0.01    0.15
   0   6 -15    0.29    0.15
  -1  -7  15    4.15    0.70
  -6   0  16    0.06    0.24
   6   0 -16   -0.11    0.27
  -4   0  16  184.59   15.19
   2   0 -16    0.46    0.26
  -2   0  16    0.36    0.21
  -2   0  16    0.27    0.12
   0   0  16    4.14    0.52
   0   0  16    3.76    0.44
   0   0 -16    3.67    0.51
  -2   0 -16    0.23    0.30
   2   0  16    0.31    0.13
   7  -1 -16    1.85    0.44
   7   1 -16    2.58    0.45
   5  -1 -16    0.63    0.31
  -5  -1  16    0.50    0.28
   5   1 -16    0.14    0.31
  -5   1  16    0.17    0.25
   3  -1 -16    0.94    0.28
  -3  -1  16    0.52    0.27
  -3   1  16    0.90    0.30
  -3   1  16    1.08    0.21
   3   1 -16    1.23    0.34
  -1  -1  16    1.52    0.32
  -1  -1  16    1.01    0.22
   1  -1 -16    1.02    0.28
  -1   1  16    1.26    0.24
  -1   1  16    2.02    0.37
   1   1 -16    1.10    0.31
   1  -1  16    0.38    0.13
  -1  -1 -16    0.72    0.31
  -1   1 -16    0.50    0.29
   1   1  16    0.54    0.16
  -6  -2  16    4.31    0.64
   6  -2 -16    4.24    0.60
   6   2 -16    4.20    0.60
  -6   2  16    5.02    0.65
   4  -2 -16    0.12    0.21
  -4  -2  16   -0.01    0.23
   4   2 -16    0.34    0.31
  -4   2  16   -0.07    0.25
  -4   2  16   -0.01    0.10
   2  -2 -16    4.61    0.49
  -2  -2  16    3.31    0.52
   2   2 -16    3.27    0.49
  -2   2  16    2.97    0.42
  -2   2  16    4.35    0.58
   0  -2  16    0.35    0.12
   0  -2 -16    0.61    0.27
   0  -2 -16    0.33    0.15
   0   2  16    0.13    0.11
   0   2 -16    0.48    0.25
  -2  -2 -16   29.99    2.42
   2  -2  16   24.30    2.21
   5  -3 -16    5.36    0.51
  -5  -3  16    6.38    0.70
   5   3 -16    2.56    0.54
  -5   3  16    3.25    0.46
  -3  -3  16    2.75    0.50
   3  -3 -16    2.83    0.41
   3  -3 -16    3.21    0.42
  -3   3  16    2.32    0.38
   3   3 -16    2.99    0.49
  -1  -3  16    3.79    0.56
   1  -3 -16    4.83    0.53
   1  -3 -16    3.67    0.50
   1   3 -16    3.91    0.48
  -1   3  16    3.44    0.46
   1  -3  16    7.62    0.72
  -1  -3 -16    8.41    0.88
  -1   3 -16    8.04    0.79
   1   3  16    7.17    0.74
  -6   4  16   -0.03    0.11
  -4  -4  16   -0.01    0.30
   4   4 -16   -0.06    0.21
  -4   4  16   -0.13    0.10
   2  -4 -16    0.12    0.15
  -2  -4  16    0.00    0.27
   2   4 -16    0.12    0.19
  -2   4  16   -0.02    0.13
   0  -4 -16   -0.05    0.14
   0   4  16   -0.02    0.13
  -2  -4 -16   -0.01    0.30
   2  -4  16    0.12    0.13
  -3  -5  16    3.60    0.66
   1  -5 -16    4.55    0.58
  -1  -5  16    4.68    0.71
   4   0 -17    0.40    0.32
  -4   0  17    0.00    0.26
   2   0 -17    0.36    0.28
  -2   0  17    0.24    0.11
  -2   0  17    0.40    0.28
   0   0  17   -0.17    0.09
   5  -1 -17    2.63    0.47
  -3  -1  17    7.17    0.85
   3  -1 -17    7.70    0.81
   3   1 -17    7.42    0.82
  -3   1  17    8.29    0.86
  -3   1  17    7.46    0.74
  -1  -1  17    5.28    0.56
  -1  -1  17    5.60    0.68
   1  -1 -17    5.06    0.65
  -1   1  17    6.61    0.74
  -1   1  17    6.09    0.58
   4  -2 -17    0.43    0.28
  -4   2  17    0.05    0.12
   2  -2 -17   27.81    2.34
  -2  -2  17   26.71    2.38
   2  -2 -17   27.75    2.35
  -2   2  17   25.01    2.25
   0  -2  17    0.19    0.11
   0  -2 -17    0.12    0.28
  -5   3  17    0.89    0.23
  -3   3  17    0.12    0.13
   1  -3 -17   10.98    1.07
  -1  -3  17   11.54    1.12
   1  -3 -17    9.62    1.01
   0   0   0    0.00    0.00
;
_shelx_hkl_checksum              58692
loop_
_space_group_symop_operation_xyz
'x, y, z'
'-x, y, -z+1/2'
'x+1/2, y+1/2, z'
'-x+1/2, y+1/2, -z+1/2'
'-x, -y, -z'
'x, -y, z-1/2'
'-x+1/2, -y+1/2, -z'
'x+1/2, -y+1/2, z-1/2'
loop_
_atom_site_label
_atom_site_type_symbol
_atom_site_fract_x
_atom_site_fract_y
_atom_site_fract_z
_atom_site_U_iso_or_equiv
_atom_site_adp_type
_atom_site_occupancy
_atom_site_site_symmetry_order
_atom_site_calc_flag
_atom_site_refinement_flags_posn
_atom_site_refinement_flags_adp
_atom_site_refinement_flags_occupancy
_atom_site_disorder_assembly
_atom_site_disorder_group
Ga1 Ga 0.09917(4) 0.18877(4) 0.15182(3) 0.01172(16) Uani 1 1 d . . . . .
Ga2 Ga 0.14826(4) 0.43611(4) 0.34864(3) 0.01170(17) Uani 1 1 d . . . . .
S1 S 0.05058(14) 0.31232(13) 0.45259(8) 0.0343(4) Uani 1 1 d . . . . .
S2 S 0.0000 0.05490(14) 0.2500 0.0167(3) Uani 1 2 d S T P . .
S3 S 0.20015(12) 0.06285(12) 0.05010(8) 0.0266(3) Uani 1 1 d . . . . .
S4 S 0.25728(10) 0.31231(10) 0.25024(8) 0.0167(3) Uani 1 1 d . . . . .
S5 S 0.0000 0.56934(14) 0.2500 0.0164(3) Uani 1 2 d S T P . .
Na1 Na 0.2821(2) 0.0615(2) 0.37826(15) 0.0440(6) Uani 1 1 d . . . . .
Na2 Na 0.4658(2) 0.3119(2) 0.11891(15) 0.0480(7) Uani 1 1 d . . . . .
loop_
_atom_site_aniso_label
_atom_site_aniso_U_11
_atom_site_aniso_U_22
_atom_site_aniso_U_33
_atom_site_aniso_U_23
_atom_site_aniso_U_13
_atom_site_aniso_U_12
Ga1 0.0105(3) 0.0121(3) 0.0127(3) -0.00070(16) 0.00250(18) 0.00153(16)
Ga2 0.0098(2) 0.0123(3) 0.0127(3) -0.00094(16) 0.00124(17) -0.00192(16)
S1 0.0424(7) 0.0484(8) 0.0106(5) 0.0000(5) 0.0013(5) -0.0351(6)
S2 0.0179(7) 0.0118(7) 0.0231(7) 0.000 0.0106(6) 0.000
S3 0.0334(6) 0.0362(7) 0.0092(5) -0.0005(4) 0.0014(4) 0.0266(5)
S4 0.0102(5) 0.0171(6) 0.0234(6) -0.0061(4) 0.0043(4) -0.0009(3)
S5 0.0126(6) 0.0122(7) 0.0220(7) 0.000 -0.0025(5) 0.000
Na1 0.0529(13) 0.0596(15) 0.0178(9) 0.0005(10) 0.0025(9) -0.0381(11)
Na2 0.0598(15) 0.0626(16) 0.0199(11) 0.0022(9) 0.0037(10) 0.0445(12)
loop_
_atom_type_symbol
_atom_type_description
_atom_type_scat_dispersion_real
_atom_type_scat_dispersion_imag
_atom_type_scat_source
Na Na 0.0362 0.0249 'International Tables Vol C Tables 4.2.6.8 and 6.1.1.4'
S S 0.1246 0.1234 'International Tables Vol C Tables 4.2.6.8 and 6.1.1.4'
Ga Ga 0.2307 1.6083 'International Tables Vol C Tables 4.2.6.8 and 6.1.1.4'
loop_
_geom_angle_atom_site_label_1
_geom_angle_atom_site_label_2
_geom_angle_atom_site_label_3
_geom_angle
_geom_angle_site_symmetry_1
_geom_angle_site_symmetry_3
_geom_angle_publ_flag
S1 Ga1 S3 105.77(5) 2 . ?
S1 Ga1 S4 112.14(6) 2 . ?
S3 Ga1 S4 108.34(5) . . ?
S1 Ga1 S2 112.09(5) 2 . ?
S3 Ga1 S2 108.41(5) . . ?
S4 Ga1 S2 109.89(4) . . ?
S1 Ga1 Na1 159.17(5) 2 . ?
S3 Ga1 Na1 95.06(6) . . ?
S4 Ga1 Na1 59.67(5) . . ?
S2 Ga1 Na1 59.52(4) . . ?
S1 Ga1 Na2 52.64(4) 2 7 ?
S3 Ga1 Na2 53.13(4) . 7 ?
S4 Ga1 Na2 124.80(6) . 7 ?
S2 Ga1 Na2 125.15(5) . 7 ?
Na1 Ga1 Na2 148.19(5) . 7 ?
S1 Ga2 S3 106.11(5) . 4 ?
S1 Ga2 S5 112.08(5) . . ?
S3 Ga2 S5 108.33(5) 4 . ?
S1 Ga2 S4 112.00(6) . . ?
S3 Ga2 S4 108.40(5) 4 . ?
S5 Ga2 S4 109.74(4) . . ?
S1 Ga2 Na1 158.79(5) . 4 ?
S3 Ga2 Na1 95.10(5) 4 4 ?
S5 Ga2 Na1 59.56(4) . 4 ?
S4 Ga2 Na1 59.42(5) . 4 ?
Ga2 S1 Ga1 104.63(5) . 2 ?
Ga2 S1 Na2 167.01(6) . 8_456 ?
Ga1 S1 Na2 88.35(6) 2 8_456 ?
Ga2 S1 Na1 88.61(6) . 7_556 ?
Ga1 S1 Na1 166.76(6) 2 7_556 ?
Na2 S1 Na1 78.41(6) 8_456 7_556 ?
Ga1 S2 Ga1 105.96(6) . 2 ?
Ga1 S2 Na2 99.65(5) . 3_445 ?
Ga1 S2 Na2 144.98(5) 2 3_445 ?
Ga1 S2 Na2 144.98(5) . 4_545 ?
Ga1 S2 Na2 99.65(5) 2 4_545 ?
Na2 S2 Na2 69.95(9) 3_445 4_545 ?
Ga1 S2 Na1 97.64(5) . 2 ?
Ga1 S2 Na1 80.83(4) 2 2 ?
Na2 S2 Na1 72.35(6) 3_445 2 ?
Na2 S2 Na1 109.83(7) 4_545 2 ?
Ga1 S2 Na1 80.83(4) . . ?
Ga1 S2 Na1 97.64(5) 2 . ?
Na2 S2 Na1 109.83(7) 3_445 . ?
Na2 S2 Na1 72.34(6) 4_545 . ?
Na1 S2 Na1 177.49(10) 2 . ?
Ga2 S3 Ga1 107.25(5) 4_545 . ?
Ga2 S3 Na2 165.04(6) 4_545 7 ?
Ga1 S3 Na2 87.70(6) . 7 ?
Ga2 S3 Na1 87.93(5) 4_545 6 ?
Ga1 S3 Na1 164.82(6) . 6 ?
Na2 S3 Na1 77.11(6) 7 6 ?
Ga1 S4 Ga2 106.14(5) . . ?
Ga1 S4 Na2 99.15(6) . . ?
Ga2 S4 Na2 145.33(7) . . ?
Ga1 S4 Na2 145.12(6) . 2_655 ?
Ga2 S4 Na2 99.60(6) . 2_655 ?
Na2 S4 Na2 70.00(7) . 2_655 ?
Ga1 S4 Na1 97.38(6) . 4 ?
Ga2 S4 Na1 80.89(5) . 4 ?
Na2 S4 Na1 72.57(6) . 4 ?
Na2 S4 Na1 109.76(7) 2_655 4 ?
Ga1 S4 Na1 80.73(5) . . ?
Ga2 S4 Na1 97.65(6) . . ?
Na2 S4 Na1 109.67(7) . . ?
Na2 S4 Na1 72.76(6) 2_655 . ?
Na1 S4 Na1 177.23(4) 4 . ?
Ga2 S5 Ga2 106.32(7) . 2 ?
Ga2 S5 Na2 99.10(5) . 4 ?
Ga2 S5 Na2 145.48(6) 2 4 ?
Ga2 S5 Na2 145.48(6) . 3_455 ?
Ga2 S5 Na2 99.10(5) 2 3_455 ?
Na2 S5 Na2 70.04(9) 4 3_455 ?
Ga2 S5 Na1 97.38(5) . 3_455 ?
Ga2 S5 Na1 80.81(4) 2 3_455 ?
Na2 S5 Na1 72.99(6) 4 3_455 ?
Na2 S5 Na1 109.59(7) 3_455 3_455 ?
Ga2 S5 Na1 80.81(4) . 4 ?
Ga2 S5 Na1 97.38(5) 2 4 ?
Na2 S5 Na1 109.59(7) 4 4 ?
Na2 S5 Na1 72.99(6) 3_455 4 ?
Na1 S5 Na1 177.00(10) 3_455 4 ?
S1 Na1 S3 77.35(6) 7_556 6_556 ?
S1 Na1 S4 144.51(10) 7_556 4_545 ?
S3 Na1 S4 93.53(7) 6_556 4_545 ?
S1 Na1 S2 143.97(10) 7_556 . ?
S3 Na1 S2 93.36(6) 6_556 . ?
S4 Na1 S2 69.76(5) 4_545 . ?
S1 Na1 S5 92.87(7) 7_556 3_545 ?
S3 Na1 S5 144.27(10) 6_556 3_545 ?
S4 Na1 S5 74.58(6) 4_545 3_545 ?
S2 Na1 S5 112.75(7) . 3_545 ?
S1 Na1 S4 92.60(7) 7_556 . ?
S3 Na1 S4 143.91(10) 6_556 . ?
S4 Na1 S4 112.76(7) 4_545 . ?
S2 Na1 S4 74.50(6) . . ?
S5 Na1 S4 69.68(5) 3_545 . ?
S1 Na1 Ga2 131.70(8) 7_556 4_545 ?
S3 Na1 Ga2 132.31(8) 6_556 4_545 ?
S4 Na1 Ga2 39.69(3) 4_545 4_545 ?
S2 Na1 Ga2 79.88(5) . 4_545 ?
S5 Na1 Ga2 39.63(3) 3_545 4_545 ?
S4 Na1 Ga2 79.81(5) . 4_545 ?
S1 Na1 Ga1 131.33(9) 7_556 . ?
S3 Na1 Ga1 132.05(8) 6_556 . ?
S4 Na1 Ga1 79.88(5) 4_545 . ?
S2 Na1 Ga1 39.65(3) . . ?
S5 Na1 Ga1 79.81(5) 3_545 . ?
S4 Na1 Ga1 39.60(3) . . ?
Ga2 Na1 Ga1 62.59(4) 4_545 . ?
S1 Na1 Na2 128.40(7) 7_556 4_545 ?
S3 Na1 Na2 51.05(5) 6_556 4_545 ?
S4 Na1 Na2 53.13(5) 4_545 4_545 ?
S2 Na1 Na2 53.33(5) . 4_545 ?
S5 Na1 Na2 127.71(8) 3_545 4_545 ?
S4 Na1 Na2 127.82(8) . 4_545 ?
Ga2 Na1 Na2 90.58(6) 4_545 4_545 ?
Ga1 Na1 Na2 90.69(6) . 4_545 ?
S1 Na1 Na2 50.41(5) 7_556 2_655 ?
S3 Na1 Na2 127.76(7) 6_556 2_655 ?
S4 Na1 Na2 127.55(7) 4_545 2_655 ?
S2 Na1 Na2 127.65(8) . 2_655 ?
S5 Na1 Na2 52.97(5) 3_545 2_655 ?
S4 Na1 Na2 53.15(5) . 2_655 ?
Ga2 Na1 Na2 90.33(5) 4_545 2_655 ?
Ga1 Na1 Na2 90.44(6) . 2_655 ?
Na2 Na1 Na2 178.79(8) 4_545 2_655 ?
S1 Na2 S3 78.18(6) 8 7 ?
S1 Na2 S4 144.68(11) 8 . ?
S3 Na2 S4 95.13(7) 7 . ?
S1 Na2 S5 94.40(7) 8 3_545 ?
S3 Na2 S5 144.52(11) 7 3_545 ?
S4 Na2 S5 70.98(6) . 3_545 ?
S1 Na2 S2 143.66(11) 8 3 ?
S3 Na2 S2 94.81(7) 7 3 ?
S4 Na2 S2 70.87(5) . 3 ?
S5 Na2 S2 110.00(7) 3_545 3 ?
S1 Na2 S4 94.00(7) 8 2_655 ?
S3 Na2 S4 143.68(11) 7 2_655 ?
S4 Na2 S4 110.00(7) . 2_655 ?
S5 Na2 S4 70.72(5) 3_545 2_655 ?
S2 Na2 S4 70.61(6) 3 2_655 ?
S1 Na2 Na2 140.26(8) 8 2_655 ?
S3 Na2 Na2 141.56(8) 7 2_655 ?
S4 Na2 Na2 55.26(7) . 2_655 ?
S5 Na2 Na2 54.98(5) 3_545 2_655 ?
S2 Na2 Na2 55.02(4) 3 2_655 ?
S4 Na2 Na2 54.74(6) 2_655 2_655 ?
S1 Na2 Ga1 39.01(4) 8 7 ?
S3 Na2 Ga1 39.17(3) 7 7 ?
S4 Na2 Ga1 125.65(8) . 7 ?
S5 Na2 Ga1 124.90(8) 3_545 7 ?
S2 Na2 Ga1 125.08(7) 3 7 ?
S4 Na2 Ga1 124.35(7) 2_655 7 ?
Na2 Na2 Ga1 179.08(11) 2_655 7 ?
S1 Na2 Na1 130.01(7) 8 4 ?
S3 Na2 Na1 51.83(5) 7 4 ?
S4 Na2 Na1 54.29(5) . 4 ?
S5 Na2 Na1 125.27(7) 3_545 4 ?
S2 Na2 Na1 54.32(5) 3 4 ?
S4 Na2 Na1 124.93(8) 2_655 4 ?
Na2 Na2 Na1 89.73(7) 2_655 4 ?
Ga1 Na2 Na1 91.00(5) 7 4 ?
S1 Na2 Na1 51.18(5) 8 2_655 ?
S3 Na2 Na1 129.36(7) 7 2_655 ?
S4 Na2 Na1 125.01(8) . 2_655 ?
S5 Na2 Na1 54.04(5) 3_545 2_655 ?
S2 Na2 Na1 124.69(8) 3 2_655 ?
S4 Na2 Na1 54.08(5) 2_655 2_655 ?
Na2 Na2 Na1 89.08(7) 2_655 2_655 ?
Ga1 Na2 Na1 90.19(5) 7 2_655 ?
Na1 Na2 Na1 178.79(8) 4 2_655 ?
loop_
_geom_bond_atom_site_label_1
_geom_bond_atom_site_label_2
_geom_bond_distance
_geom_bond_site_symmetry_2
_geom_bond_publ_flag
Ga1 S1 2.2609(12) 2 ?
Ga1 S3 2.2693(11) . ?
Ga1 S4 2.2722(12) . ?
Ga1 S2 2.2739(10) . ?
Ga1 Na1 3.518(2) . ?
Ga1 Na2 3.590(2) 7 ?
Ga2 S1 2.2591(12) . ?
Ga2 S3 2.2693(12) 4 ?
Ga2 S5 2.2725(10) . ?
Ga2 S4 2.2746(11) . ?
Ga2 Na1 3.517(2) 4 ?
S1 Ga1 2.2608(12) 2 ?
S1 Na2 2.855(2) 8_456 ?
S1 Na1 2.886(2) 7_556 ?
S2 Ga1 2.2740(10) 2 ?
S2 Na2 3.033(3) 3_445 ?
S2 Na2 3.033(3) 4_545 ?
S2 Na1 3.071(2) 2 ?
S2 Na1 3.071(2) . ?
S3 Ga2 2.2692(12) 4_545 ?
S3 Na2 2.875(2) 7 ?
S3 Na1 2.906(2) 6 ?
S4 Na2 3.021(3) . ?
S4 Na2 3.040(3) 2_655 ?
S4 Na1 3.066(3) 4 ?
S4 Na1 3.077(3) . ?
S5 Ga2 2.2725(11) 2 ?
S5 Na2 3.029(3) 4 ?
S5 Na2 3.029(3) 3_455 ?
S5 Na1 3.072(2) 3_455 ?
S5 Na1 3.072(2) 4 ?
Na1 S1 2.886(2) 7_556 ?
Na1 S3 2.906(2) 6_556 ?
Na1 S4 3.066(3) 4_545 ?
Na1 S5 3.072(2) 3_545 ?
Na1 Ga2 3.517(2) 4_545 ?
Na1 Na2 3.603(3) 4_545 ?
Na1 Na2 3.629(3) 2_655 ?
Na2 S1 2.855(2) 8 ?
Na2 S3 2.875(2) 7 ?
Na2 S5 3.029(3) 3_545 ?
Na2 S2 3.033(3) 3 ?
Na2 S4 3.040(3) 2_655 ?
Na2 Na2 3.477(4) 2_655 ?
Na2 Ga1 3.590(2) 7 ?
Na2 Na1 3.603(3) 4 ?
Na2 Na1 3.629(3) 2_655 ?
