#------------------------------------------------------------------------------
#$Date: 2021-01-17 01:14:34 +0200 (Sun, 17 Jan 2021) $
#$Revision: 261003 $
#$URL: file:///home/coder/svn-repositories/cod/cif/4/00/38/4003855.cif $
#------------------------------------------------------------------------------
#
# This file is available in the Crystallography Open Database (COD),
# http://www.crystallography.net/
#
# All data on this site have been placed in the public domain by the
# contributors.
#
data_4003855
loop_
_publ_author_name
'Ochs, Andrew M.'
'Gorai, Prashun'
'Wang, Yaxian'
'Scudder, Michael R.'
'Koster, Karl'
'Moore, Curtis E.'
'Stevanovic, Vladan'
'Heremans, Joseph P.'
'Windl, Wolfgang'
'Toberer, Eric S.'
'Goldberger, Joshua E.'
_publ_section_title
;
 Computationally Guided Discovery of Axis-Dependent Conduction Polarity in
 NaSnAs Crystals
;
_journal_name_full               'Chemistry of Materials'
_journal_paper_doi               10.1021/acs.chemmater.0c04030
_journal_year                    2021
_chemical_formula_moiety         'As Na Sn'
_chemical_formula_sum            'As Na Sn'
_chemical_formula_weight         216.60
_space_group_crystal_system      hexagonal
_space_group_IT_number           186
_space_group_name_Hall           'P 6c -2c'
_space_group_name_H-M_alt        'P 63 m c'
_atom_sites_solution_primary     dual
_atom_sites_solution_secondary   difmap
_audit_creation_date             2020-12-17
_audit_creation_method
;
Olex2 1.3-alpha
(compiled 2020.11.12 svn.r5f609507 for OlexSys, GUI svn.r6226)
;
_cell_angle_alpha                90
_cell_angle_beta                 90
_cell_angle_gamma                120
_cell_formula_units_Z            2
_cell_length_a                   4.0150(18)
_cell_length_b                   4.0150(18)
_cell_length_c                   11.766(5)
_cell_measurement_reflns_used    3165
_cell_measurement_temperature    300.0
_cell_measurement_theta_max      30.450
_cell_measurement_theta_min      3.463
_cell_volume                     164.26(13)
_computing_cell_refinement       'SAINT v8.38A (Bruker, 2017)'
_computing_data_collection       'APEX3 v2017.3-0 (Bruker, 2017)'
_computing_data_reduction        'SAINT v8.38A (Bruker, 2017)'
_computing_molecular_graphics    'Olex2 1.3-alpha (Dolomanov et al., 2009)'
_computing_publication_material  'Olex2 1.3-alpha (Dolomanov et al., 2009)'
_computing_structure_refinement  'SHELXL 2018/3 (Sheldrick, 2015)'
_computing_structure_solution    'ShelXT (Sheldrick, 2015)'
_diffrn_ambient_temperature      300.0
_diffrn_detector                 'Bruker APEX-II CCD'
_diffrn_detector_area_resol_mean 7.9
_diffrn_detector_type            'CCD Area Detector'
_diffrn_measured_fraction_theta_full 1.000
_diffrn_measured_fraction_theta_max 1.000
_diffrn_measurement_device       'Kappa Four-Circle Diffractometer'
_diffrn_measurement_device_type  'Nonius Kappa APEX II'
_diffrn_measurement_method       '\w and \f scans'
_diffrn_radiation_monochromator  graphite
_diffrn_radiation_probe          x-ray
_diffrn_radiation_type           MoK\a
_diffrn_radiation_wavelength     0.71073
_diffrn_radiation_xray_symbol    K-L~3~
_diffrn_reflns_av_R_equivalents  0.0458
_diffrn_reflns_av_unetI/netI     0.0208
_diffrn_reflns_Laue_measured_fraction_full 1.000
_diffrn_reflns_Laue_measured_fraction_max 1.000
_diffrn_reflns_limit_h_max       5
_diffrn_reflns_limit_h_min       -4
_diffrn_reflns_limit_k_max       5
_diffrn_reflns_limit_k_min       -5
_diffrn_reflns_limit_l_max       16
_diffrn_reflns_limit_l_min       -16
_diffrn_reflns_number            3595
_diffrn_reflns_point_group_measured_fraction_full 1.000
_diffrn_reflns_point_group_measured_fraction_max 1.000
_diffrn_reflns_theta_full        25.242
_diffrn_reflns_theta_max         30.450
_diffrn_reflns_theta_min         3.463
_diffrn_source                   'sealed tube'
_diffrn_source_current           30.0
_diffrn_source_power             1.5
_diffrn_source_type              fine-focus
_diffrn_source_voltage           50.0
_diffrn_standards_number         0
_exptl_absorpt_coefficient_mu    17.589
_exptl_absorpt_correction_T_max  0.0511
_exptl_absorpt_correction_T_min  0.0138
_exptl_absorpt_correction_type   multi-scan
_exptl_absorpt_process_details
;
SADABS-2016/2 (Bruker,2016/2) was used for absorption correction.
wR2(int) was 0.1455 before and 0.0757 after correction.
The Ratio of minimum to maximum transmission is 0.2701.
The \l/2 correction factor is Not present.
;
_exptl_crystal_colour            'Metallic Silver'
_exptl_crystal_colour_lustre     metallic
_exptl_crystal_colour_primary    Silver
_exptl_crystal_density_diffrn    4.379
_exptl_crystal_description       Block
_exptl_crystal_F_000             188
_exptl_crystal_size_max          0.57
_exptl_crystal_size_mid          0.446
_exptl_crystal_size_min          0.272
_refine_diff_density_max         0.828
_refine_diff_density_min         -0.744
_refine_diff_density_rms         0.137
_refine_ls_abs_structure_details
;
 Refined as an inversion twin.
;
_refine_ls_abs_structure_Flack   0.13(10)
_refine_ls_extinction_coef       0.024(5)
_refine_ls_extinction_expression Fc^*^=kFc[1+0.001xFc^2^\l^3^/sin(2\q)]^-1/4^
_refine_ls_extinction_method     'SHELXL-2018/3 (Sheldrick 2018)'
_refine_ls_goodness_of_fit_ref   1.635
_refine_ls_hydrogen_treatment    undef
_refine_ls_matrix_type           full
_refine_ls_number_parameters     12
_refine_ls_number_reflns         236
_refine_ls_number_restraints     1
_refine_ls_restrained_S_all      1.631
_refine_ls_R_factor_all          0.0329
_refine_ls_R_factor_gt           0.0310
_refine_ls_shift/su_max          0.000
_refine_ls_shift/su_mean         0.000
_refine_ls_structure_factor_coef Fsqd
_refine_ls_weighting_details
'w=1/[\s^2^(Fo^2^)+1.7448P] where P=(Fo^2^+2Fc^2^)/3'
_refine_ls_weighting_scheme      calc
_refine_ls_wR_factor_gt          0.0736
_refine_ls_wR_factor_ref         0.0742
_reflns_Friedel_coverage         0.919
_reflns_Friedel_fraction_full    1.000
_reflns_Friedel_fraction_max     1.000
_reflns_number_gt                227
_reflns_number_total             236
_reflns_threshold_expression     'I > 2\s(I)'
_cod_data_source_file            cm0c04030_si_002.cif
_cod_data_source_block           Goldberger_NaSnAs
_cod_depositor_comments
;
The following automatic conversions were performed:

data item '_diffrn_radiation_probe' value 'X-ray' was changed to
'x-ray' in accordance with the
/home/data/users/saulius/crontab/automatic-downloads/rss-feeds/ACS/lib/dictionaries/cif_core.dic
dictionary named 'cif_core.dic' version 2.4.2 last updated on
2011-04-26.

data item '_exptl_crystal_colour_lustre' value 'Metallic' was changed
to 'metallic' in accordance with the
/home/data/users/saulius/crontab/automatic-downloads/rss-feeds/ACS/lib/dictionaries/cif_core.dic
dictionary named 'cif_core.dic' version 2.4.2 last updated on
2011-04-26.

Automatic conversion script
Id: cif_fix_values 7556 2019-12-06 15:28:31Z antanas 
;
_cod_original_cell_volume        164.26(17)
_cod_database_code               4003855
_shelx_shelxl_version_number     2018/3
_shelx_space_group_comment
;
The symmetry employed for this shelxl refinement is uniquely defined
by the following loop, which should always be used as a source of
symmetry information in preference to the above space-group names.
They are only intended as comments.
;
_shelx_estimated_absorpt_t_max   0.087
_shelx_estimated_absorpt_t_min   0.036
_olex2_refinement_description
;
1. Twinned data refinement
 Scales: 0.87(10)
 0.13(10)
;
_shelx_res_file
;
TITL goldberger_nasnas_a.res in P6(3)mc
    goldberger_nasnas.res
    created by SHELXL-2018/3 at 17:22:41 on 17-Dec-2020
REM Old TITL Goldberger_NaSnAs in P6(3)mc
REM SHELXT solution in P6(3)mc: R1 0.042, Rweak 0.000, Alpha 0.007
REM <I/s> 9.966 for 18 systematic absences, Orientation as input
REM Flack x = 0.143 ( 0.020 ) from 75 Parsons' quotients
REM Formula found by SHELXT: Na As Sn
CELL 0.71073 4.015 4.015 11.7661 90 90 120
ZERR 2 0.0018 0.0018 0.0054 0 0 0
LATT -1
SYMM -Y,+X-Y,+Z
SYMM +Y-X,-X,+Z
SYMM -X,-Y,0.5+Z
SYMM +Y,-X+Y,0.5+Z
SYMM -Y+X,+X,0.5+Z
SYMM -Y,-X,+Z
SYMM +Y-X,+Y,+Z
SYMM +X,+X-Y,+Z
SYMM +Y,+X,0.5+Z
SYMM -Y+X,-Y,0.5+Z
SYMM -X,-X+Y,0.5+Z
SFAC As Na Sn
UNIT 2 2 2

L.S. 10
PLAN  5
SIZE 0.272 0.446 0.57
TEMP 26.85
CONF
list 4
fmap 2
MORE -1
ACTA
TWIN -1 0 0 0 -1 0 0 0 -1 2
REM <olex2.extras>
REM <HklSrc "%.\\Goldberger_NaSnAs.hkl">
REM </olex2.extras>

WGHT    0.000000    1.744800
EXTI    0.024197
BASF   0.13164
FVAR       0.84205
SN1   3    0.000000    1.000000    0.357870    10.16667    0.02350    0.02350 =
         0.01932    0.00000    0.00000    0.01175
AS1   1    0.333333    0.666667    0.473702    10.16667    0.01949    0.01949 =
         0.02678    0.00000    0.00000    0.00974
NA1   2    0.666667    0.333333    0.643674    10.16667    0.04038    0.04038 =
         0.03028    0.00000    0.00000    0.02019
HKLF 4




REM  goldberger_nasnas_a.res in P6(3)mc
REM wR2 = 0.0742, GooF = S = 1.635, Restrained GooF = 1.631 for all data
REM R1 = 0.0310 for 227 Fo > 4sig(Fo) and 0.0329 for all 236 data
REM 12 parameters refined using 0 restraints

END

WGHT      0.0000      1.7448

REM Highest difference peak  0.828,  deepest hole -0.744,  1-sigma level  0.137
Q1    1   0.0000  1.0000  0.2627  10.16667  0.05    0.83
Q2    1   0.0000  1.0000  0.4563  10.16667  0.05    0.73
Q3    1   1.0000  0.0000  0.6034  10.16667  0.05    0.58
Q4    1   0.6017  0.3983  0.4801  10.50000  0.05    0.55
Q5    1   0.2558  0.5116  0.3629  10.50000  0.05    0.43
;
_shelx_res_checksum              37479
_shelx_hkl_file
;
  -1   1   0 1517.35   94.99
  -1   1   0 1626.44   94.79
   0  -1   0 1352.56   94.49
   0  -1   0 1698.23   96.59
   0  -1   0 1645.54   95.89
   0  -1   0 1624.74   94.69
   0  -1   0 1486.55   94.99
   0   1   0 1540.85   94.39
   0   1   0 1587.04   94.79
   0   1   0 1613.64   94.79
   0   1   0 1373.86   94.89
   0   1   0 1589.14   94.99
   1  -1   0 1431.46   94.79
   1  -1   0 1629.44   94.79
   1  -1   0 1600.04   95.09
   1  -1   0 1540.65   94.89
   1  -1   0 1643.14   95.69
   1   0   0 1582.04   94.39
   1   0   0 1621.94   95.49
   1   0   0 1676.33   96.89
   1   0   0 1682.93   94.79
   1   0   0 1617.94   94.39
   1   0   0 1559.94   94.49
  -1   1   0 1626.94   94.79
  -1   0   0 1485.35   94.09
  -1   0   0 1455.95   97.39
  -1   0   0 1655.23   95.29
   1   1   0 9374.36  550.54
  -2   1   0 8738.03  549.85
   1   1   0 9061.49  548.55
  -2   1   0 8829.92  548.25
  -1  -1   0 9448.25  561.34
  -1  -1   0 9188.98  558.64
  -1   2   0 9641.64  549.85
  -1   2   0 9133.59  549.35
  -1   2   0 9724.33  549.35
   1  -2   0 9618.24  550.24
   1  -2   0 8209.38  551.44
   1  -2   0 8125.89  554.24
   1   1   0 8230.38  547.45
   2  -1   0 9144.08  549.25
   1   1   0 9384.76  548.15
   2  -1   0 9837.32  554.14
   2  -1   0 9999.00  551.64
   2  -1   0 9129.59  550.84
   0  -2   0  829.22   54.79
  -2   2   0  876.71   52.59
   0  -2   0  854.71   53.49
   0   2   0  893.71   52.19
   0   2   0  882.91   52.99
   0  -2   0  859.31   52.39
   2  -2   0  888.21   52.69
   0  -2   0  881.51   55.59
   2  -2   0  889.21   54.49
   2   0   0  825.62   51.19
   2   0   0  821.12   51.39
  -2   2   0  868.61   52.59
  -2   2   0  884.51   53.19
   0   2   0  779.62   52.29
   2  -2   0  757.12   52.69
   2   0   0  882.91   52.19
   2  -2   0  793.22   52.69
   2   0   0  892.01   52.99
   2   0   0  816.02   51.89
   3  -1   0  529.95   31.40
   3  -1   0  439.76   30.90
   1   2   0  515.15   32.00
   3  -1   0  461.95   30.30
   3  -1   0  520.55   31.30
   1   2   0  488.15   31.30
   1   2   0  496.65   31.10
   2  -3   0  532.55   34.40
   2  -3   0  468.85   32.20
  -2   3   0  578.64   32.60
   3  -1   0  513.25   33.20
  -1  -2   0  495.25   35.80
   1   2   0  493.05   31.50
  -2   3   0  479.15   32.40
  -2   3   0  554.14   32.80
  -1  -2   0  505.75   35.20
   2  -3   0  442.66   32.00
   2  -3   0  424.76   33.10
   2   1   0  511.55   33.00
   2   1   0  440.36   31.90
   3  -2   0  550.64   32.80
  -1   3   0  506.95   33.20
  -3   2   0  514.15   33.00
  -3   2   0  500.15   31.90
   1  -3   0  493.75   33.10
   1  -3   0  526.85   35.10
   2   1   0  483.25   35.70
  -2  -1   0  534.95   38.90
   3  -2   0  536.45   35.00
   3  -2   0  528.35   33.00
  -1   3   0  556.24   33.00
  -1   3   0  498.15   33.00
   2   1   0  489.25   31.60
   1  -3   0  497.15   35.70
   1  -3   0  523.35   36.40
   0   3   0 3815.12  218.68
  -3   3   0 3746.03  219.78
   3  -3   0 3667.63  221.68
   0  -3   0 3672.03  223.08
   3  -3   0 3571.44  219.88
   0  -3   0 3646.94  219.28
   3   0   0 3334.57  218.88
   3   0   0 3644.94  218.78
   3   0   0 3682.33  217.68
   3   0   0 3861.41  220.18
   0  -3   0 3530.85  220.98
   0   3   0 3483.15  218.98
   3  -3   0 3665.23  219.88
   0  -3   0 3663.33  223.08
   3  -4   0  293.37   23.60
  -3   4   0  284.17   20.40
  -3   4   0  253.97   19.70
  -1  -3   0  243.98   25.30
   1   3   0  236.38   18.10
   1   3   0  232.38   18.00
   3  -4   0  260.37   19.70
   4  -1   0  236.48   17.30
  -1  -3   0  297.97   24.70
   4  -1   0  257.07   20.80
   2   2   0 2476.55  145.59
   2  -4   0 2354.46  145.09
   2  -4   0 2211.08  147.19
   2   2   0 2194.18  143.19
   4  -2   0 2436.06  144.39
   4  -2   0 2605.64  144.69
   4  -2   0 2410.56  146.69
   2  -4   0 2339.57  148.49
   2  -4   0 2356.16  147.49
  -2   4   0 2408.96  145.09
   2   2   0 2366.96  143.89
  -2   4   0 2339.37  144.49
  -2  -2   0 2485.95  150.78
   1  -4   0  254.77   19.20
   3   1   0  218.68   18.60
  -1   4   0  272.47   19.10
  -1   4   0  238.28   18.70
   4  -3   0  259.87   19.30
   3   1   0  241.48   24.50
   1  -4   0  244.98   22.30
   1  -4   0  261.17   22.80
   1  -4   0  247.38   23.60
   4  -3   0  277.67   22.30
   4  -3   0  288.27   19.60
   0  -4   0  204.68   21.30
   4  -4   0  226.08   16.70
   0  -4   0  184.58   21.90
   0   4   0  165.58   15.00
   4  -4   0  176.78   15.80
   0   4   0  192.18   16.10
   4  -4   0  212.08   20.70
  -4   4   0  188.58   17.40
  -1  -4   0  885.51   60.99
   4  -5   0  804.82   57.09
   5  -2   0  135.59   16.50
   3  -5   0  146.49   20.30
  -2  -3   0  116.39   24.20
   3  -5   0  135.59   18.00
   5  -2   0  138.49   12.30
  -3  -2   0  114.99   24.70
   2  -5   0  147.49   21.00
   5  -3   0  151.98   17.80
  -2   5   0  128.09   14.60
   5  -3   0  129.59   13.00
   5  -3   0  137.39   13.10
   5  -4   0  735.33   50.49
   1  -5   0  919.61   58.49
   5  -4   0  741.83   53.69
   0   0  -1   33.10    3.70
   0   0  -1   30.40    3.60
   0   0  -1   38.40    4.20
   0   0  -1   41.10    4.00
   0   0   1   33.10    3.60
   0   0   1   46.90    3.80
   0   0   1   39.90    4.00
   0   0   1   33.50    3.90
   1  -1  -1 1453.75   77.09
   0  -1  -1 1432.66   78.19
   1  -1  -1 1232.98   77.79
   1   0  -1 1373.96   76.89
   1   0  -1 1200.38   76.49
   1   0  -1 1394.86   76.79
   0   1  -1 1258.67   76.39
   0  -1  -1 1373.26   76.79
   0  -1  -1 1330.07   76.79
   1   0  -1 1270.07   76.79
   1   0  -1 1342.77   80.09
  -1   1  -1 1308.77   76.89
  -1   0  -1 1268.07   79.39
   0  -1  -1 1275.47   76.89
   1  -1  -1 1391.36   77.09
  -1   1  -1 1180.98   76.99
  -1   1  -1 1241.48   77.09
   1  -1  -1 1192.78   77.19
   0   1  -1 1341.87   78.09
   0   1  -1 1268.47   76.79
   0   1  -1 1184.28   76.79
   0   1  -1 1270.47   76.89
   1   0  -1 1336.27   77.89
   1  -1   1 1189.38   77.79
  -1   0   1 1166.18   76.69
  -1   0   1 1168.18   76.19
   1  -1   1 1386.46   76.99
   0   1   1 1274.57   76.89
   1  -1   1 1330.47   77.19
   0  -1   1 1102.49   76.39
   1   0   1 1331.27   77.89
   1   0   1 1149.39   76.09
   0  -1   1 1253.17   78.69
   0  -1   1 1260.97   76.79
  -1   1   1 1297.47   77.09
   1   0   1 1242.18   77.19
   0  -1   1 1314.37   77.99
   0  -1   1 1268.57   76.69
   1   0   1 1187.08   76.09
   0  -1   1 1240.18   77.69
  -1   1   1 1244.58   76.89
   1   0   1 1277.17   76.79
  -1   0   1 1225.98   80.29
   1  -1   1 1220.68   77.09
   0   1   1 1210.48   76.69
   0   1   1 1229.88   76.69
   1   0   1 1338.07   76.29
  -1   2  -1   92.29    8.70
  -1  -1  -1  118.99   10.80
  -1  -1  -1  114.49   11.00
  -1   2  -1  117.99    8.60
   1   1  -1  111.89    8.00
   1   1  -1  104.79    8.40
   1   1  -1   97.89    7.30
   1  -2  -1  118.99   10.20
   1   1  -1   83.09    7.20
  -2   1  -1  115.89    7.80
  -2   1   1   83.59    8.10
   1   1   1   86.99    6.70
  -1   2   1  109.09    8.30
   1   1   1   90.59    6.80
  -2   1   1   76.09    8.00
  -2   1   1   83.09    6.90
  -1  -1   1   84.49   10.60
   1   1   1  104.29    7.50
  -1   2   1   74.89    8.50
   0   2  -1  740.23   42.40
   0  -2  -1  731.03   45.80
   0  -2  -1  688.73   42.80
  -2   0  -1  744.73   43.90
  -2   2  -1  692.73   43.00
   0   2  -1  676.03   43.20
   0   2  -1  671.43   42.90
   2  -2  -1  725.13   44.80
   0  -2  -1  720.23   43.60
   2   0  -1  761.62   43.50
  -2   2  -1  704.13   43.60
   2   0  -1  711.03   42.70
   2   0  -1  742.33   42.10
   2   0  -1  722.93   42.90
   0  -2  -1  581.74   45.10
   2  -2  -1  647.34   43.30
   2  -2  -1  736.63   43.30
   2  -2  -1  722.03   43.40
   2   0   1  653.53   41.60
   0  -2   1  705.53   45.70
   0  -2   1  639.74   42.80
   0  -2   1  721.13   46.50
   2   0   1  711.73   43.20
   0  -2   1  657.63   42.50
   0   2   1  700.13   42.90
   0   2   1  684.53   43.00
   2  -2   1  677.93   43.10
   0  -2   1  662.63   44.40
  -2   2   1  693.03   43.20
  -2   2   1  686.23   43.60
  -2   2   1  709.03   43.10
   2  -2   1  685.73   43.40
  -2   0   1  667.43   41.60
   2   0   1  654.93   42.20
   2   0   1  674.13   42.10
   2   0   1  624.94   41.60
   0   2   1  662.03   43.20
   1   2  -1  484.25   29.80
   2  -3  -1  547.25   31.20
   3  -1  -1  534.45   32.60
   1   2  -1  431.06   29.80
   2  -3  -1  452.35   32.10
   1   2  -1  514.25   31.40
  -2   3  -1  500.45   30.40
  -2   3  -1  498.75   31.30
  -2   3  -1  469.45   30.50
  -1  -2  -1  505.75   34.10
   3  -1  -1  524.95   30.30
   1   2  -1  484.35   29.40
  -1  -2  -1  494.95   34.50
  -3   1  -1  491.85   29.70
   3  -1  -1  492.15   29.80
   3  -1  -1  466.65   29.20
   3  -1  -1  430.16   29.60
   1   2  -1  485.15   30.20
  -1  -2   1  446.16   33.90
   3  -1   1  408.46   29.30
   3  -1   1  460.35   31.50
  -2   3   1  450.55   30.80
   1   2   1  433.16   29.70
   3  -1   1  451.25   29.60
   2  -3   1  460.55   30.90
   1   2   1  454.65   30.40
   2  -3   1  487.25   33.30
  -2   3   1  508.25   31.10
   1   2   1  463.95   30.50
  -1  -2   1  388.86   33.40
   1   2   1  429.06   29.40
   3  -1   1  462.85   29.50
   2  -3   1  391.56   31.70
  -3   2  -1  445.76   30.60
   2   1  -1  461.95   32.60
  -1   3  -1  498.85   30.50
   2   1  -1  407.06   31.40
   2   1  -1  459.55   29.20
  -2  -1  -1  494.85   33.10
   1  -3  -1  442.66   33.20
   2   1  -1  475.65   31.00
   3  -2  -1  499.85   31.00
   3  -2  -1  540.65   33.60
   2   1  -1  465.45   29.60
  -3   2  -1  487.25   30.10
   1  -3  -1  497.85   31.10
   1  -3  -1  514.75   34.50
  -1   3  -1  463.05   31.10
   3  -2  -1  492.35   30.90
  -2  -1  -1  506.55   36.50
   1  -3  -1  470.55   32.30
   2   1   1  419.36   34.40
  -1   3   1  472.95   30.80
   1  -3   1  538.75   31.80
   1  -3   1  478.05   34.30
   3  -2   1  485.75   31.00
  -2  -1   1  457.75   36.10
   2   1   1  442.66   29.60
  -1   3   1  454.95   31.10
   3  -2   1  461.35   32.60
  -3   2   1  402.16   29.70
   3  -2   1  498.55   30.60
  -1   3   1  475.65   31.20
  -3   2   1  482.15   31.20
   2   1   1  437.96   29.60
   1  -3   1  550.44   34.10
  -3   3  -1  106.99   11.50
   3  -3  -1  130.39   13.30
   0   3   1  122.09   10.70
   3   0   1   91.69    8.20
  -3   3   1   97.99   11.60
   0  -3   1  106.59   13.70
   3   0   1   95.19   10.40
   3  -3   1  126.19   12.90
   3   0   1  125.79    8.70
  -1  -3  -1  248.28   22.00
   4  -1  -1  239.78   17.20
   1   3  -1  248.78   18.10
   1   3  -1  253.07   19.60
   4  -1  -1  224.48   17.20
   4  -1  -1  261.27   20.50
  -1  -3  -1  257.77   25.40
   3  -4  -1  269.87   19.70
  -3   4  -1  273.57   20.10
   1   3   1  258.17   17.90
   3  -4   1  282.07   22.90
  -3   4   1  232.98   19.00
   1   3   1  215.58   17.90
   3  -4   1  264.97   19.70
   4  -1   1  226.48   16.60
  -1  -3   1  230.08   24.70
   4  -1   1  232.58   19.90
   4  -2  -1   95.79   10.20
   4  -2  -1   82.09   10.30
   4  -2   1   70.09   11.00
   2   2   1   88.99    7.60
   4  -2   1  105.79    9.50
   2   2   1  101.99   12.50
  -1   4  -1  211.88   17.10
  -1   4  -1  268.17   18.50
   3   1  -1  238.38   17.90
   4  -3  -1  253.57   18.60
   1  -4  -1  278.57   24.40
   1  -4  -1  192.28   18.50
   4  -3  -1  278.67   18.10
   4  -3   1  210.78   20.00
   4  -3   1  212.68   17.40
   3   1   1  208.78   23.80
   3   1   1  202.38   17.30
  -1   4   1  235.88   18.30
   1  -4   1  281.07   23.00
   1  -4   1  205.28   20.70
   1  -4   1  247.98   23.60
   1  -4   1  253.37   22.70
   4  -3   1  238.58   17.40
   0  -4  -1  255.47   22.50
  -4   4  -1  225.88   18.20
   4  -4  -1  179.98   17.10
   4  -4  -1  255.27   22.50
   4  -4  -1  202.08   17.50
   0  -4  -1  198.08   24.20
   0   4  -1  256.07   17.80
   0  -4   1  165.28   23.20
  -4   4   1  223.28   18.60
   4  -4   1  194.48   17.90
   0   4   1  233.88   17.70
   4  -4   1  199.78   21.80
   4  -5  -1  103.39   16.40
   5  -2  -1  120.59   11.60
  -3   5  -1  119.99   13.10
  -2  -3  -1  126.19   24.30
   5  -2  -1  139.29   16.20
   5  -2   1  115.69   11.30
  -2  -3   1  110.19   22.90
  -3   5   1  132.99   14.10
   3  -5   1  143.29   19.40
   5  -2   1  118.29   15.60
   3  -5   1  123.79   19.30
   3  -5   1  111.99   12.70
  -3  -2  -1  112.99   25.50
  -2   5  -1  127.69   13.40
   5  -3  -1  130.39   12.90
   2  -5  -1  146.59   22.20
   3   2  -1  117.29   15.30
   5  -3  -1  175.98   18.90
   5  -3  -1  146.39   13.50
   5  -3   1  131.09   12.80
   2  -5   1  135.59   20.80
   5  -3   1  144.79   17.60
  -2   5   1  114.79   14.30
  -3  -2   1  140.89   26.20
   5  -4  -1  143.89   19.80
   1  -5   1  104.69   20.70
   0   0  -2 4851.91  301.57
   0   0  -2 4763.32  301.47
   0   0  -2 5476.05  303.17
   0   0  -2 5214.28  301.77
   0   0  -2 4741.13  301.37
   0   0   2 4957.50  301.27
   0   0   2 5438.66  302.37
   0   0   2 5000.50  304.77
   0   0   2 4982.40  301.27
   0   0   2 5006.50  301.17
   0   0   2 4712.73  301.27
   0   0   2 5119.59  301.07
   0   1  -2 4703.13  283.27
   0  -1  -2 4750.62  284.17
   0  -1  -2 4849.61  283.57
   1   0  -2 4462.05  283.17
   0  -1  -2 4782.12  284.67
   0   1  -2 4346.06  282.87
   1   0  -2 4137.09  284.07
   1   0  -2 4272.07  284.27
   1   0  -2 4670.83  283.37
   1  -1  -2 4346.87  284.67
   1  -1  -2 4072.99  285.27
   1  -1  -2 4326.97  287.37
   1   0  -2 4819.22  283.37
  -1   1  -2 4841.52  283.97
  -1   0  -2 5058.89  288.57
  -1   0  -2 4510.95  284.27
   0   1  -2 4653.83  283.27
   0   1  -2 4555.44  282.77
  -1   0  -2 4767.62  284.97
   0   1  -2 4849.61  283.87
   0  -1  -2 5017.80  290.27
  -1   1  -2 4695.33  283.57
  -1   1  -2 4148.58  283.67
  -1   1   2 5205.78  283.17
   0   1   2 4709.23  283.77
   1   0   2 5091.49  284.07
   0   1   2 4601.84  284.07
   1   0   2 4407.76  283.27
   1   0   2 4774.52  283.57
   1  -1   2 5002.10  284.07
   0  -1   2 4926.21  287.47
   1   0   2 4865.41  284.07
   0  -1   2 4948.90  285.17
   1  -1   2 4726.63  285.77
   0  -1   2 4522.25  282.37
   1   0   2 5152.38  283.37
  -1   1   2 4879.41  282.87
   0  -1   2 5217.18  290.27
   0   1   2 4886.51  283.07
   0  -1   2 4889.81  286.57
  -1   0   2 5265.27  283.87
  -1   0   2 4577.24  283.07
   1  -1   2 4928.31  285.67
  -2   1  -2 3093.89  185.48
  -1   2  -2 3111.99  186.38
   1  -2  -2 3380.36  186.38
   1  -2  -2 2810.92  186.88
   1   1  -2 2836.82  185.38
  -1   2  -2 3277.57  185.58
  -1  -1  -2 3415.86  188.58
   1  -2  -2 2949.00  186.18
  -2   1  -2 3162.38  185.48
   1   1  -2 3048.20  184.88
  -1  -1  -2 3070.89  185.18
  -1  -1  -2 3469.15  188.08
   2  -1  -2 3356.16  186.18
   2  -1  -2 3295.97  186.78
  -1   2  -2 3091.09  186.28
   1   1  -2 3200.78  185.58
   1   1  -2 3187.48  186.38
   1   1  -2 3096.79  185.58
   2  -1  -2 3420.36  186.28
   1  -2  -2 3292.97  188.18
  -1   2   2 3066.59  186.18
   2  -1   2 3217.38  187.28
   1  -2   2 2877.41  185.98
   1  -2   2 3211.08  186.48
   1   1   2 3045.40  185.28
   1   1   2 3020.80  185.68
  -1  -1   2 2662.43  186.48
   2  -1   2 3257.47  185.58
   2  -1   2 2656.83  185.48
  -2   1   2 3321.07  185.98
   1   1   2 2756.52  184.88
  -1   2   2 2920.11  185.78
   1  -2   2 2884.21  187.38
   1  -2   2 3108.59  187.68
   2  -1   2 3097.29  185.78
  -1  -1   2 2596.74  186.48
  -1  -1   2 3118.69  188.58
  -2   0  -2 2717.93  161.18
  -2   2  -2 2489.85  160.38
   0   2  -2 2569.84  160.08
   0   2  -2 2522.65  160.78
   0   2  -2 2520.85  159.18
   2   0  -2 2556.24  160.38
   0   2  -2 2546.95  160.38
   2   0  -2 2497.95  160.48
   0  -2  -2 2674.03  163.08
  -2   2  -2 2564.64  159.88
   2   0  -2 2738.53  161.28
  -2   2  -2 2589.34  160.18
   2  -2  -2 2649.33  160.48
   2  -2  -2 2337.07  161.68
   0  -2  -2 2634.24  162.68
   2   0  -2 2757.62  159.68
   0  -2  -2 2324.37  160.08
   0  -2  -2 2542.15  159.88
   2  -2  -2 2753.32  160.68
   2  -2  -2 2466.95  160.78
   2   0   2 2739.03  159.88
  -2   2   2 2769.62  160.58
  -2   2   2 2818.62  160.18
   0   2   2 2751.72  160.28
   2  -2   2 2949.00  160.88
   2   0   2 2765.32  158.98
   2  -2   2 2490.15  161.98
   2   0   2 2723.03  158.88
   0  -2   2 2719.73  160.18
   2   0   2 2637.54  158.78
   0  -2   2 2864.61  160.88
  -2   2   2 2786.02  160.28
  -2   0   2 2532.75  158.98
   0  -2   2 2699.03  162.18
   0  -2   2 2876.61  162.88
   0   2   2 2760.22  160.08
   0   2   2 2769.82  159.98
   2   0   2 2831.22  160.28
  -1  -2  -2 1711.53  103.29
  -1  -2  -2 1633.54  103.09
   2  -3  -2 1564.64   99.79
   3  -1  -2 1429.06   98.89
   3  -1  -2 1614.04   99.29
   3  -1  -2 1638.64   98.79
   3  -1  -2 1761.12  101.69
   2  -3  -2 1402.56  100.89
  -2   3  -2 1518.15   99.89
   1   2  -2 1593.74   97.99
   1   2  -2 1624.04  100.29
   2  -3  -2 1584.64   99.99
   1   2  -2 1670.13   99.09
   1   2  -2 1463.75   98.89
  -2   3  -2 1660.13   99.99
  -2   3   2 1722.73   99.89
   1   2   2 1661.43   98.39
  -2   3   2 1395.76   99.49
  -3   1   2 1582.14   98.49
   2  -3   2 1677.23  102.09
   3  -1   2 1673.03  100.39
   1   2   2 1708.43   99.39
   3  -1   2 1716.63   98.69
  -1  -2   2 1607.24  102.49
   1   2   2 1666.43   98.79
   2  -3   2 1778.62  100.29
   1   2   2 1745.03   99.69
   3  -1   2 1747.43   98.49
  -2   3   2 1718.33   99.59
   3  -1   2 1595.64   98.59
   1  -3  -2 1447.76   99.59
   1  -3  -2 1523.45  101.39
   2   1  -2 1626.34   98.79
   2   1  -2 1446.76   99.19
  -3   2  -2 1545.95   98.29
   2   1  -2 1451.95   97.29
   2   1  -2 1364.66   97.09
   1  -3  -2 1515.75   98.79
   1  -3  -2 1559.24   98.59
   3  -2  -2 1707.63   98.79
  -1   3  -2 1545.95   98.79
   3  -2  -2 1712.73  101.09
   3  -2  -2 1483.15   97.59
  -1   3  -2 1595.34   97.79
  -3   2  -2 1620.44   97.79
   3  -2  -2 1578.24   98.39
   2   1  -2 1471.15   97.99
  -2  -1  -2 1603.54  100.69
  -2  -1  -2 1617.54  103.19
  -1   3  -2 1586.74   98.79
  -3   2   2 1700.23   97.69
   1  -3   2 1764.62   99.09
   2   1   2 1654.33   97.49
   3  -2   2 1789.42   98.89
  -1   3   2 1660.33   98.79
   3  -2   2 1724.93   98.19
   1  -3   2 1719.43  100.99
   3  -2   2 1563.44  100.19
  -1   3   2 1607.74   98.59
   2   1   2 1620.74  101.19
   1  -3   2 1703.63   98.59
   1  -3   2 1657.73  101.29
  -3   2   2 1721.83   98.59
  -1   3   2 1769.62   98.39
  -2  -1   2 1774.82  104.39
   0  -3  -2 1138.29   84.19
   3   0  -2 1313.47   83.69
   3  -3  -2 1250.97   83.89
  -3   3  -2 1484.45   83.89
   0  -3  -2 1308.07   87.19
   3  -3  -2 1449.65   84.09
   3  -3  -2 1479.35   86.39
   3   0  -2 1430.76   83.69
   3   0  -2 1394.66   82.09
   0   3  -2 1366.96   84.49
   0  -3  -2 1387.06   84.49
   0   3  -2 1401.76   82.39
   3  -3  -2 1477.95   84.29
   0   3  -2 1378.66   83.39
   0  -3  -2 1439.36   87.89
  -3   3  -2 1375.96   82.99
  -3   3  -2 1429.16   84.29
   0   3  -2 1431.66   83.99
   0  -3   2 1269.17   83.39
  -3   3   2 1294.97   83.49
   0  -3   2 1329.87   83.19
   0   3   2 1287.47   83.19
   0   3   2 1362.46   83.89
   0   3   2 1432.66   83.49
   3   0   2 1296.47   82.89
  -3   3   2 1368.36   84.19
  -3   3   2 1315.97   83.39
   0  -3   2 1277.77   86.49
   3  -3   2 1359.06   86.19
   0  -3   2 1350.56   86.99
   3   0   2 1302.57   83.29
   3  -3   2 1310.07   83.99
   4  -1  -2  738.33   47.30
  -1  -3  -2  683.63   50.99
   3  -4  -2  727.03   48.10
   1   3  -2  737.83   46.30
   1   3  -2  718.53   44.80
   4  -1  -2  681.83   44.20
  -3   4  -2  621.54   44.40
  -3   4  -2  666.43   45.60
  -1  -3  -2  648.14   48.40
   3  -4  -2  615.14   46.10
   3  -4  -2  676.63   45.30
   3  -4  -2  690.23   45.70
   4  -1  -2  693.63   43.70
   3  -4   2  734.73   48.60
   1   3   2  699.83   43.80
  -3   4   2  806.92   46.30
   3  -4   2  663.33   45.10
   4  -1   2  746.63   46.20
   4  -1   2  728.73   43.20
   1   3   2  720.63   44.60
  -1  -3   2  705.53   49.60
   2   2  -2  940.21   58.69
  -2   4  -2  914.01   60.09
  -2   4  -2  976.30   60.29
   4  -2  -2 1041.50   59.59
   2   2  -2  936.61   59.19
   4  -2  -2 1010.00   59.39
   2  -4  -2 1001.80   62.49
   2  -4  -2  952.90   62.89
  -2  -2  -2 1011.40   66.49
  -2  -2  -2 1050.59   63.39
   2  -4  -2  933.41   59.89
   2   2  -2 1021.90   60.49
   4  -2  -2 1066.89   62.79
  -2   4  -2  891.81   58.89
  -2   4   2  944.31   59.79
   4  -2   2  911.31   58.59
  -2   4   2  929.21   59.99
  -2  -2   2  902.81   65.39
   4  -2   2  874.91   61.09
   2   2   2  903.31   58.79
   2   2   2 1002.10   60.99
   4  -2   2  922.61   59.09
   2  -4   2  892.71   62.49
   2  -4   2  848.62   59.69
   2  -4   2  893.31   59.89
   2  -4   2  923.21   62.89
   3   1  -2  658.83   46.20
   3   1  -2  701.63   42.90
   3   1  -2  622.74   45.20
   4  -3  -2  628.94   47.60
   1  -4  -2  736.93   51.29
  -1   4  -2  731.23   45.60
   1  -4  -2  689.63   47.40
   1  -4  -2  627.54   48.40
  -1   4  -2  634.34   44.00
  -1   4  -2  729.33   46.10
   4  -3  -2  679.63   45.50
   4  -3  -2  704.63   45.30
   1  -4   2  677.53   45.40
  -1   4   2  713.63   45.10
   1  -4   2  745.63   45.80
   1  -4   2  823.52   50.09
   4  -3   2  802.82   48.80
   4  -3   2  759.52   45.60
   1  -4   2  748.73   49.60
  -1   4   2  737.43   45.30
   4  -3   2  681.23   44.60
   3   1   2  764.32   49.60
   3   1   2  654.43   44.60
   0  -4  -2  494.55   37.80
   4  -4  -2  485.35   34.60
   4  -4  -2  489.55   34.30
   0   4  -2  510.15   33.60
  -4   4  -2  456.35   34.80
   4  -4  -2  474.15   36.30
   0  -4  -2  498.65   40.10
  -4   4   2  517.55   34.40
   4  -4   2  539.75   37.60
   0  -4   2  527.45   39.50
   4  -4   2  514.45   34.30
   0   4   2  481.05   33.20
   0   4   2  532.25   33.60
   1   4  -2  384.56   26.50
   4  -5  -2  375.86   26.00
  -1  -4  -2  376.56   33.70
   4  -5   2  317.07   26.00
  -1  -4   2  354.16   32.30
   4  -5   2  341.77   29.80
   5  -2  -2  357.46   24.30
   2   3  -2  302.67   24.20
   5  -2  -2  351.46   27.90
  -2  -3  -2  332.37   35.30
   3  -5  -2  327.97   28.60
   2   3  -2  321.17   25.80
   3  -5  -2  286.17   25.80
  -3   5  -2  288.87   24.40
   5  -2   2  367.16   23.40
  -2  -3   2  388.46   32.80
   3  -5   2  391.26   29.40
   3  -5   2  330.47   25.10
   3  -5   2  363.16   29.00
   5  -2   2  356.76   26.90
   3   2  -2  301.37   26.10
  -2   5  -2  371.96   26.20
   2  -5  -2  321.47   28.00
   2  -5  -2  376.76   33.70
   5  -3  -2  369.76   29.50
   5  -3  -2  309.87   24.40
   5  -3  -2  365.16   25.90
  -3  -2  -2  311.37   37.50
   2  -5   2  405.86   30.40
   5  -3   2  361.46   28.00
  -2   5   2  352.16   26.00
  -3  -2   2  356.46   37.30
   5  -3   2  355.56   24.70
   5  -4  -2  399.26   26.80
   5  -4  -2  385.76   26.70
  -1   5  -2  358.26   26.70
   5  -4   2  344.87   26.20
   1  -5   2  375.96   33.00
   5  -4   2  311.37   28.60
   0   0  -3   43.20    7.50
   0   0  -3   46.20    8.60
   0   0   3   45.40    7.90
   0   0   3   56.79    6.80
   0   0   3   57.59   10.40
   0   0   3   47.20    8.20
   1  -1  -3 2278.37  127.89
  -1   0  -3 2062.19  127.39
   0   1  -3 2165.08  127.69
   1   0  -3 1992.80  128.79
   1  -1  -3 2192.98  127.79
   1   0  -3 2142.89  128.49
  -1   0  -3 2395.36  129.09
  -1   1  -3 2095.29  127.49
  -1   1  -3 2146.29  127.69
  -1   1  -3 2150.58  127.59
   0  -1  -3 2299.57  127.29
   0  -1  -3 2165.28  127.39
   1   0  -3 2041.40  128.99
   0   1  -3 2248.77  128.19
   1   0  -3 1827.82  129.29
   0  -1  -3 2176.08  129.69
   0   1  -3 2223.58  127.79
   1   0  -3 2047.10  126.69
   0  -1   3 1933.61  127.59
   1   0   3 2302.97  127.69
   0  -1   3 2036.10  126.69
  -1   1   3 2382.16  127.99
   0  -1   3 2171.68  128.29
   1   0   3 2130.09  126.89
   1   0   3 2024.20  127.69
  -1   0   3 2118.79  127.89
   1  -1   3 2061.79  128.69
   0  -1   3 1940.01  128.49
   1  -1   3 2183.08  128.19
   1   0   3 2141.49  127.79
  -1   1   3 2123.09  127.39
   0  -1   3 2171.28  129.89
   1   0   3 1874.31  127.49
   0   1   3 1961.80  127.69
  -1   0   3 2175.18  126.79
   0   1   3 1956.50  127.49
   1  -1   3 2065.59  127.59
   0   1   3 2004.30  127.29
  -1  -1  -3    8.40    4.00
  -1  -1  -3   11.70    3.10
  -1  -1  -3   21.50    2.60
   1   1  -3   15.20    3.90
   2  -1  -3   17.80    5.00
  -2   1  -3   11.90    3.00
   2  -1  -3   13.80    3.90
  -2   1  -3   21.30    3.80
   1  -2  -3   15.00    4.20
  -2   1  -3   21.20    5.50
  -1  -1  -3    5.70    5.40
   1   1   3   24.40    3.60
   2  -1   3   11.60    3.10
   1  -2   3   11.50    5.30
  -1   2   3   20.90    5.20
   1   1   3   16.40    5.30
  -1  -1   3    4.20    6.20
  -1  -1   3   10.60    6.00
   1   1   3   18.00    2.40
  -1  -1   3    7.60    5.50
   1  -2   3   16.80    5.30
   1   1   3   17.90    9.20
  -1   2   3   14.60    4.00
   2  -2  -3 1148.49   72.29
   2   0  -3 1154.48   72.99
   2   0  -3 1082.19   72.39
  -2   2  -3 1192.18   71.29
   0  -2  -3 1131.19   70.89
   0   2  -3 1156.08   71.39
   0   2  -3 1145.39   69.99
   0  -2  -3 1214.88   74.19
   0  -2  -3 1072.19   70.89
   0  -2  -3 1073.99   73.79
  -2   0  -3 1240.08   72.29
   0   2  -3 1202.98   72.09
   2   0  -3 1140.79   72.79
  -2   2  -3 1205.78   70.79
  -2   2  -3 1147.09   71.49
   0  -2  -3 1105.19   70.69
   0   2  -3 1115.79   71.09
   2   0  -3 1163.38   71.19
   2   0  -3 1155.18   71.89
   2  -2  -3 1227.28   71.69
   2  -2  -3 1206.28   71.59
   2  -2  -3 1124.89   73.19
   0  -2   3 1258.77   71.79
   2   0   3 1114.99   70.39
  -2   2   3 1166.78   71.29
   0  -2   3 1123.59   71.19
   2  -2   3 1093.39   72.99
   0  -2   3 1180.38   73.49
   2   0   3 1207.38   70.89
   2  -2   3 1218.58   72.19
   2  -2   3 1183.58   71.59
   0  -2   3 1204.58   74.19
  -2   0   3 1120.49   70.39
   0   2   3 1162.28   71.29
   0   2   3 1202.68   70.99
  -2   2   3 1118.29   71.59
   2   0   3 1140.69   70.99
   2  -3  -3  723.73   47.70
   2  -3  -3  734.43   46.30
   3  -1  -3  727.03   45.20
   1   2  -3  640.64   43.70
  -1  -2  -3  731.43   49.50
  -2   3  -3  750.22   46.30
   3  -1  -3  773.72   48.10
   1   2  -3  704.93   46.40
  -2   3  -3  737.03   46.70
   3  -1  -3  642.94   46.50
   2  -3  -3  679.23   47.70
   2  -3  -3  712.93   46.10
   3  -1  -3  700.03   45.70
  -1  -2  -3  765.52   50.09
   1   2  -3  749.92   45.70
   1   2  -3  699.13   45.50
   3  -1   3  723.93   44.80
  -1  -2   3  652.03   46.20
   1   2   3  729.63   46.70
  -1  -2   3  717.73   49.40
   3  -1   3  801.42   47.40
   2  -3   3  779.12   47.00
  -3   1   3  697.23   45.00
  -2   3   3  759.62   46.20
  -2   3   3  730.73   46.10
   1   2   3  739.33   45.60
  -1  -2   3  682.63   45.00
   2  -3   3  778.02   46.70
   1   2   3  734.53   44.80
  -2   3   3  743.73   46.50
   2  -3   3  701.73   48.30
   2  -3   3  723.83   47.90
  -2  -1  -3  741.73   48.10
  -3   2  -3  703.73   45.50
   1  -3  -3  659.03   48.40
   2   1  -3  644.44   44.30
   2   1  -3  657.13   44.80
   2   1  -3  695.73   46.10
  -1   3  -3  753.32   46.40
  -1   3  -3  826.52   46.70
   3  -2  -3  692.33   48.10
   1  -3  -3  672.63   46.80
   1  -3  -3  695.73   46.00
   1  -3  -3  676.73   45.80
  -1   3  -3  773.32   45.00
   3  -2  -3  623.54   45.40
   3  -2  -3  678.93   45.90
   3  -2  -3  751.02   45.90
   2   1  -3  718.23   47.80
  -2  -1  -3  696.73   50.49
  -3   2  -3  724.63   45.20
   3  -2   3  805.52   48.50
   3  -2   3  766.42   45.90
   1  -3   3  810.62   46.70
   2   1   3  736.23   49.40
  -1   3   3  686.43   45.90
  -1   3   3  757.42   46.20
  -2  -1   3  724.23   51.49
  -1   3   3  713.43   45.70
   3  -2   3  692.23   46.60
  -3   2   3  744.73   46.10
   1  -3   3  763.52   46.40
   1  -3   3  751.02   48.50
   1  -3   3  793.62   49.10
  -3   2   3  760.12   45.10
   0  -3  -3    7.90    5.10
   3  -3  -3   16.10    5.90
   0   3  -3   12.30    5.10
   0  -3  -3   11.90   10.10
   3   0  -3   11.90    5.80
   3  -3  -3   15.90    7.90
   0  -3  -3   12.00    7.40
   3   0  -3   12.10    4.10
  -3   3  -3   20.20    7.50
   3  -3  -3    5.80    4.40
   3   0  -3    9.70    7.40
   0  -3   3   11.90    7.10
   0  -3   3    9.80    9.50
  -3   3   3   14.70    7.40
   0   3   3    8.80    6.30
   0  -3   3    9.10    6.00
   0  -3   3    8.40    8.60
   0   3   3   14.60    7.60
  -3   3   3   28.10    8.20
   3   0   3   17.00    5.90
   0   3   3   17.30    5.40
  -3   3   3   13.50    7.20
   3  -4  -3  330.27   24.50
   1   3  -3  359.36   24.00
  -3   4  -3  368.96   23.60
   1   3  -3  341.67   25.10
  -1  -3  -3  370.86   29.50
   4  -1  -3  279.37   22.60
   3  -4  -3  378.46   27.00
  -3   4  -3  325.87   24.40
   3  -4  -3  370.86   24.80
   3  -4  -3  325.87   25.50
   4  -1  -3  323.97   25.50
   4  -1  -3  313.77   22.30
  -1  -3  -3  276.67   29.90
  -1  -3   3  312.97   29.10
   3  -4   3  350.06   27.20
   4  -1   3  348.47   25.60
   1   3   3  318.57   24.20
  -3   4   3  331.87   25.40
   4  -1   3  318.47   21.50
   1   3   3  317.87   23.80
   3  -4   3  333.77   25.00
   1   3   3  314.27   22.40
   4  -1   3  307.27   24.40
   4  -2  -3   13.40    6.20
  -2  -2  -3   12.40    7.50
  -2  -2  -3    8.90   12.50
   2  -4  -3   10.00    6.40
   2   2  -3   10.90    7.20
   2   2  -3   24.00    7.80
   2  -4  -3   14.90    7.00
   4  -2  -3   12.40    5.80
   2   2  -3    6.10    8.30
   4  -2  -3   11.70    7.50
   2  -4  -3   13.50    7.30
   4  -2   3   23.60    8.90
  -2  -2   3   11.00   11.30
  -2   4   3    3.70    7.40
  -2   4   3   13.90    7.00
   2   2   3   24.30   11.60
   2   2   3    8.10    2.90
   2   2   3   10.00    6.30
   4  -2   3   14.20    5.30
   4  -3  -3  371.76   28.50
   1  -4  -3  345.57   26.80
   3   1  -3  294.27   26.90
   1  -4  -3  327.77   31.00
   3   1  -3  305.87   24.70
  -1   4  -3  343.57   22.80
  -3  -1  -3  296.47   25.70
   3   1  -3  308.07   22.70
   1  -4  -3  376.06   29.00
   4  -3  -3  311.57   24.40
   4  -3  -3  333.37   24.90
   1  -4   3  375.96   29.20
   4  -3   3  352.66   24.60
  -1   4   3  357.46   25.00
   3   1   3  353.66   30.50
   1  -4   3  402.06   28.50
   4  -3   3  373.16   26.20
   1  -4   3  374.86   25.70
  -1   4   3  317.97   24.90
   1  -4   3  397.56   25.60
   4  -3   3  312.87   26.50
   4  -4  -3  250.47   19.80
   0  -4  -3  237.08   26.80
   4   0  -3  208.88   19.70
   4  -4  -3  279.67   23.50
  -4   4  -3  214.08   19.50
   4  -4  -3  259.67   20.40
   0  -4  -3  272.87   24.60
   0  -4   3  220.88   24.30
   0   4   3  214.88   19.40
   0   4   3  234.38   18.80
  -4   4   3  230.78   20.40
  -1  -4  -3    8.70   15.30
   4  -5  -3    9.90    8.30
   1   4  -3   23.70   10.40
  -1  -4   3    0.90   13.40
   4  -5   3   50.29   12.10
   2   3  -3  137.39   16.60
   5  -2  -3  157.08   19.40
   5  -2  -3  154.78   14.50
   3  -5  -3  175.88   17.70
   2   3  -3  154.78   17.00
  -3   5  -3  165.68   15.50
  -2  -3  -3  130.39   26.80
   3  -5   3  193.08   17.20
   5  -2   3  142.59   13.30
   3  -5   3  185.58   20.50
  -2  -3   3  127.99   21.10
   3  -5   3  188.28   19.60
   5  -3  -3  154.08   14.90
   5  -3  -3  138.69   14.50
   2  -5  -3  195.38   20.00
   2  -5  -3  187.78   26.30
   3   2  -3  154.88   16.90
  -2   5   3  155.28   17.30
  -3  -2   3  145.79   26.80
   2  -5   3  180.78   20.40
   5  -3   3  153.38   14.60
   5  -3   3  172.18   19.00
   1  -5  -3    3.10   11.80
   1  -5  -3   13.60    9.80
   5  -4  -3    4.50    8.20
  -1   5   3    8.40   10.20
   1  -5   3   12.40   12.10
   0   0  -4 1669.13  102.29
   0   0  -4 1560.14  102.09
   0   0  -4 1601.84  102.39
   0   0   4 1774.62  100.59
   0   0   4 1611.94  101.99
   0   0   4 1778.62  102.99
   0   0   4 1609.64  101.99
   0   1  -4 5365.16  308.67
   1   0  -4 4698.83  307.57
   0   1  -4 5119.69  308.07
   1  -1  -4 5590.44  312.27
   0   1  -4 5174.68  308.37
  -1   1  -4 5381.96  308.47
   0  -1  -4 5030.70  309.07
   1  -1  -4 5240.28  309.57
  -1   1  -4 5224.58  308.17
   1  -1  -4 5530.25  310.77
   1   0  -4 5417.06  309.77
   1   0  -4 4902.91  310.27
  -1   0  -4 5304.07  313.57
  -1   0  -4 4406.26  307.77
   0  -1  -4 5281.57  309.97
  -1   1  -4 5325.97  309.97
   0  -1   4 5060.59  310.77
   0  -1   4 4998.40  309.27
  -1   0   4 5035.70  307.17
  -1   0   4 5360.96  308.97
   1  -1   4 4898.71  309.37
  -1   1   4 5196.48  307.87
   0   1   4 4823.52  308.47
  -1   0   4 5222.38  308.97
   1  -1   4 5116.19  309.07
   0   1   4 5745.93  308.37
   1   0   4 4763.02  308.77
   1   0   4 4918.41  308.47
   1  -1   4 5291.57  309.67
   0   1   4 5461.85  308.77
   1  -1   4 5193.78  311.07
   1   0   4 4864.61  308.87
   1   0   4 5062.39  310.67
   0  -1   4 4684.53  312.87
  -1   1   4 5165.68  308.47
  -1  -1  -4  788.52   46.10
  -1   2  -4  739.33   43.60
   1   1  -4  698.43   43.80
   1  -2  -4  670.03   45.40
   1  -2  -4  746.13   43.40
   1  -2  -4  716.83   43.40
  -1   2  -4  709.33   43.40
   2  -1  -4  701.03   45.00
  -1  -1  -4  774.62   44.50
   2  -1  -4  712.43   43.20
   1  -2  -4  683.83   44.30
  -2   1  -4  705.73   42.80
  -2   1  -4  707.33   43.70
   1   1  -4  702.93   42.90
   2  -1  -4  792.32   44.20
   1   1  -4  700.73   43.60
   1   1   4  699.93   42.40
  -1  -1   4  664.03   44.50
  -1  -1   4  676.23   44.80
   1   1   4  668.73   45.50
  -1   2   4  711.93   43.60
   1   1   4  567.94   43.90
   1  -2   4  675.53   43.90
   2  -1   4  637.04   43.80
   1   1   4  594.74   41.50
  -1  -1   4  653.43   44.70
   2  -1   4  600.04   43.80
  -1   2   4  660.73   43.30
   1  -2   4  691.63   45.70
   1  -2   4  638.94   44.20
  -2   1   4  685.53   42.70
   1  -2   4  636.34   43.20
  -1  -1   4  689.03   46.30
  -2   1   4  708.63   43.30
   2  -1   4  632.04   42.60
  -2   2  -4 2939.71  187.88
   0  -2  -4 2971.70  187.58
   0   2  -4 3194.88  187.98
  -2   0  -4 3071.79  186.38
   0   2  -4 3224.98  188.78
  -2   0  -4 3387.36  189.38
   0   2  -4 3114.09  187.98
  -2   2  -4 3390.06  187.78
   2  -2  -4 3278.07  188.38
   2   0  -4 3037.80  189.98
   2   0  -4 2792.42  190.68
   2  -2  -4 2924.61  189.58
   2   0  -4 3048.20  188.98
   0  -2  -4 2787.22  190.48
   2  -2  -4 3265.57  188.28
   2   0  -4 3288.87  188.68
   2  -2  -4 3480.55  190.68
   2   0  -4 3077.19  190.78
  -2   2  -4 3288.87  188.08
   0  -2  -4 2799.12  187.58
   0  -2  -4 3086.29  187.48
   0  -2  -4 2910.41  189.88
   0   2   4 3289.07  187.68
   2  -2   4 3199.18  190.08
   0  -2   4 3318.17  188.78
  -2   2   4 2944.11  188.08
   2   0   4 2861.21  187.68
   2   0   4 3058.69  187.68
   0  -2   4 3175.08  188.18
  -2   0   4 3008.30  187.28
   2   0   4 3233.08  187.58
   0  -2   4 3188.88  191.38
   2   0   4 2964.50  187.38
   2  -2   4 3305.37  188.98
   2  -2   4 3011.30  187.98
   0  -2   4 3325.57  190.38
  -2   2   4 3037.80  187.68
   0   2   4 3057.09  187.98
   1   2  -4 2104.99  123.99
  -2   3  -4 2010.90  124.59
   3  -1  -4 1959.40  123.49
   2  -3  -4 2071.59  124.59
   3  -1  -4 2053.39  124.59
  -1  -2  -4 2091.59  127.99
   2  -3  -4 1934.71  126.19
  -2   3  -4 2106.69  124.79
   1   2  -4 2009.30  124.79
  -2   3  -4 2098.19  124.59
  -1  -2  -4 2010.70  127.19
   2  -3  -4 1994.20  124.49
   1   2  -4 2150.08  124.19
   2  -3  -4 2043.50  125.99
   3  -1  -4 1937.61  125.69
   2  -3   4 2130.89  125.29
   3  -1   4 1987.30  123.09
  -1  -2   4 2111.29  124.29
   2  -3   4 2082.89  124.79
   3  -1   4 2061.19  124.59
  -1  -2   4 2088.39  127.79
  -1  -2   4 1906.81  124.99
   1   2   4 1970.10  124.89
   2  -3   4 1938.91  126.69
  -2   3   4 2066.39  124.19
  -2   3   4 1930.21  124.49
   1   2   4 2081.69  122.99
  -3   1   4 2007.30  123.39
   2  -3   4 2006.90  125.99
   3  -1   4 2157.38  125.39
  -1   3  -4 1986.90  123.89
   1  -3  -4 1941.41  124.49
   3  -2  -4 1808.72  124.29
   2   1  -4 1947.61  123.09
   1  -3  -4 2000.70  123.69
  -2  -1  -4 2080.89  126.59
  -1   3  -4 2003.30  124.59
  -3   2  -4 2130.59  123.49
   1  -3  -4 2132.09  127.59
   2   1  -4 2105.39  124.39
  -2  -1  -4 2081.89  127.59
   2   1  -4 2114.49  125.19
   3  -2  -4 2057.79  124.09
   3  -2  -4 2006.00  123.79
   3  -2  -4 1995.40  126.29
   1  -3  -4 1936.61  123.89
  -1   3  -4 2074.49  124.39
  -3   2  -4 2034.90  123.49
   1  -3   4 2107.19  127.29
   1  -3   4 2096.19  126.39
   3  -2   4 2022.80  124.79
  -1   3   4 2143.19  123.79
  -3   2   4 2026.00  123.29
   3  -2   4 2057.79  123.79
   3  -2   4 1911.21  125.59
   2   1   4 2017.70  121.69
   1  -3   4 2066.99  124.09
   1  -3   4 2010.20  123.99
  -2  -1   4 2105.89  129.19
   2   1   4 1885.51  123.49
   2   1   4 2021.30  125.89
  -1   3   4 1989.00  123.59
  -3   2   4 2122.19  123.89
   0   3  -4  258.87   17.70
  -3   3  -4  225.58   17.70
  -3   3  -4  215.88   15.90
  -3   0  -4  245.28   17.60
   0  -3  -4  257.67   21.60
   0  -3  -4  248.68   23.30
   3  -3  -4  239.98   17.80
   3  -3  -4  243.28   20.70
  -3   3  -4  256.87   18.30
   3   0  -4  249.88   16.50
   3   0  -4  213.08   18.50
   3  -3  -4  217.78   17.50
   3  -3  -4  256.77   18.20
   3   0  -4  251.27   19.90
   0   3  -4  247.78   17.80
   0   3  -4  253.37   19.10
   0  -3   4  197.78   17.10
  -3   3   4  208.38   17.30
   3  -3   4  197.38   19.20
   0  -3   4  192.18   20.20
   3   0   4  182.08   15.30
  -3   3   4  197.98   18.20
   0   3   4  203.18   17.50
   3  -3   4  201.68   18.20
   0  -3   4  191.28   19.00
   3   0   4  231.38   17.50
   3  -3   4  185.68   19.50
  -3   3   4  173.98   18.30
   0   3   4  196.58   18.70
   0   3   4  205.08   16.80
  -1  -3  -4  963.60   66.09
   3  -4  -4  958.80   62.49
   1   3  -4 1004.00   60.99
  -3   4  -4 1024.80   60.29
   4  -1  -4  962.70   58.49
   1   3  -4  865.41   59.19
   3  -4  -4  961.80   60.29
   3  -4  -4  866.81   61.29
  -3   4  -4  849.41   59.29
   4  -1  -4  896.61   59.19
  -3   4  -4  862.01   59.89
   3  -4  -4  972.60   60.39
  -1  -3  -4  955.10   64.29
   1   3  -4  980.90   59.79
   4  -1  -4  992.50   62.09
  -3   4   4  995.60   60.19
  -3   4   4  937.31   59.89
   3  -4   4  975.10   60.39
   4  -1   4  885.11   59.79
   1   3   4  948.51   58.39
   4  -1   4  908.11   57.69
   1   3   4  964.10   59.69
  -3   4   4 1030.20   60.99
   3  -4   4  860.01   62.29
  -1  -3   4  962.00   64.29
   1   3   4 1001.80   60.39
   3  -4   4  901.31   60.49
   3  -4   4  869.71   61.39
   2  -4  -4  145.29   16.10
   4  -2  -4  159.88   17.60
  -2   4  -4  148.69   14.30
  -2   4  -4  153.78   14.60
   2   2  -4  135.39   12.70
   4  -2  -4  140.89   13.00
   2  -4  -4  143.89   13.70
   2   2  -4  144.99   16.10
   2  -4  -4  154.28   14.10
  -2  -2  -4  163.58   18.20
  -2  -2  -4  125.59   20.10
  -2   4  -4  137.19   13.80
   2  -4  -4  145.79   16.40
   2   2  -4  159.18   15.30
   4  -2  -4  148.39   13.00
  -2   4   4  125.29   13.80
   2  -4   4  115.49   14.40
   2  -4   4  126.09   15.40
   2  -4   4  115.89   15.30
   2   2   4  132.59   12.40
   4  -2   4  106.89   15.10
   2  -4   4  127.49   17.20
  -2   4   4  140.09   15.20
   4  -2   4  129.49   15.60
   4  -2   4  117.29   12.20
  -2  -2   4  121.69   19.50
   2   2   4  133.79   18.10
  -2   4   4  131.19   14.30
  -1   4  -4  991.70   61.29
   4  -3  -4  981.40   63.69
  -3  -1  -4  891.91   61.79
   1  -4  -4  807.52   61.29
   1  -4  -4 1003.20   66.19
  -1   4  -4  995.80   60.59
   1  -4  -4  925.61   64.49
   4  -3  -4  886.11   60.29
   4  -3  -4  981.20   60.49
   3   1  -4  861.31   62.49
   3   1  -4  956.70   59.19
   3   1  -4  936.51   60.59
   1  -4   4  951.00   60.79
  -1   4   4  972.80   60.09
   1  -4   4  923.81   60.69
   3   1   4  991.50   63.89
   4  -3   4  938.71   62.09
   4  -3   4  992.30   63.19
   1  -4   4  991.30   64.79
   4  -3   4  942.01   60.29
  -1   4   4  965.10   60.29
   1  -4   4 1005.40   63.79
   0  -4  -4  701.43   50.29
   0   4  -4  560.34   43.90
   4   0  -4  669.93   42.30
  -4   4  -4  661.83   44.50
   4   0  -4  655.73   44.30
   4   0  -4  638.54   45.80
   4  -4  -4  638.54   44.50
   4  -4  -4  701.73   45.30
   0   4  -4  756.32   45.00
   0   4  -4  744.23   46.20
   4  -4  -4  676.03   48.20
   0  -4  -4  697.63   49.70
   0  -4   4  701.43   48.70
   4  -4   4  670.73   48.30
   4  -4   4  690.23   46.20
   0   4   4  681.63   43.90
   0   4   4  681.93   44.60
  -4   4   4  742.23   46.20
   4  -4   4  692.53   45.00
  -4   4   4  602.24   43.90
   1   4  -4   52.69   12.10
   4  -5  -4   59.99   11.10
  -4   5  -4   42.80   10.50
  -4   5  -4   60.39   12.70
  -1  -4  -4   50.99   16.10
   4  -5   4   47.30   10.30
  -1  -4   4   34.00   13.10
   4  -5   4   53.79   15.00
   4  -5   4   31.00   11.40
  -4   5   4   42.40   11.70
   4  -5   4   35.80   11.00
  -2  -3  -4  459.85   42.80
   5  -2  -4  438.86   31.30
  -3   5  -4  432.16   32.30
  -3   5  -4  439.56   32.30
   3  -5  -4  483.85   32.90
   2   3  -4  482.05   33.80
   5  -2  -4  479.95   31.40
  -3   5  -4  489.55   33.50
   2   3  -4  410.26   33.10
   3  -5  -4  468.35   36.30
   5  -2  -4  506.65   36.10
   3  -5   4  453.85   32.80
  -2  -3   4  471.95   39.80
   5  -2   4  479.85   30.90
   3  -5   4  477.75   36.00
   3  -5   4  497.55   37.60
   3  -5   4  426.56   33.10
   2   3   4  489.25   35.30
  -2   5  -4  492.65   34.50
   2  -5  -4  521.95   41.60
   3   2  -4  476.95   35.20
   2  -5  -4  504.25   38.80
  -3  -2  -4  474.45   36.90
   5  -3  -4  468.95   33.30
   5  -3  -4  461.05   34.10
   2  -5   4  485.15   37.20
  -3  -2   4  518.25   41.90
   3   2   4  469.15   38.20
  -2   5   4  470.55   34.40
   2  -5   4  534.75   39.90
   5  -3   4  502.85   37.00
   5  -3   4  490.55   33.70
  -1   5  -4   40.00   10.90
   1  -5  -4   65.59   18.90
   5  -4  -4   62.09   10.80
  -1   5  -4   37.90   10.30
  -1   5   4   30.20   12.10
   4   1   4   45.70   21.10
   1  -5   4   35.60   12.40
   5  -4   4   42.20    9.50
   1  -5   4   42.90   17.70
   5  -4   4   40.40   12.30
   0   0  -5   10.30    6.00
   0   0  -5    9.60    5.60
   0   0  -5    7.50    5.60
   0   0   5    7.60    5.80
   0   0   5   11.40    9.00
   0   0   5    2.60    5.10
   0   1  -5  678.63   43.50
  -1   0  -5  568.04   43.60
   0  -1  -5  656.73   42.20
   1   0  -5  671.13   45.00
  -1   1  -5  689.63   43.70
   1   0  -5  607.44   44.70
  -1   1  -5  695.43   43.20
  -1   0  -5  575.14   42.20
   0  -1  -5  643.84   45.80
   1  -1  -5  730.43   44.90
   0   1  -5  656.93   43.30
  -1   1  -5  655.63   43.10
   1  -1  -5  653.73   43.20
   1   0  -5  741.73   45.70
   0  -1  -5  678.23   42.90
   1  -1  -5  661.33   43.40
   0   1  -5  657.53   42.90
  -1   1   5  726.23   42.70
  -1   0   5  679.63   41.50
   1   0   5  713.03   44.70
  -1   1   5  755.42   43.60
   0  -1   5  690.13   44.10
   0   1   5  742.63   44.90
   0  -1   5  706.33   43.70
   1   0   5  662.93   44.50
   1  -1   5  682.43   44.40
   1  -1   5  731.23   43.20
   1  -1   5  688.13   42.20
   1  -1   5  773.92   44.30
   1   0   5  666.53   44.40
  -1   0   5  713.43   44.50
   0  -1   5  760.62   46.40
   0   1   5  614.04   43.40
  -1   0   5  628.14   44.20
   0   1   5  691.23   43.60
   1  -2  -5    6.80    4.30
  -2   1  -5    2.90    3.60
   1   1  -5    6.70    6.10
   1   1  -5    7.80    6.10
  -1   2  -5   -0.30    4.00
   2  -1  -5    8.60    4.50
  -1  -1  -5   10.50    5.00
  -1   2  -5   20.00    6.10
  -1   2  -5    6.40    4.00
   2  -1  -5   -2.70    6.20
   2  -1  -5    5.80    5.40
  -2   1  -5    0.30    3.60
   1  -2  -5    0.30    4.20
  -1  -1  -5   11.40    5.70
  -1  -1  -5    5.20    1.60
   1   1  -5    7.20    5.20
   1  -2  -5   12.20    5.80
   1  -2  -5    0.90    4.50
   1   1   5    0.80    8.00
   1   1   5   11.80    5.30
   1   1   5    4.10    4.70
   2  -1   5    2.90    4.90
   1   1   5   10.10    2.90
   2  -1   5    5.70    4.30
   1  -2   5   15.70    6.00
  -1  -1   5   -3.40    7.70
  -1  -1   5    1.20    6.80
  -1  -1   5    4.50    6.80
   2  -1   5   -1.60    6.00
  -1   2   5   10.10    4.40
   1   1   5   -5.20    8.10
  -2   1   5    4.60    5.00
   1  -2   5    2.40    6.30
   1  -2   5    0.90    4.30
  -1   2   5    3.90    5.80
  -2   1   5    7.30    4.80
  -1  -1   5    3.40    7.20
  -2   2  -5  434.06   29.20
   0  -2  -5  384.06   28.30
   0  -2  -5  440.86   32.80
   2  -2  -5  440.46   29.50
  -2   2  -5  461.15   29.50
   2  -2  -5  382.96   30.70
   2  -2  -5  439.46   29.40
   0   2  -5  462.75   30.20
   0   2  -5  439.66   29.40
   0   2  -5  444.56   29.40
   2  -2  -5  423.76   31.40
  -2   0  -5  448.56   30.30
   2   0  -5  421.56   31.40
   2   0  -5  443.96   31.20
  -2   2  -5  458.45   29.10
   0  -2  -5  394.86   28.30
   0  -2  -5  393.56   28.30
   2   0  -5  388.66   31.60
   0  -2   5  458.45   29.60
   0   2   5  488.75   30.70
  -2   0   5  464.75   29.20
   2   0   5  433.56   30.10
   2  -2   5  446.36   31.20
   0  -2   5  503.25   32.00
   2  -2   5  486.85   30.80
   2   0   5  466.65   30.30
   2   0   5  412.66   29.70
   2   0   5  374.66   27.50
   2  -2   5  445.66   29.20
   0   2   5  461.75   28.70
   2  -2   5  416.56   29.10
  -2   2   5  493.85   29.60
   0  -2   5  471.55   31.40
   2   0   5  455.25   28.70
   3  -1  -5  311.87   23.50
  -1  -2  -5  303.87   26.20
  -3   1  -5  266.87   21.00
   1   2  -5  298.17   22.40
  -2   3  -5  317.97   23.20
  -2   3  -5  341.87   24.00
   2  -3  -5  276.27   22.80
   3  -1  -5  305.97   22.30
   1   2  -5  306.57   22.90
   2  -3  -5  319.97   23.20
   2  -3  -5  274.07   23.80
   2  -3  -5  274.17   24.70
  -2   3  -5  359.66   23.40
   1   2  -5  341.27   23.80
   3  -1  -5  258.57   24.90
  -1  -2  -5  289.77   25.90
   3  -1   5  319.07   23.20
  -3   1   5  312.57   22.10
   1   2   5  328.27   21.00
   2  -3   5  359.16   24.60
  -1  -2   5  303.07   25.00
  -1  -2   5  315.27   26.40
   2  -3   5  361.96   26.70
  -2   3   5  319.97   23.40
   3  -1   5  351.76   21.60
   3  -1   5  338.47   24.00
   2  -3   5  298.57   23.40
  -2   3   5  343.07   23.40
   2  -3   5  351.26   23.70
   1   2   5  294.07   25.90
   1  -3  -5  305.97   22.60
   1  -3  -5  303.17   22.60
  -3   2  -5  312.57   22.90
   3  -2  -5  304.27   22.70
   2   1  -5  307.97   25.10
   1  -3  -5  259.77   22.50
  -1   3  -5  314.07   23.00
  -2  -1  -5  328.47   25.90
  -1   3  -5  331.67   23.80
  -2  -1  -5  318.07   25.40
   2   1  -5  323.77   24.00
   2   1  -5  281.77   22.00
   3  -2  -5  292.67   22.90
  -1   3  -5  322.87   23.40
   3  -2  -5  267.37   24.50
   1  -3  -5  281.37   25.20
  -3   2  -5  277.77   21.50
   3  -2   5  354.46   25.40
   1  -3   5  311.67   23.20
   2   1   5  316.07   20.10
  -3   2   5  358.66   23.20
   1  -3   5  331.77   25.10
   2   1   5  311.77   24.80
  -1   3   5  301.77   22.50
   3  -2   5  370.46   24.80
   1  -3   5  334.27   26.80
  -2  -1   5  337.17   27.70
   1  -3   5  330.37   23.60
  -1   3   5  343.17   23.70
   2   1   5  306.77   27.50
  -3   2   5  337.67   22.50
   3  -2   5  325.57   22.40
   0   3  -5   -1.10    7.90
   3  -3  -5    1.30    6.20
  -3   3  -5   11.50    5.80
   3  -3  -5    2.20    6.50
   3  -3  -5    0.80    5.30
   3   0  -5   -0.50    6.20
   3   0  -5   -1.10    7.70
   0  -3  -5    7.00    7.60
   0  -3  -5   -0.90    9.10
  -3   3  -5   11.00    8.50
  -3   0  -5    0.00    4.30
   3   0  -5    1.60    8.40
   0   3  -5    3.50    7.20
   0   3   5   -1.40    9.70
  -3   3   5    7.40    7.70
   0  -3   5    1.20    7.90
   0  -3   5   -0.80    6.70
  -3   3   5   -9.90    8.60
   3  -3   5    9.80    9.60
   3  -3   5    7.60    8.90
   0   3   5    4.10    4.90
   0  -3   5    1.30   10.30
   3  -3   5    3.30    6.30
   3   0   5   -0.30    6.40
   3   0   5   -2.10    7.90
   4  -1  -5  153.98   14.00
   3  -4  -5  195.58   18.90
   3  -4  -5  176.68   16.40
  -3   4  -5  140.09   16.00
   1   3  -5  183.98   17.30
   1   3  -5  170.48   15.20
  -1  -3  -5  123.29   22.50
   3  -4  -5  139.99   16.80
  -1  -3  -5  140.79   18.20
   4  -1  -5  136.29   14.60
   3  -4  -5  149.79   15.50
   4  -1  -5  160.18   18.60
  -1  -3   5  145.39   20.10
   1   3   5  180.68   14.20
   4  -1   5  158.28   13.00
  -3   4   5  147.79   16.80
   1   3   5  147.79   14.70
   4  -1   5  161.98   16.90
   1   3   5  193.58   19.90
  -3   4   5  164.98   16.00
  -2  -2  -5   -2.10   11.30
  -2   4  -5    8.70    7.00
   4  -2  -5   -1.80    6.30
   2   2  -5    7.20    7.40
  -2  -2  -5    3.90    7.90
   2  -4  -5    2.30    7.20
   2  -4  -5    1.40    7.40
   2  -4  -5    0.20    6.90
   2   2  -5    2.50    8.10
   2  -4  -5    3.90    6.80
   4  -2  -5    3.10    8.60
  -2   4  -5   19.50    8.20
   4  -2  -5   18.50    7.40
   2   2  -5    2.60   10.30
   2   2   5   -4.60   14.40
   2   2   5    3.80    3.70
  -2   4   5   -3.30    7.60
   2  -4   5    5.30    8.60
   2  -4   5    0.70    7.80
  -2  -2   5    2.60   11.40
  -2   4   5   -5.70    9.70
   4  -2   5   12.10   10.80
   4  -2   5    5.50    5.60
   4  -2   5    1.00    8.90
  -2   4   5   -2.70    7.80
   2   2   5    0.80    7.30
   2  -4   5    2.20    7.20
   2  -4   5    4.50    8.00
   1  -4  -5  154.28   23.60
   3   1  -5  147.19   16.80
   4  -3  -5  152.68   15.40
   1  -4  -5  153.58   18.70
   3   1  -5  112.89   19.50
   4  -3  -5  148.39   15.40
   3   1  -5  142.89   16.40
  -3  -1  -5  141.09   16.50
   3   1   5  189.88   23.90
  -1   4   5  178.38   15.70
   4  -3   5  182.88   15.60
  -1   4   5  178.48   17.20
   1  -4   5  177.08   16.90
   4  -3   5  175.68   18.30
   1  -4   5  169.98   17.80
   1  -4   5  158.88   18.50
  -4   4  -5  126.69   14.60
   4  -4  -5  114.49   13.90
   0   4  -5  145.19   15.50
   0  -4  -5  117.99   17.20
   4   0  -5   92.49   14.70
   0   4  -5  121.09   13.30
   4   0  -5  111.99   11.00
   0  -4  -5  112.79   22.00
  -4   4   5  120.49   16.70
   0   4   5  129.39   13.00
   0   4   5  111.69   14.80
   0   4   5  127.39   17.00
  -4   4   5  105.39   14.00
   0  -4   5  102.69   19.30
   1   4  -5    6.90   12.50
   5  -1  -5    9.10   10.50
  -4   5  -5    5.20    9.60
   1   4  -5    3.50    9.00
   4  -5  -5    0.90    8.60
  -1  -4  -5   -3.80   16.20
   1   4   5    2.80    7.70
   4  -5   5   10.20   12.10
   4  -5   5   22.90    9.80
   4  -5   5   11.20    9.40
   4  -5   5    0.80    9.90
   1   4   5   -0.10   14.20
  -4   5   5   -1.80   11.50
   3  -5  -5   88.79   13.40
   2   3  -5   95.99   18.20
   5  -2  -5   81.19   12.20
   5  -2  -5   79.39   15.20
   3  -5  -5   79.79   14.80
   5  -2  -5   66.99   12.00
   3  -5   5  111.19   14.40
   2   3   5   83.59   17.10
  -3   5   5   98.39   14.70
  -2  -3   5   90.59   20.10
   5  -2   5   85.79   11.10
   2  -5  -5  109.29   22.90
  -3  -2  -5   68.99   14.40
   3   2  -5   90.09   15.60
   5  -3  -5   90.59   12.40
   5  -3  -5   70.59   12.50
   2  -5   5  108.69   17.30
  -2   5   5   72.09   14.40
   5  -3   5   91.79   14.80
   5  -3   5   97.39   16.60
   3   2   5  104.79   19.90
   2  -5   5  130.69   18.50
   5  -3   5  104.39   12.80
   5  -4  -5    1.00    8.40
  -1   5  -5   26.30   10.90
  -1   5  -5   12.70    8.90
   1  -5  -5   -1.70   15.40
   5  -4   5   25.10   11.80
   1  -5   5    0.00   12.00
  -1   5   5   -0.90   10.30
   4   1   5   -0.70   18.40
   5  -4   5    4.10    9.50
   0   0  -6 3574.44  229.08
   0   0  -6 3566.24  228.78
   0   0  -6 3973.50  229.28
   0   0  -6 3653.93  228.58
   0   0   6 3532.25  228.48
   0   0   6 3846.72  226.88
   0   0   6 4265.17  230.48
  -1   1  -6 3421.46  204.48
   0  -1  -6 3725.13  208.48
   1   0  -6 3414.36  205.88
   1   0  -6 3579.04  206.98
  -1   1  -6 3502.75  204.58
   1  -1  -6 3559.04  205.98
   0  -1  -6 3645.04  203.58
   0   1  -6 3445.26  204.88
   1  -1  -6 3454.15  204.78
   0   1  -6 3685.13  205.18
  -1   0  -6 3504.65  204.88
  -1   0  -6 3171.08  203.48
  -1   0  -6 3457.05  205.18
   0   1  -6 3547.75  204.38
   1  -1  -6 3524.25  204.78
  -1   1  -6 3560.14  205.38
   0  -1  -6 3541.15  204.28
   0  -1   6 3231.58  204.98
   1  -1   6 3101.69  205.78
  -1   1   6 3608.64  203.98
   0   1   6 3262.07  204.28
   0  -1   6 3295.67  206.68
  -1   0   6 3019.80  205.08
   1  -1   6 3526.45  205.38
   1  -1   6 3287.17  204.28
   1   0   6 3165.28  205.58
  -1   1   6 3266.27  204.88
  -1   0   6 3183.98  202.68
   1  -1   6 3161.98  204.08
   1   0   6 3182.78  205.08
   1   0   6 3099.89  204.98
   0   1   6 3446.96  205.98
   0  -1   6 3068.79  205.08
  -1   0   6 3316.57  205.78
  -1  -1  -6 2159.38  128.89
   1   1  -6 1880.91  126.49
   1   1  -6 2024.10  125.99
   2  -1  -6 2005.60  125.69
  -2   1  -6 1941.11  125.09
   1  -2  -6 1882.21  126.09
  -1   2  -6 2087.39  125.89
   1  -2  -6 1939.01  128.39
   1   1  -6 1993.20  125.29
   2  -1  -6 1861.11  127.19
   2  -1  -6 2077.59  126.59
  -1   2  -6 1965.20  125.19
  -1  -1  -6 1915.11  125.49
   1  -2  -6 1992.20  125.09
   1  -2  -6 2029.30  125.09
  -1  -1  -6 1927.71  124.09
  -2   1   6 2108.79  125.49
   1   1   6 2324.47  126.59
  -1  -1   6 2170.68  128.79
  -1   2   6 2192.78  125.49
   1  -2   6 2075.09  127.99
  -1  -1   6 2176.28  126.59
   1   1   6 1982.00  126.39
   1  -2   6 2193.78  126.39
   1  -2   6 2094.99  125.59
  -2   1   6 2095.99  124.29
   2  -1   6 2155.48  126.09
   1  -2   6 2065.09  126.09
   1   1   6 2195.28  127.19
  -1  -1   6 2191.88  126.69
  -1  -1   6 2018.50  127.29
   2  -1   6 2035.10  126.49
   2  -1   6 2051.29  125.09
   0  -2  -6 2210.38  132.09
   2  -2  -6 2140.59  127.89
   2   0  -6 2117.09  129.99
   2   0  -6 2010.80  129.09
   0  -2  -6 2006.70  126.89
  -2   2  -6 2229.28  127.99
  -2   2  -6 2295.97  128.09
   0   2  -6 2206.78  128.19
  -2   0  -6 2220.88  129.89
  -2   2  -6 1999.90  127.59
   2  -2  -6 2055.79  130.99
   0  -2  -6 1848.32  127.09
   2  -2  -6 2299.07  128.49
   0  -2  -6 2144.69  127.19
   2   0  -6 2089.39  130.09
   0   2  -6 2187.78  128.59
   0   2  -6 2115.89  127.69
   2  -2   6 1850.51  127.09
   2   0   6 2037.40  128.49
   0  -2   6 2165.58  130.29
   2   0   6 2126.09  128.29
   2  -2   6 1990.30  127.69
   2   0   6 2102.89  128.19
  -2   2   6 2128.99  127.49
  -2   0   6 1895.81  127.39
   0  -2   6 2077.99  128.19
  -2   2   6 2245.38  128.29
   2  -2   6 2040.20  129.99
   0   2   6 1791.92  127.19
   0  -2   6 2249.27  130.29
   2  -2   6 2161.98  128.79
   0   2   6 1990.50  128.19
  -2   3  -6 1339.37   84.59
  -2   3  -6 1428.06   84.69
   2  -3  -6 1386.86   87.59
  -1  -2  -6 1459.55   89.19
  -2   3  -6 1236.98   84.49
   1   2  -6 1454.25   85.29
   3  -1  -6 1461.45   87.09
   3  -1  -6 1428.76   85.59
   3  -1  -6 1350.06   83.99
   2  -3  -6 1460.25   86.89
   1   2  -6 1373.86   83.99
   1   2  -6 1391.16   85.09
   2  -3  -6 1413.16   84.89
  -1  -2  -6 1379.56   87.79
   2  -3  -6 1426.46   84.79
   2  -3   6 1312.57   85.19
   3  -1   6 1368.66   85.09
  -2   3   6 1306.17   84.79
   3  -1   6 1406.56   83.79
  -2   3   6 1367.46   84.29
   2  -3   6 1384.76   84.79
   1   2   6 1459.85   83.39
   3  -1   6 1184.28   84.49
   2  -3   6 1290.47   87.29
  -1  -2   6 1261.57   85.89
  -1  -2   6 1378.46   87.79
   1   2   6 1248.48   85.59
   2  -3   6 1269.07   85.09
  -3   1   6 1189.28   84.09
  -3   2  -6 1322.37   85.59
  -2  -1  -6 1611.34   88.09
  -1   3  -6 1447.36   86.89
  -1   3  -6 1335.57   86.29
   3  -2  -6 1408.36   89.09
   3  -2  -6 1413.56   86.19
   2   1  -6 1264.67   85.79
   2   1  -6 1440.46   87.29
   2   1  -6 1614.14   89.69
   2   1  -6 1501.55   87.79
   1  -3  -6 1356.96   89.79
   3  -2  -6 1437.16   86.69
  -1   3  -6 1461.05   87.29
  -3   2  -6 1434.36   86.59
  -2  -1  -6 1409.06   89.29
   1  -3  -6 1313.87   85.99
   1  -3  -6 1301.77   85.79
   1  -3  -6 1349.66   86.89
   2   1   6 1419.96   84.59
  -3   2   6 1375.46   85.59
  -1   3   6 1384.36   86.49
   3  -2   6 1298.07   87.99
   2   1   6 1397.26   87.19
   1  -3   6 1371.26   88.29
   3  -2   6 1341.07   85.89
   1  -3   6 1305.07   89.49
  -2  -1   6 1392.76   91.09
   1  -3   6 1386.46   86.69
  -3   2   6 1429.16   86.29
   1  -3   6 1340.97   86.99
  -1   3   6 1297.27   86.09
   2   1   6 1386.86   88.19
   3  -2   6 1347.87   87.19
   0  -3  -6  727.93   56.69
   0   3  -6  790.72   53.79
  -3   3  -6  764.52   52.89
  -3   3  -6  815.72   53.09
   3   0  -6  832.72   53.29
   3   0  -6  851.81   55.49
   3  -3  -6  770.52   53.09
   3  -3  -6  791.12   53.19
   0   3  -6  835.02   53.29
   3   0  -6  782.42   55.19
   0   3  -6  792.42   52.89
   0  -3  -6  843.52   58.09
   3  -3  -6  724.53   54.99
   3  -3  -6  727.63   54.09
   3   0   6  895.61   51.99
   0  -3   6  863.51   53.39
  -3   3   6  902.31   53.19
   0  -3   6  899.41   55.99
   3  -3   6  854.31   53.29
   3  -3   6  895.61   54.89
  -3   3   6  896.01   53.79
   0   3   6  909.91   53.89
   3   0   6  847.42   53.69
   3  -3   6  736.33   52.79
   3  -3   6  772.72   55.19
   0  -3   6  899.01   56.29
   0   3   6  877.81   52.39
   4  -1  -6  635.44   43.70
   4  -1  -6  628.64   40.30
   1   3  -6  692.83   42.90
   3  -4  -6  594.14   41.40
   3  -4  -6  611.64   43.60
  -1  -3  -6  682.83   47.90
  -1  -3  -6  632.34   48.00
  -3   4  -6  662.53   41.70
   3  -4  -6  632.04   41.70
   1   3  -6  648.94   42.20
   4  -1  -6  656.63   41.90
  -3   4  -6  620.34   42.30
   1   3  -6  612.34   40.80
   1   3   6  623.34   41.30
   4  -1   6  589.24   42.00
  -1  -3   6  615.54   46.10
   3  -4   6  553.24   44.30
  -3   4   6  578.44   41.50
   3  -4   6  610.64   41.90
   1   3   6  651.73   43.20
   3  -4   6  555.24   42.40
  -3   4   6  612.54   41.80
   1   3   6  642.64   40.00
   4  -1   6  610.54   40.00
   3  -4   6  547.05   42.10
   2  -4  -6  543.25   42.40
   4  -2  -6  538.75   38.50
  -2   4  -6  528.35   39.40
   2   2  -6  542.35   38.10
  -2   4  -6  552.14   39.30
   4  -2  -6  594.64   42.60
   2  -4  -6  555.14   39.00
   2  -4  -6  499.65   38.30
  -2   4  -6  546.05   39.40
   2   2  -6  549.85   39.40
  -2  -2  -6  549.05   42.80
   4  -2  -6  544.45   37.90
   2   2  -6  534.05   41.10
   2  -4   6  608.04   40.70
   4  -2   6  644.64   40.80
  -2   4   6  629.44   39.60
  -2  -2   6  591.74   43.50
   2  -4   6  615.44   39.50
   4  -2   6  588.94   40.60
   2  -4   6  600.54   42.60
   2   2   6  616.04   42.10
   2   2   6  584.14   36.00
  -2   4   6  560.34   39.00
  -2   4   6  589.34   39.20
   2  -4   6  591.34   40.40
   4  -2   6  626.44   38.00
  -1   4  -6  654.03   42.50
   3   1  -6  643.94   43.30
   3   1  -6  604.64   45.30
   4  -3  -6  655.13   42.50
   4  -3  -6  626.94   45.30
   3   1  -6  637.94   43.20
   1  -4  -6  669.73   47.20
   1  -4  -6  651.33   48.70
  -1   4  -6  552.94   42.70
  -1   4  -6  607.44   42.40
   4  -3  -6  658.23   42.30
  -3  -1  -6  595.74   43.70
   1  -4   6  626.74   45.40
   3   1   6  655.43   46.40
   4  -3   6  608.94   42.20
  -1   4   6  624.74   42.30
   1  -4   6  667.63   47.50
   1  -4   6  602.34   42.60
  -1   4   6  642.54   42.90
  -1   4   6  665.43   42.70
   4  -3   6  623.64   45.30
   1  -4   6  593.74   43.20
   4  -3   6  637.94   44.30
   0  -4  -6  408.46   37.20
   0   4  -6  387.36   30.60
   4   0  -6  460.25   29.30
   0  -4  -6  471.25   36.50
   0   4  -6  489.35   32.00
   4  -4  -6  447.46   31.20
   4   0  -6  460.85   32.10
   0   4  -6  423.96   32.00
  -4   4  -6  463.05   31.50
   4  -4  -6  426.86   33.80
   0   4   6  397.26   30.90
   4  -4   6  392.26   32.40
   0  -4   6  452.45   34.60
   0   4   6  490.55   32.70
   0   4   6  450.45   30.20
  -4   4   6  420.36   32.00
   4  -4   6  452.05   31.50
   4  -4   6  380.56   33.10
  -4   4   6  355.66   29.90
   1   4  -6  132.79   16.70
  -4   5  -6  167.38   17.60
   1   4  -6  169.08   18.10
   4  -5  -6  182.68   18.80
   5  -1  -6  164.98   15.20
   5  -1  -6  179.78   20.40
   4  -5  -6  164.58   17.70
   1   4  -6  194.08   19.90
   1   4   6  179.78   15.40
   4  -5   6  192.48   18.60
  -4   5   6  189.88   19.30
   1   4   6  191.68   18.40
   4  -5   6  214.58   22.20
  -4   5   6  219.98   21.70
   4  -5   6  159.98   19.00
   1   4   6  250.17   23.90
   3  -5  -6  331.87   26.80
  -3   5  -6  292.07   24.20
   3  -5  -6  313.07   27.80
   5  -2  -6  284.47   23.30
   2   3  -6  245.38   24.40
   5  -2  -6  314.27   22.70
   3  -5  -6  325.47   24.60
   5  -2  -6  332.37   27.20
   2   3  -6  360.26   28.20
  -3   5  -6  304.07   24.60
   3  -5   6  307.07   24.90
   3  -5   6  268.47   25.20
   2   3   6  319.87   27.40
   3  -5   6  316.97   28.80
   5  -2   6  278.37   26.00
  -3   5   6  274.27   24.80
   5  -2   6  301.77   22.30
   3  -5   6  260.97   24.00
  -2  -3   6  313.27   32.00
   5  -3  -6  318.27   24.20
  -2   5  -6  296.37   24.60
   3   2  -6  333.37   26.40
   5  -3  -6  322.47   27.70
   2  -5  -6  347.97   32.50
   5  -3  -6  345.97   25.20
  -3  -2  -6  291.27   27.20
  -2   5  -6  298.97   25.00
  -2   5  -6  289.57   25.20
   3   2   6  312.17   29.90
   5  -3   6  311.57   23.90
   2  -5   6  352.56   32.80
  -2   5   6  256.87   24.90
   5  -3   6  272.57   26.60
  -2   5   6  308.87   26.40
   5  -3   6  311.47   27.70
   2  -5   6  307.17   26.80
   5  -4  -6  169.08   18.00
  -1   5  -6  164.28   19.00
  -1   5  -6  167.08   19.20
   5  -4  -6  172.48   17.70
   1  -5  -6  194.98   27.30
  -1   5  -6  150.68   17.70
   4   1   6  249.97   24.20
   5  -4   6  217.28   18.80
  -1   5   6  196.98   21.00
   5  -4   6  172.18   20.90
  -1   5   6  226.08   18.60
   5  -4   6  188.48   20.70
   0   0  -7    3.30    6.40
   0   0  -7    9.00    7.40
   0   0   7    1.20   10.70
   0   0   7    3.80    6.70
   0   0   7   -0.80    6.10
   0  -1  -7  581.84   40.40
   1  -1  -7  623.94   37.30
  -1   1  -7  574.94   38.20
  -1   1  -7  527.35   36.50
  -1   1  -7  560.24   36.90
  -1   0  -7  574.64   36.80
   1  -1  -7  532.85   37.80
   0   1  -7  586.94   37.00
   0   1  -7  581.54   37.20
   1   0  -7  580.34   37.70
   0  -1  -7  573.24   36.50
   1   0  -7  606.54   39.10
   1  -1  -7  619.94   37.80
  -1   0  -7  587.24   35.20
   0   1  -7  580.04   36.70
  -1   0  -7  555.44   37.10
   0  -1  -7  556.94   35.10
  -1   0   7  521.35   34.20
   0   1   7  491.95   38.50
   0  -1   7  532.55   39.30
   0  -1   7  530.65   37.60
   1   0   7  569.64   37.50
  -1   0   7  514.55   37.40
   1  -1   7  529.45   36.40
  -1   0   7  489.85   38.40
   1   0   7  479.95   38.60
   0  -1   7  516.25   37.50
  -1   1   7  555.54   38.10
  -1   1   7  478.45   36.70
   1   0   7  507.95   36.50
   0   1   7  498.25   37.50
   1  -1   7  492.05   34.60
   1   0   7  555.44   37.40
   0  -1   7  519.05   34.30
   0  -1   7  528.45   37.20
   0   1   7  567.44   36.30
  -1   1   7  494.95   35.50
   1  -1   7  529.65   37.70
   1  -2  -7   -1.00    4.90
  -1  -1  -7   11.40    4.80
  -1  -1  -7    0.80    3.10
   2  -1  -7   10.80    8.10
   1   1  -7   12.50    8.70
  -1   2  -7   16.90    6.30
   1   1  -7    6.70    7.00
  -2   1  -7    9.10    5.90
   1  -2  -7   25.10    9.40
   2  -1  -7   -4.70    7.20
  -1   2  -7   13.30    7.70
  -1   2  -7   10.70    5.70
   1   1  -7    5.30    8.30
  -1  -1  -7   15.10    7.00
  -1  -1  -7   -0.40    4.90
   2  -1  -7    1.80    6.80
   1  -2  -7   22.00    6.60
  -2   1   7    2.70    6.90
  -2   1   7    6.70    5.90
   1   1   7   -5.30   10.80
   1  -2   7    6.60    5.10
   1  -2   7    5.30    7.80
   1  -2   7   15.40    7.10
  -1  -1   7    2.20    8.40
  -1   2   7   -2.80    8.30
   1   1   7    7.10    8.40
   1  -2   7    8.40    9.20
   1   1   7   -2.50    9.20
  -1  -1   7   -0.50    6.90
  -1  -1   7  -10.50    9.30
  -1   2   7    1.10    6.30
   0  -2  -7  390.56   25.00
  -2   2  -7  361.56   25.60
  -2   0  -7  390.96   28.20
   2   0  -7  419.06   29.20
   0   2  -7  384.16   26.10
   0   2  -7  404.66   27.30
   0  -2  -7  374.46   29.50
   2   0  -7  344.37   28.60
   2  -2  -7  376.26   26.10
   2   0  -7  389.96   30.50
   0  -2  -7  381.96   25.50
   0  -2  -7  345.37   24.90
   0   2  -7  415.06   27.30
   2  -2  -7  422.26   26.80
   2  -2  -7  374.56   29.60
  -2   2  -7  378.76   27.40
  -2   2  -7  409.66   27.00
   0  -2   7  355.86   27.60
   2  -2   7  354.26   25.90
   2  -2   7  319.07   27.50
  -2   0   7  318.27   26.20
   0   2   7  312.57   27.20
   2  -2   7  321.07   24.10
   2   0   7  356.96   28.70
  -2   2   7  370.86   26.30
   2   0   7  332.77   26.50
   0   2   7  379.06   26.00
  -2   2   7  331.07   26.60
   0  -2   7  346.87   29.90
   0  -2   7  355.56   26.90
   2  -2   7  350.06   27.30
  -2   3  -7  287.97   20.80
   2  -3  -7  246.98   19.70
   3  -1  -7  254.77   20.00
   1   2  -7  278.37   21.70
   1   2  -7  254.47   19.80
   2  -3  -7  249.08   22.80
  -1  -2  -7  227.48   23.00
  -1  -2  -7  274.97   24.70
  -2   3  -7  241.88   20.40
   2  -3  -7  246.28   20.10
   3  -1  -7  252.27   21.30
   3  -1  -7  278.97   24.70
   1   2  -7  272.77   22.50
  -2   3  -7  249.78   19.90
   2  -3  -7  247.48   22.30
   3  -1   7  211.18   19.60
   2  -3   7  214.58   19.90
   2  -3   7  246.28   22.70
   2  -3   7  248.28   20.60
   2  -3   7  230.18   23.60
   3  -1   7  240.48   19.30
   1   2   7  237.98   17.90
  -1  -2   7  208.68   24.40
   1   2   7  260.87   23.80
  -1  -2   7  238.48   23.00
   3  -1   7  237.18   21.80
  -2   3   7  242.78   20.60
  -2   3   7  249.88   20.80
   1  -3  -7  255.97   20.10
  -1   3  -7  244.58   20.20
   2   1  -7  263.87   21.40
   3  -2  -7  277.57   21.10
  -2  -1  -7  263.37   22.90
  -1   3  -7  267.67   21.40
  -3   2  -7  262.87   22.10
   3  -2  -7  256.17   20.00
   3  -2  -7  255.47   22.90
   2   1  -7  279.87   21.70
   1  -3  -7  252.57   19.10
  -1   3  -7  267.87   20.50
   1  -3  -7  214.88   19.60
   1  -3  -7  252.47   24.40
   1  -3   7  236.38   20.90
  -1   3   7  242.78   23.00
  -3   2   7  261.07   20.00
   1  -3   7  246.58   25.90
   2   1   7  240.38   18.10
  -1   3   7  258.87   20.70
   3  -2   7  230.88   19.20
   1  -3   7  226.18   21.50
   2   1   7  240.78   23.40
  -3   2   7  226.48   20.00
   1  -3   7  237.98   21.00
   2   1   7  249.58   22.40
   3  -2   7  235.18   22.80
   3  -2   7  235.18   22.40
   3   0  -7   -0.20   10.10
   3   0  -7   15.30   11.30
   3  -3  -7    2.70    7.70
   0  -3  -7   -0.80   10.70
   3  -3  -7    4.60    9.70
   0   3  -7    8.00    9.00
   3  -3  -7    1.50    7.40
  -3   3  -7   10.90   10.00
   3  -3  -7    3.70    7.70
   3   0  -7    6.00   10.40
  -3   0  -7    5.20    6.50
   0  -3  -7   -1.40    5.30
   0   3  -7   12.20    9.60
   0  -3  -7    1.00    7.80
  -3   3  -7    3.10    6.40
  -3   3   7   10.20    9.80
   0  -3   7    3.80    8.30
   3  -3   7    3.30    6.10
   3  -3   7   10.30   11.10
   0   3   7    6.40    7.90
   3   0   7   11.50   10.30
   0  -3   7   15.40    8.70
   3  -3   7   13.80   11.40
   3   0   7    0.90    8.00
  -3   3   7   -3.60    9.60
   3  -3   7    8.80    8.20
   0  -3   7   -0.40   13.90
   0   3   7   -3.50   13.30
  -3   4  -7  138.59   15.50
  -1  -3  -7  115.79   18.00
  -3   4  -7  128.59   15.20
   1   3  -7  131.79   15.40
   4  -1  -7  124.19   14.10
   1   3  -7  122.49   14.40
   4  -1  -7  130.39   15.70
   3  -4  -7  132.19   16.20
   3  -4  -7  114.99   16.00
   1   3  -7  145.69   18.30
   3  -4  -7  119.09   14.50
   3  -4   7  158.68   16.20
   4  -1   7   96.09   16.70
   3  -4   7  130.49   18.40
  -3   4   7  118.99   16.50
  -3   4   7  105.09   15.00
   3  -4   7   95.79   14.60
   4  -1   7  111.49   13.90
   1   3   7  110.39   12.70
   1   3   7  128.29   19.90
  -1  -3   7  111.39   17.70
   3  -4   7  159.58   17.70
  -3   4   7  112.99   16.30
   4  -2  -7    9.00    9.50
   2  -4  -7    2.10    8.10
   4  -2  -7    6.80    9.20
   2   2  -7   -4.90   13.50
   4  -2  -7    2.60    8.20
   2  -4  -7    4.30    8.10
  -2   4  -7   17.00    9.30
  -2   4  -7   19.80   11.00
   2  -4  -7    4.60    9.50
   2   2  -7   13.40    9.60
   2  -4  -7   -0.40    8.10
  -2  -2  -7   -0.50    9.00
   2   2  -7   -2.20   10.80
   2  -4   7    6.10    8.60
   2  -4   7    6.60    9.20
   4  -2   7   11.00   11.60
  -2   4   7    1.00   10.00
  -2  -2   7    1.90   10.50
   2   2   7    3.00    4.70
  -2   4   7    5.20    9.60
   2   2   7    2.10   13.80
  -2   4   7    1.50   12.10
   4  -2   7    7.40    9.10
   2  -4   7   20.60    9.90
   2  -4   7    5.60   10.00
   4  -2   7   12.00    7.80
   1  -4  -7  120.19   18.40
  -1   4  -7  136.59   14.20
   3   1  -7  107.69   17.60
   4  -3  -7  111.49   14.40
   3   1  -7  106.79   17.30
  -3  -1  -7  106.69   15.30
   4  -3  -7  129.09   15.00
   4  -3  -7  122.79   19.10
   1  -4  -7  115.19   14.10
   1  -4  -7  120.89   21.70
   3   1  -7  121.59   16.10
   1  -4   7  107.39   17.90
  -1   4   7  102.79   16.80
   4  -3   7  124.79   14.70
  -4   3   7  105.89   15.70
  -1   4   7  119.19   14.30
   4  -3   7  103.09   15.70
   1  -4   7  110.79   17.00
  -1   4   7   94.19   15.00
   1  -4   7  170.18   22.60
   4  -3   7  118.89   18.40
   3   1   7  113.99   19.30
   0  -4  -7   60.99   17.20
   4   0  -7   91.79   13.60
   0   4  -7   97.49   13.70
   4  -4  -7   88.59   15.00
   4   0  -7   76.19   15.30
  -4   4  -7   89.29   14.60
   0   4  -7  117.69   16.70
   4  -4  -7   91.89   13.70
   4  -4   7  111.59   14.80
   0   4   7   59.39   12.80
   0  -4   7   79.39   18.40
  -4   4   7   86.09   16.10
   0   4   7   95.09   19.20
   4  -4   7   93.09   16.60
  -4   4   7   78.39   14.70
   4  -4   7   85.39   16.00
  -4   4   7   55.39   13.20
   0   4   7   87.59   13.50
   3  -5  -7   93.59   14.00
   5  -2  -7   37.50   11.50
   2   3  -7   87.49   18.50
   3  -5  -7   64.19   14.30
   3  -5  -7   66.39   14.30
   5  -2  -7   74.49   11.70
   5  -2  -7   75.89   17.00
  -3   5  -7   90.29   14.30
  -3   5   7   51.19   15.10
  -3   5   7   56.59   14.50
   5  -2   7   43.10   13.90
   3  -5   7   76.49   15.80
   2   3   7   76.69   20.10
   5  -2   7   51.59   10.80
   3  -5   7   42.60   11.50
   3  -5   7   46.80   11.50
   3  -5   7   94.29   15.20
  -2   5  -7   90.59   13.50
   5  -3  -7   67.59   12.60
   2  -5  -7   88.19   22.70
   3   2  -7   49.10   12.80
  -3  -2  -7   45.30   12.40
   3   2  -7   70.69   13.70
   2  -5  -7   71.69   18.80
   5  -3  -7   73.89   15.00
   5  -3  -7   86.19   12.90
   3   2  -7   21.80   16.30
  -2   5   7   54.89   12.80
   5  -3   7   71.59   13.60
   5  -3   7   32.10   12.30
   3   2   7   44.00   16.50
   2  -5   7   67.39   17.10
   2  -5   7   45.30   13.40
   5  -3   7   49.60   12.30
  -2   5   7   50.99   14.30
   0   0  -8 4689.83  311.07
   0   0  -8 4821.72  311.37
   0   0  -8 5410.26  312.27
   0   0   8 5466.15  313.17
   0   0   8 5317.57  311.67
   0   0   8 5231.98  309.67
  -1   1  -8  931.41   59.09
   1   0  -8 1024.90   60.99
   1  -1  -8  956.30   59.99
   0  -1  -8  935.71   58.89
   0   1  -8  925.01   58.59
   1  -1  -8  929.11   58.79
   1  -1  -8  843.42   59.49
   0   1  -8  940.41   59.49
  -1   1  -8  898.91   58.79
  -1   0  -8  881.21   59.09
  -1   0  -8  954.40   57.09
  -1   0  -8 1017.40   59.09
   1   0  -8  944.51   59.29
   0  -1  -8  945.51   57.19
   0   1  -8  935.51   59.79
  -1   1  -8  965.80   59.69
   0  -1   8  904.81   55.99
  -1   1   8  901.01   60.79
   0  -1   8  884.81   60.59
  -1   0   8  842.12   56.19
   1  -1   8  924.91   60.69
   1  -1   8  924.21   59.19
   1   0   8  903.61   58.79
  -1   0   8  809.42   60.19
   0  -1   8  855.41   59.49
   1   0   8  871.21   60.99
  -1   1   8  844.92   57.29
  -1   0   8  847.02   58.99
   1   0   8  857.41   58.19
   0   1   8  887.21   60.59
  -1   1   8  937.21   59.59
   0   1   8  932.41   59.89
   0  -1   8  873.21   59.19
   0  -1   8  846.92   59.39
   0   1   8  945.41   57.99
   1  -2  -8 3030.00  188.28
   1   1  -8 3112.59  185.68
   1  -2  -8 2944.51  183.18
  -1   2  -8 3126.39  183.98
  -1  -1  -8 3035.00  187.98
  -2   1  -8 2781.22  183.58
  -2   1  -8 2582.64  183.48
   1  -2  -8 2873.01  183.18
  -1   2  -8 3090.99  183.68
  -1   2  -8 3096.99  184.28
   2  -1  -8 2982.90  184.98
   1   1  -8 2932.71  184.58
  -1  -1  -8 2588.14  181.18
   1   1  -8 2895.01  183.78
   2  -1  -8 2934.61  184.38
   2  -1  -8 3265.07  185.88
  -1  -1  -8 2720.13  182.28
   2  -1   8 3177.68  184.98
   1  -2   8 3075.49  185.08
   1  -2   8 2987.00  183.78
  -1   2   8 3137.69  184.28
   1   1   8 3076.39  183.18
  -2   1   8 3223.98  184.18
   2  -1   8 3205.58  184.08
   1  -2   8 3018.60  183.88
   1   1   8 3304.57  185.08
   1   1   8 2761.72  183.88
  -1  -1   8 3329.07  186.38
   2  -1   8 2878.31  184.98
  -1  -1   8 3177.18  184.08
  -1   2   8 3078.69  183.78
  -1  -1   8 3107.09  186.78
  -2   1   8 3044.40  182.18
  -2   2  -8  610.44   39.40
   0   2  -8  627.94   39.50
  -2   0  -8  583.64   41.80
   2   0  -8  627.94   41.50
   2  -2  -8  599.14   39.80
   0  -2  -8  588.54   37.80
   0  -2  -8  574.04   38.20
   0  -2  -8  550.64   38.30
   0   2  -8  609.84   40.10
   0   2  -8  635.54   40.60
   0  -2  -8  590.14   43.60
   2  -2  -8  616.24   40.00
   2   0  -8  608.94   41.70
   2   0  -8  601.04   43.20
  -2   2  -8  596.94   41.00
  -2   2  -8  643.94   40.30
   0   2   8  532.75   39.10
   0  -2   8  557.94   40.80
   2   0   8  610.44   39.70
   0   2   8  539.65   40.00
   2   0   8  540.55   42.00
   2  -2   8  560.94   41.70
   2  -2   8  586.44   39.20
  -2   2   8  583.54   40.00
   2  -2   8  554.84   41.30
   0  -2   8  585.24   43.90
   0  -2   8  569.14   40.60
  -2   0   8  513.25   40.20
  -2   2   8  579.64   39.30
   3  -1  -8  422.36   29.10
  -2   3  -8  412.76   28.80
   1   2  -8  412.26   29.20
   1   2  -8  410.96   30.30
   1   2  -8  403.16   28.40
   3  -1  -8  458.65   31.90
  -1  -2  -8  400.16   32.90
  -2   3  -8  372.66   28.80
  -2   3  -8  390.56   28.20
   2  -3  -8  377.96   27.90
   2  -3  -8  383.46   28.30
   2  -3  -8  407.66   31.10
   3  -1  -8  386.86   29.70
   2  -3  -8  388.26   31.40
   1   2   8  360.86   27.00
   2  -3   8  385.06   28.70
   2  -3   8  375.86   28.00
   1   2   8  382.56   29.80
  -2   3   8  375.76   29.40
  -1  -2   8  395.96   33.20
   2  -3   8  369.36   32.20
  -1  -2   8  374.26   31.20
   3  -1   8  383.46   30.90
   3  -1   8  342.37   27.90
   2  -3   8  341.37   29.50
   3  -1   8  381.66   28.40
  -2   3   8  327.47   28.90
  -1   3  -8  425.16   30.00
  -2  -1  -8  378.96   31.40
   3  -2  -8  403.16   28.70
   2   1  -8  409.06   30.00
   2   1  -8  457.35   31.60
  -1   3  -8  408.56   28.50
   2   1  -8  441.96   30.00
  -1   3  -8  397.16   28.80
   1  -3  -8  435.06   33.80
   1  -3  -8  364.66   27.60
   1  -3  -8  383.06   27.90
   1  -3  -8  386.46   28.60
   3  -2  -8  384.46   29.30
  -3   2   8  378.46   27.60
   2   1   8  400.56   30.60
  -1   3   8  393.06   28.90
  -1   3   8  386.36   30.30
   3  -2   8  351.96   30.30
   3  -2   8  361.26   29.90
   1  -3   8  374.36   29.40
   1  -3   8  357.16   30.40
  -3   2   8  356.66   27.80
   2   1   8  377.96   27.30
   1  -3   8  378.86   34.50
   1  -3   8  389.66   29.10
   3  -2   8  373.26   28.20
   2   1   8  393.66   31.50
   3  -3  -8 1430.26   90.99
   3  -3  -8 1367.26   87.49
   3   0  -8 1359.26   89.59
   3   0  -8 1440.36   89.49
   0  -3  -8 1195.18   89.69
   3   0  -8 1383.26   88.39
   3  -3  -8 1313.67   89.99
   0  -3  -8 1412.46   92.49
   0   3  -8 1515.25   88.39
  -3   0  -8 1165.68   89.59
   0   3  -8 1339.37   86.79
   3  -3  -8 1272.27   86.99
   0   3  -8 1460.45   88.69
  -3   3  -8 1417.56   87.89
  -3   3  -8 1161.38   86.49
  -3   3   8 1542.45   87.39
   3  -3   8 1398.86   87.49
   3   0   8 1346.47   88.79
   0   3   8 1506.25   86.69
  -3   3   8 1347.67   87.39
   3  -3   8 1392.86   88.79
   3   0   8 1530.35   86.39
   0   3   8 1468.85   88.49
   0  -3   8 1458.85   89.99
   3  -3   8 1352.46   90.29
   0  -3   8 1583.54   91.09
  -3   4  -8  163.78   18.10
   3  -4  -8  185.48   20.20
   3  -4  -8  185.68   19.10
   1   3  -8  181.68   19.50
  -1  -3  -8  195.98   22.60
   1   3  -8  222.18   22.90
   1   3  -8  173.38   17.50
   3  -4  -8  190.18   22.10
   4  -1  -8  200.18   18.30
   4  -1  -8  221.18   20.30
  -3   4  -8  217.28   19.50
   3  -4  -8  185.18   18.10
   1   3   8  187.38   16.30
  -1  -3   8  172.08   22.90
   3  -4   8  174.98   21.30
   3  -4   8  155.48   17.60
  -3   4   8  182.28   20.30
  -3   4   8  178.68   21.60
   4  -1   8  171.48   21.40
   3  -4   8  163.18   20.50
   4  -1   8  174.98   18.10
   1   3   8  175.68   24.00
   4  -1   8  180.78   18.90
  -2   4  -8  869.31   62.59
   2  -4  -8  998.50   62.89
   4  -2  -8  983.80   63.69
   2   2  -8  977.70   64.19
  -2   4  -8  940.71   63.59
   4  -2  -8  965.20   62.59
   2   2  -8  908.41   62.49
  -2   4  -8  969.30   63.69
   2  -4  -8  967.50   66.79
  -2  -2  -8  887.81   66.79
   2  -4  -8  919.21   62.99
   2   2  -8 1087.69   65.09
   4  -2  -8  907.51   66.19
   4  -2   8 1042.90   62.49
  -2   4   8  899.71   63.19
   2  -4   8 1018.70   63.79
  -2  -2   8 1028.90   68.19
   2   2   8  914.41   59.99
   4  -2   8  950.60   64.39
   2  -4   8 1019.60   64.49
   2   2   8 1140.99   65.39
  -2   4   8  999.70   63.29
   2  -4   8 1035.10   67.79
   3   1  -8  191.38   21.10
  -1   4  -8  209.48   19.90
   3   1  -8  197.58   20.90
   4  -3  -8  206.78   24.50
   4  -3  -8  191.58   18.30
  -1   4  -8  224.28   19.60
  -1   4  -8  158.48   18.60
   4  -3  -8  198.08   19.00
   3   1  -8  208.18   22.20
   1  -4  -8  221.28   23.70
   1  -4  -8  167.48   17.80
   1  -4  -8  160.68   24.00
  -1   4   8  181.68   19.10
   3   1   8  188.78   24.60
  -1   4   8  178.48   22.50
   1  -4   8  189.78   21.00
   4  -3   8  179.28   18.00
   4  -3   8  161.28   21.80
   1  -4   8  150.58   23.30
  -4   3   8  170.18   19.20
   4  -3   8  165.58   22.30
   4   0  -8  128.19   18.20
   0  -4  -8  144.49   22.70
   4   0  -8  142.59   16.80
   0   4  -8  149.79   18.50
   0   4  -8  115.69   15.10
   0   4  -8  105.59   15.90
  -4   4  -8  123.79   17.50
   4  -4  -8  125.59   15.20
   4  -4  -8  138.09   17.20
   4  -4   8  102.59   18.40
   4  -4   8  128.99   16.90
   0   4   8  139.99   16.00
   4   0   8  142.09   23.50
   0  -4   8  136.29   18.20
  -4   4   8  107.49   17.40
   0   4   8  142.59   21.20
  -4   4   8  130.79   18.70
   4  -4   8   99.79   18.50
   0   4   8  103.59   16.90
  -3   5  -8   98.09   14.80
  -2  -3  -8   97.69   20.80
   2   3  -8   80.69   16.50
   5  -2  -8  104.99   15.50
   3  -5  -8  121.99   15.90
   3  -5  -8   96.59   17.90
   3  -5  -8  113.89   18.70
   5  -2  -8  106.39   19.30
   2   3   8  109.79   22.10
  -3   5   8   72.39   16.80
   3  -5   8   92.69   22.50
  -3   5   8   57.99   17.60
   2  -5  -8   99.29   14.80
   5  -3  -8   98.29   19.00
   3   2  -8   66.39   16.20
   2  -5  -8  111.19   20.30
  -2   5  -8   67.99   13.90
   5  -3  -8   97.69   15.10
  -2   5  -8  101.19   15.30
   3   2  -8   92.99   17.20
   2  -5   8  137.99   24.50
   2  -5   8   87.19   14.70
  -2   5   8   81.79   16.80
   3   2   8   95.49   20.70
   0   0  -9   23.40    9.10
   0   0  -9   27.00    8.40
   0   0   9   24.40    9.20
   0   0   9   19.00    8.70
   0   0   9   27.10   11.60
   1  -1  -9  598.34   42.80
   0  -1  -9  615.24   43.60
  -1   1  -9  673.43   44.20
   0   1  -9  637.14   44.30
   1   0  -9  679.93   44.50
   0  -1  -9  609.74   41.50
  -1   0  -9  666.63   43.00
   1   0  -9  748.53   44.00
   1   0  -9  680.93   43.70
   1  -1  -9  618.84   44.20
  -1   0  -9  652.43   41.10
   1  -1  -9  617.34   44.50
   0   1  -9  574.34   44.30
  -1   1  -9  634.84   44.00
   0   1  -9  612.34   43.20
  -1   0  -9  601.74   43.80
   0  -1   9  634.64   45.70
   0  -1   9  617.14   39.90
   1  -1   9  630.74   44.10
  -1   1   9  632.54   45.50
  -1   1   9  618.04   44.30
   0   1   9  686.23   46.40
   1   0   9  611.44   44.80
  -1   1   9  564.24   42.00
   0  -1   9  638.14   44.00
   0  -1   9  658.23   44.10
   1  -1   9  626.14   44.10
  -1   0   9  705.93   43.90
   1   0   9  591.44   42.40
   0   1   9  678.23   41.80
   0   1   9  648.64   44.30
   1  -1   9  624.24   46.20
  -1   0   9  635.44   45.40
   1   0   9  604.04   41.70
  -1   0   9  613.34   40.70
  -2   1  -9    4.40    8.30
  -1   2  -9    6.40    8.80
   1  -2  -9    2.30    8.50
  -2   1  -9    8.20    7.80
   1  -2  -9    1.80    7.60
   1  -2  -9    5.90    7.10
  -1  -1  -9    2.00    4.80
   2  -1  -9   14.70   10.30
   2  -1  -9    1.50    8.80
  -1   2  -9   14.90    8.70
  -1   2  -9    1.10   10.70
   2  -1  -9    4.00    8.50
  -1  -1  -9    1.30    9.30
  -1  -1   9   24.90   13.80
  -2   1   9    2.90    9.20
   2  -1   9    6.10    8.70
  -1  -1   9   11.40    8.00
   1  -2   9   18.70    9.50
   1  -2   9    9.30    6.90
   2  -1   9   16.00   12.80
  -2   1   9   -0.60    7.80
  -1   2   9   22.30   12.40
  -1   2   9    3.60    9.60
   1  -2   9   11.90   11.00
   1   1   9   14.50    9.90
   1   1   9   14.90   12.70
   1   1   9   24.80   11.60
   0   2  -9  417.56   29.90
   2   0  -9  471.75   31.20
  -2   2  -9  360.16   28.70
   0  -2  -9  368.56   28.00
  -2   0  -9  396.96   32.50
   2  -2  -9  409.66   30.60
  -2   2  -9  341.87   31.10
   0   2  -9  427.16   31.20
   2   0  -9  415.66   31.10
   0  -2  -9  416.76   34.00
   0   2  -9  396.16   30.80
  -2   2  -9  421.66   31.20
   0  -2  -9  373.66   27.40
   2  -2  -9  416.06   29.90
   2   0  -9  403.36   32.00
   2  -2   9  435.76   33.10
   0  -2   9  398.46   31.20
   0  -2   9  414.26   31.60
   2   0   9  435.06   29.70
   0   2   9  425.36   30.30
   2  -2   9  407.76   31.80
   0   2   9  350.86   29.50
   2  -2   9  410.06   29.60
  -2   2   9  408.16   29.70
   2   0   9  428.16   32.30
   0  -2   9  384.46   32.80
  -2   2   9  372.76   30.20
   0  -2   9  391.66   30.30
  -2   0   9  361.76   30.60
   2   0   9  390.26   34.30
   2  -3  -9  259.17   22.70
   2  -3  -9  272.17   26.60
   1   2  -9  268.17   23.60
   1   2  -9  278.07   25.50
   3  -1  -9  268.87   23.70
   2  -3  -9  262.07   21.40
  -1  -2  -9  246.68   25.50
   1   2  -9  262.37   23.00
   2  -3  -9  239.38   23.10
   3  -1  -9  266.57   23.50
   3  -1  -9  229.78   23.20
  -2   3  -9  274.47   22.90
  -2   3  -9  221.88   22.70
  -2   3  -9  250.37   22.00
   3  -1   9  287.87   23.70
  -1  -2   9  259.67   27.00
  -1  -2   9  279.67   25.90
   3  -1   9  250.87   24.40
  -2   3   9  244.58   23.80
  -2   3   9  276.47   23.00
   3  -1   9  239.48   22.30
   1   2   9  280.97   24.90
   1   2   9  290.17   21.30
   2  -3   9  240.38   20.30
   3  -1   9  262.07   22.80
   2  -3   9  249.88   27.40
   2  -3   9  250.47   22.40
   2  -3   9  244.18   25.00
   1  -3  -9  255.77   21.30
   2   1  -9  267.77   23.70
   3  -2  -9  275.07   23.20
  -2  -1  -9  252.07   25.60
  -1   3  -9  270.97   23.30
   1  -3  -9  262.37   27.10
   1  -3  -9  234.78   22.00
   2   1  -9  263.47   24.60
   3  -2  -9  241.28   22.50
   2   1  -9  270.87   22.70
   1  -3  -9  255.17   21.40
  -1   3  -9  268.17   22.90
  -1   3  -9  262.17   22.00
  -1   3   9  243.98   24.60
   3  -2   9  262.27   21.60
   2   1   9  272.07   24.90
   2   1   9  263.57   23.80
   2   1   9  256.97   21.90
   1  -3   9  275.97   23.60
   1  -3   9  245.28   25.20
   3  -2   9  245.88   23.70
  -3   2   9  248.78   21.80
  -1   3   9  287.57   23.60
   1  -3   9  249.08   22.30
  -3   2   9  253.67   21.50
   3  -2   9  278.87   25.60
   0  -3  -9   -4.80   10.70
   3   0  -9   -1.50   12.50
  -3   3  -9    4.90    9.50
   3   0  -9    8.60   12.00
   0  -3  -9   -2.70    8.70
   3  -3  -9    4.70   11.40
   3   0  -9    7.60   12.30
   3  -3  -9    5.50   10.50
  -3   3  -9   -1.50   13.00
   3  -3  -9   -1.20    7.20
   0   3  -9   21.80   10.80
   0   3  -9   14.10   12.00
   3  -3  -9    3.40    9.30
   0   3  -9   17.10   10.40
   3  -3   9   10.10    9.30
   3  -3   9    6.30   11.60
   0   3   9   -6.40   16.10
  -3   3   9    1.00   13.20
   3   0   9    5.50   14.40
   3   0   9    2.90    9.90
   0  -3   9    0.70   13.20
   3  -3   9    0.60   11.40
   3   0   9   21.50   16.90
   0  -3   9    5.80   10.30
   0   3   9    4.30   10.80
  -3   3   9    6.50   12.20
   3  -4  -9  119.09   17.40
   3  -4  -9  110.09   19.80
   1   3  -9  115.39   19.60
   3  -4  -9  112.99   15.80
  -3   4  -9   90.59   15.50
  -1  -3  -9  118.49   20.80
   4  -1  -9  128.09   17.60
   4  -1  -9  122.09   17.90
  -3   4  -9  117.09   17.00
   1   3  -9  105.89   15.70
   3  -4  -9   96.19   17.80
   1   3  -9  104.39   16.60
   3  -4   9  110.99   19.00
   1   3   9  113.79   13.00
   4  -1   9  119.39   15.60
  -3   4   9  125.99   17.50
   4  -1   9  107.59   20.30
   3  -4   9  120.69   17.50
  -1  -3   9  124.69   18.80
   3  -4   9  116.89   18.50
   1   3   9  110.69   20.80
  -3   4   9  123.59   18.10
   4  -1   9  129.79   16.50
   2  -4  -9    0.10    9.70
  -2  -2  -9    3.20   12.00
   2   2  -9    8.70   16.50
   4  -2  -9   -4.00   13.10
   2  -4  -9    2.90    9.50
   2  -4  -9   -1.20    8.70
  -2   4  -9   10.80   11.40
   4  -2  -9    6.60   10.90
   2  -4  -9   -1.20    8.90
   2   2  -9   12.40   11.60
  -2   4  -9    6.60   10.00
  -2   4  -9   22.20   11.40
   2   2  -9    3.90   14.00
   4  -2  -9    2.30   10.50
   2  -4   9    4.20    8.70
  -2   4   9    6.10   15.60
   2   2   9    4.70    6.50
   4  -2   9    4.80    8.80
   2   2   9   12.20   17.50
   4  -2   9    2.90    9.90
   2  -4   9    5.80   11.20
   2  -4   9    4.00   13.00
  -2   4   9    4.40   12.70
   2  -4   9    7.30    8.70
   4  -2   9    5.30   12.40
   1  -4  -9  119.59   19.80
   4  -3  -9  121.69   19.70
  -1   4  -9   75.39   15.10
  -1   4  -9  131.09   18.20
   1  -4  -9   76.69   18.30
   3   1  -9  109.89   18.90
   4  -3  -9  114.79   16.00
   1  -4  -9  109.29   15.20
   3   1  -9  113.89   16.90
  -1   4  -9  105.19   15.10
   4  -3  -9  112.79   16.60
   3   1  -9  111.59   20.30
  -1   4   9   98.89   17.90
   1  -4   9   69.89   28.20
   4  -3   9  117.29   15.20
   1  -4   9  121.59   17.80
   3   1   9  134.09   20.30
   4  -3   9  114.49   19.20
   4  -3   9  114.19   17.70
  -4   3   9  102.09   16.10
  -1   4   9   90.69   15.50
  -4   4  -9   87.29   18.80
   0  -4  -9   85.29   21.50
   4  -4  -9   72.49   13.90
   4   0  -9   68.29   15.00
   0   4  -9   73.79   13.60
   0   4  -9   82.69   16.10
   4  -4  -9   69.89   15.50
   4   0  -9   80.29   15.60
   0   4  -9   51.19   12.90
   4  -4  -9   96.39   15.60
  -4   4   9   84.69   19.50
  -4   4   9   57.89   18.50
   0  -4   9   84.49   18.40
   4  -4   9   87.59   15.80
   4  -4   9   60.09   14.80
   0   4   9   77.19   14.70
   0   4   9   63.19   15.90
   0   4   9   72.39   20.50
   4   0   9  111.49   22.30
   4  -4   9   44.40   13.10
   0   0 -10 3181.48  182.18
   0   0 -10 2795.22  180.78
   0   0 -10 2990.70  181.48
   0   0  10 3035.90  182.78
   0   0  10 2930.51  181.38
   0   0  10 2871.11  179.38
   0   1 -10  788.22   51.99
   1  -1 -10  737.23   50.59
  -1   1 -10  738.13   50.29
  -1   0 -10  709.63   50.29
   1   0 -10  846.22   50.29
  -1   1 -10  613.64   50.09
   1   0 -10  675.23   48.90
   0   1 -10  666.83   50.79
  -1   0 -10  743.43   49.10
   1  -1 -10  655.03   50.69
  -1   0 -10  716.43   47.20
   0  -1 -10  663.13   47.60
   0  -1 -10  638.54   49.40
   1  -1 -10  666.13   48.90
   1   0 -10  763.62   50.49
   0  -1  10  771.72   51.59
   1   0  10  775.52   48.60
   0  -1  10  756.82   50.19
  -1   1  10  765.62   48.60
  -1   1  10  724.23   52.09
  -1   1  10  721.03   50.19
  -1   0  10  687.03   47.00
   0  -1  10  766.82   50.09
  -1   0  10  709.23   49.10
   0   1  10  804.62   50.79
   1  -1  10  758.12   53.09
   1   0  10  769.12   51.79
   1  -1  10  803.22   51.39
   0   1  10  795.92   48.10
   0   1  10  831.02   52.69
   0  -1  10  712.33   45.90
  -1   0  10  772.92   51.69
   1   0  10  730.33   49.00
   1  -1  10  783.22   51.29
   1  -2 -10 1958.40  117.79
  -1   2 -10 1767.22  118.59
  -1   2 -10 2005.20  118.79
  -2   1 -10 2009.70  119.09
  -1   2 -10 2002.60  120.19
   1   1 -10 2041.20  120.59
   2  -1 -10 1648.64  118.39
   1  -2 -10 2005.90  124.99
   1  -2 -10 1971.90  118.79
   1   1 -10 1803.62  119.09
   1   1 -10 2042.20  119.19
  -2   1 -10 2031.00  118.59
   2  -1 -10 2096.99  119.69
  -1  -1 -10 2051.39  124.99
   2  -1  10 1851.11  120.49
  -2   1  10 1690.63  118.39
   1   1  10 1774.32  118.29
  -1   2  10 2094.39  119.99
  -2   1  10 1722.93  116.29
   1   1  10 1937.11  119.19
  -1   2  10 1832.72  117.89
   1  -2  10 1937.51  119.39
   1  -2  10 1767.42  117.79
  -1  -1  10 1880.41  119.99
   2  -1  10 1930.01  119.79
   2  -1  10 1898.91  119.69
  -1  -1  10 1803.52  117.59
   1   1  10 1837.32  117.19
   1  -2  10 1803.12  120.89
   0   2 -10  475.25   37.90
  -2   2 -10  424.06   37.60
   0  -2 -10  508.45   42.60
   2  -2 -10  485.85   37.90
   0   2 -10  496.65   36.90
  -2   0 -10  486.65   40.30
   0   2 -10  517.75   38.60
   2   0 -10  491.15   37.50
   2  -2 -10  481.05   36.80
   0  -2 -10  444.66   34.20
   2   0 -10  469.55   37.00
  -2   2 -10  503.25   38.10
   2   0 -10  534.65   39.60
   2   0  10  548.55   36.50
   0   2  10  592.04   38.10
  -2   2  10  567.54   38.40
   0  -2  10  536.35   37.80
   0   2  10  612.24   37.90
   2   0  10  506.65   39.30
  -2   2  10  529.15   36.90
   0  -2  10  538.45   39.30
   0  -2  10  548.45   39.50
   2  -2  10  568.04   40.00
   0  -2  10  477.15   39.90
   2   0  10  561.54   37.70
  -2   0  10  520.25   37.90
   2  -2  10  560.34   37.60
  -1  -2 -10  383.26   34.60
   2  -3 -10  371.86   33.60
  -2   3 -10  315.07   29.40
   1   2 -10  332.27   28.90
   2  -3 -10  334.77   29.10
   3  -1 -10  333.57   29.30
   1   2 -10  347.57   28.40
   3  -1 -10  370.26   30.10
   2  -3 -10  348.87   27.30
   1   2 -10  367.26   32.10
  -2   3 -10  308.57   27.80
   2  -3 -10  341.17   30.80
   3  -1 -10  279.97   28.20
  -2   3 -10  356.26   28.70
   2  -3  10  355.16   32.30
   3  -1  10  366.96   29.00
   3  -1  10  390.96   32.50
  -2   3  10  313.97   29.50
  -1  -2  10  390.36   30.50
  -1  -2  10  384.66   32.40
   1   2  10  363.06   27.90
   1   2  10  370.16   27.50
   2  -3  10  363.06   28.70
   2  -3  10  340.07   30.80
   3  -1  10  402.36   29.60
  -2   3  10  371.66   30.00
   3  -2 -10  313.17   28.40
  -2  -1 -10  313.37   31.40
   2   1 -10  339.57   31.30
  -1   3 -10  299.57   28.60
   2   1 -10  353.16   28.80
   2   1 -10  330.47   27.50
  -1   3 -10  342.37   28.60
  -1   3 -10  336.67   27.70
   1  -3 -10  348.97   32.10
   1  -3 -10  346.67   27.10
   3  -2 -10  351.06   29.40
   1  -3  10  356.56   28.40
   1  -3  10  365.76   32.40
   1  -3  10  401.66   29.90
   2   1  10  383.46   29.30
  -3   2  10  370.16   27.30
  -1   3  10  334.27   31.10
  -1   3  10  404.96   29.70
  -3   2  10  375.36   29.00
   2   1  10  326.27   27.30
   3  -2  10  372.16   31.20
   3  -2  10  386.36   29.00
   2   1  10  379.36   29.30
   3  -2  10  363.76   30.90
   0   3 -10  895.71   59.59
   3  -3 -10  960.10   64.39
   3   0 -10  977.80   62.19
   3  -3 -10  982.00   60.99
   0  -3 -10  909.51   65.49
   3  -3 -10  946.61   60.69
   3  -3 -10  999.20   65.69
  -3   3 -10  948.71   61.39
   3   0 -10  928.61   61.29
   0   3 -10  969.90   61.69
   3   0 -10  919.51   61.09
   3   0  10  799.22   62.19
   0   3  10 1006.60   60.49
  -3   3  10  934.41   60.19
  -3   3  10  809.62   60.49
   0  -3  10  869.01   61.89
   0  -3  10  869.11   62.29
   3   0  10  939.51   58.69
   3  -3  10  831.12   61.99
   3   0  10  925.21   62.09
   0   3  10  910.61   61.09
   3  -3  10  806.62   62.49
   3  -3  10  830.72   59.69
   1   3 -10  194.58   25.10
   4  -1 -10  176.38   20.80
  -3   4 -10  151.48   19.80
   3  -4 -10  166.28   23.60
  -3   4 -10  146.09   20.70
   3  -4 -10  157.18   21.30
   1   3 -10  174.98   19.70
   4  -1 -10  174.18   20.70
   3  -4 -10  182.28   20.50
   3  -4 -10  175.78   23.90
  -1  -3 -10  177.88   25.20
   1   3 -10  164.48   20.40
   4  -1  10  200.88   19.10
  -3   4  10  200.48   25.20
   3  -4  10  196.28   24.60
   1   3  10  173.68   22.70
   1   3  10  186.88   17.40
   3  -4  10  194.88   20.90
  -3   4  10  192.08   22.10
  -1  -3  10  193.78   23.90
   4  -1  10  175.88   25.00
   3  -4  10  189.58   23.10
   2  -4 -10  665.83   48.50
   4  -2 -10  700.23   44.70
  -2   4 -10  558.74   44.70
   2   2 -10  572.14   45.50
   2   2 -10  718.43   44.40
  -2   4 -10  605.14   44.00
   4  -2 -10  647.04   45.00
  -2  -2 -10  664.63   50.19
   2   2 -10  667.73   45.50
   2  -4 -10  690.53   43.40
  -2   4 -10  544.15   43.30
   4  -2 -10  677.23   49.00
   2   2  10  668.93   44.60
   2  -4  10  623.54   51.29
   2  -4  10  575.74   43.50
   2  -4  10  593.64   46.00
   4  -2  10  691.83   44.70
  -2   4  10  548.45   44.10
  -2   4  10  523.25   43.60
   4  -2  10  583.84   46.20
   4  -3 -10  176.88   20.20
  -1   4 -10  145.29   18.30
   3   1 -10  172.48   21.40
   3   1 -10  157.98   19.90
   3   1 -10  177.08   23.80
   1  -4 -10  175.58   24.20
  -1   4 -10  188.28   22.00
   4  -3 -10  184.28   24.20
   4  -3 -10  195.28   21.40
   3   1  10  245.08   22.40
   1  -4  10  188.58   21.00
   1  -4  10   92.99   36.30
   4  -3  10  182.38   23.60
  -4   3  10  184.98   20.80
  -1   4  10  187.88   20.30
   4  -3  10  197.18   20.50
   4  -3  10  178.88   22.50
  -1   4  10  155.28   24.80
   0   0 -11    1.80    7.90
   0   0 -11    5.50    9.50
   0   0 -11   14.00    9.00
   0   0  11    7.40   11.40
   0   0  11   15.20    8.50
   0   0  11   11.80    9.60
   0   1 -11  138.69   21.40
  -1   0 -11  160.68   17.70
   0   1 -11  176.58   20.90
   1  -1 -11  171.58   20.10
   1  -1 -11  183.28   18.10
   0  -1 -11  154.88   16.30
   0  -1 -11  167.88   19.90
  -1   0 -11  154.78   19.20
  -1   0 -11  174.78   14.90
  -1   1 -11  163.38   20.10
   1   0 -11  184.38   20.10
   1   0 -11  163.58   18.50
   1  -1 -11  180.18   22.10
  -1   1 -11  167.58   20.70
   1   0 -11  161.38   20.10
   1  -1  11  198.28   24.20
  -1   0  11  174.58   17.00
  -1   0  11  178.98   23.30
   1   0  11  203.58   23.00
   1   0  11  178.08   18.50
   0  -1  11  167.98   19.20
  -1   1  11  197.78   21.30
   0  -1  11  131.79   17.00
   0   1  11  198.68   22.50
   0   1  11  198.18   20.80
   1  -1  11  201.68   21.00
   0   1  11  199.68   18.20
   1  -1  11  213.78   21.50
  -1   1  11  199.48   18.60
  -1   1  11  188.08   24.00
   1   0  11  196.78   17.50
   0  -1  11  172.58   22.10
   1  -1  11  216.08   19.50
  -1   0  11  180.08   18.60
  -1  -1 -11   -0.20    9.30
   1  -2 -11   -2.40    8.50
   1  -2 -11   -5.20   11.00
   1   1 -11   -7.00   13.70
   1   1 -11   -1.40   11.50
   1   1 -11    6.00   11.10
   2  -1 -11   -4.90   10.00
  -2   1 -11   -0.50    9.90
  -1   2 -11   11.90   14.60
   1  -2 -11   -3.50   11.10
   2  -1 -11    8.20   10.80
  -1   2 -11   -3.10   12.20
   2  -1 -11    8.50   12.30
  -1   2 -11   18.90   11.20
   1  -2  11    2.60   13.00
  -1  -1  11   -5.90   12.70
   1   1  11   15.90   13.20
   2  -1  11   -6.00   11.70
   1   1  11    8.70   11.10
  -1   2  11  -13.40   14.10
  -1  -1  11    1.50    8.40
   1  -2  11   -1.60   14.40
   2  -1  11   -4.30   14.40
   1   1  11    6.90   13.80
  -2   1  11   -1.30    9.90
  -2   1  11   -2.30   11.60
   1  -2  11   -3.20   10.70
  -1   2  11   -3.20   14.00
   2  -1  11    0.00   10.20
  -2   2 -11  109.09   17.10
   2   0 -11  123.89   16.90
   2   0 -11  124.99   18.40
   2   0 -11  132.19   19.00
  -2   0 -11  104.99   19.60
  -2   2 -11  112.79   19.00
   0   2 -11  146.19   22.30
   0  -2 -11  123.49   13.10
   2  -2 -11  121.69   16.70
   2  -2 -11  133.79   20.10
   0  -2 -11  129.89   20.60
   0   2 -11  111.19   20.50
   0   2 -11  117.99   18.50
   0  -2  11  133.99   19.60
   2  -2  11  148.29   19.40
   2  -2  11  118.79   22.30
   0   2  11  135.59   18.60
  -2   0  11  140.59   18.30
   0  -2  11  139.69   22.70
  -2   2  11  133.09   19.10
  -2   2  11  122.59   20.20
   0  -2  11  140.09   17.20
   2   0  11  137.89   22.50
   2   0  11  137.69   16.00
   0   2  11  124.59   20.00
   2   0  11  145.29   19.80
   0  -2  11  129.39   19.40
   3  -1 -11   94.59   16.40
   1   2 -11  113.49   19.40
   2  -3 -11   91.99   16.60
  -2   3 -11  100.49   17.20
  -2   3 -11   70.89   14.90
   1   2 -11   73.99   15.60
  -1  -2 -11   82.29   21.50
   3  -1 -11   87.39   16.00
   2  -3 -11   92.09   18.60
   2  -3 -11   76.79   14.30
   3  -1 -11  114.49   18.00
  -2   3 -11   69.49   14.00
   2  -3 -11   90.89   19.60
   1   2 -11  118.29   20.60
  -2   3  11   91.69   17.80
  -1  -2  11   63.69   16.70
   3  -1  11   91.69   15.90
   1   2  11  119.79   18.50
   2  -3  11  103.19   18.80
   2  -3  11   93.79   17.70
   1   2  11   87.69   15.40
   3  -1  11  104.39   16.80
   3  -1  11  125.49   22.10
  -2   3  11  100.19   19.20
   2   1 -11   91.69   15.90
   3  -2 -11  118.59   18.70
   1  -3 -11   84.49   13.40
   1  -3 -11   97.09   21.40
   3  -2 -11   90.29   16.50
   2   1 -11   84.59   17.70
  -1   3 -11   91.19   15.60
  -2  -1 -11   67.99   16.20
  -1   3 -11   72.49   15.40
   2   1 -11   94.39   17.50
  -1   3 -11   94.59   16.40
   2   1  11   83.29   14.80
  -1   3  11   79.99   19.20
  -1   3  11   95.19   17.60
  -3   2  11   78.49   15.20
   3  -2  11   97.89   18.40
   3  -2  11  106.99   17.30
   1  -3  11   85.49   19.80
   1  -3  11  117.39   19.80
   2   1  11  101.49   17.40
  -3   2  11   72.99   15.80
   1  -3  11   93.59   14.00
   2   1  11  101.79   20.70
   3   0 -11    5.10   13.90
   3  -3 -11   -4.50    9.30
   3  -3 -11  -10.00   10.50
   3   0 -11   -4.40   11.20
   0   3 -11    9.40   12.40
   0   3 -11    2.40   14.70
   0   3 -11    8.80   12.20
   3  -3 -11    7.50   13.60
   3  -3 -11    2.60   14.00
  -3   3 -11    6.90   16.40
   0  -3 -11   -3.00   12.80
   3   0 -11   -1.30   11.20
   0  -3  11    7.10   11.40
  -3   3  11   -0.70   15.60
   3   0  11    3.70   10.80
   3  -3  11   -0.20   11.10
   3   0  11   -1.80   18.60
   0   3  11    4.80   16.80
   3  -3  11    7.00   12.70
   3   0  11   -3.80   15.60
   0   3  11    0.80   12.50
   3  -3  11   -2.80   12.50
  -3   3  11   -3.10   14.50
   0  -3  11   -5.80   13.70
   3  -4 -11   36.80   14.50
   4  -1 -11   60.99   17.90
   3  -4 -11   37.80   13.50
  -1  -3 -11   44.60   18.30
   3  -4 -11   54.39   16.50
   1   3 -11   37.70   13.30
   1   3 -11   51.79   15.80
   1   3 -11   57.29   22.80
  -3   4 -11   51.59   15.90
   3  -4 -11   34.90   13.70
   4  -1 -11   48.60   14.00
   4  -1  11   39.60   25.50
  -3   4  11   45.80   17.30
   4  -1  11   56.59   12.50
  -1  -3  11   72.89   18.20
   1   3  11   54.89   17.00
  -3   4  11   43.60   14.70
   3  -4  11   51.89   14.80
   3  -4  11   31.70   13.40
   1   3  11   38.70   11.30
   3  -4  11   45.70   17.20
   4  -2 -11   -2.30   13.60
   2   2 -11    4.20   13.30
  -2  -2 -11   -1.80   10.50
   2   2 -11   -4.10   15.60
  -2   4 -11    7.80   11.30
   2  -4 -11    3.90   10.00
   2  -4 -11   -4.10   12.40
  -2   4 -11    0.60   11.40
   4  -2 -11    3.50   15.70
  -2   4 -11    6.50   14.20
   4  -2 -11   -0.50   11.50
   2   2 -11    4.10   14.20
   2   2  11    8.40   15.00
  -2   4  11   -7.10   16.00
   2  -4  11   -0.50   13.40
   2   2  11   -2.90    7.40
   2  -4  11    0.10   12.50
   4  -2  11   -1.10   14.50
   4  -2  11    8.20   13.40
  -2   4  11   -5.60   15.10
   4  -3 -11   38.90   13.20
  -1   4 -11   29.60   12.70
   1  -4 -11   36.50   17.00
   3   1 -11   16.00   12.80
   3   1 -11   36.00   13.20
   4  -3 -11   52.69   13.40
  -1   4 -11   46.50   15.90
   3   1 -11   34.00   18.00
   4  -3 -11   70.59   20.60
  -1   4 -11   51.49   15.20
   1  -4  11   50.29   20.40
  -1   4  11   61.99   16.00
  -1   4  11   30.50   19.40
   4  -3  11   39.90   13.20
   4  -3  11   69.69   19.20
   3   1  11   65.89   16.10
   4  -3  11   44.10   15.30
   0   0 -12  374.76   28.70
   0   0 -12  333.77   29.60
   0   0  12  427.56   30.20
   0   0  12  400.16   26.70
   0   0  12  370.06   30.50
   1  -1 -12 1298.07   79.49
   1  -1 -12 1238.28   77.69
  -1   0 -12 1167.08   75.69
  -1   0 -12 1191.28   78.79
  -1   1 -12 1210.68   78.59
   1   0 -12 1165.58   77.79
   0   1 -12 1066.09   78.99
   0  -1 -12 1231.78   78.89
  -1   1 -12 1250.37   79.19
  -1   0 -12 1174.68   77.49
   0   1 -12 1233.18   78.69
   0   1 -12 1283.87   79.19
   0  -1 -12 1106.29   76.19
   1  -1 -12 1297.37   80.09
  -1   1 -12 1082.19   77.29
   1   0 -12 1260.27   79.69
   1   0 -12 1318.57   78.69
   1  -1  12 1196.38   81.79
   0  -1  12 1184.68   79.69
   1   0  12 1161.08   76.19
   1  -1  12 1208.28   76.39
   1   0  12 1081.99   77.59
  -1   1  12 1256.67   81.09
  -1   1  12 1302.27   79.29
  -1   0  12 1149.19   79.29
   0   1  12 1149.29   78.99
   1   0  12 1278.37   80.09
  -1   1  12 1370.66   76.99
   0   1  12 1324.87   76.39
   1  -1  12 1211.98   79.09
   0   1  12 1301.87   80.49
   0  -1  12 1240.68   78.39
   1  -1  12 1222.48   79.29
  -1   0  12 1238.08   77.79
  -2   1 -12  219.18   21.60
  -1   2 -12  228.38   24.40
   1  -2 -12  194.08   18.00
   1  -2 -12  211.68   22.80
   1  -2 -12  219.78   27.00
   1   1 -12  240.28   22.20
   1   1 -12  242.58   21.30
  -1  -1 -12  202.58   27.20
   2  -1 -12  233.48   23.00
  -1   2 -12  167.68   25.10
   1   1 -12  195.78   23.80
   2  -1  12  192.58   29.80
   1   1  12  201.88   23.10
   2  -1  12  180.18   22.80
  -2   1  12  146.19   21.00
  -1   2  12  213.08   22.40
  -1   2  12  148.59   23.70
  -1  -1  12  160.58   22.80
   1  -2  12  178.98   22.10
   1  -2  12  181.18   28.60
   1  -2  12  219.38   25.30
   1   1  12  176.38   19.70
   1   1  12  164.58   21.80
   2  -1  12  188.58   22.10
   2  -1  12  185.68   21.60
  -1  -1  12  158.48   19.10
   0  -2 -12  836.42   64.19
   2   0 -12  868.51   56.99
   0   2 -12  842.32   58.09
   0   2 -12  917.71   61.49
   2   0 -12  858.91   56.59
   2  -2 -12  798.32   58.39
  -2   2 -12  811.22   57.69
   2  -2 -12  792.12   56.79
  -2   2 -12  801.52   58.99
   0   2 -12  798.92   59.49
   2   0 -12  871.61   58.29
   2  -2  12  931.81   59.59
   2   0  12  879.31   57.09
   0   2  12  808.02   58.59
  -2   2  12  887.21   56.89
   0   2  12  861.51   55.89
  -2   0  12  838.62   61.59
   0  -2  12  805.82   58.39
   2  -2  12  952.20   59.99
   2   0  12  827.62   58.69
  -2   2  12  859.11   59.19
   2   0  12  816.32   55.89
   0  -2  12  869.21   58.19
   0  -2  12  887.31   58.39
   2  -2  12  859.01   61.99
  -2   3 -12  485.35   41.90
  -2   3 -12  588.34   42.80
   3  -1 -12  628.84   42.40
   2  -3 -12  551.24   40.70
   2  -3 -12  622.44   48.00
   3  -1 -12  599.04   41.50
  -1  -2 -12  619.34   48.70
   3  -1 -12  526.35   42.50
   1   2 -12  536.35   44.00
   1   2 -12  662.33   44.40
  -2   3 -12  485.45   44.60
   2  -3 -12  607.74   45.30
   2  -3 -12  560.24   43.50
   2  -3  12  641.44   44.10
  -1  -2  12  593.74   43.40
  -2   3  12  529.35   43.60
   1   2  12  529.75   40.80
   3  -1  12  586.24   46.40
  -2   3  12  582.24   42.60
   1   2  12  532.35   40.30
   3  -1  12  646.34   42.40
   2  -3  12  587.64   46.60
   2   1 -12  552.74   45.60
   3  -2 -12  573.94   44.60
  -1   3 -12  603.44   44.80
   1  -3 -12  623.24   49.50
   3  -2 -12  519.55   41.90
   1  -3 -12  541.25   41.40
  -1   3 -12  533.55   44.90
   2   1 -12  636.34   43.20
  -2  -1 -12  549.05   48.10
   2   1 -12  544.45   41.90
  -1   3 -12  580.54   42.70
   1  -3  12  615.94   44.10
   3  -2  12  689.53   45.10
   2   1  12  521.25   41.10
  -3   2  12  627.14   44.50
   3  -2  12  658.03   45.30
   1  -3  12  613.74   49.00
  -1   3  12  701.33   46.00
   3  -2  12  602.54   46.80
  -1   3  12  621.34   43.70
   2   1  12  623.24   42.20
   1  -3  12  637.24   45.70
   3  -3 -12  137.09   17.90
   3   0 -12  126.59   18.80
   3   0 -12  113.09   17.20
   0   3 -12  133.99   23.30
   0   3 -12  124.49   17.00
   0  -3 -12  115.29   22.10
   3   0 -12  120.99   19.00
   3  -3 -12  128.89   21.90
   3  -3 -12  121.49   22.40
   3  -3 -12  123.19   21.20
   0   3 -12  109.09   19.50
   0   3  12   84.59   16.80
   0  -3  12   85.69   18.40
  -3   3  12   64.59   18.80
   3   0  12   90.89   18.60
   0   3  12   75.99   16.50
   3  -3  12   89.29   19.10
   0  -3  12   62.69   17.30
   3  -3  12   94.39   18.60
   3   0  12   80.69   13.70
  -3   3  12   77.79   19.60
   2  -4 -12   96.09   16.90
  -2  -2 -12   77.39   19.20
   2  -4 -12   85.79   20.90
  -2   4 -12   87.59   18.50
   2   2 -12   76.39   17.70
   4  -2 -12   55.49   12.70
   2   2 -12   75.99   17.70
  -2   4 -12   55.99   15.70
   2   2  12   66.59   17.70
  -2   4  12   50.49   17.30
   2  -4  12   72.09   17.10
   4  -2  12   82.29   18.90
   0   0 -13    7.10    9.40
   0   0 -13    7.90   11.10
   0   0 -13    8.40    9.50
   0   0  13   -1.20    9.50
   0   0  13    2.80    9.80
   0   0  13    2.10   12.20
  -1   1 -13  123.59   17.90
  -1   0 -13  126.49   17.70
   1  -1 -13  114.09   18.30
   1   0 -13  135.89   19.40
  -1   1 -13  122.89   17.70
  -1   1 -13  131.89   16.50
   0  -1 -13  129.19   18.60
   0   1 -13  139.59   19.20
   1   0 -13  130.49   16.90
   0  -1 -13  117.59   14.00
   1   0 -13  136.39   20.60
   0   1 -13  128.59   19.50
   1  -1 -13  130.89   20.40
   0   1 -13  138.59   20.10
   1  -1 -13  141.09   17.10
   1   0  13  115.99   22.90
   1   0  13  141.49   19.80
  -1   1  13  139.69   17.40
   0  -1  13  115.99   18.00
   0   1  13  109.19   20.00
   0   1  13  129.09   20.10
   1  -1  13  126.79   16.30
  -1   0  13  114.49   21.90
  -1   1  13  117.39   22.00
  -1   0  13   96.89   16.70
   1   0  13  124.59   16.00
   0  -1  13  111.49   20.80
   0   1  13  131.49   15.30
  -1   1  13  117.89   19.40
   1  -1  13  133.89   19.40
   1  -1  13  107.89   22.60
   2  -1 -13    2.20   13.20
   1   1 -13  -14.60   12.60
  -1   2 -13    1.00   12.40
   1  -2 -13    1.30   12.40
   2  -1 -13    4.30   10.70
   1  -2 -13    3.70    9.40
   2  -1 -13    7.00   13.20
   1  -2 -13    6.20   13.60
  -2   1 -13    5.70   10.40
   1   1 -13    1.50   12.10
   1   1 -13    3.80   12.40
  -1  -1 -13    0.50   13.00
  -1   2 -13    7.80   15.80
   1  -2  13    0.10   14.80
  -1   2  13   -2.00   12.90
   1   1  13   -3.80   12.60
  -1  -1  13   -6.40   10.70
   1   1  13    2.00   13.20
  -1  -1  13   -1.70    9.60
   2  -1  13   -1.70   12.00
   2  -1  13  -10.90   14.60
   2  -1  13   -4.30   16.00
   1  -2  13    4.10   12.40
  -1   2  13   -1.40   16.90
   1  -2  13    2.20   15.00
   1   1  13    2.70   13.40
  -2   1  13   -5.90   13.00
  -2   2 -13   87.99   15.30
   2  -2 -13   90.99   16.30
   2   0 -13   83.39   16.00
   2  -2 -13   99.29   18.80
   0   2 -13   60.09   19.20
   2   0 -13  101.29   16.20
   2   0 -13   96.09   15.90
   0  -2 -13   87.39   23.20
   0   2 -13  134.39   25.10
   0   2  13   87.19   19.10
   2  -2  13   83.39   21.50
   0   2  13   73.79   14.50
   2   0  13  115.19   17.10
  -2   2  13   65.99   18.50
   2  -2  13   87.79   18.70
   2   0  13   84.19   15.60
   0  -2  13   91.09   17.50
   2   0  13  101.79   21.40
  -2   2  13   78.89   16.60
   0  -2  13   88.69   16.20
   2  -2  13  114.29   21.50
   2  -3 -13   75.69   18.80
  -2   3 -13   42.70   16.00
   1   2 -13   45.00   18.50
  -1  -2 -13   60.19   18.00
   3  -1 -13   66.09   14.20
   2  -3 -13   81.19   20.30
   2  -3 -13   67.49   15.00
  -2   3 -13   51.79   16.30
   3  -1 -13   62.29   14.30
  -2   3 -13   77.69   18.90
   2  -3 -13   73.89   18.30
   3  -1 -13   69.39   16.60
   1   2 -13   61.19   17.40
   1   2 -13   45.80   16.90
   3  -1  13   72.79   21.70
   3  -1  13   79.09   16.40
   2  -3  13   85.69   18.10
  -2   3  13   57.39   19.80
  -2   3  13   51.49   17.70
   1   2  13   63.99   16.90
   3  -1  13   85.29   19.40
   2  -3  13   47.00   19.60
   1   2  13   40.60   14.50
  -1  -2  13   47.70   13.80
   2   1 -13   64.99   15.20
  -2  -1 -13   56.39   17.80
   3  -2 -13   55.79   14.50
  -1   3 -13   67.99   18.80
   2   1 -13   53.09   17.10
   2   1 -13   48.10   14.20
   1  -3 -13   76.99   20.90
  -1   3 -13   45.20   16.20
  -1   3 -13   63.79   18.30
   3  -2 -13   68.29   18.50
  -1   3  13   66.39   17.60
   2   1  13   75.59   18.20
   1  -3  13   90.49   21.40
   3  -2  13   67.19   17.40
   3  -2  13   45.50   18.30
  -1   3  13   65.69   19.60
   1  -3  13   43.80   17.10
   3  -2  13   98.89   20.80
   1  -3  13   84.49   19.70
   2   1  13   55.59   14.70
   0   3 -13    2.60   14.50
   3   0 -13   -0.30   13.90
   0   3 -13   -3.60   14.40
   3   0 -13    0.40   12.50
   3  -3 -13   -0.50   11.60
   0   3 -13   -3.10   19.10
   3  -3 -13   -7.10   10.60
   0  -3 -13   -1.70   15.40
   3   0 -13    1.50   11.70
   3  -3 -13   -3.50   13.20
   3  -3 -13   -1.20   16.00
   0  -3  13   -5.90   12.10
  -3   3  13    6.20   17.50
   3   0  13   -1.10   17.00
   0   3  13    6.30   14.00
   0   3  13   -7.30   14.10
   3  -3  13   -4.20   15.60
   3  -3  13    2.10   14.30
  -3   3  13  -11.20   18.30
   3   0  13    3.70   10.20
   0   0 -14  287.07   26.60
   0   0 -14  290.07   24.30
   0   0 -14  314.07   27.50
   0   0  14  353.26   26.40
   0   0  14  326.27   28.80
   0   0  14  328.47   24.30
   1  -1 -14  516.85   38.70
   0  -1 -14  532.85   45.60
   0   1 -14  538.35   41.60
   0   1 -14  556.64   40.10
   0   1 -14  636.34   42.50
   1   0 -14  562.54   40.70
  -1   1 -14  534.95   40.20
   1   0 -14  654.13   41.80
   1   0 -14  527.45   39.30
   1  -1 -14  568.24   41.80
   1  -1 -14  649.93   42.10
  -1   1 -14  553.34   38.80
  -1   1 -14  582.64   40.80
   0   1  14  572.04   38.60
   1   0  14  598.74   40.30
   1   0  14  577.44   38.60
   1   0  14  585.54   42.50
   0  -1  14  489.05   41.70
  -1   1  14  609.34   39.90
  -1   1  14  575.14   43.10
  -1   0  14  485.45   41.30
   1  -1  14  568.54   44.30
   1  -1  14  575.54   41.20
   0   1  14  479.95   40.70
  -1   0  14  519.45   39.60
   0   1  14  576.24   41.60
   0  -1  14  508.45   40.10
  -1   1  14  633.54   42.20
  -1   2 -14  230.38   28.80
   2  -1 -14  199.88   24.60
  -1   2 -14  176.78   24.30
   2  -1 -14  192.08   21.50
   1   1 -14  162.88   23.90
   1   1 -14  205.78   22.90
   2  -1 -14  221.98   21.10
   1  -2 -14  204.38   28.50
   1  -2 -14  183.38   20.30
  -1  -1 -14  200.88   27.30
   1   1 -14  187.88   21.80
   1  -2 -14  207.88   24.80
   2  -1  14  263.97   22.40
  -2   1  14  234.98   24.10
   2  -1  14  260.77   23.90
  -1   2  14  243.08   26.70
  -1  -1  14  195.58   25.10
   2  -1  14  265.87   28.70
  -1   2  14  250.27   23.10
   1   1  14  240.58   21.70
   1  -2  14  217.68   27.70
   1  -2  14  287.37   27.30
   1  -2  14  254.27   26.30
   1   1  14  235.18   21.20
   1   1  14  261.17   24.20
  -1  -1  14  203.28   21.10
   2   0 -14  428.76   31.80
   2  -2 -14  415.76   35.10
   2  -2 -14  390.86   36.80
   0  -2 -14  429.86   40.50
  -2   0 -14  388.76   38.20
   2  -2 -14  437.66   31.90
   0   2 -14  385.36   35.70
   2   0 -14  388.26   31.20
  -2   2 -14  349.77   34.10
   2   0 -14  404.56   34.20
   0  -2  14  391.86   32.70
   2   0  14  415.96   34.40
   2   0  14  359.96   30.00
   2   0  14  416.56   31.30
   0   2  14  393.16   30.60
  -2   2  14  342.17   32.80
  -2   2  14  432.06   35.40
   0   2  14  374.66   34.20
   2  -2  14  439.76   35.40
   2  -2  14  419.56   40.20
   0  -2  14  362.46   35.00
   2  -2  14  439.56   36.30
   3  -1 -14  289.47   27.40
   3  -1 -14  293.77   27.60
   2  -3 -14  312.47   35.10
  -1  -2 -14  317.07   37.40
   3  -1 -14  302.67   26.30
   1   2 -14  269.57   29.10
   2  -3 -14  268.07   30.50
   1   2 -14  341.07   29.40
   2  -3 -14  285.97   25.70
   2  -3 -14  335.17   34.30
   1   2 -14  263.17   31.00
  -2   3 -14  254.77   39.40
  -2   3 -14  302.97   31.90
   2  -3  14  336.47   33.20
   2  -3  14  318.07   33.80
   1   2  14  267.87   26.60
   3  -1  14  301.07   26.10
   3  -1  14  333.57   30.00
   3  -1  14  302.47   34.60
  -2   3  14  274.97   28.30
  -2   3  14  290.07   31.70
   2  -3  14  313.07   38.20
   1   2  14  306.47   26.70
   2   1 -14  321.27   26.70
   2   1 -14  277.87   26.00
   3  -2 -14  323.27   27.40
   3  -2 -14  290.77   30.00
  -1   3 -14  337.47   34.20
  -1   3 -14  280.77   28.90
  -2  -1 -14  263.87   33.70
  -1   3 -14  243.08   32.20
   2   1 -14  271.57   29.40
   1  -3 -14  310.57   36.20
   1  -3  14  301.07   32.80
   1  -3  14  328.97   33.10
   1  -3  14  323.77   31.80
   3  -2  14  334.77   31.40
   3  -2  14  303.37   35.00
   3  -2  14  341.57   31.00
   2   1  14  293.37   25.10
  -1   3  14  277.67   29.30
   2   1  14  286.17   26.90
   0   0 -15   -1.10   11.00
   0   0 -15    3.70    8.60
   0   0 -15   10.10   13.00
   0   0  15    8.80   11.40
   0   0  15    8.60   14.00
   0   1 -15   97.29   17.30
   0   1 -15  103.39   18.90
   0   1 -15   79.59   17.80
   1   0 -15   94.79   18.50
   1  -1 -15   98.19   18.60
  -1   1 -15   86.69   15.70
   0  -1 -15   75.29   17.50
   1  -1 -15  102.09   15.80
   1  -1 -15   98.59   14.60
   1   0 -15   88.79   15.50
   1   0 -15   95.99   16.60
  -1   1  15   87.89   17.70
   1   0  15   95.09   18.50
   0  -1  15   65.39   13.10
   1   0  15  105.39   16.30
   1  -1  15   84.99   19.30
   1   0  15   86.39   14.70
   0   1  15   78.79   17.80
   0   1  15   81.39   16.20
   0   1  15   77.29   14.00
   0  -1  15   79.39   17.70
   1  -1  15  110.39   18.70
  -1   0  15   98.19   16.80
  -1   0  15   61.59   15.80
   2  -1 -15   -3.40   13.70
   2  -1 -15    2.30   10.50
   2  -1 -15    0.60   12.50
  -1   2 -15   -2.60   15.70
   1  -2 -15   -0.80    8.80
   1   1 -15    5.00   13.70
   1   1 -15    9.00   10.30
  -1  -1 -15    3.70   12.60
   1   1 -15    6.30   14.40
  -1   2 -15   -1.00   14.40
   1  -2 -15    1.20   10.40
   1  -2  15   -7.90   16.20
   1   1  15    4.00   12.00
  -1  -1  15    2.50   12.90
  -1   2  15   -8.10   14.50
  -2   1  15    2.60   14.80
   1   1  15    4.00   13.30
   2  -1  15   19.80   14.70
   2  -1  15   -1.80   16.70
   2  -1  15    2.30   12.80
  -1   2  15   -6.40   13.80
   1   1  15   -2.10   12.90
   1  -2  15   -1.70   14.10
   0   2 -15   57.59   18.10
   2  -2 -15   35.30   14.30
   2  -2 -15   42.70   12.60
   0  -2 -15   46.80   16.30
   0   2 -15   60.09   18.20
   2   0 -15   56.99   15.30
   0   2 -15   32.50   16.80
   2   0 -15   60.19   16.00
   2   0 -15   52.89   13.80
   2  -2 -15   75.49   18.70
  -2   0 -15   52.19   17.60
   2   0  15   82.39   20.50
   2   0  15   56.49   14.60
   0   2  15   52.19   15.20
   0   2  15   55.09   18.40
   2  -2  15   56.19   20.70
   0  -2  15   33.40   15.40
   0  -2  15   66.09   15.20
   2  -2  15   83.69   19.40
   2  -2  15   86.09   18.10
   2   0  15   61.39   14.50
  -2   2  15   47.10   18.20
   0   0 -16  409.06   34.70
   0   0 -16  447.56   34.80
   0   0 -16  392.36   31.90
   0   0  16  524.45   34.80
   0   0  16  488.95   36.50
   0   1 -16  184.18   20.00
   1  -1 -16  192.38   18.60
   1  -1 -16  207.28   22.90
   0  -1 -16  198.88   26.00
   0   1 -16  197.98   22.60
   0   1 -16  214.68   23.80
   1   0 -16  178.38   19.80
   1   0 -16  217.38   22.00
  -1   1 -16  201.38   23.10
   1   0 -16  187.28   21.60
   0  -1  16  186.78   22.10
  -1   0  16  154.98   25.50
  -1   0  16  171.48   20.60
   1   0  16  192.38   20.80
   1   0  16  169.08   19.20
   0   1  16  176.48   17.80
   0   1  16  185.98   23.60
   0   1  16  225.48   23.50
   1  -1  16  192.48   25.50
   1  -1  16  213.28   23.20
   1   0  16  183.88   23.40
  -1   1  16  223.08   23.40
   0  -1  16  192.28   25.50
   0   0   0    0.00    0.00

_computing_structure_solution     'SHELXT 2018/2 (Sheldrick, 2018)'
;
_shelx_hkl_checksum              56317
_olex2_submission_special_instructions 'No special instructions were received'
loop_
_space_group_symop_operation_xyz
'x, y, z'
'-y, x-y, z'
'-x+y, -x, z'
'-x, -y, z+1/2'
'y, -x+y, z+1/2'
'x-y, x, z+1/2'
'-y, -x, z'
'-x+y, y, z'
'x, x-y, z'
'y, x, z+1/2'
'x-y, -y, z+1/2'
'-x, -x+y, z+1/2'
loop_
_atom_site_label
_atom_site_type_symbol
_atom_site_fract_x
_atom_site_fract_y
_atom_site_fract_z
_atom_site_U_iso_or_equiv
_atom_site_adp_type
_atom_site_occupancy
_atom_site_site_symmetry_order
_atom_site_calc_flag
_atom_site_refinement_flags_posn
_atom_site_refinement_flags_adp
_atom_site_refinement_flags_occupancy
_atom_site_disorder_assembly
_atom_site_disorder_group
Sn1 Sn 0.000000 1.000000 0.35787(14) 0.0221(5) Uani 1 6 d S T P . .
As1 As 0.333333 0.666667 0.4737(3) 0.0219(6) Uani 1 6 d S T P . .
Na1 Na 0.666667 0.333333 0.6437(10) 0.037(3) Uani 1 6 d S T P . .
loop_
_atom_site_aniso_label
_atom_site_aniso_U_11
_atom_site_aniso_U_22
_atom_site_aniso_U_33
_atom_site_aniso_U_23
_atom_site_aniso_U_13
_atom_site_aniso_U_12
Sn1 0.0235(6) 0.0235(6) 0.0193(7) 0.000 0.000 0.0118(3)
As1 0.0195(8) 0.0195(8) 0.0268(12) 0.000 0.000 0.0097(4)
Na1 0.040(5) 0.040(5) 0.030(6) 0.000 0.000 0.020(2)
loop_
_atom_type_symbol
_atom_type_description
_atom_type_scat_dispersion_real
_atom_type_scat_dispersion_imag
_atom_type_scat_source
As As 0.0499 2.0058 'International Tables Vol C Tables 4.2.6.8 and 6.1.1.4'
Na Na 0.0362 0.0249 'International Tables Vol C Tables 4.2.6.8 and 6.1.1.4'
Sn Sn -0.6537 1.4246 'International Tables Vol C Tables 4.2.6.8 and 6.1.1.4'
loop_
_exptl_crystal_face_index_h
_exptl_crystal_face_index_k
_exptl_crystal_face_index_l
_exptl_crystal_face_perp_dist
1.00 0.00 1.00 0.2850
-1.00 0.00 -1.00 0.2800
1.00 1.00 0.00 0.2660
1.00 1.00 -1.00 0.2550
0.00 0.00 -1.00 0.1200
0.00 0.00 1.00 0.1360
-1.00 0.00 1.00 0.2410
1.00 0.00 -1.00 0.2480
0.00 1.00 1.00 0.2460
0.00 -1.00 -1.00 0.2320
1.00 -1.00 0.00 0.2230
-1.00 1.00 0.00 0.2140
0.00 -1.00 0.00 0.2270
0.00 1.00 0.00 0.2300
loop_
_geom_angle_atom_site_label_1
_geom_angle_atom_site_label_2
_geom_angle_atom_site_label_3
_geom_angle
_geom_angle_site_symmetry_1
_geom_angle_site_symmetry_3
_geom_angle_publ_flag
As1 Sn1 As1 96.59(9) . 1_565 ?
As1 Sn1 As1 96.59(9) . 1_455 ?
As1 Sn1 As1 96.58(9) 1_565 1_455 ?
As1 Sn1 Na1 131.67(4) 1_565 4_564 ?
As1 Sn1 Na1 131.67(4) 1_455 4_674 ?
As1 Sn1 Na1 131.67(4) . 4_674 ?
As1 Sn1 Na1 77.85(15) 1_455 4_564 ?
As1 Sn1 Na1 77.85(15) . 4_664 ?
As1 Sn1 Na1 77.85(15) 1_565 4_674 ?
As1 Sn1 Na1 131.67(4) 1_565 4_664 ?
As1 Sn1 Na1 131.67(4) 1_455 4_664 ?
As1 Sn1 Na1 131.67(4) . 4_564 ?
Na1 Sn1 Na1 71.8(2) 4_664 4_674 ?
Na1 Sn1 Na1 71.8(2) 4_664 4_564 ?
Na1 Sn1 Na1 71.8(2) 4_564 4_674 ?
Sn1 As1 Sn1 96.59(9) . 1_545 ?
Sn1 As1 Sn1 96.59(9) . 1_655 ?
Sn1 As1 Sn1 96.59(9) 1_545 1_655 ?
Sn1 As1 Na1 90.27(12) 1_545 1_455 ?
Sn1 As1 Na1 90.27(12) 1_655 . ?
Sn1 As1 Na1 169.7(2) . . ?
Sn1 As1 Na1 169.7(2) 1_655 1_455 ?
Sn1 As1 Na1 90.27(12) . 1_565 ?
Sn1 As1 Na1 90.27(12) 1_545 . ?
Sn1 As1 Na1 169.7(2) 1_545 1_565 ?
Sn1 As1 Na1 90.27(12) 1_655 1_565 ?
Sn1 As1 Na1 90.27(12) . 1_455 ?
Na1 As1 Na1 81.9(3) 1_565 . ?
Na1 As1 Na1 81.9(3) 1_455 . ?
Na1 As1 Na1 81.9(3) 1_565 1_455 ?
Sn1 Na1 Sn1 71.8(2) 4_665 4_675 ?
Sn1 Na1 Sn1 71.8(2) 4_665 4_565 ?
Sn1 Na1 Sn1 71.8(2) 4_675 4_565 ?
Sn1 Na1 Na1 90.0 4_675 1_455 ?
Sn1 Na1 Na1 90.0 4_565 1_565 ?
Sn1 Na1 Na1 54.11(11) 4_565 1_445 ?
Sn1 Na1 Na1 90.000(1) 4_665 1_445 ?
Sn1 Na1 Na1 54.11(11) 4_665 3_765 ?
Sn1 Na1 Na1 125.89(11) 4_675 1_545 ?
Sn1 Na1 Na1 90.000(1) 4_675 3_765 ?
Sn1 Na1 Na1 125.89(11) 4_665 1_455 ?
Sn1 Na1 Na1 125.89(11) 4_565 3_765 ?
Sn1 Na1 Na1 54.11(11) 4_565 1_455 ?
Sn1 Na1 Na1 90.000(1) 4_665 3_775 ?
Sn1 Na1 Na1 125.89(11) 4_675 1_445 ?
Sn1 Na1 Na1 54.11(11) 4_675 3_775 ?
Sn1 Na1 Na1 54.11(11) 4_665 1_545 ?
Sn1 Na1 Na1 125.89(11) 4_565 3_775 ?
Sn1 Na1 Na1 90.000(1) 4_565 1_545 ?
Sn1 Na1 Na1 125.89(11) 4_665 1_565 ?
Sn1 Na1 Na1 54.11(11) 4_675 1_565 ?
As1 Na1 Sn1 173.4(3) 1_545 4_675 ?
As1 Na1 Sn1 102.97(6) 1_655 4_665 ?
As1 Na1 Sn1 173.4(3) . 4_665 ?
As1 Na1 Sn1 102.97(6) 1_655 4_675 ?
As1 Na1 Sn1 102.97(6) . 4_565 ?
As1 Na1 Sn1 102.97(6) . 4_675 ?
As1 Na1 Sn1 102.97(6) 1_545 4_665 ?
As1 Na1 Sn1 102.97(6) 1_545 4_565 ?
As1 Na1 Sn1 173.4(3) 1_655 4_565 ?
As1 Na1 As1 81.9(3) 1_545 1_655 ?
As1 Na1 As1 81.9(3) 1_655 . ?
As1 Na1 As1 81.9(3) 1_545 . ?
As1 Na1 Na1 49.03(13) 1_655 3_775 ?
As1 Na1 Na1 130.97(13) 1_545 3_775 ?
As1 Na1 Na1 90.0 1_655 1_545 ?
As1 Na1 Na1 90.000(1) 1_545 1_455 ?
As1 Na1 Na1 49.03(13) 1_655 3_765 ?
As1 Na1 Na1 130.97(13) 1_655 1_455 ?
As1 Na1 Na1 130.97(13) . 3_765 ?
As1 Na1 Na1 49.03(13) . 1_455 ?
As1 Na1 Na1 90.0 1_545 3_765 ?
As1 Na1 Na1 90.000(1) . 3_775 ?
As1 Na1 Na1 49.03(13) 1_545 1_545 ?
As1 Na1 Na1 130.97(13) 1_545 1_565 ?
As1 Na1 Na1 130.97(13) . 1_545 ?
As1 Na1 Na1 49.03(13) 1_545 1_445 ?
As1 Na1 Na1 49.03(13) . 1_565 ?
As1 Na1 Na1 130.97(13) 1_655 1_445 ?
As1 Na1 Na1 90.000(1) 1_655 1_565 ?
As1 Na1 Na1 90.000(1) . 1_445 ?
Na1 Na1 Na1 120.000(1) 3_765 1_445 ?
Na1 Na1 Na1 120.000(1) 3_775 1_545 ?
Na1 Na1 Na1 60.000(1) 3_765 3_775 ?
Na1 Na1 Na1 180.0 3_775 1_445 ?
Na1 Na1 Na1 60.000(1) 3_765 1_545 ?
Na1 Na1 Na1 120.000(2) 1_565 1_445 ?
Na1 Na1 Na1 60.000(1) 1_445 1_545 ?
Na1 Na1 Na1 60.000(2) 1_455 1_445 ?
Na1 Na1 Na1 180.0 1_565 1_545 ?
Na1 Na1 Na1 60.000(1) 1_565 1_455 ?
Na1 Na1 Na1 120.000(2) 3_765 1_565 ?
Na1 Na1 Na1 60.000(1) 3_775 1_565 ?
Na1 Na1 Na1 120.000(2) 1_455 1_545 ?
Na1 Na1 Na1 180.0 3_765 1_455 ?
Na1 Na1 Na1 120.000(1) 3_775 1_455 ?
loop_
_geom_bond_atom_site_label_1
_geom_bond_atom_site_label_2
_geom_bond_distance
_geom_bond_site_symmetry_2
_geom_bond_publ_flag
Sn1 As1 2.689(2) . ?
Sn1 As1 2.689(2) 1_565 ?
Sn1 As1 2.689(2) 1_455 ?
Sn1 Na1 3.424(9) 4_564 ?
Sn1 Na1 3.424(9) 4_674 ?
Sn1 Na1 3.424(9) 4_664 ?
As1 Na1 3.062(8) 1_565 ?
As1 Na1 3.062(8) . ?
As1 Na1 3.062(8) 1_455 ?
Na1 Na1 4.0150(18) 3_765 ?
Na1 Na1 4.0150(18) 1_445 ?
Na1 Na1 4.0150(18) 1_455 ?
Na1 Na1 4.0150(18) 3_775 ?
Na1 Na1 4.0150(18) 1_545 ?
Na1 Na1 4.0150(18) 1_565 ?
loop_
_twin_individual_id
_twin_individual_mass_fraction_refined
1 0.87(10)
2 0.13(10)
