#------------------------------------------------------------------------------
#$Date: 2020-06-25 01:19:48 +0300 (Thu, 25 Jun 2020) $
#$Revision: 253407 $
#$URL: file:///home/coder/svn-repositories/cod/cif/4/00/35/4003596.cif $
#------------------------------------------------------------------------------
#
# This file is available in the Crystallography Open Database (COD),
# http://www.crystallography.net/
#
# All data on this site have been placed in the public domain by the
# contributors.
#
data_4003596
loop_
_publ_author_name
'Sharber, Seth A.'
'Thomas, Samuel W.'
_publ_section_title
;
 Side Chain Regioisomers that Dictate Optical Properties and
 Mechanofluorochromism through Crystal Packing
;
_journal_name_full               'Chemistry of Materials'
_journal_paper_doi               10.1021/acs.chemmater.0c01676
_journal_year                    2020
_chemical_formula_sum            'C40 H22 F8 O6'
_chemical_formula_weight         750.57
_space_group_crystal_system      triclinic
_space_group_IT_number           2
_space_group_name_Hall           '-P 1'
_space_group_name_H-M_alt        'P -1'
_atom_sites_solution_hydrogens   geom
_audit_creation_method           SHELXL-2014/7
_audit_update_record
;
2017-04-20 # Formatted by publCIF

;
_cell_angle_alpha                94.2910(10)
_cell_angle_beta                 100.4840(10)
_cell_angle_gamma                94.6500(10)
_cell_formula_units_Z            1
_cell_length_a                   7.6603(4)
_cell_length_b                   9.2589(5)
_cell_length_c                   11.7819(7)
_cell_measurement_reflns_used    9856
_cell_measurement_temperature    100(2)
_cell_measurement_theta_max      30.26
_cell_measurement_theta_min      2.95
_cell_volume                     815.56(8)
_computing_structure_refinement  'SHELXL-2014/7 (Sheldrick, 2014)'
_diffrn_ambient_temperature      100(2)
_diffrn_measured_fraction_theta_full 0.998
_diffrn_measured_fraction_theta_max 0.996
_diffrn_measurement_device_type  'Bruker APEX-II CCD'
_diffrn_measurement_method       '\f and \w scans'
_diffrn_radiation_type           MoK\a
_diffrn_radiation_wavelength     0.71073
_diffrn_reflns_av_R_equivalents  0.0253
_diffrn_reflns_av_unetI/netI     0.0217
_diffrn_reflns_Laue_measured_fraction_full 0.998
_diffrn_reflns_Laue_measured_fraction_max 0.996
_diffrn_reflns_limit_h_max       10
_diffrn_reflns_limit_h_min       -10
_diffrn_reflns_limit_k_max       13
_diffrn_reflns_limit_k_min       -13
_diffrn_reflns_limit_l_max       16
_diffrn_reflns_limit_l_min       -16
_diffrn_reflns_number            18286
_diffrn_reflns_point_group_measured_fraction_full 0.998
_diffrn_reflns_point_group_measured_fraction_max 0.996
_diffrn_reflns_theta_full        25.242
_diffrn_reflns_theta_max         30.264
_diffrn_reflns_theta_min         2.947
_exptl_absorpt_coefficient_mu    0.133
_exptl_absorpt_correction_type   none
_exptl_absorpt_process_details   'SADABS (Sheldrick, 2009)'
_exptl_crystal_colour            Blue
_exptl_crystal_density_diffrn    1.528
_exptl_crystal_description       Rod
_exptl_crystal_F_000             382
_exptl_crystal_size_max          1.000
_exptl_crystal_size_mid          0.300
_exptl_crystal_size_min          0.300
_exptl_transmission_factor_max   0.961
_exptl_transmission_factor_min   0.879
_refine_diff_density_max         0.528
_refine_diff_density_min         -0.178
_refine_diff_density_rms         0.066
_refine_ls_extinction_method     none
_refine_ls_goodness_of_fit_ref   1.027
_refine_ls_hydrogen_treatment    constr
_refine_ls_matrix_type           full
_refine_ls_number_parameters     245
_refine_ls_number_reflns         4856
_refine_ls_number_restraints     0
_refine_ls_restrained_S_all      1.027
_refine_ls_R_factor_all          0.0498
_refine_ls_R_factor_gt           0.0415
_refine_ls_shift/su_max          0.001
_refine_ls_shift/su_mean         0.000
_refine_ls_structure_factor_coef Fsqd
_refine_ls_weighting_details
'w=1/[\s^2^(Fo^2^)+(0.0699P)^2^+0.2538P] where P=(Fo^2^+2Fc^2^)/3'
_refine_ls_weighting_scheme      calc
_refine_ls_wR_factor_gt          0.1122
_refine_ls_wR_factor_ref         0.1192
_reflns_Friedel_coverage         0.000
_reflns_number_gt                4103
_reflns_number_total             4856
_reflns_threshold_expression     'I > 2\s(I)'
_cod_data_source_file            cm0c01676_si_006.cif
_cod_data_source_block           SS170419_0m_a
_cod_database_code               4003596
_shelx_shelxl_version_number     2014/7
_shelx_space_group_comment
;
The symmetry employed for this shelxl refinement is uniquely defined
by the following loop, which should always be used as a source of
symmetry information in preference to the above space-group names.
They are only intended as comments.
;
_shelx_estimated_absorpt_t_min   0.879
_shelx_estimated_absorpt_t_max   0.961
_shelx_res_file
;

    SS170419_0m_a.res created by SHELXL-2014/7


TITL SS170419_0m_a.res in P-1
REM Old TITL SS170419_0m in P-1
REM SHELXT solution in P-1
REM R1 0.113,  Rweak 0.003,  Alpha 0.034,  Orientation as input
REM Formula found by SHELXT:  C20 F4 O3
CELL  0.71073   7.6603   9.2589  11.7819   94.291  100.484   94.650
ZERR    1.000   0.0004   0.0005   0.0007    0.001    0.001    0.001
LATT  1
SFAC C H F O
UNIT 40 22 8 6
TEMP -173.150
SIZE 0.30 0.30 1.00
L.S. 10
BOND $H
LIST 6
ACTA
FMAP 2
PLAN 20
WGHT    0.069900    0.253800
FVAR       0.54687
C1    1    0.164567    0.454334    0.489660    11.00000    0.01161    0.00981 =
         0.01373   -0.00064    0.00350    0.00165
AFIX  43
H1    2    0.277743    0.423378    0.482825    11.00000   -1.20000
AFIX   0
C2    1    0.156938    0.586947    0.551869    11.00000    0.01087    0.00896 =
         0.01263    0.00040    0.00237    0.00031
C3    1    0.009826    0.365119    0.436779    11.00000    0.01220    0.00959 =
         0.01205    0.00077    0.00290    0.00095
C21   1    0.333673    0.668597    0.604417    11.00000    0.01253    0.01071 =
         0.01301   -0.00087    0.00319   -0.00025
O21   4    0.472080    0.611840    0.618549    11.00000    0.01300    0.01363 =
         0.02721   -0.00199    0.00196    0.00187
C22   1    0.489053    0.889990    0.691345    11.00000    0.01102    0.01254 =
         0.02115   -0.00539    0.00127   -0.00079
AFIX  23
H22A  2    0.569868    0.902399    0.635351    11.00000   -1.20000
H22B  2    0.548809    0.837518    0.755387    11.00000   -1.20000
AFIX   0
O22   4    0.321845    0.808212    0.634386    11.00000    0.01069    0.00974 =
         0.02281   -0.00407    0.00098   -0.00029
C23   1    0.446445    1.034964    0.737535    11.00000    0.01218    0.01154 =
         0.01512   -0.00195    0.00118   -0.00068
C24   1    0.391590    1.052689    0.843114    11.00000    0.01460    0.01518 =
         0.01623    0.00058    0.00258    0.00022
F24   3    0.364803    0.935947    0.900688    11.00000    0.02747    0.02281 =
         0.02310    0.00742    0.00844   -0.00058
C25   1    0.364207    1.187129    0.892543    11.00000    0.01744    0.02381 =
         0.01698   -0.00567    0.00290    0.00428
F25   3    0.314222    1.199422    0.995692    11.00000    0.03177    0.04118 =
         0.02229   -0.00841    0.01142    0.00710
C26   1    0.389349    1.308012    0.833482    11.00000    0.02043    0.01400 =
         0.02922   -0.00796   -0.00147    0.00464
F26   3    0.360483    1.437727    0.881336    11.00000    0.03831    0.01831 =
         0.04841   -0.01422    0.00032    0.01071
C27   1    0.440868    1.297381    0.727569    11.00000    0.02274    0.01247 =
         0.02627    0.00257   -0.00245   -0.00031
AFIX  43
H27   2    0.457458    1.380788    0.686995    11.00000   -1.20000
AFIX   0
C28   1    0.467535    1.160764    0.682510    11.00000    0.01711    0.01707 =
         0.01479   -0.00009    0.00087   -0.00209
F28   3    0.519339    1.149328    0.579123    11.00000    0.03401    0.02850 =
         0.01674    0.00270    0.00757   -0.00425
C31   1    0.031070    0.231292    0.374125    11.00000    0.01129    0.01210 =
         0.01568    0.00035    0.00311    0.00074
C32   1    0.050714    0.117975    0.323487    11.00000    0.01173    0.01255 =
         0.01719   -0.00037    0.00280    0.00070
C33   1    0.068481   -0.020031    0.265570    11.00000    0.01112    0.01063 =
         0.01592   -0.00192    0.00224    0.00144
C34   1    0.107017   -0.031058    0.153409    11.00000    0.01571    0.01157 =
         0.01529    0.00087    0.00275    0.00084
AFIX  43
H34   2    0.118455    0.054132    0.114104    11.00000   -1.20000
AFIX   0
C35   1    0.128469   -0.164318    0.099614    11.00000    0.01694    0.01503 =
         0.01307   -0.00165    0.00398    0.00145
AFIX  43
H35   2    0.154629   -0.170435    0.023715    11.00000   -1.20000
AFIX   0
C36   1    0.111721   -0.290408    0.156764    11.00000    0.01593    0.01087 =
         0.01424   -0.00306    0.00157    0.00300
O36   4    0.140913   -0.415008    0.097732    11.00000    0.02974    0.01142 =
         0.01745   -0.00424    0.00574    0.00528
C37   1    0.068802   -0.281807    0.266784    11.00000    0.02332    0.01068 =
         0.01482    0.00100    0.00436    0.00286
AFIX  43
H37   2    0.053424   -0.367611    0.304766    11.00000   -1.20000
AFIX   0
C38   1    0.048526   -0.147019    0.320878    11.00000    0.02122    0.01272 =
         0.01435   -0.00116    0.00575    0.00246
AFIX  43
H38   2    0.020767   -0.141266    0.396359    11.00000   -1.20000
AFIX   0
C39   1    0.120785   -0.547168    0.151350    11.00000    0.03687    0.01144 =
         0.02308   -0.00166    0.00386    0.00712
AFIX 137
H39A  2   -0.001141   -0.562751    0.165625    11.00000   -1.50000
H39B  2    0.205507   -0.540655    0.225098    11.00000   -1.50000
H39C  2    0.144181   -0.628762    0.100109    11.00000   -1.50000
AFIX   0
HKLF 4

REM  SS170419_0m_a.res in P-1
REM R1 =  0.0415 for    4103 Fo > 4sig(Fo)  and  0.0498 for all    4856 data
REM    245 parameters refined using      0 restraints

END

WGHT      0.0699      0.2538

REM Highest difference peak  0.528,  deepest hole -0.178,  1-sigma level  0.066
Q1    1   0.3713  1.1177  0.8663  11.00000  0.05    0.53
Q2    1   0.4146  1.0406  0.7884  11.00000  0.05    0.51
Q3    1   0.2467  0.6278  0.5797  11.00000  0.05    0.50
Q4    1   0.1555  0.5195  0.5275  11.00000  0.05    0.49
Q5    1   0.0978 -0.0262  0.2182  11.00000  0.05    0.49
Q6    1   0.0721 -0.0812  0.2970  11.00000  0.05    0.48
Q7    1   0.0834  0.4104  0.4594  11.00000  0.05    0.47
Q8    1   0.1026 -0.2821  0.2192  11.00000  0.05    0.47
Q9    1   0.4660  1.0974  0.7168  11.00000  0.05    0.47
Q10   1   0.1012 -0.1040  0.1285  11.00000  0.05    0.46
Q11   1   0.4166  1.2980  0.7839  11.00000  0.05    0.46
Q12   1   0.4649  0.9659  0.7180  11.00000  0.05    0.45
Q13   1   0.3701  1.2437  0.8595  11.00000  0.05    0.45
Q14   1   0.1060 -0.2297  0.1281  11.00000  0.05    0.45
Q15   1   0.0792  0.6135  0.5585  11.00000  0.05    0.45
Q16   1   0.4650  1.2324  0.7165  11.00000  0.05    0.44
Q17   1   0.0550 -0.2159  0.2903  11.00000  0.05    0.43
Q18   1   0.4647  0.6456  0.5597  11.00000  0.05    0.40
Q19   1   0.1240 -0.3608  0.1288  11.00000  0.05    0.36
Q20   1   0.0484  0.1953  0.3206  11.00000  0.05    0.33
;
_shelx_res_checksum              99592
_shelx_hkl_file
;
  -2   0   0 1877.91   42.40
  -2   0   0 1791.82   42.30
  -2   0   0 1860.51   42.40
  -3   0   0    7.40    0.40
  -3   0   0    7.10    0.40
  -3   0   0    7.00    0.50
  -4   0   0  353.46    8.30
  -4   0   0  355.66    8.30
  -4   0   0  356.16    8.30
  -5   0   0  153.88    3.90
  -5   0   0  157.88    3.90
  -5   0   0  157.78    3.90
  -6   0   0  165.98    4.10
  -6   0   0  164.98    4.20
  -6   0   0  163.98    4.10
  -7   0   0   13.10    0.90
  -7   0   0   12.90    0.80
   7   0   0   13.60    0.90
  -8   0   0    4.20    0.60
  -8   0   0    3.70    0.60
   8   0   0    3.80    0.60
  -9   0   0    0.90    0.60
  -9   0   0   -0.10    0.60
   9   0   0   -0.90    0.50
 -10   0   0   13.40    1.40
 -10   0   0   11.40    1.20
  10   0   0   14.30    1.30
  10  -1   0   -0.10    0.60
 -10   1   0    1.00    0.70
 -10   1   0    0.00    0.70
   9  -1   0    0.20    0.50
  -9   1   0    2.00    0.60
  -9   1   0    1.20    0.60
   8  -1   0    7.40    0.90
  -8   1   0    7.80    0.90
  -8   1   0    7.40    0.90
   7  -1   0   63.39    1.90
  -7   1   0   62.29    2.00
  -7   1   0   60.29    1.90
   6  -1   0    1.20    0.30
  -6   1   0    1.20    0.40
  -6   1   0    0.80    0.40
  -5   1   0    0.60    0.30
  -5   1   0    0.90    0.30
  -5   1   0    1.00    0.30
  -4   1   0    0.90    0.20
  -4   1   0    1.40    0.30
  -4   1   0    1.20    0.20
  -4   1   0    1.20    0.30
  -3   1   0   81.99    2.00
  -3   1   0   84.59    2.00
  -3   1   0   82.89    2.10
  -3   1   0   82.29    2.10
  -3   1   0   83.19    2.00
   2  -1   0   44.60    1.20
  -2   1   0   48.20    1.20
  -2   1   0   47.30    1.30
  -2   1   0   48.10    1.20
  -2   1   0   47.60    1.20
  -2   1   0   48.50    1.20
   1  -1   0  462.95   10.60
  -1   1   0  440.76   10.60
  -1   1   0  483.15   10.60
  -1  -1   0  123.69    3.00
  -1  -1   0  134.59    3.10
  -1  -1   0  134.99    3.10
   1   1   0  132.59    3.00
   1   1   0  127.99    3.00
  -2  -1   0 1969.20   44.90
  -2  -1   0 1999.20   44.80
  -2  -1   0 1898.91   44.80
  -3  -1   0  145.39    3.50
  -3  -1   0  147.59    3.30
  -3  -1   0  134.19    3.40
  -3  -1   0  143.89    3.40
  -3  -1   0  144.99    3.50
  -4  -1   0   76.39    2.10
  -4  -1   0   78.59    2.00
  -4  -1   0   78.39    2.10
  -5  -1   0   96.09    2.60
  -5  -1   0   97.69    2.50
  -5  -1   0   96.89    2.60
  -6  -1   0  196.78    5.00
  -6  -1   0  199.38    4.90
  -6  -1   0  198.98    5.00
  -7  -1   0   50.39    1.70
  -7  -1   0   50.79    1.60
  -7  -1   0   50.89    1.80
  -8  -1   0   53.19    1.80
  -8  -1   0   53.59    1.80
   8   1   0   50.59    1.90
  -9  -1   0    0.30    0.60
  -9  -1   0    1.50    0.60
   9   1   0    1.10    0.60
 -10  -1   0    3.30    0.80
  10   1   0    2.00    0.70
  10  -2   0    6.10    0.80
 -10   2   0    7.10    1.00
 -10   2   0    7.20    0.90
   9  -2   0   11.50    1.00
  -9   2   0    9.90    1.20
  -9   2   0    9.10    1.10
   8  -2   0    9.40    0.80
  -8   2   0    7.30    1.00
   7  -2   0    9.70    0.70
  -7   2   0    8.90    1.00
  -7   2   0   10.10    0.90
   6  -2   0   46.60    1.40
  -6   2   0   43.50    1.50
  -6   2   0   44.70    1.20
  -6   2   0   45.90    1.50
  -6   2   0   45.50    1.20
   5  -2   0   73.19    1.90
  -5   2   0   73.19    2.10
  -5   2   0   72.59    1.80
  -5   2   0   72.89    2.00
  -5   2   0   72.39    1.80
   4  -2   0  188.78    4.40
  -4   2   0  187.28    4.40
  -4   2   0  179.68    4.60
  -4   2   0  182.88    4.50
  -4   2   0  186.98    4.50
   3  -2   0  279.07    6.40
  -3   2   0  282.07    6.50
  -3   2   0  272.87    6.60
  -3   2   0  280.37    6.50
  -3   2   0  276.47    6.60
   2  -2   0    6.50    0.40
  -2   2   0    6.40    0.40
  -2   2   0    6.40    0.40
  -2   2   0    6.10    0.30
   1  -2   0    7.20    0.40
   1  -2   0    7.10    0.40
   1  -2   0    7.60    0.40
  -1   2   0    7.30    0.40
  -1   2   0    7.20    0.40
  -1   2   0    7.50    0.40
   0  -2   0    0.90    0.20
   0  -2   0    1.00    0.20
   0  -2   0    0.90    0.20
   0  -2   0    0.90    0.20
   0   2   0    1.30    0.30
   0   2   0    0.80    0.20
  -1  -2   0   40.40    1.10
  -1  -2   0   40.20    1.10
  -1  -2   0   40.00    1.10
   1   2   0   41.70    1.00
   1   2   0   39.60    1.10
  -2  -2   0   53.69    1.40
  -2  -2   0   53.09    1.40
  -2  -2   0   53.49    1.40
  -2  -2   0   49.20    1.40
   2   2   0   50.59    1.40
   2   2   0   53.99    1.30
  -3  -2   0  168.08    4.00
  -3  -2   0  166.68    4.00
  -3  -2   0  169.98    4.00
  -3  -2   0  164.08    4.10
   3   2   0  168.28    4.00
  -4  -2   0   55.09    1.40
  -4  -2   0   55.49    1.60
  -4  -2   0   55.39    1.40
  -4  -2   0   55.59    1.60
   4   2   0   55.79    1.50
  -5  -2   0    4.30    0.60
  -5  -2   0    4.70    0.60
  -6  -2   0    0.70    0.40
  -6  -2   0    1.10    0.40
  -7  -2   0    9.90    0.90
   7   2   0   10.60    0.80
  -8  -2   0    7.20    1.00
   8   2   0    7.30    1.00
   8   2   0    7.90    0.90
  -9  -2   0   15.00    1.20
   9   2   0   10.50    1.20
   9   2   0   15.60    1.10
 -10  -2   0   -0.60    0.70
  10   2   0   -1.70    0.70
  10  -3   0   11.60    1.40
 -10   3   0   12.10    1.30
   9  -3   0    2.40    0.60
   9  -3   0    2.60    0.70
  -9   3   0    1.50    0.60
   8  -3   0    0.90    0.40
  -8   3   0    0.20    0.50
  -8   3   0    0.60    0.50
   7  -3   0    6.30    0.60
  -7   3   0    6.50    0.80
  -7   3   0    5.80    0.70
  -7   3   0    5.40    0.50
   6  -3   0   58.19    1.60
  -6   3   0   60.09    1.90
  -6   3   0   58.19    1.60
  -6   3   0   58.89    1.60
  -6   3   0   61.19    1.90
  -5   3   0   50.79    1.40
  -5   3   0   44.70    1.50
  -5   3   0   50.29    1.40
  -5   3   0   51.29    1.60
   4  -3   0    0.10    0.30
   4  -3   0    0.60    0.20
  -4   3   0    0.20    0.20
  -4   3   0    0.60    0.30
  -4   3   0    0.30    0.20
   3  -3   0    0.60    0.20
   3  -3   0    0.50    0.30
  -3   3   0    0.60    0.30
  -3   3   0    0.70    0.20
  -3   3   0    0.40    0.20
   2  -3   0   51.59    1.40
   2  -3   0   50.09    1.40
  -2   3   0   51.99    1.40
  -2   3   0   51.39    1.40
   1  -3   0    3.70    0.40
   1  -3   0    3.60    0.40
   1  -3   0    3.90    0.20
  -1   3   0    3.60    0.40
  -1   3   0    3.40    0.20
  -1   3   0    4.10    0.40
  -1   3   0    3.40    0.40
   0  -3   0  124.89    3.00
   0  -3   0  124.99    2.90
   0   3   0  122.09    3.00
   0   3   0  119.79    3.00
  -1  -3   0   56.09    1.50
  -1  -3   0   57.09    1.50
  -1  -3   0   57.69    1.50
  -1  -3   0   58.39    1.50
   1   3   0   56.99    1.60
   1   3   0   59.29    1.50
  -2  -3   0   19.00    0.70
  -2  -3   0   18.90    0.70
  -2  -3   0   19.20    0.70
  -2  -3   0   20.10    0.70
   2   3   0   19.30    0.70
   2   3   0   20.90    0.70
  -3  -3   0   13.00    0.60
  -3  -3   0   13.50    0.60
  -3  -3   0   13.50    0.60
  -3  -3   0   13.50    0.60
   3   3   0   13.20    0.60
  -4  -3   0   87.09    2.30
  -4  -3   0   84.19    2.40
  -4  -3   0   86.49    2.20
  -4  -3   0   87.19    2.20
   4   3   0   86.99    2.20
  -5  -3   0   45.50    1.50
  -5  -3   0   45.10    1.20
  -5  -3   0   44.30    1.20
  -5  -3   0   44.90    1.40
   5   3   0   43.40    1.30
  -6  -3   0  161.38    4.20
  -6  -3   0  159.38    4.10
  -6  -3   0  160.18    3.80
   6   3   0  163.48    4.00
  -7  -3   0   17.20    1.10
  -7  -3   0   18.10    1.20
   7   3   0   19.20    0.90
   8   3   0   -0.30    0.50
   8   3   0    0.60    0.50
  -9  -3   0   56.69    2.10
   9   3   0   57.89    2.30
 -10  -3   0    0.40    0.70
  10   3   0    0.80    0.80
  10  -4   0    7.40    1.10
 -10   4   0   10.60    1.40
   9  -4   0    1.80    0.60
  -9   4   0    2.20    0.70
   8  -4   0    6.50    0.80
  -8   4   0    6.20    0.60
  -8   4   0    5.70    0.60
  -8   4   0    6.10    0.70
   7  -4   0    3.90    0.60
   7  -4   0    5.10    0.50
  -7   4   0    4.10    0.50
  -7   4   0    4.90    0.60
   6  -4   0  219.78    5.50
  -6   4   0  218.78    5.30
  -6   4   0  210.08    5.20
  -6   4   0  216.78    5.50
   5  -4   0   87.89    2.50
  -5   4   0   84.69    2.70
  -5   4   0   90.89    2.40
  -5   4   0   86.99    2.50
   4  -4   0  696.73   16.50
  -4   4   0  711.33   16.40
  -4   4   0  718.13   16.50
  -4   4   0  702.33   16.40
   3  -4   0   74.39    2.00
   3  -4   0   77.49    2.00
  -3   4   0   73.99    2.00
  -3   4   0   74.69    2.10
   2  -4   0   77.99    2.10
   2  -4   0   79.89    2.10
  -2   4   0   78.69    2.10
  -2   4   0   73.19    2.10
  -2   4   0   79.19    2.10
   1  -4   0   -0.10    0.10
   1  -4   0    0.30    0.40
   1  -4   0   -0.20    0.20
  -1   4   0   -0.10    0.50
  -1   4   0    0.30    0.20
   0  -4   0  219.38    5.30
   0  -4   0  215.78    5.40
   0  -4   0  232.68    5.30
   0   4   0  228.38    5.30
  -1  -4   0  404.36    9.30
  -1  -4   0  394.96    9.20
  -1  -4   0  410.66    9.20
  -1  -4   0  360.66    9.30
   1   4   0  402.86    9.30
   1   4   0  401.56    9.20
  -2  -4   0  267.07    6.50
  -2  -4   0  270.27    6.50
  -2  -4   0  271.47    6.40
   2   4   0  279.37    6.40
   2   4   0  272.47    6.50
  -3  -4   0   85.49    2.30
  -3  -4   0   86.19    2.30
  -3  -4   0   85.69    2.30
  -3  -4   0   86.09    2.30
   3   4   0   88.79    2.20
  -4  -4   0    5.90    0.70
  -4  -4   0    6.80    0.60
  -4  -4   0    6.70    0.60
  -4  -4   0    6.20    0.50
   4   4   0    7.20    0.50
  -5  -4   0   14.70    0.80
  -5  -4   0   14.30    0.90
  -5  -4   0   14.50    0.70
  -5  -4   0   14.90    0.70
   5   4   0   13.70    0.70
  -6  -4   0   15.20    1.00
  -6  -4   0   15.50    1.00
  -6  -4   0   15.90    0.70
   6   4   0   15.50    0.80
  -7  -4   0   -0.90    0.40
  -7  -4   0   -0.40    0.50
   7   4   0    0.20    0.40
  -8  -4   0   84.69    2.70
   8   4   0   91.49    2.90
   8   4   0   90.49    2.60
  -9  -4   0    6.30    0.80
   9   4   0    5.80    0.90
  10  -5   0    0.30    0.80
 -10   5   0    0.50    0.70
   9  -5   0   17.30    1.70
  -9   5   0   17.10    1.50
   8  -5   0    0.10    0.50
  -8   5   0   -0.20    0.40
  -8   5   0    0.20    0.60
  -8   5   0   -0.30    0.40
   7  -5   0   58.79    2.00
  -7   5   0   59.59    1.80
  -7   5   0   57.69    1.80
  -7   5   0   57.99    2.10
  -6   5   0   39.50    1.40
  -6   5   0   40.10    1.60
   5  -5   0   27.80    1.20
  -5   5   0   29.60    1.20
  -5   5   0   29.20    1.20
  -5   5   0   31.00    1.10
   4  -5   0   18.70    0.90
   4  -5   0   17.90    0.90
  -4   5   0   19.20    0.90
  -4   5   0   18.30    0.90
  -4   5   0   18.90    0.90
   3  -5   0   14.00    0.80
   3  -5   0   12.90    0.70
  -3   5   0   14.00    0.80
  -3   5   0   14.60    0.80
  -3   5   0   13.60    0.80
   2  -5   0  130.69    3.30
   2  -5   0  129.39    3.30
  -2   5   0  129.09    3.30
  -2   5   0  130.69    3.40
   1  -5   0   88.79    2.40
   1  -5   0   81.89    2.00
   1  -5   0   76.99    2.10
  -1   5   0   77.19    2.10
  -1   5   0   75.59    2.20
   0  -5   0  247.08    6.10
   0  -5   0  255.97    6.00
   0  -5   0  253.17    5.90
   0   5   0  248.78    6.10
   0   5   0  244.68    6.00
  -1  -5   0   26.10    0.90
  -1  -5   0   26.00    1.00
  -1  -5   0   25.90    0.90
   1   5   0   26.40    1.00
   1   5   0   26.30    0.90
  -2  -5   0    0.30    0.30
  -2  -5   0    0.60    0.30
  -2  -5   0    0.60    0.30
  -2  -5   0    0.30    0.30
   2   5   0    0.80    0.40
   2   5   0    0.50    0.30
  -3  -5   0    0.50    0.30
  -3  -5   0    0.20    0.30
  -3  -5   0    0.60    0.30
  -3  -5   0    0.10    0.30
   3   5   0    1.40    0.50
   3   5   0    0.80    0.30
  -4  -5   0    4.70    0.60
  -4  -5   0    5.40    0.60
  -4  -5   0    4.20    0.50
  -4  -5   0    4.10    0.50
   4   5   0    4.50    0.60
  -5  -5   0   15.00    0.90
  -5  -5   0   15.00    0.80
  -5  -5   0   15.50    1.20
  -5  -5   0   14.90    0.90
   5   5   0   15.50    0.80
  -6  -5   0   75.79    2.10
  -6  -5   0   75.79    2.30
  -6  -5   0   71.79    2.10
  -6  -5   0   73.39    2.40
   6   5   0   75.49    2.10
  -7  -5   0    0.10    0.50
  -7  -5   0   -0.50    0.50
  -7  -5   0    0.30    0.30
  -7  -5   0    0.10    0.40
   7   5   0    0.80    0.50
  -8  -5   0    3.30    0.70
   8   5   0    2.50    0.70
  -9  -5   0    0.80    0.70
   9   5   0   -0.50    1.20
   9  -6   0   17.50    1.40
  -9   6   0   19.90    1.50
  -9   6   0   17.50    1.00
  -9   6   0   16.30    1.00
   8  -6   0    3.80    0.70
  -8   6   0    2.80    0.80
  -8   6   0    2.10    0.50
  -8   6   0    2.20    0.50
   7  -6   0    1.40    0.60
  -7   6   0   -0.10    0.60
  -7   6   0   -0.50    0.50
  -7   6   0    0.50    0.40
   6  -6   0    1.10    0.50
  -6   6   0   -0.30    0.60
  -6   6   0    0.70    0.40
  -6   6   0    1.30    0.50
   5  -6   0   -0.20    0.40
  -5   6   0    0.00    0.40
  -5   6   0    0.60    0.50
  -5   6   0    0.70    0.40
   4  -6   0   47.50    1.60
   4  -6   0   47.80    1.70
  -4   6   0   49.70    1.70
  -4   6   0   47.20    1.60
   3  -6   0    0.00    0.40
   3  -6   0    0.70    0.40
  -3   6   0   -0.20    0.30
  -3   6   0    0.60    0.40
  -3   6   0   -0.40    0.40
   2  -6   0   17.10    0.80
   2  -6   0   16.40    0.90
  -2   6   0   17.20    0.90
  -2   6   0   17.50    0.60
  -2   6   0   21.50    1.20
   1  -6   0  115.89    3.10
   1  -6   0  117.69    3.20
   1  -6   0  122.69    2.90
  -1   6   0  117.79    3.20
  -1   6   0  119.29    3.10
   0  -6   0    2.00    0.60
   0  -6   0    1.40    0.30
   0  -6   0    1.10    0.30
   0   6   0    1.10    0.40
   0   6   0    1.40    0.30
  -1  -6   0    5.20    0.50
  -1  -6   0    6.10    0.60
  -1  -6   0    5.70    0.60
   1   6   0    7.50    1.00
   1   6   0    5.70    0.60
  -2  -6   0    2.50    0.40
  -2  -6   0    2.70    0.40
  -2  -6   0    2.40    0.40
  -2  -6   0    3.40    0.50
   2   6   0    3.00    0.40
   2   6   0    3.40    0.50
  -3  -6   0   25.90    1.10
  -3  -6   0   24.70    1.10
  -3  -6   0   27.60    1.10
  -3  -6   0   25.90    1.10
   3   6   0   26.60    1.00
   3   6   0   26.20    1.30
  -4  -6   0    2.90    0.50
  -4  -6   0    2.10    0.40
  -4  -6   0    3.00    0.50
  -4  -6   0    2.40    0.50
   4   6   0    3.00    0.40
  -5  -6   0   77.79    2.40
  -5  -6   0   79.29    2.30
  -5  -6   0   78.29    2.30
  -5  -6   0   79.79    2.30
   5   6   0   80.69    2.20
  -6  -6   0    2.20    0.50
  -6  -6   0    2.50    0.60
  -6  -6   0    2.50    0.40
   6   6   0    1.90    0.50
  -7  -6   0    1.00    0.60
  -7  -6   0    1.20    0.50
  -7  -6   0    0.60    0.40
  -7  -6   0    1.50    0.50
  -8  -6   0   10.40    1.20
   8   6   0   12.80    1.50
   9  -7   0   -0.40    0.80
  -9   7   0   -0.10    0.50
  -9   7   0   -0.80    0.80
   8  -7   0    0.20    0.60
  -8   7   0    0.10    0.50
  -8   7   0   -1.20    0.60
   7  -7   0   -0.30    0.60
  -7   7   0    0.90    0.60
  -7   7   0   -0.20    0.50
   6  -7   0   61.59    2.10
  -6   7   0   62.89    2.20
  -6   7   0   61.29    2.10
   5  -7   0   43.90    1.60
  -5   7   0   42.30    1.70
  -5   7   0   44.50    1.70
   4  -7   0  334.97    8.40
   4  -7   0  352.16    8.30
  -4   7   0  337.97    8.40
  -4   7   0  343.57    8.40
   3  -7   0  116.99    3.30
   3  -7   0  118.49    3.20
  -3   7   0  116.29    3.30
  -3   7   0  114.39    3.20
   2  -7   0    4.20    0.60
   2  -7   0    2.30    0.40
  -2   7   0    4.00    0.40
  -2   7   0    2.90    0.50
  -2   7   0    3.40    0.60
   1  -7   0   90.69    2.30
   1  -7   0   87.49    2.50
   1  -7   0   88.59    2.60
  -1   7   0   89.39    2.60
  -1   7   0   88.69    2.50
   0  -7   0  150.58    3.70
   0  -7   0  146.99    3.80
   0   7   0  145.29    3.80
   0   7   0  144.09    3.90
  -1  -7   0    2.90    0.50
  -1  -7   0    3.60    0.50
  -1  -7   0    3.40    0.40
   1   7   0    3.50    0.50
   1   7   0    3.50    0.50
  -2  -7   0  146.69    3.90
  -2  -7   0  151.48    3.90
  -2  -7   0  151.08    4.00
   2   7   0  154.08    4.10
   2   7   0  152.68    3.80
  -3  -7   0  268.17    6.80
  -3  -7   0  268.97    6.80
  -3  -7   0  271.37    6.70
   3   7   0  272.97    6.60
   3   7   0  295.07    7.60
  -4  -7   0   95.79    2.70
  -4  -7   0   93.19    2.80
  -4  -7   0   92.99    2.70
   4   7   0   96.79    2.60
  -5  -7   0   21.50    1.10
  -5  -7   0   21.90    1.20
   5   7   0   22.10    1.00
  -6  -7   0   -0.50    0.50
  -6  -7   0    0.00    0.40
  -6  -7   0    0.90    0.50
   6   7   0   -1.10    0.50
  -7  -7   0    0.40    0.60
  -7  -7   0    0.40    0.40
   7   7   0    0.90    0.70
  -8  -7   0    2.90    0.50
  -8  -7   0    3.50    0.80
  -8  -7   0    2.70    0.50
   8   7   0    2.50    0.90
  -9   8   0   17.70    1.80
  -9   8   0   19.40    1.40
   8  -8   0   26.70    1.90
  -8   8   0   28.60    1.70
  -8   8   0   25.30    2.10
   7  -8   0    0.40    0.60
  -7   8   0    0.20    0.60
  -7   8   0    1.60    0.70
   6  -8   0    1.10    0.50
  -6   8   0    1.90    0.60
  -6   8   0    0.80    0.60
   5  -8   0    0.00    0.50
  -5   8   0    0.20    0.50
  -5   8   0    0.40    0.50
   4  -8   0  141.59    3.80
  -4   8   0  138.29    4.10
  -4   8   0  142.39    3.90
   3  -8   0  158.28    5.10
   3  -8   0  181.58    4.70
  -3   8   0  183.08    4.70
   2  -8   0   41.60    1.50
   2  -8   0   39.70    1.70
  -2   8   0   41.50    1.20
  -2   8   0   41.20    1.70
  -2   8   0   41.00    1.60
   1  -8   0    0.90    0.50
   1  -8   0    0.30    0.50
  -1   8   0    0.00    0.50
  -1   8   0    0.20    0.50
   0  -8   0  160.68    3.90
   0  -8   0  149.39    4.00
   0  -8   0  153.48    4.20
   0   8   0  156.48    4.30
   0   8   0  159.18    4.10
  -1  -8   0  263.07    6.50
  -1  -8   0  263.97    6.40
  -1  -8   0  265.97    6.70
   1   8   0  257.47    6.60
   1   8   0  260.97    6.40
  -2  -8   0  809.22   18.90
  -2  -8   0  785.72   18.70
  -2  -8   0  814.82   18.80
   2   8   0  802.92   18.90
   2   8   0  803.12   18.70
  -3  -8   0    3.70    0.60
  -3  -8   0    4.20    0.80
  -3  -8   0    3.20    0.50
   3   8   0    4.70    0.60
  -4  -8   0  403.26    9.90
  -4  -8   0  397.96    9.90
   4   8   0  413.26    9.60
  -5  -8   0    7.90    0.90
  -5  -8   0    5.90    0.80
  -5  -8   0    6.10    0.90
   5   8   0    6.20    0.70
  -6  -8   0    3.50    0.60
  -6  -8   0    4.10    0.70
  -6  -8   0    4.30    0.70
  -7  -8   0    2.00    0.60
  -7  -8   0    1.40    0.70
   7   8   0    1.50    0.90
   8  -9   0    0.40    0.80
  -8   9   0   -0.40    0.80
  -8   9   0   -0.10    0.70
   7  -9   0    4.30    0.90
  -7   9   0    4.60    1.00
  -7   9   0    4.10    0.90
   6  -9   0    0.00    0.60
  -6   9   0   -0.40    0.70
  -6   9   0   -0.70    0.60
   5  -9   0    6.20    0.80
  -5   9   0    6.30    0.90
  -5   9   0    5.70    0.80
   4  -9   0    3.60    0.60
  -4   9   0    4.20    0.70
  -4   9   0    4.20    0.80
   3  -9   0   11.40    1.20
   3  -9   0    9.60    1.00
  -3   9   0    9.90    1.20
  -3   9   0    9.50    1.00
   2  -9   0    0.90    0.50
   2  -9   0    1.80    1.00
  -2   9   0    1.50    0.40
  -2   9   0    0.20    0.60
  -2   9   0    1.00    0.50
   1  -9   0   40.30    1.80
  -1   9   0   37.60    1.70
  -1   9   0   41.90    1.40
  -1   9   0   39.10    1.80
   0  -9   0   15.80    1.60
   0  -9   0   22.00    1.70
   0   9   0   22.50    1.90
   0   9   0   17.10    1.10
  -1  -9   0    4.80    0.60
  -1  -9   0    4.40    1.00
  -1  -9   0    4.80    0.70
   1   9   0    4.10    0.60
   1   9   0    5.20    0.90
  -2  -9   0   67.29    2.30
   2   9   0   68.69    2.10
  -3  -9   0   31.50    1.50
  -3  -9   0   28.60    1.30
  -3  -9   0   30.90    1.40
   3   9   0   29.50    1.30
  -4  -9   0    7.60    1.00
  -4  -9   0   10.00    1.00
  -4  -9   0    8.60    1.00
   4   9   0   10.40    1.00
  -5  -9   0   19.60    1.30
  -5  -9   0   19.90    1.30
  -5  -9   0   20.00    1.20
   5   9   0   21.10    1.60
  -6  -9   0   23.30    1.40
  -6  -9   0   24.70    1.40
   6   9   0   26.00    1.70
   7   9   0   18.80    2.00
   7 -10   0   -1.00    0.60
  -7  10   0    0.30    1.00
  -7  10   0    0.10    0.70
   6 -10   0    2.90    0.80
  -6  10   0    3.50    0.90
  -6  10   0    2.60    0.80
   5 -10   0    0.20    0.60
  -5  10   0    0.70    0.70
  -5  10   0    0.00    0.60
   4 -10   0    4.50    0.80
  -4  10   0    3.70    0.80
  -4  10   0    4.40    0.90
   3 -10   0    2.30    0.60
  -3  10   0    1.40    0.80
  -3  10   0    2.40    0.60
   2 -10   0   36.00    1.60
   2 -10   0   35.50    1.80
  -2  10   0   35.10    1.90
  -2  10   0   33.00    1.60
   1 -10   0    2.30    0.60
   1 -10   0    1.80    0.70
  -1  10   0    2.30    0.60
  -1  10   0    2.60    0.50
  -1  10   0    4.60    1.30
   0 -10   0    2.10    0.60
   0 -10   0    2.10    0.80
   0  10   0    2.20    0.80
   0  10   0    1.60    0.60
   0  10   0    2.10    0.60
  -1 -10   0    3.50    0.60
  -1 -10   0    2.80    0.70
   1  10   0    3.10    0.60
   1  10   0    2.00    0.70
  -2 -10   0    1.00    0.60
  -2 -10   0    1.40    0.60
  -3 -10   0    3.60    0.70
  -3 -10   0    4.70    0.80
   3  10   0    4.00    0.70
  -4 -10   0    0.80    0.60
  -4 -10   0    2.00    0.60
   4  10   0    2.30    0.70
   4  10   0    2.60    0.70
  -5 -10   0   35.80    1.70
  -5 -10   0   35.50    1.80
   5  10   0   34.70    1.90
  -6 -10   0    5.80    0.90
   6  10   0    3.70    1.00
   6 -11   0   14.10    1.50
  -6  11   0   10.10    1.40
  -6  11   0    9.50    1.20
   5 -11   0   13.20    1.40
  -5  11   0   14.80    1.70
  -5  11   0   13.60    1.60
   4 -11   0    1.70    0.80
  -4  11   0    3.00    1.00
  -4  11   0    2.20    0.90
   3 -11   0    2.40    0.70
  -3  11   0    0.10    0.70
  -3  11   0    1.50    0.80
   2 -11   0   23.40    1.40
   2 -11   0   23.10    1.80
  -2  11   0   25.40    1.50
  -2  11   0   21.00    2.30
   1 -11   0    8.50    1.10
   1 -11   0    8.40    1.10
  -1  11   0    8.10    0.90
  -1  11   0   12.20    1.70
  -1  11   0    9.40    1.10
   0 -11   0    2.00    0.80
   0 -11   0    2.10    0.70
   0  11   0    2.30    1.10
   0  11   0    1.10    0.70
   0  11   0    2.20    0.60
  -1 -11   0    1.00    0.60
  -1 -11   0    0.80    0.70
   1  11   0    1.10    0.60
   1  11   0    2.20    0.70
  -2 -11   0   -0.30    0.50
  -2 -11   0    0.60    0.70
   2  11   0    0.00    0.60
  -3 -11   0    4.60    0.90
  -3 -11   0    3.00    0.70
   3  11   0    3.60    0.80
   3  11   0    3.40    0.70
  -4 -11   0    3.20    0.80
  -4 -11   0    1.20    0.80
   4  11   0    1.40    0.80
   5 -12   0    5.60    1.00
  -5  12   0    5.20    1.00
  -5  12   0    4.70    1.10
   4 -12   0    4.30    0.90
  -4  12   0    4.00    1.20
  -4  12   0    6.10    1.20
   3 -12   0    1.00    0.80
  -3  12   0    1.70    0.80
  -3  12   0    1.90    1.00
   2 -12   0   36.40    1.80
  -2  12   0   33.70    2.20
  -2  12   0   35.50    1.80
   1 -12   0   -1.00    0.60
   1 -12   0    0.30    0.80
  -1  12   0    0.40    0.80
   0 -12   0   28.70    1.90
   0 -12   0   28.60    1.70
   0  12   0   31.60    1.50
   0  12   0   28.70    1.60
  -1 -12   0    1.30    0.70
  -1 -12   0    1.80    0.80
   1  12   0    1.10    0.70
   1  12   0    1.70    0.80
  -2 -12   0    8.40    0.90
  -2 -12   0    9.60    1.20
   2  12   0    6.30    0.90
   2  12   0    8.90    1.20
  -3 -12   0   -1.30    0.70
  -3 -12   0   -1.10    0.70
   3  12   0    0.60    0.80
   3  12   0   -0.30    0.80
   2 -13   0    3.90    0.90
  -2  13   0    3.10    1.00
  -2  13   0    2.70    1.20
   1 -13   0   20.70    2.10
   1 -13   0   19.90    1.60
  -1  13   0   20.70    1.70
   0 -13   0    0.40    0.90
   0 -13   0    0.50    0.70
   0  13   0    0.00    0.80
   0  13  -1   -0.60    0.70
   0 -13   1    0.70    0.90
   0 -13   1   -0.30    0.80
  -1  13  -1    5.90    1.00
   1 -13   1    6.40    1.20
   1 -13   1    5.60    0.90
  -2  13  -1    1.80    1.30
  -2  13  -1    1.30    0.90
   2 -13   1    1.30    0.80
   3  12  -1    1.40    0.80
   3  12  -1    1.10    0.80
  -3 -12   1    2.20    0.90
  -3 -12   1    0.90    0.70
   2  12  -1   -0.30    0.80
   2  12  -1    0.20    0.80
  -2 -12   1   -0.10    0.80
  -2 -12   1    0.60    0.70
   1  12  -1    8.90    1.30
   1  12  -1    6.80    0.80
  -1 -12   1    7.00    0.90
  -1 -12   1    8.00    1.10
   0  12  -1   -1.30    0.60
   0  12  -1   -0.90    0.70
   0 -12   1   -1.30    0.80
   0 -12   1   -0.50    0.60
  -1  12  -1    3.10    0.80
   1 -12   1    3.90    0.80
   1 -12   1    3.30    0.90
  -2  12  -1    6.20    1.20
  -2  12  -1    7.20    1.00
   2 -12   1    6.80    0.90
  -3  12  -1    3.60    1.00
  -3  12  -1    5.10    0.90
   3 -12   1    3.10    0.90
  -4  12  -1  109.59    3.60
  -4  12  -1  103.79    3.70
   4 -12   1  107.69    3.40
  -5  12  -1    2.20    1.10
  -5  12  -1    1.30    1.10
   5 -12   1    1.80    0.90
   5  11  -1    5.50    1.00
  -5 -11   1    4.90    0.90
   4  11  -1    6.60    0.80
  -4 -11   1    6.50    0.80
  -4 -11   1    6.40    0.90
  -4 -11   1    8.20    1.30
   3  11  -1    0.70    0.70
  -3 -11   1   -0.40    0.70
  -3 -11   1    0.20    0.60
  -3 -11   1    0.60    0.60
   2  11  -1    7.50    0.90
  -2 -11   1    7.10    0.80
  -2 -11   1    6.80    0.90
  -2 -11   1    8.10    1.10
   1  11  -1    7.80    1.10
  -1 -11   1   10.20    1.40
  -1 -11   1    8.90    1.00
  -1 -11   1    6.70    0.90
   0  11  -1    2.00    1.00
   0  11  -1    0.10    0.60
   0  11  -1   -1.30    0.60
   0 -11   1    0.70    0.70
   0 -11   1    0.00    0.50
  -1  11  -1   11.90    1.00
  -1  11  -1   10.10    1.20
  -1  11  -1   13.50    2.00
   1 -11   1   10.90    1.10
   1 -11   1   10.90    1.40
  -2  11  -1    0.10    0.60
   2 -11   1   -0.80    0.60
   2 -11   1    0.30    0.90
  -3  11  -1   16.10    1.60
  -3  11  -1   15.20    1.40
   3 -11   1   17.60    1.30
  -4  11  -1   32.60    1.80
  -4  11  -1   30.30    1.90
   4 -11   1   31.80    1.70
  -5  11  -1    7.90    1.10
  -5  11  -1    7.60    1.60
   5 -11   1   10.20    1.30
  -6  11  -1   15.60    1.70
  -6  11  -1   14.70    1.50
   6 -11   1   16.00    1.70
  -6 -10   1   12.00    1.30
  -6 -10   1   11.40    1.20
  -6 -10   1   12.50    1.30
   5  10  -1    5.20    0.90
  -5 -10   1    7.00    0.90
  -5 -10   1    6.40    1.10
  -5 -10   1    7.10    0.80
   4  10  -1   27.50    1.40
  -4 -10   1   26.10    1.50
  -4 -10   1   29.80    1.50
  -4 -10   1   25.90    1.40
   3  10  -1    0.40    0.60
  -3 -10   1   -0.80    0.50
  -3 -10   1   -0.40    0.50
  -3 -10   1   -0.40    0.50
   2  10  -1    9.30    1.00
  -2 -10   1   11.50    1.00
  -2 -10   1    7.60    1.10
  -2 -10   1    7.40    0.90
   1  10  -1    1.50    0.60
  -1 -10   1    1.90    0.60
  -1 -10   1    1.00    0.50
  -1 -10   1    1.40    0.50
   0  10  -1    0.20    0.50
   0  10  -1    0.30    0.80
   0 -10   1   -0.20    0.40
   0 -10   1    0.80    0.70
   0 -10   1    0.20    0.50
  -1  10  -1   36.30    1.90
  -1  10  -1   36.00    1.60
   1 -10   1   37.90    1.60
   1 -10   1   35.60    1.80
  -2  10  -1   -0.90    0.70
  -2  10  -1    0.60    0.60
   2 -10   1    1.00    0.70
   2 -10   1    0.40    0.50
  -3  10  -1   -0.20    0.60
  -3  10  -1   -0.20    0.70
   3 -10   1    0.20    0.50
  -4  10  -1   11.00    1.20
  -4  10  -1    7.70    1.00
   4 -10   1   10.80    1.10
  -5  10  -1    3.80    0.80
  -5  10  -1    3.60    0.80
   5 -10   1    3.30    0.80
  -6  10  -1    0.80    0.70
  -6  10  -1    0.80    0.70
   6 -10   1    0.10    0.60
  -7  10  -1    4.80    1.00
  -7  10  -1    2.70    0.90
   7 -10   1    4.00    0.90
  -7  -9   1   30.30    1.90
  -7  -9   1   32.70    1.80
  -7  -9   1   30.50    1.60
  -6  -9   1    1.30    0.70
  -6  -9   1    0.30    0.70
  -6  -9   1    1.30    0.60
   5   9  -1    7.10    0.80
  -5  -9   1    6.30    0.80
  -5  -9   1    7.10    0.90
  -5  -9   1    7.40    1.00
  -4  -9   1    5.00    0.60
  -4  -9   1    4.30    0.70
  -4  -9   1    4.30    0.70
   3   9  -1    0.40    0.50
  -3  -9   1    0.10    0.50
  -3  -9   1    0.30    0.40
   2   9  -1    8.90    0.90
  -2  -9   1    9.40    1.00
  -2  -9   1    7.60    0.80
  -2  -9   1    8.20    1.00
   1   9  -1    1.60    0.50
   1   9  -1    2.00    0.80
  -1  -9   1    1.40    0.50
  -1  -9   1    1.20    0.60
  -1  -9   1    1.20    0.40
   0   9  -1   11.40    1.00
   0   9  -1   10.90    1.30
   0  -9   1   11.50    0.90
   0  -9   1   10.80    0.80
  -1   9  -1   50.19    2.00
   1  -9   1   50.69    2.00
   1  -9   1   49.50    1.80
   1  -9   1   50.99    1.50
  -2   9  -1   43.70    1.90
  -2   9  -1   45.60    1.30
  -2   9  -1   43.60    1.70
   2  -9   1   42.30    1.80
   2  -9   1   44.60    1.90
  -3   9  -1    8.50    1.00
  -3   9  -1    8.00    1.10
   3  -9   1    7.60    1.20
   3  -9   1    9.40    0.90
  -4   9  -1    5.20    0.80
  -4   9  -1    7.40    0.90
   4  -9   1    5.90    0.80
  -5   9  -1    2.00    0.70
  -5   9  -1    1.00    0.70
   5  -9   1    0.80    0.60
  -6   9  -1    2.80    0.70
  -6   9  -1    4.20    0.80
   6  -9   1    4.20    0.80
  -7   9  -1   11.60    1.40
  -7   9  -1   10.30    1.40
   7  -9   1   10.10    1.30
  -8   9  -1   -1.50    0.70
  -8   9  -1    0.30    0.70
   8  -9   1   -0.10    0.70
  -7  -8   1    2.50    0.50
  -7  -8   1    2.80    0.70
  -7  -8   1    2.00    0.80
   6   8  -1   12.60    1.10
  -6  -8   1   11.70    1.00
  -6  -8   1   11.30    1.10
  -6  -8   1   11.50    1.00
   5   8  -1   -0.60    0.50
  -5  -8   1    0.10    0.50
  -5  -8   1    0.20    0.40
   4   8  -1   93.39    2.60
  -4  -8   1   91.29    2.80
  -4  -8   1   92.39    2.80
  -4  -8   1   90.29    2.60
   3   8  -1   11.30    0.90
  -3  -8   1   10.40    1.00
  -3  -8   1    9.90    0.80
   2   8  -1  504.55   12.30
   2   8  -1  511.95   12.10
  -2  -8   1  505.85   12.00
  -2  -8   1  510.65   12.10
  -2  -8   1  515.05   12.30
   1   8  -1   67.39    2.00
   1   8  -1   63.39    2.20
  -1  -8   1   65.59    1.90
  -1  -8   1   63.39    2.10
  -1  -8   1   63.19    2.00
   0   8  -1 1044.50   24.60
   0   8  -1 1044.30   24.50
   0  -8   1 1050.59   24.40
   0  -8   1 1074.59   24.30
  -1   8  -1  142.09    3.80
  -1   8  -1  109.89    3.20
   1  -8   1  111.29    3.20
   1  -8   1  110.99    3.00
  -2   8  -1   31.30    1.50
  -2   8  -1   33.50    1.40
   2  -8   1   32.50    1.00
   2  -8   1   39.70    1.80
   2  -8   1   32.70    1.30
  -3   8  -1   69.69    2.30
   3  -8   1   70.19    2.20
   3  -8   1   68.29    2.30
  -4   8  -1    6.80    0.90
  -4   8  -1    5.10    0.90
   4  -8   1    7.30    0.90
  -5   8  -1   53.89    2.00
  -5   8  -1   54.29    2.00
   5  -8   1   52.49    2.00
  -6   8  -1    0.10    0.60
  -6   8  -1    0.80    0.60
   6  -8   1    1.30    0.60
  -7   8  -1   21.40    1.40
  -7   8  -1   22.90    1.50
   7  -8   1   24.70    1.50
  -8   8  -1    2.10    0.80
  -8   8  -1    3.20    0.80
   8  -8   1    3.30    0.90
  -8  -7   1   -0.10    0.40
  -8  -7   1    0.30    0.40
  -8  -7   1    0.30    0.60
  -8  -7   1    0.10    0.60
  -7  -7   1    5.40    0.70
  -7  -7   1    5.40    1.00
  -7  -7   1    5.10    0.70
  -7  -7   1    6.10    0.70
   6   7  -1    0.70    0.60
  -6  -7   1    1.40    0.40
  -6  -7   1    0.40    0.50
  -6  -7   1    0.70    0.60
   5   7  -1   -0.90    0.50
  -5  -7   1   -0.80    0.40
  -5  -7   1    0.00    0.40
  -5  -7   1    0.00    0.40
   4   7  -1   15.90    1.00
  -4  -7   1   15.10    1.00
  -4  -7   1   15.10    0.90
  -4  -7   1   16.40    0.90
  -4  -7   1   13.40    1.50
   3   7  -1  122.19    3.20
   3   7  -1  123.79    3.50
  -3  -7   1  125.39    3.40
  -3  -7   1  123.19    3.20
  -3  -7   1  119.89    3.30
   2   7  -1    0.40    0.60
   2   7  -1    0.70    0.40
  -2  -7   1    0.90    0.60
  -2  -7   1    0.60    0.40
  -2  -7   1    0.40    0.40
  -2  -7   1    0.60    0.40
   1   7  -1  183.88    4.80
   1   7  -1  186.38    4.60
  -1  -7   1  186.18    4.60
  -1  -7   1  179.98    4.70
  -1  -7   1  183.28    4.60
   0   7  -1  187.68    4.80
   0   7  -1  188.18    4.90
   0  -7   1  193.08    4.70
   0  -7   1  194.38    4.60
   0  -7   1  189.28    4.90
  -1   7  -1   79.39    2.40
  -1   7  -1   80.79    2.30
   1  -7   1   78.69    2.40
   1  -7   1   80.09    2.10
   1  -7   1   79.69    2.20
  -2   7  -1  679.53   16.30
  -2   7  -1  703.23   16.20
   2  -7   1  688.93   16.20
   2  -7   1  701.63   16.30
   2  -7   1  682.63   15.90
  -3   7  -1    0.10    0.40
  -3   7  -1    0.30    0.40
   3  -7   1    0.50    0.50
   3  -7   1    0.90    0.40
  -4   7  -1    7.60    0.80
  -4   7  -1    8.20    0.90
   4  -7   1    6.50    0.90
   4  -7   1    9.10    0.80
  -5   7  -1    0.70    0.50
  -5   7  -1    0.50    0.50
   5  -7   1    0.70    0.50
  -6   7  -1   45.00    1.80
  -6   7  -1   48.40    1.80
   6  -7   1   46.80    1.80
  -7   7  -1   36.20    1.70
  -7   7  -1   34.60    1.50
   7  -7   1   36.30    1.70
  -8   7  -1    9.90    1.00
  -8   7  -1    9.90    1.30
   8  -7   1   13.50    1.80
  -9   7  -1   46.00    1.80
  -9   7  -1   45.60    2.20
   9  -7   1   48.60    2.10
   9   6  -1    1.80    0.90
  -9  -6   1    2.80    0.80
  -8  -6   1   -0.20    0.60
  -8  -6   1   -1.30    0.50
   7   6  -1    2.70    0.60
  -7  -6   1    3.30    0.60
  -7  -6   1    3.20    0.50
  -7  -6   1    3.30    0.50
  -7  -6   1    2.10    0.60
   6   6  -1   21.60    1.10
  -6  -6   1   19.20    1.10
  -6  -6   1   22.10    1.00
  -6  -6   1   20.30    1.00
  -6  -6   1   21.30    1.20
   5   6  -1    7.90    0.80
  -5  -6   1    9.90    0.70
  -5  -6   1    8.40    0.80
  -5  -6   1   10.00    0.80
  -5  -6   1    9.10    0.90
   4   6  -1    1.60    0.40
  -4  -6   1    1.90    0.40
  -4  -6   1    1.10    0.40
  -4  -6   1    1.40    0.40
  -4  -6   1    1.60    0.40
   3   6  -1   24.40    1.00
   3   6  -1   25.10    1.20
  -3  -6   1   23.30    1.10
  -3  -6   1   24.50    1.00
  -3  -6   1   23.80    1.00
  -3  -6   1   24.90    1.00
   2   6  -1    3.00    0.50
   2   6  -1    1.50    0.40
  -2  -6   1    1.70    0.40
  -2  -6   1    1.70    0.30
  -2  -6   1    1.70    0.40
  -2  -6   1    1.90    0.40
   1   6  -1    5.10    0.70
   1   6  -1    5.60    0.60
  -1  -6   1    5.00    0.60
  -1  -6   1    4.90    0.50
  -1  -6   1    5.40    0.50
   0   6  -1   -0.30    0.20
   0   6  -1   -0.20    0.30
   0  -6   1    0.20    0.30
   0  -6   1    0.20    0.30
   0  -6   1   -0.20    0.20
  -1   6  -1   47.60    1.60
  -1   6  -1   41.80    1.50
   1  -6   1   49.20    1.70
   1  -6   1   43.70    1.20
   1  -6   1   40.80    1.40
  -2   6  -1    1.70    0.40
  -2   6  -1    1.10    0.40
   2  -6   1    1.30    0.20
   2  -6   1    1.50    0.40
   2  -6   1    1.30    0.30
  -3   6  -1   20.20    1.20
  -3   6  -1   20.80    1.00
  -3   6  -1   20.70    1.00
   3  -6   1   20.40    0.90
   3  -6   1   21.10    1.00
  -4   6  -1    1.20    0.40
  -4   6  -1    1.40    0.40
   4  -6   1    1.00    0.50
   4  -6   1    1.70    0.40
  -5   6  -1    0.50    0.40
  -5   6  -1    0.10    0.40
  -5   6  -1   -0.10    0.40
   5  -6   1    0.40    0.40
  -6   6  -1   20.50    1.70
  -6   6  -1   21.20    1.20
  -6   6  -1   22.60    1.10
   6  -6   1   22.70    1.20
  -7   6  -1   55.59    2.00
  -7   6  -1   53.89    1.80
   7  -6   1   52.59    2.00
  -8   6  -1   -1.40    0.60
  -8   6  -1   -0.40    0.40
   8  -6   1    0.60    0.60
  -9   6  -1    6.80    1.00
  -9   6  -1    7.80    1.10
  -9   6  -1    7.50    0.90
   9  -6   1    7.60    1.10
   9   5  -1    0.40    0.70
  -9  -5   1   -0.90    0.70
   8   5  -1    3.40    0.60
  -8  -5   1    2.40    0.60
  -8  -5   1    2.80    0.60
   7   5  -1    0.60    0.50
  -7  -5   1    0.10    0.30
  -7  -5   1   -0.40    0.30
  -7  -5   1   -0.70    0.40
   6   5  -1   12.90    0.90
  -6  -5   1   12.70    0.70
  -6  -5   1   12.60    0.70
  -6  -5   1   11.90    0.90
  -6  -5   1   13.60    1.00
   5   5  -1    7.20    0.70
  -5  -5   1    7.80    0.60
  -5  -5   1    6.10    0.70
  -5  -5   1    6.30    0.60
  -5  -5   1    6.40    0.70
   4   5  -1    7.80    0.70
  -4  -5   1    7.10    0.60
  -4  -5   1    7.10    0.60
  -4  -5   1    7.80    0.70
  -4  -5   1    6.80    0.60
   3   5  -1    1.10    0.40
   3   5  -1    0.50    0.30
  -3  -5   1    0.00    0.30
  -3  -5   1    0.30    0.30
  -3  -5   1    0.70    0.30
  -3  -5   1    0.30    0.30
   2   5  -1   25.60    0.90
   2   5  -1   25.70    1.00
  -2  -5   1   20.30    1.20
  -2  -5   1   24.90    0.90
  -2  -5   1   25.10    0.90
  -2  -5   1   25.20    1.00
   1   5  -1   43.60    1.40
   1   5  -1   44.70    1.30
  -1  -5   1   45.20    1.30
  -1  -5   1   44.40    1.40
  -1  -5   1   45.90    1.30
   0   5  -1   11.50    0.90
   0   5  -1    8.90    0.60
   0  -5   1    8.10    0.60
   0  -5   1    8.70    0.50
   0  -5   1    8.60    0.50
  -1   5  -1    0.90    0.30
  -1   5  -1    0.70    0.40
   1  -5   1    0.40    0.40
   1  -5   1    0.00    0.30
   1  -5   1    0.20    0.30
   1  -5   1    0.00    0.20
  -2   5  -1   18.10    0.90
  -2   5  -1   18.30    0.80
   2  -5   1   17.90    0.80
   2  -5   1   18.40    0.80
   2  -5   1   18.80    0.80
  -3   5  -1   12.20    0.80
  -3   5  -1   14.40    0.80
  -3   5  -1   13.00    0.80
   3  -5   1   12.40    0.70
   3  -5   1   12.80    0.70
   3  -5   1   13.80    0.80
  -4   5  -1    6.90    0.70
  -4   5  -1    7.60    0.70
  -4   5  -1    6.00    0.70
   4  -5   1    7.00    0.70
   4  -5   1    6.10    0.70
   4  -5   1    7.40    0.70
  -5   5  -1    2.10    0.40
  -5   5  -1    1.90    0.50
  -5   5  -1    1.10    0.40
   5  -5   1    2.00    0.50
  -6   5  -1    5.20    0.70
  -6   5  -1    4.70    0.70
  -6   5  -1    4.90    0.70
   6  -5   1    4.00    0.50
  -7   5  -1   -1.00    0.50
  -7   5  -1    0.30    0.40
  -7   5  -1    0.10    0.40
   7  -5   1    0.70    0.50
  -8   5  -1   -0.40    0.50
  -8   5  -1    0.20    0.40
  -8   5  -1    0.00    0.40
   8  -5   1    0.80    0.50
  -9   5  -1    2.70    0.70
  -9   5  -1    2.20    0.40
  -9   5  -1    1.00    0.40
   9  -5   1    1.90    0.70
 -10   5  -1    2.60    0.80
  10  -5   1    0.20    0.70
   9   4  -1    0.00    0.70
  -9  -4   1    0.00    0.60
   8   4  -1    7.00    0.90
  -8  -4   1    4.50    0.70
  -8  -4   1    7.10    0.90
   7   4  -1   20.50    1.00
  -7  -4   1   21.20    1.10
  -7  -4   1   21.00    1.20
   6   4  -1   56.69    1.70
  -6  -4   1   56.39    1.50
  -6  -4   1   57.99    1.80
  -6  -4   1   52.49    1.60
   5   4  -1   33.10    1.20
  -5  -4   1   34.50    1.20
  -5  -4   1   33.70    1.10
  -5  -4   1   34.30    1.30
  -5  -4   1   34.50    1.10
   4   4  -1  314.17    7.50
  -4  -4   1  316.37    7.50
  -4  -4   1  319.67    7.60
  -4  -4   1  310.67    7.50
   3   4  -1   20.40    0.80
  -3  -4   1   20.40    0.90
  -3  -4   1   21.10    0.80
  -3  -4   1   20.40    0.80
  -3  -4   1   20.30    0.80
   2   4  -1    6.50    0.50
   2   4  -1    7.90    0.50
  -2  -4   1    7.30    0.50
  -2  -4   1    7.00    0.50
  -2  -4   1    6.50    0.50
   1   4  -1    2.10    0.30
   1   4  -1    1.80    0.30
  -1  -4   1    1.80    0.30
  -1  -4   1    1.70    0.30
  -1  -4   1    2.10    0.30
  -1  -4   1    1.50    0.30
   0   4  -1   94.69    2.40
   0  -4   1   93.79    2.40
   0  -4   1   90.79    2.50
   0  -4   1   95.99    2.30
  -1   4  -1  718.73   17.00
   1  -4   1  744.43   16.90
   1  -4   1  747.83   16.80
   1  -4   1  724.43   17.00
  -2   4  -1  358.16    8.30
  -2   4  -1  366.46    8.40
  -2   4  -1  330.97    8.30
   2  -4   1  354.06    8.30
   2  -4   1  354.06    8.30
  -3   4  -1    8.80    0.60
  -3   4  -1    8.90    0.60
   3  -4   1    7.20    0.50
   3  -4   1    7.90    0.60
  -4   4  -1    6.90    0.60
  -4   4  -1    8.50    0.70
  -4   4  -1    6.50    0.60
   4  -4   1    7.10    0.60
   4  -4   1    7.30    0.70
  -5   4  -1    0.30    0.30
  -5   4  -1    0.00    0.30
  -5   4  -1    0.00    0.30
   5  -4   1    0.10    0.20
   5  -4   1    0.20    0.30
  -6   4  -1  143.59    3.70
  -6   4  -1  141.59    3.70
  -6   4  -1  144.39    3.80
   6  -4   1  146.79    3.90
   6  -4   1  149.69    3.50
  -7   4  -1   51.19    1.50
  -7   4  -1   52.09    1.60
   7  -4   1   50.69    1.80
   7  -4   1   50.09    1.40
  -8   4  -1  180.88    4.40
  -8   4  -1  175.48    4.40
  -8   4  -1  177.38    4.80
   8  -4   1  183.08    4.80
  -9   4  -1    2.90    0.70
   9  -4   1    1.80    0.70
 -10   4  -1    2.60    0.80
  10  -4   1    1.70    0.80
  10   3  -1   -0.50    0.80
 -10  -3   1   -1.40    0.70
   9   3  -1   79.39    2.70
   9   3  -1   77.89    2.40
  -9  -3   1   74.69    2.50
  -8  -3   1    2.60    0.60
  -8  -3   1    3.90    0.60
   7   3  -1   35.70    1.40
  -7  -3   1   37.10    1.40
  -7  -3   1   36.00    1.50
   6   3  -1    2.10    0.40
  -6  -3   1    1.90    0.50
  -6  -3   1    1.70    0.40
   5   3  -1  142.69    3.50
  -5  -3   1  142.79    3.40
  -5  -3   1  140.79    3.40
  -5  -3   1  138.49    3.50
  -5  -3   1  137.39    3.70
   4   3  -1  329.97    7.70
  -4  -3   1  330.47    7.60
  -4  -3   1  323.47    7.70
  -4  -3   1  320.57    7.80
  -4  -3   1  327.07    7.60
   3   3  -1  522.75   12.10
  -3  -3   1  518.85   12.20
  -3  -3   1  519.55   12.10
  -3  -3   1  533.55   12.10
  -3  -3   1  527.65   12.10
   2   3  -1  304.17    7.30
   2   3  -1  319.37    7.30
  -2  -3   1  310.17    7.30
  -2  -3   1  306.87    7.30
  -2  -3   1  312.47    7.30
  -2  -3   1  316.07    7.30
   1   3  -1    5.20    0.40
   1   3  -1    5.10    0.40
  -1  -3   1    5.60    0.40
  -1  -3   1    6.20    0.40
  -1  -3   1    5.80    0.40
  -1  -3   1    5.20    0.40
   0   3  -1   79.49    2.10
   0   3  -1   94.89    2.20
   0  -3   1   76.89    2.00
   0  -3   1   76.89    2.00
  -1   3  -1   92.19    2.30
  -1   3  -1   89.49    2.30
   1  -3   1   94.99    2.20
   1  -3   1   90.39    2.30
   1  -3   1   93.99    2.30
  -2   3  -1   96.39    2.50
  -2   3  -1   98.39    2.50
   2  -3   1   94.89    2.40
  -3   3  -1   38.10    1.20
  -3   3  -1   37.10    1.20
  -3   3  -1   37.50    1.10
  -3   3  -1   37.50    1.10
   3  -3   1   38.30    1.10
   3  -3   1   38.60    1.00
  -4   3  -1   91.09    2.30
  -4   3  -1   89.59    2.30
  -4   3  -1   88.89    2.40
  -4   3  -1   87.79    2.40
   4  -3   1   90.39    2.20
  -5   3  -1   40.40    1.20
  -5   3  -1   39.60    1.40
  -5   3  -1   40.40    1.20
  -5   3  -1   40.20    1.40
   5  -3   1   41.00    1.10
  -6   3  -1    5.00    0.60
  -6   3  -1    4.50    0.50
  -6   3  -1    4.30    0.60
  -6   3  -1    4.40    0.50
   6  -3   1    4.10    0.50
  -7   3  -1    5.50    0.50
  -7   3  -1    6.90    0.90
  -7   3  -1    6.60    0.50
  -7   3  -1    5.00    0.60
   7  -3   1    5.60    0.60
  -8   3  -1    9.50    1.00
  -8   3  -1   12.30    1.10
   8  -3   1   12.60    0.80
  -9   3  -1   -0.40    0.60
  -9   3  -1   -0.50    0.60
   9  -3   1    1.20    0.50
 -10   3  -1    3.90    0.80
  10  -3   1    1.80    0.90
  10   2  -1   -0.50    0.70
  10   2  -1   -0.20    0.80
 -10  -2   1    0.60    0.70
   9   2  -1   -0.30    0.60
  -9  -2   1    0.30    0.60
   8   2  -1    6.10    0.70
  -8  -2   1    4.00    0.60
  -8  -2   1    6.50    0.90
   7   2  -1   40.10    1.40
  -7  -2   1   41.00    1.50
  -7  -2   1   40.30    1.70
  -6  -2   1    6.20    0.70
  -6  -2   1    6.30    0.70
   5   2  -1    4.60    0.50
  -5  -2   1    4.50    0.50
  -5  -2   1    3.40    0.40
   4   2  -1   67.29    1.80
  -4  -2   1   66.59    1.80
  -4  -2   1   67.69    1.70
  -4  -2   1   67.99    1.70
  -4  -2   1   67.79    1.90
   3   2  -1  379.36    8.80
  -3  -2   1  378.96    8.80
  -3  -2   1  384.16    8.80
  -3  -2   1  383.46    8.90
  -3  -2   1  375.36    8.80
   2   2  -1    5.40    0.40
   2   2  -1    5.30    0.40
  -2  -2   1    6.10    0.40
  -2  -2   1    5.30    0.30
  -2  -2   1    5.80    0.30
  -2  -2   1    5.70    0.30
   1   2  -1    6.00    0.40
   1   2  -1    7.10    0.40
  -1  -2   1    6.00    0.40
  -1  -2   1    6.70    0.30
  -1  -2   1    6.00    0.40
   0   2  -1   57.99    1.40
   0   2  -1   50.39    1.40
   0  -2   1   50.69    1.30
   0  -2   1   57.39    1.40
   0  -2   1   50.39    1.30
  -1   2  -1   70.99    1.70
  -1   2  -1   72.19    1.80
  -1   2  -1   65.89    1.80
  -1   2  -1   70.59    1.80
   1  -2   1   67.79    1.80
   1  -2   1   74.99    1.70
   1  -2   1   72.29    1.80
  -2   2  -1    0.10    0.20
  -2   2  -1    0.20    0.20
  -2   2  -1    0.00    0.20
  -2   2  -1    0.10    0.20
  -2   2  -1    0.20    0.20
   2  -2   1    0.10    0.10
   2  -2   1    0.10    0.20
  -3   2  -1  182.18    4.40
  -3   2  -1  182.88    4.40
  -3   2  -1  181.78    4.40
  -3   2  -1  182.28    4.40
   3  -2   1  187.58    4.30
  -4   2  -1   37.80    1.20
  -4   2  -1   37.40    1.10
  -4   2  -1   38.10    1.10
   4  -2   1   38.00    1.10
  -5   2  -1   45.50    1.30
  -5   2  -1   46.50    1.30
  -5   2  -1   46.40    1.40
  -5   2  -1   44.20    1.50
   5  -2   1   45.40    1.30
  -6   2  -1    1.10    0.30
  -6   2  -1    0.80    0.40
  -6   2  -1    0.60    0.40
  -6   2  -1    0.80    0.20
   6  -2   1    0.70    0.30
  -7   2  -1    7.10    0.80
  -7   2  -1    6.80    0.90
   7  -2   1    7.80    0.70
  -8   2  -1   21.10    1.30
  -8   2  -1   20.00    1.20
   8  -2   1   21.30    1.10
  -9   2  -1   -0.40    0.60
  -9   2  -1    1.00    0.50
   9  -2   1    0.20    0.50
 -10   2  -1    1.60    0.80
 -10   2  -1    2.30    0.70
  10  -2   1    2.80    0.70
  10   1  -1    2.00    0.70
  10   1  -1    2.60    0.70
 -10  -1   1    2.30    0.80
   9   1  -1    0.00    0.50
  -9  -1   1    1.30    0.60
  -9  -1   1    1.00    0.50
  -8  -1   1   10.90    1.00
  -8  -1   1   11.40    1.00
  -8  -1   1    7.60    0.90
  -7  -1   1    1.50    0.40
  -7  -1   1    1.60    0.40
  -7  -1   1    1.20    0.40
  -6  -1   1  220.78    5.40
  -6  -1   1  218.98    5.40
  -6  -1   1  221.18    5.50
  -5  -1   1  146.79    3.70
  -5  -1   1  144.29    3.70
  -5  -1   1  149.59    3.70
  -4  -1   1   34.00    1.00
  -4  -1   1   33.10    1.00
  -4  -1   1   32.90    1.10
  -3  -1   1  356.76    8.30
  -3  -1   1  359.96    8.40
  -3  -1   1  359.76    8.40
  -2  -1   1  352.76    7.90
  -2  -1   1  352.26    7.90
  -2  -1   1  333.57    7.90
  -2  -1   1  353.46    7.90
  -2  -1   1  323.47    8.00
   1   1  -1  165.18    3.80
   1   1  -1  155.98    3.80
   1   1  -1  165.28    3.70
  -1  -1   1  160.18    3.80
  -1   1  -1  380.56    8.70
  -1   1  -1  363.86    8.60
  -1   1  -1  381.16    8.70
  -1   1  -1  370.26    8.70
   1  -1   1  371.96    8.70
   1  -1   1  389.96    8.60
  -2   1  -1 2753.92   61.89
  -2   1  -1 2661.93   61.99
  -2   1  -1 2738.23   61.79
  -2   1  -1 2553.74   62.19
   2  -1   1 2797.52   61.79
   2  -1   1 2654.23   61.69
  -3   1  -1   12.10    0.50
  -3   1  -1   12.30    0.50
  -3   1  -1   12.50    0.60
  -3   1  -1   12.10    0.50
  -4   1  -1    6.80    0.40
  -4   1  -1    7.00    0.50
  -4   1  -1    6.60    0.40
   4  -1   1    7.60    0.50
  -5   1  -1   25.40    0.90
  -5   1  -1   25.00    1.00
  -5   1  -1   24.40    0.70
  -5   1  -1   25.30    0.70
   5  -1   1   24.40    0.90
  -6   1  -1   38.90    1.40
  -6   1  -1   37.80    1.30
   6  -1   1   39.30    1.30
  -7   1  -1   24.60    1.10
   7  -1   1   23.40    1.00
  -8   1  -1   14.30    1.00
  -8   1  -1   15.80    1.10
   8  -1   1   14.80    1.00
  -9   1  -1   -0.10    0.60
  -9   1  -1    1.20    0.50
   9  -1   1    0.70    0.50
 -10   1  -1    0.50    0.70
 -10   1  -1    0.70    0.70
  10  -1   1   -1.10    0.60
  10   0  -1   32.60    1.60
 -10   0   1   29.90    1.60
 -10   0   1   26.20    1.60
   9   0  -1    0.00    0.50
  -9   0   1   -1.20    0.50
  -9   0   1   -0.60    0.50
  -8   0   1  138.19    3.70
  -8   0   1  138.99    3.70
  -8   0   1  135.29    3.70
  -7   0   1   18.60    1.00
  -7   0   1   19.30    1.00
  -7   0   1   19.50    1.00
  -6   0   1   36.90    1.30
  -6   0   1   36.70    1.30
  -6   0   1   36.90    1.30
  -5   0   1   72.39    2.00
  -5   0   1   77.19    2.10
  -5   0   1   78.29    2.10
  -4   0   1  222.58    5.30
  -4   0   1  221.48    5.30
  -4   0   1  224.88    5.30
  -3   0   1  361.26    8.60
  -3   0   1  372.36    8.60
  -3   0   1  372.96    8.60
  -2   0   1 2073.79   47.50
  -2   0   1 2022.80   47.60
  -2   0   1 2120.99   47.70
   1   0  -1   45.40    1.20
   1   0  -1   52.89    1.20
   1   0  -1   51.89    1.20
  -1   0  -1   38.20    1.00
  -1   0  -1   37.70    0.90
   1   0   1   35.40    0.90
   1   0   1   37.40    0.90
   1   0   1   39.80    1.00
  -2   0  -1 9999.00  215.28
  -2   0  -1 8538.75  215.88
   2   0   1 9305.07  215.68
   2   0   1 9884.41  215.68
  -3   0  -1   52.49    1.40
  -3   0  -1   51.19    1.30
  -3   0  -1   50.79    1.30
  -3   0  -1   52.79    1.30
   3   0   1   52.49    1.40
  -4   0  -1 2325.47   53.39
  -4   0  -1 2367.76   53.49
  -4   0  -1 2317.07   53.29
  -4   0  -1 2327.47   53.29
   4   0   1 2316.17   53.39
  -5   0  -1   37.10    1.10
  -5   0  -1   36.60    1.30
   5   0   1   36.50    1.20
  -6   0  -1   75.39    2.20
  -6   0  -1   74.39    2.10
   6   0   1   75.09    2.10
  -7   0  -1    8.10    0.70
   7   0   1    9.60    0.80
  -8   0  -1    1.70    0.50
  -8   0  -1    0.80    0.50
  -9   0  -1   15.30    1.20
  -9   0  -1   15.80    1.10
   9   0   1   15.90    1.20
 -10   0  -1    0.30    0.70
  10   0   1    0.40    0.70
  10  -1  -1   10.50    1.20
 -10   1   1    9.10    1.00
 -10   1   1    9.60    1.00
  -9   1   1   11.40    1.10
  -9   1   1   10.40    1.10
   8  -1  -1    4.90    0.60
  -8   1   1    5.50    0.70
  -8   1   1    5.80    0.80
  -7   1   1   77.79    2.30
  -7   1   1   76.99    2.20
  -7   1   1   75.59    2.30
  -6   1   1   10.70    0.80
  -6   1   1   11.60    0.70
  -6   1   1   11.60    0.80
  -5   1   1   35.20    1.10
  -5   1   1   35.00    1.20
  -5   1   1   35.60    1.20
  -4   1   1    0.30    0.30
  -4   1   1    0.30    0.20
  -4   1   1    0.40    0.20
  -3   1   1   33.30    0.80
  -3   1   1   32.80    1.00
  -3   1   1   31.60    0.80
  -3   1   1   32.00    1.00
  -3   1   1   32.50    0.90
   2  -1  -1  301.27    7.00
   2  -1  -1  292.07    7.00
  -2   1   1  311.27    7.00
  -2   1   1  308.97    7.00
  -2   1   1  299.97    7.10
  -2   1   1  299.27    7.00
  -2   1   1  304.07    7.00
   1  -1  -1  116.79    2.70
   1  -1  -1  117.79    2.70
   1  -1  -1  115.09    2.70
  -1   1   1  116.89    2.70
  -1   1   1  114.09    2.70
   0  -1  -1  840.12   20.00
   0  -1  -1  874.61   20.20
   0   1   1  864.61   20.10
   0   1   1  914.21   20.10
  -1  -1  -1  200.18    4.60
  -1  -1  -1  197.98    4.60
   1   1   1  191.58    4.60
  -2  -1  -1  438.26    9.80
  -2  -1  -1  421.96    9.80
  -2  -1  -1  434.16    9.80
  -2  -1  -1  419.96    9.80
  -2  -1  -1  442.56    9.70
   2   1   1  394.86    9.70
   2   1   1  417.46    9.80
  -3  -1  -1   55.39    1.50
  -3  -1  -1   56.29    1.50
  -3  -1  -1   55.59    1.40
  -3  -1  -1   54.89    1.40
  -3  -1  -1   55.69    1.40
  -4  -1  -1  700.53   15.80
  -4  -1  -1  667.73   16.00
  -4  -1  -1  693.03   15.80
  -4  -1  -1  697.33   15.90
  -4  -1  -1  685.13   16.00
  -5  -1  -1    5.70    0.30
  -5  -1  -1    5.70    0.60
  -5  -1  -1    5.80    0.50
   5   1   1    4.40    0.60
  -6  -1  -1   42.20    1.30
  -6  -1  -1   41.90    1.50
   6   1   1   42.90    1.50
  -7  -1  -1   12.80    0.80
   7   1   1   12.60    1.00
  -8  -1  -1   38.20    1.40
  -8  -1  -1   36.60    1.60
   8   1   1   35.20    1.50
  -9  -1  -1    2.50    0.70
  -9  -1  -1    3.40    0.60
   9   1   1    3.00    0.70
 -10  -1  -1    2.70    0.80
  10   1   1    4.20    0.80
  10  -2  -1    1.00    0.80
  10  -2  -1    0.50    0.70
 -10   2   1    2.10    0.70
   9  -2  -1    1.70    0.50
  -9   2   1   -0.50    0.50
  -9   2   1   -0.10    0.60
   8  -2  -1    9.00    0.80
  -8   2   1    7.20    1.00
  -8   2   1    8.90    1.00
   7  -2  -1    0.60    0.40
  -7   2   1    0.40    0.40
  -7   2   1   -0.20    0.40
  -6   2   1   23.10    1.00
  -6   2   1   24.60    0.90
  -6   2   1   25.00    1.10
  -5   2   1    0.90    0.40
  -5   2   1    0.80    0.20
  -5   2   1    0.60    0.30
  -5   2   1    0.60    0.20
  -5   2   1    1.00    0.20
  -4   2   1   85.99    2.10
  -4   2   1   88.29    2.30
  -4   2   1   81.59    2.20
  -4   2   1   89.19    2.10
  -4   2   1   90.19    2.30
   3  -2  -1  105.19    2.70
  -3   2   1  104.59    2.70
  -3   2   1  107.99    2.50
  -3   2   1  107.29    2.60
  -3   2   1  108.99    2.60
   2  -2  -1  424.96    9.80
   2  -2  -1  424.56    9.80
  -2   2   1  427.16    9.80
  -2   2   1  417.36    9.80
  -2   2   1  427.06    9.80
  -2   2   1  422.46    9.80
   1  -2  -1    0.90    0.20
   1  -2  -1    1.00    0.10
   1  -2  -1    0.90    0.20
  -1   2   1    1.20    0.20
  -1   2   1    1.10    0.20
  -1   2   1    0.80    0.10
  -1   2   1    0.80    0.20
   0  -2  -1  146.19    3.50
   0  -2  -1  148.99    3.50
   0   2   1  146.99    3.60
   0   2   1  151.88    3.50
   0   2   1  148.99    3.50
  -1  -2  -1   11.10    0.60
  -1  -2  -1   11.80    0.50
  -1  -2  -1   11.20    0.40
  -1  -2  -1   12.00    0.50
   1   2   1   12.50    0.40
   1   2   1   11.40    0.50
  -2  -2  -1  108.79    2.70
  -2  -2  -1  109.89    2.70
  -2  -2  -1  109.59    2.70
  -2  -2  -1  110.19    2.70
   2   2   1  103.49    2.60
   2   2   1  109.99    2.60
  -3  -2  -1   66.79    1.70
  -3  -2  -1   65.39    1.70
  -3  -2  -1   65.59    1.80
  -3  -2  -1   65.09    1.80
   3   2   1   68.29    1.60
  -4  -2  -1    0.00    0.30
  -4  -2  -1    0.10    0.30
  -4  -2  -1    0.50    0.20
  -4  -2  -1    0.10    0.20
  -5  -2  -1    0.50    0.30
  -5  -2  -1    0.00    0.20
  -5  -2  -1    0.20    0.30
  -5  -2  -1    0.00    0.20
   5   2   1    0.20    0.30
  -6  -2  -1   31.60    1.30
   6   2   1   33.00    1.10
   6   2   1   31.50    1.30
  -7  -2  -1    4.70    0.70
   7   2   1    5.50    0.70
   7   2   1    4.40    0.60
  -8  -2  -1    2.50    0.60
   8   2   1    3.60    0.50
   8   2   1    3.90    0.70
  -9  -2  -1   65.49    2.40
   9   2   1   67.39    2.40
 -10  -2  -1    4.30    0.90
  10   2   1    1.60    0.80
  10  -3  -1    6.30    0.90
 -10   3   1    6.60    1.00
   9  -3  -1    6.40    0.80
   9  -3  -1    5.70    0.80
  -9   3   1    6.20    0.80
   8  -3  -1   44.10    1.40
   8  -3  -1   44.30    1.70
  -8   3   1   42.70    1.70
   7  -3  -1    1.70    0.40
  -7   3   1    1.20    0.50
   6  -3  -1    7.80    0.50
   6  -3  -1    9.50    0.80
  -6   3   1    7.30    0.80
  -6   3   1    8.60    0.50
  -6   3   1    7.80    0.50
   5  -3  -1   19.60    0.90
   5  -3  -1   18.70    0.60
  -5   3   1   18.50    0.70
  -5   3   1   18.40    0.70
  -5   3   1   19.70    0.90
   4  -3  -1   17.70    0.80
  -4   3   1   17.70    0.70
  -4   3   1   18.00    0.70
  -4   3   1   18.50    0.80
   3  -3  -1   17.00    0.70
   3  -3  -1   18.00    0.70
  -3   3   1   18.40    0.70
  -3   3   1   17.50    0.70
  -3   3   1   18.30    0.70
   2  -3  -1  116.19    2.90
   2  -3  -1  122.39    3.00
  -2   3   1  119.69    3.00
  -2   3   1  119.69    3.00
   1  -3  -1   93.29    2.30
   1  -3  -1   90.89    2.30
  -1   3   1   88.89    2.30
  -1   3   1   90.29    2.30
  -1   3   1   92.99    2.20
   0  -3  -1   20.70    0.60
   0  -3  -1   19.60    0.70
   0   3   1   19.90    0.70
   0   3   1   20.20    0.70
  -1  -3  -1   37.70    1.10
  -1  -3  -1   39.20    1.10
  -1  -3  -1   36.50    1.10
  -1  -3  -1   38.40    1.10
   1   3   1   39.30    1.20
   1   3   1   39.10    1.00
  -2  -3  -1   42.00    1.30
  -2  -3  -1   49.70    1.40
  -2  -3  -1   48.40    1.30
  -2  -3  -1   49.90    1.40
   2   3   1   48.50    1.40
   2   3   1   51.39    1.20
  -3  -3  -1    0.90    0.30
  -3  -3  -1    0.80    0.20
  -3  -3  -1    0.60    0.30
  -3  -3  -1    0.80    0.20
   3   3   1    1.20    0.20
  -4  -3  -1   11.90    0.60
  -4  -3  -1   10.80    0.70
  -4  -3  -1   11.00    0.70
  -4  -3  -1   11.80    0.60
  -5  -3  -1   -0.20    0.30
  -5  -3  -1   -0.30    0.20
  -5  -3  -1    0.00    0.30
  -5  -3  -1   -0.10    0.20
   5   3   1   -0.30    0.30
  -6  -3  -1   -0.10    0.30
  -6  -3  -1   -0.40    0.20
  -6  -3  -1    0.20    0.40
   6   3   1   -0.30    0.40
   6   3   1    0.30    0.30
  -7  -3  -1    1.90    0.50
   7   3   1    2.10    0.60
   7   3   1    2.80    0.50
  -8  -3  -1    4.30    0.70
   8   3   1    4.20    0.70
  -9  -3  -1    4.00    0.80
   9   3   1    3.90    0.80
  10  -4  -1    1.40    0.70
 -10   4   1    2.50    0.70
   9  -4  -1    3.10    0.70
  -9   4   1    2.90    0.70
   8  -4  -1    3.70    0.60
  -8   4   1    5.10    0.70
   7  -4  -1    0.60    0.30
   7  -4  -1   -0.40    0.40
  -7   4   1   -0.20    0.30
  -7   4   1   -0.40    0.50
  -7   4   1    0.40    0.30
   6  -4  -1   59.89    1.90
  -6   4   1   62.89    2.00
  -6   4   1   61.89    1.70
  -6   4   1   59.59    1.70
   5  -4  -1    2.00    0.40
  -5   4   1    2.30    0.40
  -5   4   1    2.20    0.40
   4  -4  -1    0.60    0.30
  -4   4   1    0.50    0.30
  -4   4   1    0.50    0.30
  -4   4   1    0.20    0.30
   3  -4  -1   21.30    0.80
   3  -4  -1   21.70    0.90
  -3   4   1   21.00    0.90
  -3   4   1   22.30    0.90
   2  -4  -1 1430.16   31.60
   2  -4  -1 1401.96   31.60
  -2   4   1 1275.97   31.60
  -2   4   1 1384.26   31.60
  -2   4   1 1386.46   31.60
   1  -4  -1  148.49    3.60
   1  -4  -1  145.29    3.60
  -1   4   1  147.19    3.70
  -1   4   1  148.39    3.50
  -1   4   1  145.39    3.60
   0  -4  -1  611.14   14.30
   0  -4  -1  604.54   14.30
   0  -4  -1  629.74   14.20
   0   4   1  620.84   14.20
   0   4   1  614.44   14.30
  -1  -4  -1   40.30    1.30
  -1  -4  -1   42.00    1.20
  -1  -4  -1   40.70    1.20
  -1  -4  -1   37.90    1.30
   1   4   1   41.90    1.30
   1   4   1   41.90    1.20
  -2  -4  -1   11.40    0.60
  -2  -4  -1   11.70    0.60
  -2  -4  -1   10.90    0.60
   2   4   1   11.10    0.70
  -3  -4  -1    8.20    0.60
  -3  -4  -1    8.40    0.60
  -3  -4  -1    8.10    0.60
  -3  -4  -1    7.90    0.60
   3   4   1    7.80    0.70
  -4  -4  -1   89.19    2.40
  -4  -4  -1   89.89    2.40
  -4  -4  -1   89.79    2.40
  -4  -4  -1   90.19    2.50
   4   4   1   92.19    2.30
  -5  -4  -1   51.79    1.70
  -5  -4  -1   51.79    1.70
  -5  -4  -1   50.29    1.50
  -5  -4  -1   50.39    1.50
   5   4   1   50.69    1.40
  -6  -4  -1    5.20    0.50
  -6  -4  -1    5.70    0.60
  -6  -4  -1    4.10    0.60
  -6  -4  -1    4.80    0.60
   6   4   1    6.00    0.60
   6   4   1    4.50    0.60
  -7  -4  -1   13.00    0.70
  -7  -4  -1   13.10    0.60
  -7  -4  -1   11.90    1.00
   7   4   1   14.70    0.80
   7   4   1   13.40    1.10
  -8  -4  -1    3.20    0.70
   8   4   1    3.70    0.80
  -9  -4  -1    1.10    0.70
   9   4   1    3.20    0.90
  10  -5  -1    3.10    0.80
 -10   5   1    2.10    0.80
   9  -5  -1    1.00    0.70
  -9   5   1    1.00    0.70
   8  -5  -1    0.60    0.50
  -8   5   1    0.80    0.60
  -8   5   1    1.10    0.40
  -8   5   1    0.90    0.40
   7  -5  -1   75.09    2.40
  -7   5   1   76.79    2.50
  -7   5   1   75.59    2.20
  -7   5   1   76.29    2.10
  -6   5   1    0.30    0.40
  -6   5   1    0.50    0.60
   5  -5  -1   20.30    1.00
  -5   5   1   21.10    1.10
  -5   5   1   20.30    0.90
  -5   5   1   20.60    0.90
   4  -5  -1  136.39    3.50
   4  -5  -1  128.79    3.40
  -4   5   1  133.59    3.40
  -4   5   1  132.49    3.50
  -4   5   1  132.19    3.40
   3  -5  -1   28.60    1.10
   3  -5  -1   28.50    1.10
  -3   5   1   28.60    1.10
  -3   5   1   27.10    1.10
  -3   5   1   28.70    1.10
   2  -5  -1    7.60    0.60
   2  -5  -1    6.70    0.60
  -2   5   1    6.40    0.60
  -2   5   1    7.30    0.60
   1  -5  -1   52.79    1.50
  -1   5   1   50.59    1.50
  -1   5   1   53.59    1.60
  -1   5   1   52.29    1.50
   0  -5  -1   34.10    1.10
   0  -5  -1   35.00    1.00
   0   5   1   31.90    1.20
   0   5   1   33.80    1.10
  -1  -5  -1   23.10    0.80
  -1  -5  -1   21.40    0.90
  -1  -5  -1   22.20    0.90
   1   5   1   21.70    1.00
   1   5   1   22.30    0.80
  -2  -5  -1   58.09    1.70
  -2  -5  -1   59.59    1.80
  -2  -5  -1   57.79    1.70
  -2  -5  -1   58.39    1.70
   2   5   1   58.99    1.60
   2   5   1   58.59    1.80
  -3  -5  -1   20.60    0.90
  -3  -5  -1   19.40    0.90
  -3  -5  -1   19.50    0.90
  -3  -5  -1   19.40    0.90
   3   5   1   21.10    0.80
   3   5   1   21.00    1.00
  -4  -5  -1    4.60    0.60
  -4  -5  -1    4.70    0.60
  -4  -5  -1    4.70    0.60
  -4  -5  -1    5.50    0.60
   4   5   1    5.20    0.50
  -5  -5  -1    3.50    0.50
  -5  -5  -1    3.60    0.50
   5   5   1    4.00    0.40
  -6  -5  -1   12.50    0.80
  -6  -5  -1   12.30    0.80
   6   5   1   12.40    0.80
   6   5   1   12.60    1.00
  -7  -5  -1   19.30    0.90
  -7  -5  -1   18.70    0.90
  -7  -5  -1   18.70    1.20
   7   5   1   20.10    1.30
  -8  -5  -1   29.30    1.50
   8   5   1   28.00    1.60
  -9  -5  -1    4.80    0.90
   9   5   1    4.80    1.10
  10  -6  -1   11.70    2.10
   9  -6  -1   31.50    1.70
  -9   6   1   26.40    1.10
  -9   6   1   29.70    1.20
  -9   6   1   26.00    1.80
   8  -6  -1    0.30    0.60
  -8   6   1    0.00    0.50
  -8   6   1   -0.90    0.60
  -8   6   1   -0.30    0.40
   7  -6  -1   13.70    1.10
  -7   6   1   15.80    1.00
  -7   6   1   15.10    1.20
  -7   6   1   15.50    1.00
   6  -6  -1   49.60    1.80
  -6   6   1   49.40    1.70
  -6   6   1   47.80    1.90
  -6   6   1   48.40    1.80
   5  -6  -1    1.40    0.50
  -5   6   1    1.60    0.50
  -5   6   1    1.20    0.50
  -5   6   1    1.40    0.50
   4  -6  -1    2.20    0.50
   4  -6  -1    1.60    0.40
  -4   6   1    1.20    0.40
  -4   6   1    1.50    0.50
   3  -6  -1  116.89    3.10
   3  -6  -1  116.49    3.10
  -3   6   1  115.89    3.10
  -3   6   1  111.59    3.30
  -3   6   1  118.09    3.20
   2  -6  -1    2.20    0.40
   2  -6  -1    2.50    0.50
  -2   6   1    2.80    0.50
  -2   6   1    2.30    0.40
  -2   6   1    3.00    0.30
   1  -6  -1  161.38    4.30
   1  -6  -1  167.78    4.20
  -1   6   1  169.48    4.30
  -1   6   1  163.88    4.20
  -1   6   1  171.88    4.00
   0  -6  -1  160.68    4.00
   0  -6  -1  160.98    3.90
   0   6   1  160.58    4.10
   0   6   1  159.48    4.00
  -1  -6  -1   33.40    1.20
  -1  -6  -1   32.10    1.20
  -1  -6  -1   32.60    1.10
   1   6   1   34.00    1.30
   1   6   1   33.40    1.10
  -2  -6  -1    7.90    0.60
  -2  -6  -1    7.10    0.80
  -2  -6  -1    7.70    0.70
  -2  -6  -1    8.10    0.70
   2   6   1    7.10    0.80
   2   6   1    7.30    0.60
  -3  -6  -1   47.20    1.50
  -3  -6  -1   45.70    1.50
  -3  -6  -1   45.70    1.50
  -3  -6  -1   39.50    1.50
   3   6   1   46.30    1.70
   3   6   1   48.20    1.40
  -4  -6  -1    0.00    0.40
  -4  -6  -1   -0.10    0.40
  -4  -6  -1    0.10    0.40
  -4  -6  -1    0.10    0.40
   4   6   1    0.10    0.30
  -5  -6  -1    1.40    0.50
  -5  -6  -1    2.10    0.50
  -5  -6  -1    2.00    0.40
  -5  -6  -1    3.10    0.50
   5   6   1    2.20    0.40
  -6  -6  -1    4.20    0.60
  -6  -6  -1    4.60    0.60
  -6  -6  -1    4.00    0.60
   6   6   1    3.30    0.70
  -7  -6  -1    1.60    0.40
  -7  -6  -1    2.20    0.50
  -7  -6  -1    1.30    0.60
   7   6   1    1.00    0.60
  -8  -6  -1   -0.60    0.40
  -8  -6  -1    0.30    0.40
  -8  -6  -1    0.70    0.70
   8   6   1   -0.30    1.00
   9  -7  -1    0.60    0.70
  -9   7   1    0.50    0.80
  -9   7   1   -0.50    0.50
   8  -7  -1   13.30    1.30
  -8   7   1   12.60    1.40
  -8   7   1   14.00    1.20
   7  -7  -1    1.00    0.60
  -7   7   1   -0.10    0.50
  -7   7   1    0.50    0.60
   6  -7  -1    3.10    0.60
  -6   7   1    2.40    0.50
  -6   7   1    3.00    0.60
   5  -7  -1    1.20    0.50
  -5   7   1    1.30    0.50
  -5   7   1    1.40    0.50
   4  -7  -1  195.58    5.10
   4  -7  -1  203.88    5.10
  -4   7   1  195.58    5.20
  -4   7   1  203.38    5.20
   3  -7  -1   16.30    1.10
   3  -7  -1   16.20    0.90
  -3   7   1   15.90    1.10
  -3   7   1   17.60    1.00
   2  -7  -1  137.99    3.70
   2  -7  -1  138.19    3.60
  -2   7   1  132.89    3.50
  -2   7   1  136.79    3.60
  -2   7   1  137.39    3.70
   1  -7  -1  128.59    3.50
   1  -7  -1  129.29    3.40
  -1   7   1  133.79    3.20
  -1   7   1  132.29    3.60
  -1   7   1  129.59    3.40
   0  -7  -1  154.68    4.10
   0  -7  -1  156.58    4.00
   0   7   1  156.98    3.90
   0   7   1  156.78    4.00
  -1  -7  -1   49.60    1.50
  -1  -7  -1   48.20    1.70
  -1  -7  -1   52.29    1.60
   1   7   1   48.90    1.50
   1   7   1   49.00    1.90
  -2  -7  -1  147.99    3.80
  -2  -7  -1  147.29    3.90
  -2  -7  -1  145.39    3.80
   2   7   1  144.29    3.70
   2   7   1  150.58    4.00
  -3  -7  -1   40.10    1.50
  -3  -7  -1   39.70    1.50
  -3  -7  -1   40.10    1.50
   3   7   1   42.10    1.30
  -4  -7  -1  147.29    4.00
  -4  -7  -1  147.29    3.90
  -4  -7  -1  149.19    4.00
   4   7   1  152.78    3.70
  -5  -7  -1    5.60    0.70
  -5  -7  -1    6.50    0.90
   5   7   1    4.10    0.70
   5   7   1    5.10    0.50
  -6  -7  -1   50.19    1.80
  -6  -7  -1   48.10    1.80
   6   7   1   50.29    2.00
  -7  -7  -1    2.40    0.70
  -7  -7  -1    1.90    0.50
   7   7   1    2.50    0.80
  -8  -7  -1   16.00    1.30
  -8  -7  -1   14.00    1.00
   8   7   1   12.60    1.50
   9  -8  -1    7.50    1.20
  -9   8   1    9.80    1.10
  -9   8   1    7.10    2.00
   8  -8  -1    1.50    0.70
  -8   8   1    0.70    1.00
  -8   8   1    0.40    0.80
   7  -8  -1   48.60    2.00
  -7   8   1   45.60    1.80
  -7   8   1   43.20    2.00
   6  -8  -1   90.69    2.80
  -6   8   1   90.49    2.80
  -6   8   1   87.19    2.90
   5  -8  -1    4.80    0.70
  -5   8   1    5.50    0.70
  -5   8   1    4.90    0.70
   4  -8  -1    2.00    0.50
  -4   8   1    0.90    0.60
  -4   8   1    1.00    0.50
   3  -8  -1   -0.10    0.60
  -3   8   1    0.30    0.50
  -3   8   1   -0.30    0.60
   2  -8  -1   50.99    1.70
   2  -8  -1   49.50    1.90
  -2   8   1   51.39    1.40
  -2   8   1   49.99    1.70
   1  -8  -1   96.79    2.90
   1  -8  -1   95.59    2.70
  -1   8   1   93.89    2.70
  -1   8   1   94.49    2.50
  -1   8   1   95.59    2.90
   0  -8  -1   41.40    1.50
   0   8   1   39.10    1.50
   0   8   1   38.90    1.70
   0   8   1   42.30    1.40
  -1  -8  -1    1.20    0.50
  -1  -8  -1    0.90    0.50
   1   8   1    1.30    0.70
   1   8   1    1.50    0.50
   1   8   1    1.50    0.40
  -2  -8  -1  140.39    3.90
  -2  -8  -1  141.89    3.80
   2   8   1  138.79    3.90
   2   8   1  141.09    3.60
  -3  -8  -1  105.59    3.10
   3   8   1  105.29    2.80
  -4  -8  -1    3.20    0.60
  -4  -8  -1    3.20    0.60
   4   8   1    3.30    0.50
   4   8   1    3.20    0.60
  -5  -8  -1   76.99    2.40
  -5  -8  -1   77.99    2.50
   5   8   1   75.69    2.60
  -6  -8  -1  124.89    3.60
  -6  -8  -1  127.49    3.90
   6   8   1  127.09    3.90
  -7  -8  -1   17.20    1.40
  -7  -8  -1   19.40    1.70
   7   8   1   16.20    1.50
   8  -9  -1   17.80    1.50
  -8   9   1   12.50    1.30
  -8   9   1   14.30    1.30
   7  -9  -1    7.80    1.00
  -7   9   1   12.10    1.60
  -7   9   1    8.00    1.00
   6  -9  -1    2.00    0.70
  -6   9   1    2.60    0.70
  -6   9   1    3.20    0.70
   5  -9  -1    0.90    0.50
  -5   9   1    1.70    0.60
  -5   9   1    1.10    0.60
   4  -9  -1    0.20    0.50
  -4   9   1    1.00    0.60
  -4   9   1    0.90    0.60
   3  -9  -1    3.30    0.80
   3  -9  -1    1.20    0.50
  -3   9   1    2.20    0.60
  -3   9   1    2.80    0.70
   2  -9  -1   10.60    1.20
   2  -9  -1   11.30    1.00
  -2   9   1   10.10    1.00
  -2   9   1   11.50    1.20
  -2   9   1   12.90    0.70
   1  -9  -1   58.89    2.20
   1  -9  -1   59.39    2.00
  -1   9   1   62.99    1.80
  -1   9   1   61.39    2.30
  -1   9   1   60.99    2.00
   0  -9  -1    1.40    0.60
   0  -9  -1    1.50    0.50
   0   9   1    0.50    0.70
   0   9   1    1.80    0.50
   0   9   1    1.50    0.50
  -1  -9  -1    0.10    0.50
  -1  -9  -1    0.70    0.50
   1   9   1    0.00    0.70
   1   9   1    1.00    0.50
   1   9   1    0.80    0.50
  -2  -9  -1    7.10    1.00
  -2  -9  -1    7.10    0.90
   2   9   1    7.40    0.80
   2   9   1    6.50    0.90
  -3  -9  -1   18.50    1.20
  -3  -9  -1   18.70    1.20
   3   9   1   18.90    1.10
   3   9   1   20.50    1.30
  -4  -9  -1   91.69    2.80
  -4  -9  -1   92.69    2.90
   4   9   1   93.79    3.00
   4   9   1   95.79    2.60
  -5  -9  -1  102.69    3.20
  -5  -9  -1  108.09    3.20
   5   9   1  103.89    3.50
  -6  -9  -1    0.60    0.70
  -6  -9  -1    0.10    0.60
   6   9   1   -1.20    0.80
   7 -10  -1    0.00    0.70
  -7  10   1    0.40    0.80
  -7  10   1    1.30    0.80
   6 -10  -1    9.60    1.40
  -6  10   1    7.90    1.00
  -6  10   1   10.60    1.30
   5 -10  -1    5.60    0.90
  -5  10   1    6.60    0.90
  -5  10   1    6.10    0.90
   4 -10  -1   -0.10    0.60
  -4  10   1   -0.20    0.60
  -4  10   1   -0.10    0.70
   3 -10  -1    0.60    0.60
  -3  10   1    0.30    0.60
  -3  10   1   -0.10    0.70
   2 -10  -1    4.50    0.70
   2 -10  -1    7.30    1.00
  -2  10   1    8.60    1.40
  -2  10   1    5.10    0.70
   1 -10  -1    1.60    0.70
   1 -10  -1    0.60    0.60
  -1  10   1    0.20    0.50
  -1  10   1   -0.40    0.50
  -1  10   1   -0.40    0.80
   0 -10  -1    4.00    0.70
   0 -10  -1    3.20    0.80
   0  10   1    4.70    1.00
   0  10   1    4.10    0.60
   0  10   1    2.60    0.60
  -1 -10  -1    0.80    0.60
  -1 -10  -1    0.90    0.60
   1  10   1    0.80    0.60
  -2 -10  -1    3.00    0.60
  -2 -10  -1    3.10    0.70
   2  10   1    3.00    0.60
   2  10   1    2.70    0.60
  -3 -10  -1   -0.90    0.60
  -3 -10  -1   -1.40    0.50
   3  10   1    0.90    0.60
   3  10   1    0.60    0.60
  -4 -10  -1    1.20    0.60
  -4 -10  -1    0.80    0.60
   4  10   1    0.70    0.70
  -5 -10  -1   19.20    1.40
  -5 -10  -1   20.80    1.40
   5  10   1   17.50    1.50
   6 -11  -1   61.89    2.50
  -6  11   1   59.79    2.60
  -6  11   1   61.59    2.70
   5 -11  -1    1.00    0.70
  -5  11   1    2.20    0.80
  -5  11   1    0.50    0.90
   4 -11  -1   62.49    2.40
  -4  11   1   62.59    2.60
  -4  11   1   65.49    2.50
   3 -11  -1   12.00    1.30
  -3  11   1   10.30    1.30
  -3  11   1   11.10    1.50
   2 -11  -1    3.10    0.90
   2 -11  -1    3.40    0.80
  -2  11   1    4.40    0.80
  -2  11   1    3.80    1.00
   1 -11  -1   13.30    1.20
   1 -11  -1   16.90    1.50
  -1  11   1   17.50    1.00
  -1  11   1   15.50    1.70
  -1  11   1   16.40    1.30
   0 -11  -1   -0.30    0.60
   0 -11  -1    0.70    0.70
   0  11   1    0.10    0.60
   0  11   1    0.60    0.60
  -1 -11  -1   -0.80    0.70
  -1 -11  -1    0.20    0.60
   1  11   1   -1.00    0.60
   1  11   1   -0.20    0.60
  -2 -11  -1    1.60    0.60
  -2 -11  -1    2.40    0.70
   2  11   1    1.90    0.70
   2  11   1    2.10    0.70
  -3 -11  -1   -0.30    0.70
  -3 -11  -1   -1.20    0.60
   3  11   1   -0.40    0.70
   3  11   1    0.20    0.70
  -4 -11  -1    0.60    0.70
  -4 -11  -1   -0.50    0.70
   4  11   1    0.30    0.80
   5 -12  -1    1.50    0.90
  -5  12   1   -0.30    1.00
  -5  12   1    1.40    0.80
   4 -12  -1    3.40    0.90
  -4  12   1    2.10    0.80
  -4  12   1    0.30    1.00
   3 -12  -1    2.40    0.80
  -3  12   1    0.60    1.00
  -3  12   1    1.40    0.80
   2 -12  -1   36.80    1.90
  -2  12   1   34.80    2.20
  -2  12   1   37.20    1.90
   1 -12  -1   23.10    1.50
   1 -12  -1   24.00    1.80
  -1  12   1   20.70    2.90
  -1  12   1   24.20    1.60
   0 -12  -1   -0.10    0.70
   0 -12  -1    0.60    0.80
   0  12   1    0.30    0.60
   0  12   1   -1.20    0.70
  -1 -12  -1    8.90    1.10
  -1 -12  -1   11.90    1.30
   1  12   1    9.00    1.00
   1  12   1    8.90    1.20
  -2 -12  -1   52.79    2.20
  -2 -12  -1   53.89    2.40
   2  12   1   54.89    2.20
   2  12   1   52.39    2.10
   1 -13  -1   15.00    1.60
   0  13  -2    3.00    0.90
   0 -13   2    2.60    0.80
   0 -13   2    4.00    1.10
  -1  13  -2   -1.20    0.80
   1 -13   2    0.20    1.20
   1 -13   2   -1.10    0.70
  -2  13  -2   -0.10    0.80
  -2  13  -2   -0.20    1.20
   2 -13   2    2.30    0.80
   3  12  -2   34.00    1.70
  -3 -12   2   34.30    2.00
  -3 -12   2   30.50    1.70
  -3 -12   2   31.60    1.70
   2  12  -2    1.90    0.80
  -2 -12   2    2.70    0.70
  -2 -12   2    2.90    0.70
  -2 -12   2    3.30    0.90
   1  12  -2    0.30    0.70
  -1 -12   2   -0.20    0.70
  -1 -12   2   -1.30    0.50
  -1 -12   2    0.10    0.60
   0 -12   2    0.90    0.70
   0 -12   2    0.40    0.60
  -1  12  -2    6.70    1.00
   1 -12   2    6.50    1.10
   1 -12   2    5.30    0.90
  -2  12  -2    3.20    1.10
  -2  12  -2    3.70    0.90
   2 -12   2    3.90    0.80
  -3  12  -2    5.20    1.20
  -3  12  -2    4.00    0.90
   3 -12   2    4.30    0.80
  -4  12  -2    1.20    1.00
  -4  12  -2    1.40    1.00
   4 -12   2    0.50    0.70
   5  11  -2   95.79    3.20
  -5 -11   2   93.89    2.90
  -5 -11   2   91.99    3.10
  -5 -11   2   99.09    3.20
   4  11  -2    4.30    0.80
  -4 -11   2    5.90    0.80
  -4 -11   2    5.10    0.90
  -4 -11   2    3.90    0.80
   3  11  -2   15.80    1.30
  -3 -11   2   13.20    1.40
  -3 -11   2   12.10    1.20
  -3 -11   2   12.50    1.20
   2  11  -2   40.60    1.80
  -2 -11   2   41.50    1.70
  -2 -11   2   40.90    1.70
  -2 -11   2   40.00    2.00
   1  11  -2   -0.40    0.60
  -1 -11   2    1.20    0.60
  -1 -11   2   -0.50    0.50
  -1 -11   2    0.10    0.60
   0  11  -2   14.10    1.80
   0  11  -2   15.10    1.20
   0 -11   2   12.50    1.10
   0 -11   2   16.10    1.50
   0 -11   2   16.20    1.00
  -1  11  -2    8.70    1.20
  -1  11  -2    8.80    1.10
   1 -11   2   10.50    1.10
   1 -11   2   11.70    1.40
   1 -11   2   11.30    0.80
  -2  11  -2    1.00    0.70
  -2  11  -2   -1.20    1.00
   2 -11   2    1.10    0.80
   2 -11   2   -0.40    0.60
  -3  11  -2    4.30    0.80
  -3  11  -2    4.70    1.00
   3 -11   2    5.70    0.80
  -4  11  -2    1.00    0.70
  -4  11  -2   -1.00    0.80
   4 -11   2    1.00    0.70
  -5  11  -2    3.20    1.10
  -5  11  -2    2.10    0.90
   5 -11   2    3.10    0.80
  -6  11  -2    4.50    0.90
  -6  11  -2    3.50    1.00
   6 -11   2    2.60    1.10
  -6 -10   2    1.70    0.60
  -6 -10   2    1.40    0.70
  -6 -10   2    1.40    0.60
   5  10  -2    0.00    0.60
  -5 -10   2   -1.30    0.50
  -5 -10   2    0.60    0.70
  -5 -10   2    1.00    0.50
   4  10  -2    2.80    0.70
  -4 -10   2    1.30    0.60
  -4 -10   2    1.30    0.60
  -4 -10   2    1.80    0.60
   3  10  -2    4.50    0.70
  -3 -10   2    5.00    0.70
  -3 -10   2    5.20    0.80
  -3 -10   2    6.00    0.70
   2  10  -2   15.10    1.10
  -2 -10   2   14.50    1.00
  -2 -10   2   13.90    1.30
  -2 -10   2   13.60    1.00
   1  10  -2   15.40    1.10
  -1 -10   2   17.00    1.30
  -1 -10   2   14.30    1.20
  -1 -10   2   14.90    1.00
   0  10  -2   52.29    2.00
   0  10  -2   54.79    2.30
   0 -10   2   53.59    1.70
   0 -10   2   52.19    2.20
   0 -10   2   53.79    1.90
  -1  10  -2   25.80    1.70
  -1  10  -2   25.70    1.40
   1 -10   2   25.80    1.10
   1 -10   2   30.60    1.60
   1 -10   2   24.30    1.30
  -2  10  -2    1.60    0.60
  -2  10  -2   -0.70    0.70
   2 -10   2    1.10    0.70
   2 -10   2    0.30    0.50
  -3  10  -2    6.10    0.80
  -3  10  -2    6.40    0.90
   3 -10   2    8.20    1.00
  -4  10  -2    7.00    1.00
  -4  10  -2    7.70    1.10
   4 -10   2    6.40    0.80
  -5  10  -2   -0.10    0.70
  -5  10  -2    0.50    0.70
   5 -10   2    0.00    0.60
  -6  10  -2    4.00    0.90
  -6  10  -2    2.30    0.80
   6 -10   2    2.80    0.80
  -7  10  -2    4.50    1.10
  -7  10  -2    4.10    0.90
   7 -10   2    4.70    0.90
  -7  -9   2    2.10    0.70
  -7  -9   2    1.20    0.60
  -7  -9   2    1.50    0.70
   6   9  -2    3.10    0.70
  -6  -9   2    4.70    0.70
  -6  -9   2    4.10    0.80
   5   9  -2   14.00    1.30
  -5  -9   2   17.50    1.10
  -5  -9   2   17.40    1.20
  -5  -9   2   15.40    1.20
  -4  -9   2    8.80    1.00
  -4  -9   2    7.00    0.90
  -4  -9   2    7.80    0.90
   3   9  -2   35.10    1.50
  -3  -9   2   34.40    1.50
  -3  -9   2   34.60    1.60
  -3  -9   2   35.60    1.40
   2   9  -2  121.39    3.30
  -2  -9   2  117.19    3.20
  -2  -9   2  114.19    3.50
  -2  -9   2  109.49    3.50
   1   9  -2   28.30    1.60
   1   9  -2   26.70    1.50
  -1  -9   2   27.30    1.20
  -1  -9   2   26.80    1.40
  -1  -9   2   27.10    1.20
   0  -9   2   75.89    2.30
   0  -9   2   75.69    2.50
   0  -9   2   74.29    2.10
  -1   9  -2    1.50    0.60
  -1   9  -2    1.90    0.70
   1  -9   2    1.50    0.50
   1  -9   2    2.20    0.40
   1  -9   2    2.80    0.70
  -2   9  -2   28.30    1.50
  -2   9  -2   27.10    1.40
   2  -9   2   28.40    1.00
   2  -9   2   26.80    1.50
  -3   9  -2    8.90    1.20
  -3   9  -2    9.10    1.00
   3  -9   2   10.70    1.00
   3  -9   2    9.20    1.10
  -4   9  -2   55.09    2.10
  -4   9  -2   55.49    2.00
   4  -9   2   54.79    2.00
  -5   9  -2    0.20    0.60
  -5   9  -2   -0.40    0.60
   5  -9   2    0.00    0.60
  -6   9  -2    1.60    0.70
  -6   9  -2    1.50    0.70
   6  -9   2    0.80    0.70
  -7   9  -2    4.90    0.90
  -7   9  -2    6.10    0.90
   7  -9   2    6.00    0.90
  -8   9  -2   -0.20    0.90
  -8   9  -2    1.30    0.80
   8  -9   2    0.10    1.20
  -7  -8   2    2.00    0.80
  -7  -8   2    3.50    0.60
  -7  -8   2    3.50    0.70
   6   8  -2    0.00    0.60
  -6  -8   2    0.50    0.50
  -6  -8   2    0.50    0.50
  -6  -8   2    0.10    0.50
   5   8  -2   -0.70    0.50
  -5  -8   2    0.00    0.40
  -5  -8   2   -0.10    0.50
  -5  -8   2   -0.50    0.50
   4   8  -2    6.60    0.90
  -4  -8   2    6.60    0.80
  -4  -8   2    6.90    0.90
  -4  -8   2    6.90    0.90
   3   8  -2   42.00    1.50
  -3  -8   2   40.00    1.60
  -3  -8   2   43.00    1.50
   2   8  -2   45.40    1.60
   2   8  -2   45.30    1.80
  -2  -8   2   45.10    1.50
  -2  -8   2   45.70    1.70
  -2  -8   2   44.50    1.60
   1   8  -2   18.00    1.10
   1   8  -2   16.70    1.20
  -1  -8   2   18.60    0.90
  -1  -8   2   18.50    1.10
  -1  -8   2   18.20    0.90
   0   8  -2    9.80    0.90
   0   8  -2    8.00    1.00
   0  -8   2    8.00    0.70
   0  -8   2    8.70    0.90
   0  -8   2    9.00    0.80
  -1   8  -2  103.29    2.90
   1  -8   2  100.19    2.80
   1  -8   2  103.09    2.60
   1  -8   2  100.99    3.00
  -2   8  -2  572.84   13.40
  -2   8  -2  547.05   13.40
   2  -8   2  567.94   13.50
   2  -8   2  554.14   13.30
   2  -8   2  565.04   13.00
  -3   8  -2   29.40    1.40
  -3   8  -2   28.80    1.40
   3  -8   2   29.10    1.30
   3  -8   2   29.20    1.50
   4  -8   2  622.64   14.80
  -5   8  -2   88.99    2.80
  -5   8  -2   90.19    2.80
   5  -8   2   89.09    2.70
  -6   8  -2    1.30    0.60
  -6   8  -2    0.10    0.60
   6  -8   2    0.50    0.60
  -7   8  -2    0.10    0.60
  -7   8  -2    0.30    0.70
   7  -8   2    1.20    0.60
  -8   8  -2    5.30    1.40
  -8   8  -2    6.90    0.90
   8  -8   2    6.90    1.40
  -8  -7   2    1.00    0.70
  -8  -7   2    0.40    0.40
  -8  -7   2    1.10    0.40
  -8  -7   2    0.30    0.60
   7   7  -2    2.30    0.70
  -7  -7   2    1.90    0.60
  -7  -7   2    2.70    0.60
  -7  -7   2    2.10    0.50
  -7  -7   2    3.00    0.50
   6   7  -2    0.10    0.50
  -6  -7   2   -0.10    0.50
  -6  -7   2    0.10    0.40
  -6  -7   2   -0.30    0.50
   5   7  -2    0.40    0.50
  -5  -7   2    0.00    0.40
  -5  -7   2    0.30    0.40
  -5  -7   2   -0.30    0.40
   4   7  -2    0.80    0.50
  -4  -7   2    1.00    0.40
  -4  -7   2    0.30    0.40
  -4  -7   2    0.50    0.40
  -4  -7   2    0.40    0.60
   3   7  -2   83.79    2.40
   3   7  -2   83.59    2.60
  -3  -7   2   83.99    2.40
  -3  -7   2   82.49    2.50
  -3  -7   2   82.49    2.30
   2   7  -2   17.50    1.00
   2   7  -2   15.70    1.10
  -2  -7   2   16.80    0.90
  -2  -7   2   16.10    1.00
  -2  -7   2   19.50    1.30
  -2  -7   2   16.70    0.80
   1   7  -2    1.10    0.50
   1   7  -2   -0.10    0.40
  -1  -7   2    0.70    0.40
  -1  -7   2   -0.10    0.30
  -1  -7   2    0.30    0.30
   0   7  -2   38.30    1.40
   0  -7   2   38.40    1.20
   0  -7   2   38.60    1.30
   0  -7   2   38.60    1.50
  -1   7  -2    0.40    0.40
  -1   7  -2    0.20    0.40
   1  -7   2   -0.10    0.20
   1  -7   2    0.10    0.30
   1  -7   2    0.50    0.40
   1  -7   2    0.40    0.40
  -2   7  -2   18.30    1.10
  -2   7  -2   18.70    1.00
   2  -7   2   18.70    1.00
   2  -7   2   17.40    1.10
   2  -7   2   17.10    0.70
   2  -7   2   18.80    0.90
  -3   7  -2  456.25   10.90
  -3   7  -2  447.26   10.90
   3  -7   2  452.75   10.90
   3  -7   2  456.45   10.80
   3  -7   2  452.35   10.90
  -4   7  -2  279.27    7.00
   4  -7   2  280.97    6.90
   4  -7   2  274.57    6.90
  -5   7  -2    0.40    0.50
  -5   7  -2   -0.30    0.50
   5  -7   2    0.50    0.50
  -6   7  -2   80.79    2.60
  -6   7  -2   78.39    2.50
   6  -7   2   77.89    2.50
  -7   7  -2   58.19    2.20
  -7   7  -2   59.29    2.10
   7  -7   2   58.39    2.20
  -8   7  -2    3.80    0.70
  -8   7  -2    1.50    0.70
   8  -7   2    3.80    0.80
  -9   7  -2   61.29    2.50
  -9   7  -2   57.89    2.30
   9  -7   2   62.89    2.50
  -9  -6   2    0.00    0.70
  -9  -6   2    1.40    0.70
  -8  -6   2   -0.20    0.60
   7   6  -2    8.40    1.00
  -7  -6   2    8.60    1.00
  -7  -6   2    8.10    0.60
  -7  -6   2    8.00    0.80
   6   6  -2    1.30    0.50
  -6  -6   2    2.10    0.50
  -6  -6   2    1.60    0.40
  -6  -6   2    1.30    0.50
  -6  -6   2    1.10    0.50
   5   6  -2    9.70    0.90
  -5  -6   2   10.30    0.80
  -5  -6   2    8.50    0.80
  -5  -6   2    8.80    0.70
  -5  -6   2    8.50    0.80
   4   6  -2    0.60    0.40
  -4  -6   2    0.80    0.40
  -4  -6   2    0.20    0.40
  -4  -6   2    0.30    0.40
  -4  -6   2    0.20    0.30
   3   6  -2   18.10    1.10
   3   6  -2   18.80    0.90
  -3  -6   2   18.60    0.80
  -3  -6   2   17.90    0.90
  -3  -6   2   18.10    0.90
  -3  -6   2   19.30    0.90
   2   6  -2  105.89    2.80
   2   6  -2  102.69    2.80
  -2  -6   2  106.39    2.80
  -2  -6   2  104.19    2.80
  -2  -6   2   98.29    2.80
  -2  -6   2  103.89    2.70
   1   6  -2    0.10    0.40
   1   6  -2    0.40    0.30
  -1  -6   2    0.40    0.30
  -1  -6   2    0.40    0.30
  -1  -6   2    0.50    0.30
   0   6  -2  118.49    3.20
   0   6  -2  121.09    3.20
   0  -6   2  121.49    3.20
   0  -6   2  118.09    3.20
   0  -6   2  123.49    3.10
   0  -6   2  122.59    3.00
  -1   6  -2   39.20    1.40
  -1   6  -2   38.80    1.30
   1  -6   2   39.50    1.10
   1  -6   2   40.00    1.30
   1  -6   2   38.40    1.40
  -2   6  -2    1.20    0.50
  -2   6  -2    0.30    0.40
   2  -6   2    0.70    0.20
   2  -6   2    0.60    0.30
   2  -6   2    0.60    0.30
  -3   6  -2    5.90    0.70
  -3   6  -2    6.30    0.70
   3  -6   2    5.70    0.60
   3  -6   2    5.40    0.70
  -4   6  -2   15.70    1.00
  -4   6  -2   15.30    0.90
  -4   6  -2   15.30    1.20
   4  -6   2   15.80    0.90
   4  -6   2   15.50    1.00
  -5   6  -2   23.00    1.10
  -5   6  -2   22.10    1.30
  -5   6  -2   23.00    1.20
  -6   6  -2   11.50    0.90
  -6   6  -2   13.00    1.00
   6  -6   2   12.20    1.00
  -7   6  -2   11.10    1.10
  -7   6  -2   12.30    1.00
   7  -6   2   13.20    1.10
  -8   6  -2   11.20    1.20
  -8   6  -2   11.40    1.00
   8  -6   2   14.00    1.30
  -9   6  -2    1.60    0.50
  -9   6  -2    1.50    0.80
   9  -6   2    1.80    0.80
  -9  -5   2    5.50    0.80
  -9  -5   2    5.80    0.90
   8   5  -2    9.90    1.00
  -8  -5   2    9.30    1.00
  -8  -5   2    8.00    1.00
   7   5  -2    5.00    0.60
  -7  -5   2    5.10    0.60
  -7  -5   2    5.20    0.70
  -7  -5   2    5.30    0.50
  -7  -5   2    4.40    0.50
   6   5  -2    3.80    0.50
  -6  -5   2    3.10    0.40
  -6  -5   2    3.40    0.50
  -6  -5   2    4.30    0.60
  -6  -5   2    3.40    0.40
   5   5  -2    9.10    0.80
  -5  -5   2    9.30    0.70
  -5  -5   2    8.50    0.80
  -5  -5   2    8.80    0.70
  -5  -5   2    9.10    0.60
   4   5  -2   52.59    1.60
  -4  -5   2   50.99    1.60
  -4  -5   2   51.29    1.70
  -4  -5   2   48.40    1.50
  -4  -5   2   52.19    1.60
   3   5  -2   69.49    1.90
   3   5  -2   62.19    1.90
  -3  -5   2   65.99    1.90
  -3  -5   2   68.19    1.90
  -3  -5   2   68.29    1.80
  -3  -5   2   65.99    1.90
   2   5  -2   72.09    2.00
   2   5  -2   73.99    2.00
  -2  -5   2   71.89    2.00
  -2  -5   2   68.59    2.20
  -2  -5   2   72.69    2.00
  -2  -5   2   73.29    1.90
   1   5  -2   54.69    1.70
   1   5  -2   56.59    1.60
  -1  -5   2   58.19    1.50
  -1  -5   2   57.99    1.60
  -1  -5   2   56.79    1.70
   0   5  -2  131.69    3.30
   0   5  -2  128.59    3.40
   0  -5   2  133.29    3.20
   0  -5   2  137.89    3.30
   0  -5   2  129.29    3.40
  -1   5  -2   23.20    1.00
  -1   5  -2   25.70    1.00
   1  -5   2   25.30    0.80
   1  -5   2   24.20    0.90
  -2   5  -2    2.40    0.40
  -2   5  -2    1.70    0.30
   2  -5   2    2.50    0.30
   2  -5   2    1.90    0.30
   2  -5   2    1.90    0.30
  -3   5  -2    1.30    0.40
  -3   5  -2    1.50    0.40
  -3   5  -2    1.10    0.30
   3  -5   2    1.50    0.40
   3  -5   2    1.20    0.30
  -4   5  -2    0.20    0.30
  -4   5  -2    0.10    0.40
  -4   5  -2    0.30    0.30
   4  -5   2    0.20    0.30
   4  -5   2    0.00    0.30
  -5   5  -2    1.30    0.50
  -5   5  -2    1.60    0.40
  -5   5  -2    0.90    0.40
   5  -5   2    0.80    0.40
  -6   5  -2   33.80    1.30
  -6   5  -2   34.30    1.30
  -6   5  -2   35.10    1.50
   6  -5   2   31.80    1.40
  -7   5  -2    1.00    0.40
  -7   5  -2    0.80    0.40
  -7   5  -2    0.80    0.50
   7  -5   2    0.50    0.50
  -8   5  -2    2.50    0.70
  -8   5  -2    3.30    0.50
  -8   5  -2    3.70    0.50
   8  -5   2    2.30    0.60
  -9   5  -2    0.50    0.40
  -9   5  -2    1.20    0.70
  -9   5  -2    0.80    0.40
   9  -5   2   -0.10    0.70
  10   4  -2    2.30    0.90
   9   4  -2   38.00    1.60
  -9  -4   2   38.20    1.70
  -9  -4   2   37.40    1.80
   8   4  -2   -0.40    0.50
  -8  -4   2    0.70    0.50
  -8  -4   2    0.30    0.50
   7   4  -2    3.00    0.60
  -7  -4   2    3.90    0.60
  -7  -4   2    3.30    0.50
   6   4  -2  142.59    3.60
  -6  -4   2  140.99    3.40
  -6  -4   2  138.99    3.40
  -6  -4   2  142.89    3.60
   5   4  -2    5.80    0.70
  -5  -4   2    6.10    0.60
  -5  -4   2    5.70    0.50
  -5  -4   2    5.50    0.70
  -5  -4   2    5.10    0.50
   4   4  -2   -0.10    0.30
  -4  -4   2   -0.10    0.30
  -4  -4   2    0.00    0.40
  -4  -4   2    0.10    0.20
  -4  -4   2    0.10    0.30
   3   4  -2   89.09    2.30
  -3  -4   2   89.99    2.30
  -3  -4   2   89.29    2.20
  -3  -4   2   88.89    2.40
  -3  -4   2   87.79    2.30
   2   4  -2  960.10   22.40
   2   4  -2  976.40   22.40
  -2  -4   2  961.00   22.40
  -2  -4   2  993.20   22.50
  -2  -4   2  976.30   22.30
   1   4  -2   11.10    0.60
   1   4  -2   10.90    0.60
  -1  -4   2   11.20    0.50
  -1  -4   2   10.30    0.50
  -1  -4   2   11.30    0.60
   0   4  -2    0.00    0.60
   0   4  -2   -0.10    0.20
   0  -4   2    0.30    0.20
   0  -4   2    0.60    0.50
   0  -4   2   -0.20    0.20
  -1   4  -2  138.39    3.50
  -1   4  -2  137.49    3.40
   1  -4   2  134.89    3.40
   1  -4   2  139.69    3.30
  -2   4  -2    0.60    0.30
  -2   4  -2    1.10    0.30
  -2   4  -2    0.20    0.30
   2  -4   2    0.50    0.20
   2  -4   2    0.30    0.20
   2  -4   2    0.40    0.20
  -3   4  -2  127.59    3.30
  -3   4  -2  126.89    3.30
   3  -4   2  121.99    3.20
   3  -4   2  132.19    3.00
   3  -4   2  128.99    3.20
  -4   4  -2  120.09    3.10
  -4   4  -2  113.69    3.00
  -4   4  -2  118.19    3.10
   4  -4   2  114.39    3.10
   4  -4   2  118.09    3.10
   4  -4   2  121.39    2.80
  -5   4  -2    3.80    0.60
  -5   4  -2    4.70    0.50
  -5   4  -2    4.10    0.60
  -5   4  -2    3.80    0.50
   5  -4   2    4.10    0.40
  -6   4  -2   23.50    1.00
  -6   4  -2   24.10    1.20
   6  -4   2   23.90    0.80
  -7   4  -2    3.30    0.50
  -7   4  -2    3.30    0.50
  -7   4  -2    3.20    0.60
   7  -4   2    4.10    0.60
  -8   4  -2    5.70    0.70
  -8   4  -2    4.90    0.70
  -8   4  -2    5.40    0.60
  -8   4  -2    5.10    0.70
   8  -4   2    5.80    0.80
  -9   4  -2    2.60    0.70
   9  -4   2    1.90    0.70
 -10   4  -2   48.30    2.10
  10  -4   2   49.40    2.20
  10   3  -2    0.70    0.80
  10   3  -2    0.80    0.80
 -10  -3   2    0.40    0.70
   9   3  -2   23.60    1.30
  -9  -3   2   21.10    1.40
  -9  -3   2   22.10    1.30
   8   3  -2    0.30    0.60
  -8  -3   2    1.20    0.50
   7   3  -2    1.30    0.50
  -7  -3   2    1.10    0.40
  -7  -3   2    1.10    0.40
   6   3  -2    1.80    0.40
  -6  -3   2    1.70    0.50
  -6  -3   2    1.90    0.40
   5   3  -2   40.10    1.30
  -5  -3   2   38.70    1.40
  -5  -3   2   38.50    1.20
  -5  -3   2   37.30    1.10
  -5  -3   2   38.00    1.10
   4   3  -2   84.89    2.30
  -4  -3   2   88.29    2.20
  -4  -3   2   86.69    2.40
  -4  -3   2   88.69    2.20
  -4  -3   2   87.19    2.20
   3   3  -2  556.14   13.20
  -3  -3   2  574.04   13.30
  -3  -3   2  581.04   13.20
  -3  -3   2  571.84   13.20
  -3  -3   2  560.04   13.10
   2   3  -2    0.90    0.30
  -2  -3   2    1.40    0.30
  -2  -3   2    1.20    0.20
  -2  -3   2    1.30    0.30
  -2  -3   2    1.60    0.20
   1   3  -2  347.17    8.00
   1   3  -2  341.27    8.00
  -1  -3   2  339.47    8.00
  -1  -3   2  317.07    7.90
  -1  -3   2  349.07    7.80
  -1  -3   2  345.67    7.90
   0   3  -2  566.24   13.30
   0   3  -2  571.14   13.30
   0  -3   2  575.54   13.20
   0  -3   2  590.44   13.30
  -1   3  -2    0.60    0.20
   1  -3   2    0.80    0.30
   1  -3   2    0.70    0.20
   1  -3   2    0.70    0.20
  -2   3  -2   22.20    0.80
  -2   3  -2   23.10    0.80
  -2   3  -2   22.00    0.80
  -2   3  -2   22.60    0.80
   2  -3   2   23.60    0.70
   2  -3   2   21.50    0.80
  -3   3  -2   32.40    1.10
  -3   3  -2   33.30    1.10
  -3   3  -2   32.00    1.00
  -3   3  -2   32.50    1.10
   3  -3   2   32.10    0.90
   3  -3   2   32.60    1.00
  -4   3  -2    1.10    0.30
  -4   3  -2    1.00    0.30
  -4   3  -2    0.90    0.30
  -4   3  -2    1.40    0.30
   4  -3   2    1.20    0.20
  -5   3  -2    2.20    0.40
  -5   3  -2    1.70    0.40
  -5   3  -2    1.80    0.30
  -5   3  -2    2.00    0.30
   5  -3   2    2.00    0.30
  -6   3  -2    3.20    0.40
  -6   3  -2    2.60    0.50
  -6   3  -2    3.20    0.50
  -6   3  -2    3.60    0.50
   6  -3   2    3.20    0.40
  -7   3  -2   23.50    1.20
  -7   3  -2   22.80    0.90
  -7   3  -2   24.10    1.20
  -7   3  -2   23.00    0.90
   7  -3   2   23.70    1.00
  -8   3  -2   24.80    0.90
  -8   3  -2   24.10    1.40
  -8   3  -2   25.00    1.30
  -8   3  -2   24.80    0.90
   8  -3   2   24.10    1.10
  -9   3  -2    1.10    0.60
  -9   3  -2    0.30    0.70
   9  -3   2    0.80    0.50
 -10   3  -2    2.10    0.70
 -10   3  -2    1.10    0.80
  10   2  -2   16.40    1.50
  10   2  -2   17.50    1.30
 -10  -2   2   16.20    1.30
   9   2  -2    3.50    0.60
  -9  -2   2    1.90    0.60
  -9  -2   2    1.60    0.60
   8   2  -2   29.60    1.40
  -8  -2   2   29.40    1.30
   7   2  -2    0.20    0.40
  -7  -2   2    0.30    0.40
  -7  -2   2    0.10    0.40
   6   2  -2   48.30    1.50
  -6  -2   2   46.70    1.60
  -6  -2   2   47.90    1.50
   5   2  -2  227.98    5.50
  -5  -2   2  228.78    5.60
  -5  -2   2  227.68    5.50
   4   2  -2   57.39    1.60
  -4  -2   2   58.79    1.50
  -4  -2   2   58.69    1.60
  -4  -2   2   59.49    1.50
  -4  -2   2   57.79    1.70
   3   2  -2   23.40    0.80
  -3  -2   2   23.60    0.70
  -3  -2   2   23.20    0.70
  -3  -2   2   23.10    0.80
  -3  -2   2   23.20    0.80
   2   2  -2  960.00   22.70
   2   2  -2 1001.50   22.70
  -2  -2   2  988.80   22.70
  -2  -2   2  980.20   22.80
  -2  -2   2 1009.30   22.60
  -2  -2   2 1005.90   22.70
   1   2  -2  454.75   10.40
   1   2  -2  422.76   10.50
   1   2  -2  454.95   10.30
  -1  -2   2  448.56   10.40
  -1  -2   2  475.65   10.30
   0   2  -2  517.45   12.10
   0   2  -2  516.75   12.10
   0  -2   2  522.45   12.10
   0  -2   2  540.15   12.00
   0  -2   2  527.25   12.10
  -1   2  -2    0.80    0.20
  -1   2  -2    0.30    0.10
  -1   2  -2    0.50    0.40
   1  -2   2    0.70    0.20
   1  -2   2    0.60    0.20
  -2   2  -2  120.99    3.00
  -2   2  -2  122.49    3.00
  -2   2  -2  121.29    3.00
   2  -2   2  121.19    3.00
   2  -2   2  123.29    2.90
  -3   2  -2  253.97    5.80
  -3   2  -2  244.48    5.80
  -3   2  -2  252.47    5.90
  -3   2  -2  238.88    5.90
   3  -2   2  242.28    5.80
  -4   2  -2   17.30    0.70
  -4   2  -2   18.10    0.70
  -4   2  -2   17.30    0.70
   4  -2   2   17.40    0.60
  -5   2  -2   19.80    0.80
  -5   2  -2   20.70    0.90
  -5   2  -2   20.00    0.90
  -5   2  -2   20.20    0.80
   5  -2   2   21.20    0.80
  -6   2  -2   35.90    1.40
  -6   2  -2   35.70    1.10
  -6   2  -2   35.30    1.10
  -6   2  -2   38.30    1.30
   6  -2   2   37.10    1.20
  -7   2  -2   -0.30    0.30
  -7   2  -2    0.30    0.50
  -7   2  -2    0.30    0.40
  -7   2  -2   -0.10    0.20
   7  -2   2    0.10    0.40
  -8   2  -2   -0.20    0.60
  -8   2  -2    0.70    0.50
   8  -2   2    0.20    0.50
  -9   2  -2   23.30    1.20
  -9   2  -2   20.60    1.50
   9  -2   2   20.30    1.30
 -10   2  -2    3.00    0.90
 -10   2  -2    5.70    0.80
  10  -2   2    4.00    0.80
  10   1  -2    9.60    1.20
  10   1  -2   11.50    1.30
 -10  -1   2   13.30    1.20
  -9  -1   2   -0.30    0.50
  -9  -1   2   -0.30    0.50
  -9  -1   2    0.10    0.50
  -8  -1   2    4.80    0.70
  -8  -1   2    4.90    0.70
  -7  -1   2   24.10    1.10
  -7  -1   2   24.30    1.10
  -7  -1   2   23.30    1.10
  -6  -1   2  119.29    3.20
  -6  -1   2  118.79    3.10
  -6  -1   2  122.49    3.20
  -5  -1   2    4.50    0.50
  -5  -1   2    4.60    0.50
  -5  -1   2    4.80    0.50
  -4  -1   2    1.30    0.30
  -4  -1   2    1.10    0.30
  -4  -1   2    0.80    0.30
  -3  -1   2   85.89    2.10
  -3  -1   2   87.89    2.00
  -3  -1   2   86.79    2.20
  -3  -1   2   81.79    2.10
  -3  -1   2   87.89    2.20
  -2  -1   2  169.18    3.90
  -2  -1   2  167.08    4.00
  -2  -1   2  167.68    4.00
  -2  -1   2  173.08    4.00
   1   1  -2  949.90   21.20
   1   1  -2  904.41   21.20
  -1  -1   2  922.71   21.30
   0   1  -2 3743.73   94.49
   0   1  -2 4279.77   94.09
   0   1  -2 4258.07   94.49
   0   1  -2 4255.87   94.59
   0  -1   2 4042.20   94.09
   0  -1   2 3856.71   94.49
   0  -1   2 4144.89   94.59
   0  -1   2 4390.56   94.49
  -1   1  -2    0.20    0.20
  -1   1  -2    0.10    0.20
  -1   1  -2    0.10    0.20
  -1   1  -2    0.50    0.20
   1  -1   2    0.20    0.20
   1  -1   2    0.30    0.20
  -2   1  -2    9.50    0.40
  -2   1  -2    9.00    0.40
  -2   1  -2    9.40    0.50
  -2   1  -2    8.90    0.40
   2  -1   2    8.90    0.40
   2  -1   2    9.40    0.40
  -3   1  -2    0.60    0.30
  -3   1  -2    0.50    0.20
  -3   1  -2    0.50    0.20
  -3   1  -2    0.60    0.20
   3  -1   2    0.40    0.20
  -4   1  -2  497.75   11.30
  -4   1  -2  485.25   11.40
  -4   1  -2  490.85   11.30
  -4   1  -2  458.35   11.30
   4  -1   2  496.15   11.30
  -5   1  -2    0.30    0.30
  -5   1  -2    0.20    0.20
  -5   1  -2    0.30    0.30
  -5   1  -2    0.50    0.20
   5  -1   2    0.20    0.30
  -6   1  -2    9.40    0.50
  -6   1  -2   12.90    0.80
  -6   1  -2   11.50    0.90
  -6   1  -2    9.60    0.50
   6  -1   2   11.10    0.70
  -7   1  -2   -0.50    0.40
  -7   1  -2    0.50    0.40
   7  -1   2   -0.30    0.40
  -8   1  -2    0.20    0.50
  -8   1  -2    0.80    0.50
   8  -1   2    0.80    0.50
  -9   1  -2    1.30    0.70
   9  -1   2    0.40    0.60
 -10   1  -2   -0.80    0.70
  10  -1   2    0.90    0.60
  10   0  -2   28.10    1.50
 -10   0   2   25.50    1.60
 -10   0   2   25.90    1.60
  -9   0   2    0.20    0.60
  -9   0   2    1.00    0.60
  -9   0   2    0.10    0.50
  -8   0   2    6.60    0.70
  -8   0   2    7.70    0.80
  -7   0   2   54.39    1.80
  -7   0   2   53.59    1.70
  -7   0   2   54.19    1.70
  -6   0   2  161.58    4.00
  -6   0   2  154.88    4.00
  -6   0   2  157.58    4.00
  -5   0   2   20.00    0.80
  -5   0   2   19.20    0.80
  -5   0   2   19.60    0.80
  -4   0   2  165.08    4.10
  -4   0   2  169.28    4.10
  -4   0   2  167.38    4.00
  -3   0   2   11.10    0.50
  -3   0   2   11.20    0.50
  -2   0   2   15.90    0.50
  -2   0   2   15.60    0.50
  -2   0   2   15.60    0.50
   1   0  -2   96.29    2.20
   1   0  -2   92.19    2.20
  -1   0   2   93.49    2.30
  -1   0   2   92.69    2.20
  -1   0   2   97.29    2.20
  -1   0   2   89.69    2.20
   0   0  -2  119.49    3.10
   0   0  -2  139.79    3.00
   0   0   2  128.39    3.00
   0   0   2  131.89    3.10
   0   0   2  127.19    3.00
   0   0   2  136.69    3.10
  -1   0  -2   37.10    1.00
  -1   0  -2   38.30    0.90
  -1   0  -2   36.80    1.00
   1   0   2   36.00    1.00
   1   0   2   38.40    1.00
   1   0   2   37.00    0.90
  -2   0  -2 3769.92   85.19
  -2   0  -2 3684.53   85.59
  -2   0  -2 3718.73   85.49
  -2   0  -2 3698.03   85.49
   2   0   2 3712.13   85.39
   2   0   2 3755.32   85.59
  -3   0  -2   69.19    1.90
  -3   0  -2   70.09    1.80
  -3   0  -2   70.19    1.70
  -3   0  -2   70.39    1.80
   3   0   2   69.79    1.80
  -4   0  -2   17.00    0.60
  -4   0  -2   16.40    0.60
  -4   0  -2   15.70    0.60
  -4   0  -2   15.80    0.80
   4   0   2   16.40    0.70
  -5   0  -2   43.30    1.40
  -5   0  -2   42.10    1.20
  -5   0  -2   41.50    1.20
  -5   0  -2   42.40    1.20
   5   0   2   41.60    1.30
  -6   0  -2 1464.25   34.50
  -6   0  -2 1464.55   34.60
  -6   0  -2 1529.65   34.80
  -6   0  -2 1564.44   34.50
   6   0   2 1514.65   34.70
  -7   0  -2    9.90    0.90
  -7   0  -2    7.90    0.70
   7   0   2    8.10    0.80
  -8   0  -2  106.29    3.10
  -8   0  -2  104.89    2.90
   8   0   2  101.29    3.00
  -9   0  -2    2.50    0.60
  -9   0  -2    1.00    0.70
   9   0   2    2.20    0.70
 -10   0  -2   12.70    1.40
  10   0   2   12.10    1.40
  10  -1  -2   28.20    1.60
  10  -1  -2   27.90    1.50
 -10   1   2   30.90    1.60
  -9   1   2    0.70    0.60
  -9   1   2    0.50    0.60
  -8   1   2   14.90    1.00
  -8   1   2   14.80    0.90
  -7   1   2    1.00    0.50
  -7   1   2    1.30    0.40
  -7   1   2    0.70    0.40
  -6   1   2   37.10    1.30
  -6   1   2   39.00    1.20
  -6   1   2   39.50    1.30
  -5   1   2   14.60    0.80
  -5   1   2   15.20    0.70
  -5   1   2   15.80    0.70
  -4   1   2   55.49    1.50
  -4   1   2   54.69    1.30
  -4   1   2   54.19    1.50
  -4   1   2   54.49    1.30
  -4   1   2   53.49    1.60
   3  -1  -2   11.20    0.50
  -3   1   2   11.40    0.40
  -3   1   2   10.90    0.40
  -3   1   2   10.30    0.60
  -3   1   2   11.10    0.40
   2  -1  -2  127.69    3.00
   2  -1  -2  122.49    3.00
  -2   1   2  128.79    3.10
  -2   1   2  125.39    3.00
  -2   1   2  132.89    3.00
  -2   1   2  129.79    3.00
   1  -1  -2  184.38    4.20
   1  -1  -2  171.98    4.20
  -1   1   2  179.18    4.20
  -1   1   2  175.38    4.20
  -1   1   2  185.78    4.20
   0  -1  -2  224.18    5.70
   0  -1  -2  252.67    5.80
   0  -1  -2  257.47    5.80
   0  -1  -2  252.67    5.70
   0   1   2  248.78    5.80
   0   1   2  249.78    5.70
   0   1   2  246.08    5.80
   0   1   2  248.08    5.70
  -1  -1  -2   10.70    0.50
  -1  -1  -2   10.30    0.50
   1   1   2   10.50    0.50
   1   1   2   10.80    0.50
  -2  -1  -2  245.28    5.80
  -2  -1  -2  248.68    5.80
  -2  -1  -2  243.18    5.70
   2   1   2  241.98    5.70
   2   1   2  245.48    5.80
  -3  -1  -2 1066.69   24.70
  -3  -1  -2 1074.79   24.70
  -3  -1  -2 1087.49   24.70
  -3  -1  -2 1095.89   24.60
   3   1   2 1052.29   24.70
  -4  -1  -2  818.62   18.60
  -4  -1  -2  818.42   18.60
  -4  -1  -2  786.52   18.50
  -4  -1  -2  806.82   18.70
   4   1   2  807.42   18.70
  -5  -1  -2    0.40    0.20
  -5  -1  -2    1.00    0.30
  -5  -1  -2    0.30    0.20
  -5  -1  -2    0.30    0.40
   5   1   2    0.20    0.40
  -6  -1  -2   11.70    0.50
  -6  -1  -2   11.70    0.90
  -6  -1  -2   10.50    0.70
  -6  -1  -2   11.90    0.50
   6   1   2   11.00    0.90
  -7  -1  -2    1.70    0.40
  -7  -1  -2    1.30    0.50
   7   1   2    1.10    0.80
  -8  -1  -2   41.20    1.40
  -8  -1  -2   39.30    1.70
   8   1   2   38.30    1.60
  -9  -1  -2   77.99    2.60
   9   1   2   76.19    2.60
 -10  -1  -2   -0.20    0.70
  10   1   2    0.60    0.70
  10  -2  -2   -0.10    0.60
 -10   2   2    1.20    0.70
   9  -2  -2    2.70    0.60
  -9   2   2    2.90    0.70
   8  -2  -2    4.40    0.60
   8  -2  -2    5.30    0.80
  -8   2   2    5.00    0.70
   7  -2  -2    6.60    0.80
  -7   2   2    6.80    0.90
  -7   2   2    6.10    0.60
   6  -2  -2   79.39    2.30
  -6   2   2   78.49    2.30
  -6   2   2   80.39    2.10
   5  -2  -2   41.10    1.30
  -5   2   2   40.90    1.10
  -5   2   2   40.40    1.10
  -5   2   2   41.20    1.40
  -5   2   2   39.90    1.20
   4  -2  -2   35.00    1.10
  -4   2   2   35.50    1.00
  -4   2   2   35.70    1.00
  -4   2   2   35.70    1.20
   3  -2  -2    5.50    0.40
  -3   2   2    6.30    0.40
  -3   2   2    6.70    0.50
  -3   2   2    6.70    0.40
  -3   2   2    6.30    0.30
   2  -2  -2   74.99    1.90
   2  -2  -2   76.79    1.90
  -2   2   2   79.59    1.80
  -2   2   2   76.39    1.90
  -2   2   2   76.29    2.00
   1  -2  -2  250.57    6.10
  -1   2   2  287.67    6.20
  -1   2   2  258.57    6.10
  -1   2   2  251.17    6.10
   0  -2  -2  575.84   13.50
   0   2   2  577.74   13.40
   0   2   2  592.64   13.50
   0   2   2  589.84   13.40
  -1  -2  -2  391.86    9.10
  -1  -2  -2  375.96    9.10
  -1  -2  -2  405.26    9.10
   1   2   2  387.06    9.10
   1   2   2  391.96    9.10
  -2  -2  -2  673.33   15.60
  -2  -2  -2  675.83   15.60
  -2  -2  -2  678.73   15.60
   2   2   2  689.53   15.70
   2   2   2  670.13   15.60
  -3  -2  -2    0.00    0.20
  -3  -2  -2    0.00    0.20
  -3  -2  -2    0.00    0.20
   3   2   2    0.20    0.30
  -4  -2  -2   11.20    0.70
  -4  -2  -2   10.70    0.70
  -4  -2  -2   11.60    0.60
   4   2   2   12.10    0.50
  -5  -2  -2    1.10    0.30
  -5  -2  -2    0.50    0.30
  -5  -2  -2    0.60    0.30
   5   2   2    1.20    0.40
   5   2   2    0.50    0.30
  -6  -2  -2    8.60    0.90
  -6  -2  -2    9.00    0.50
  -6  -2  -2    9.50    0.50
   6   2   2    8.70    0.80
   6   2   2    9.40    0.60
  -7  -2  -2    3.10    0.60
   7   2   2    4.30    0.60
   7   2   2    4.90    0.60
  -8  -2  -2   18.00    1.30
   8   2   2   19.50    1.30
  -9  -2  -2   10.90    1.20
   9   2   2   11.10    1.30
  10   2   2   -0.20    0.80
  10  -3  -2    1.50    0.70
 -10   3   2    1.30    0.70
   9  -3  -2    0.10    0.50
  -9   3   2    0.50    0.60
   8  -3  -2    1.90    0.40
   8  -3  -2    2.10    0.50
  -8   3   2    1.10    0.60
   7  -3  -2    5.40    0.60
   7  -3  -2    5.70    0.60
  -7   3   2    5.50    0.70
  -7   3   2    5.70    0.40
   6  -3  -2   46.80    1.60
  -6   3   2   46.90    1.30
  -6   3   2   45.60    1.30
  -6   3   2   47.00    1.30
  -6   3   2   46.00    1.60
   5  -3  -2   91.49    2.50
  -5   3   2   94.99    2.40
  -5   3   2   95.69    2.60
  -5   3   2   86.99    2.30
  -5   3   2   91.79    2.30
   4  -3  -2   32.40    1.10
  -4   3   2   32.70    0.90
  -4   3   2   35.30    1.20
  -4   3   2   33.20    1.00
  -4   3   2   31.80    1.00
   3  -3  -2   52.89    1.50
   3  -3  -2   52.99    1.50
  -3   3   2   51.29    1.50
  -3   3   2   53.59    1.50
  -3   3   2   54.89    1.50
   2  -3  -2   40.60    1.00
   2  -3  -2   39.30    1.20
  -2   3   2   41.90    1.00
  -2   3   2   39.90    1.20
  -2   3   2   39.30    1.30
  -2   3   2   41.70    1.20
   1  -3  -2   47.60    1.30
   1  -3  -2   46.30    1.30
  -1   3   2   45.70    1.30
  -1   3   2   48.50    1.20
  -1   3   2   42.70    1.70
   0  -3  -2  118.39    2.90
   0  -3  -2  115.79    2.90
   0   3   2  120.39    2.90
   0   3   2  117.49    2.80
   0   3   2  108.89    2.90
  -1  -3  -2   77.39    2.10
  -1  -3  -2   80.19    2.10
  -1  -3  -2   79.59    2.10
   1   3   2   80.39    1.90
   1   3   2   79.69    2.10
   1   3   2   81.39    2.10
  -2  -3  -2    1.10    0.30
  -2  -3  -2    1.00    0.30
  -2  -3  -2    1.60    0.20
   2   3   2    1.30    0.30
   2   3   2    1.60    0.20
   2   3   2    1.20    0.30
  -3  -3  -2   54.19    1.50
  -3  -3  -2   53.59    1.60
  -3  -3  -2   53.89    1.50
  -4  -3  -2   41.60    1.30
  -4  -3  -2   42.40    1.30
  -4  -3  -2   41.80    1.40
   4   3   2   43.20    1.10
  -5  -3  -2    7.80    0.60
  -5  -3  -2    6.90    0.70
  -5  -3  -2    8.00    0.60
   5   3   2    6.50    0.50
   5   3   2    6.60    0.80
  -6  -3  -2    4.60    0.60
  -6  -3  -2    5.80    0.70
  -6  -3  -2    5.10    0.50
   6   3   2    4.40    0.50
  -7  -3  -2    3.90    0.60
  -7  -3  -2    3.40    0.40
  -7  -3  -2    4.50    0.50
   7   3   2    3.40    0.60
   7   3   2    4.20    0.60
  -8  -3  -2   37.50    1.70
   8   3   2   37.70    1.70
  -9  -3  -2    9.50    1.30
   9   3   2    9.80    1.30
  10  -4  -2   35.00    1.80
 -10   4   2   36.10    1.90
   9  -4  -2   12.10    1.20
  -9   4   2   11.70    1.30
   8  -4  -2    2.10    0.60
  -8   4   2    0.80    0.60
  -8   4   2    0.80    0.30
   7  -4  -2   39.80    1.10
   7  -4  -2   39.10    1.50
  -7   4   2   38.30    1.20
  -7   4   2   40.40    1.20
  -7   4   2   38.80    1.60
   6  -4  -2   14.60    0.90
  -6   4   2   15.90    0.70
  -6   4   2   15.40    0.80
  -6   4   2   16.30    1.00
   5  -4  -2    4.80    0.60
  -5   4   2    6.30    0.60
  -5   4   2    6.40    0.80
  -5   4   2    5.80    0.70
   4  -4  -2  306.77    7.30
  -4   4   2  311.17    7.30
  -4   4   2  306.57    7.30
  -4   4   2  296.37    7.40
   3  -4  -2   17.70    0.80
   3  -4  -2   17.80    0.80
  -3   4   2   17.10    0.80
  -3   4   2   18.80    0.80
   2  -4  -2  902.91   20.50
   2  -4  -2  876.61   20.40
  -2   4   2  914.11   20.50
  -2   4   2  871.71   20.40
  -2   4   2  912.51   20.20
  -2   4   2  829.22   20.40
   1  -4  -2  112.19    2.80
  -1   4   2  108.39    2.80
  -1   4   2  108.39    2.60
  -1   4   2  105.79    2.70
   0  -4  -2  412.46    9.80
   0  -4  -2  412.56    9.70
   0   4   2  415.96    9.70
   0   4   2  420.76    9.80
   0   4   2  417.16    9.70
  -1  -4  -2   59.59    1.80
  -1  -4  -2   63.29    1.70
   1   4   2   62.89    1.80
   1   4   2   62.89    1.60
   1   4   2   60.89    1.70
  -2  -4  -2  167.18    4.10
  -2  -4  -2  164.68    4.10
   2   4   2  161.08    4.10
   2   4   2  163.78    4.10
   2   4   2  168.68    3.90
  -3  -4  -2   59.19    1.70
  -3  -4  -2   61.99    1.80
  -3  -4  -2   62.19    1.80
   3   4   2   59.29    1.80
   3   4   2   63.09    1.50
   3   4   2   59.49    1.80
  -4  -4  -2   18.30    0.80
  -4  -4  -2   17.70    0.90
  -4  -4  -2   18.10    0.90
   4   4   2   18.40    1.00
   4   4   2   17.50    0.60
  -5  -4  -2   20.00    0.90
  -5  -4  -2   21.40    0.90
  -5  -4  -2   20.50    1.00
   5   4   2   21.10    1.10
  -6  -4  -2   12.30    0.80
  -6  -4  -2   12.00    1.10
  -6  -4  -2   12.00    0.70
   6   4   2   11.70    1.00
  -7  -4  -2    6.40    0.60
  -7  -4  -2    7.90    0.90
  -7  -4  -2    6.30    0.60
   7   4   2    7.70    1.00
  -8  -4  -2    4.60    0.70
   8   4   2    4.40    0.80
  -9  -4  -2    1.60    0.70
   9   4   2    0.70    0.80
  10  -5  -2    7.80    1.00
 -10   5   2    6.90    1.10
   9  -5  -2   23.60    1.50
  -9   5   2   25.80    1.60
   8  -5  -2    0.70    0.50
  -8   5   2    0.70    0.40
  -8   5   2   -0.60    0.60
  -8   5   2    0.60    0.40
   7  -5  -2   17.10    1.10
  -7   5   2   16.40    0.90
  -7   5   2   15.20    1.20
  -7   5   2   16.50    0.90
   6  -5  -2   14.90    1.20
  -6   5   2   15.90    0.90
   5  -5  -2    2.50    0.50
  -5   5   2    3.00    0.50
  -5   5   2    2.90    0.50
  -5   5   2    3.10    0.50
   4  -5  -2    2.30    0.50
   4  -5  -2    1.70    0.40
  -4   5   2    2.00    0.40
  -4   5   2    2.00    0.40
  -4   5   2    1.70    0.40
   3  -5  -2    0.70    0.30
   3  -5  -2    0.70    0.40
  -3   5   2    1.10    0.30
  -3   5   2    0.80    0.30
  -3   5   2    0.10    0.30
   2  -5  -2  160.38    4.10
   2  -5  -2  160.78    4.00
  -2   5   2  164.68    4.10
  -2   5   2  164.28    3.80
  -2   5   2  159.08    4.00
   1  -5  -2   48.20    1.70
   1  -5  -2   51.39    1.50
  -1   5   2   52.89    1.40
  -1   5   2   53.19    1.50
  -1   5   2   53.19    1.60
   0  -5  -2  319.07    7.60
   0  -5  -2  321.17    7.50
   0   5   2  319.87    7.40
   0   5   2  319.17    7.40
   0   5   2  293.67    8.00
  -1  -5  -2  101.09    2.70
  -1  -5  -2  100.79    2.70
   1   5   2  101.29    2.60
   1   5   2  103.09    2.50
  -2  -5  -2    0.00    0.30
  -2  -5  -2    0.10    0.30
  -2  -5  -2    0.20    0.30
   2   5   2    0.10    0.20
   2   5   2    0.40    0.30
   2   5   2   -0.10    0.40
  -3  -5  -2   64.79    1.90
  -3  -5  -2   66.09    1.90
  -3  -5  -2   63.59    1.90
   3   5   2   66.29    2.00
   3   5   2   63.09    1.90
  -4  -5  -2    5.30    0.60
  -4  -5  -2    7.10    0.70
  -4  -5  -2    6.20    0.70
   4   5   2    5.90    0.50
   4   5   2    5.60    0.80
  -5  -5  -2    0.40    0.30
  -5  -5  -2    0.50    0.40
  -5  -5  -2    0.30    0.40
   5   5   2    0.10    0.50
  -6  -5  -2   20.70    1.00
  -6  -5  -2   21.00    1.10
  -6  -5  -2   21.30    1.00
   6   5   2   21.80    1.30
  -7  -5  -2    2.70    0.40
  -7  -5  -2    2.30    0.50
  -7  -5  -2    3.30    0.60
   7   5   2    2.90    0.70
  -8  -5  -2    2.00    0.40
  -8  -5  -2    1.00    0.70
   8   5   2    1.30    0.70
  -9  -5  -2    9.10    1.00
   9   5   2   10.90    1.30
  10  -6  -2   84.39    3.00
 -10   6   2   85.19    3.10
   9  -6  -2    4.00    0.80
  -9   6   2    3.50    0.50
  -9   6   2    3.70    0.90
  -9   6   2    3.60    0.50
   8  -6  -2    2.40    0.90
  -8   6   2    2.30    0.50
  -8   6   2    3.20    0.50
  -8   6   2    2.90    0.70
   7  -6  -2    7.20    1.00
  -7   6   2    7.10    0.80
  -7   6   2    6.00    0.80
  -7   6   2    5.90    0.80
   6  -6  -2   28.80    1.30
  -6   6   2   29.70    1.30
  -6   6   2   27.40    1.60
  -6   6   2   28.70    1.40
   5  -6  -2   39.40    1.50
  -5   6   2   39.20    1.50
  -5   6   2   41.60    1.50
  -5   6   2   40.20    1.60
   4  -6  -2  398.56    9.60
   4  -6  -2  394.66    9.50
  -4   6   2  391.06    9.60
  -4   6   2  406.56    9.60
   3  -6  -2   -0.20    0.30
   3  -6  -2    0.70    0.40
  -3   6   2    0.10    0.30
  -3   6   2   -0.20    0.40
   2  -6  -2   59.69    1.90
   2  -6  -2   59.59    1.80
  -2   6   2   60.59    1.50
  -2   6   2   58.59    1.80
  -2   6   2   60.49    1.90
   1  -6  -2   27.20    1.10
   1  -6  -2   27.40    1.10
  -1   6   2   26.10    1.20
  -1   6   2   26.90    1.00
  -1   6   2   26.90    0.90
   0  -6  -2   16.20    0.90
   0  -6  -2   17.20    0.80
   0   6   2   15.30    0.80
   0   6   2   16.40    0.80
   0   6   2   16.90    1.00
  -1  -6  -2   42.00    1.40
   1   6   2   41.50    1.50
   1   6   2   43.30    1.30
   1   6   2   42.60    1.40
  -2  -6  -2  231.08    5.60
  -2  -6  -2  213.68    5.70
  -2  -6  -2  234.08    5.70
   2   6   2  228.28    5.70
   2   6   2  231.88    5.50
   2   6   2  233.98    5.70
  -3  -6  -2    0.70    0.40
  -3  -6  -2    0.70    0.40
   3   6   2    0.90    0.60
   3   6   2    0.50    0.30
   3   6   2    0.70    0.40
  -4  -6  -2    6.70    0.80
  -4  -6  -2    7.70    0.90
   4   6   2    7.00    0.50
  -5  -6  -2    3.60    0.50
  -5  -6  -2    2.80    0.60
  -5  -6  -2    3.20    0.50
   5   6   2    3.00    0.60
  -6  -6  -2    4.30    0.60
  -6  -6  -2    3.50    0.50
   6   6   2    2.40    0.60
  -7  -6  -2    0.60    0.60
  -7  -6  -2    0.30    0.40
   7   6   2    0.40    0.60
  -8  -6  -2   13.10    1.30
  -8  -6  -2   12.10    0.80
  -8  -6  -2   15.00    0.90
   8   6   2   17.60    2.20
   9  -7  -2    8.90    1.10
  -9   7   2    7.60    1.00
  -9   7   2    7.50    1.10
   8  -7  -2   65.39    2.30
  -8   7   2   61.39    2.40
  -8   7   2   60.59    2.20
   7  -7  -2    1.40    0.60
  -7   7   2    0.50    0.70
  -7   7   2    1.20    0.50
   6  -7  -2   -0.20    0.50
  -6   7   2   -0.60    0.50
  -6   7   2   -0.40    0.50
   5  -7  -2   11.30    1.00
  -5   7   2   11.30    1.00
  -5   7   2   12.90    1.00
   4  -7  -2   92.89    2.90
   4  -7  -2   94.99    2.80
  -4   7   2   93.69    2.80
  -4   7   2   95.59    2.80
   3  -7  -2   15.40    0.90
   3  -7  -2   15.10    1.10
  -3   7   2   16.70    1.00
  -3   7   2   13.40    1.00
   2  -7  -2    1.50    0.50
   2  -7  -2    0.80    0.40
  -2   7   2    0.60    0.40
  -2   7   2    0.50    0.80
  -2   7   2    0.70    0.30
   1  -7  -2    0.00    0.50
   1  -7  -2    0.20    0.40
  -1   7   2    0.30    0.50
  -1   7   2    0.10    0.30
  -1   7   2    0.00    0.40
   0  -7  -2   82.29    2.30
   0  -7  -2   78.69    2.40
   0   7   2   79.59    2.50
   0   7   2   80.09    2.20
   0   7   2   79.09    2.20
  -1  -7  -2   71.49    2.10
  -1  -7  -2   72.09    2.20
   1   7   2   73.09    2.10
   1   7   2   71.49    2.00
   1   7   2   65.29    2.90
  -2  -7  -2  678.63   16.00
  -2  -7  -2  670.93   15.90
   2   7   2  677.43   15.90
   2   7   2  673.43   16.00
   2   7   2  681.73   15.70
  -3  -7  -2    0.80    0.50
  -3  -7  -2    1.70    0.50
   3   7   2    1.70    0.60
   3   7   2    1.30    0.40
  -4  -7  -2  129.79    3.50
  -4  -7  -2  127.99    3.50
   4   7   2  125.09    3.60
   4   7   2  128.19    3.20
  -5  -7  -2   55.89    2.00
  -5  -7  -2   59.09    1.90
   5   7   2   57.69    2.10
  -6  -7  -2    3.50    0.70
  -6  -7  -2    1.50    0.50
   6   7   2    1.00    0.60
  -7  -7  -2   13.50    1.00
  -7  -7  -2   12.70    1.30
   7   7   2   17.10    1.60
  -8  -7  -2    3.20    0.70
   8   7   2    1.70    0.90
   9  -8  -2   12.80    1.60
  -9   8   2   13.30    1.60
  -9   8   2   14.30    1.20
   8  -8  -2   11.70    1.50
  -8   8   2   11.60    1.80
  -8   8   2   11.00    1.40
   7  -8  -2    3.90    0.70
  -7   8   2    3.10    0.60
  -7   8   2    3.20    0.80
   6  -8  -2   26.80    1.40
  -6   8   2   26.50    1.50
  -6   8   2   27.70    1.50
   5  -8  -2   -0.10    0.50
  -5   8   2    0.50    0.60
  -5   8   2    0.00    0.50
   4  -8  -2   22.00    1.20
  -4   8   2   22.70    1.30
   3  -8  -2   27.50    1.40
   3  -8  -2   26.90    1.30
  -3   8   2   26.60    1.50
  -3   8   2   27.70    1.40
   2  -8  -2   81.49    2.70
   2  -8  -2   84.59    2.60
  -2   8   2   85.09    2.50
  -2   8   2   84.69    2.20
  -2   8   2   89.09    2.70
   1  -8  -2   -0.30    0.40
   1  -8  -2   -1.00    0.60
  -1   8   2    0.00    0.40
  -1   8   2    0.60    0.70
  -1   8   2    0.60    0.40
   0  -8  -2    5.00    0.60
   0  -8  -2    5.20    0.70
   0   8   2    5.60    0.70
   0   8   2    4.60    0.60
   0   8   2    7.30    1.00
  -1  -8  -2   21.00    1.20
  -1  -8  -2   20.60    1.10
   1   8   2   21.20    1.10
   1   8   2   21.80    1.00
   1   8   2   21.80    1.40
  -2  -8  -2   13.30    1.10
   2   8   2   12.60    1.00
   2   8   2   11.80    0.80
   2   8   2    9.80    1.30
  -3  -8  -2   58.79    2.00
  -3  -8  -2   61.69    2.10
   3   8   2   57.89    2.10
   3   8   2   61.29    1.80
  -4  -8  -2  131.69    3.70
  -4  -8  -2  140.89    3.80
   4   8   2  138.69    3.60
   4   8   2  130.99    3.80
  -5  -8  -2    3.30    0.60
  -5  -8  -2    4.20    0.70
   5   8   2    2.60    0.70
  -6  -8  -2  158.18    4.30
  -6  -8  -2  155.48    4.30
   6   8   2  153.88    4.50
  -7  -8  -2  170.28    4.90
  -7  -8  -2  169.58    4.80
   7   8   2  183.18    5.70
   8  -9  -2   -0.40    0.70
  -8   9   2    0.40    0.60
  -8   9   2    0.00    0.70
   7  -9  -2   -0.10    0.60
  -7   9   2    0.50    0.70
  -7   9   2    0.10    0.90
   6  -9  -2    0.30    0.60
  -6   9   2    1.60    0.70
  -6   9   2    0.40    0.60
   5  -9  -2   -0.30    0.50
  -5   9   2   -0.70    0.60
  -5   9   2    0.30    0.50
   4  -9  -2   10.00    1.00
  -4   9   2    8.80    1.10
  -4   9   2    8.40    1.20
   3  -9  -2    2.90    0.70
   3  -9  -2    2.40    0.60
  -3   9   2    2.50    0.80
  -3   9   2    3.70    0.60
   2  -9  -2    3.90    0.60
   2  -9  -2    4.40    0.70
  -2   9   2    4.90    0.90
  -2   9   2    4.60    0.80
   1  -9  -2    7.70    0.90
  -1   9   2    9.10    0.80
  -1   9   2    7.20    0.90
  -1   9   2   10.30    1.40
   0  -9  -2   35.30    1.50
   0  -9  -2   34.90    1.70
   0   9   2   35.90    1.40
   0   9   2   35.70    1.40
   0   9   2   36.80    1.80
  -1  -9  -2    4.10    0.60
  -1  -9  -2    3.90    0.70
   1   9   2    4.10    0.60
   1   9   2    3.80    0.70
   1   9   2    3.50    0.60
  -2  -9  -2   -0.10    0.50
  -2  -9  -2    0.80    0.50
   2   9   2   -0.30    0.50
   2   9   2    0.60    0.50
  -3  -9  -2    1.50    0.60
  -3  -9  -2    0.70    0.50
   3   9   2    0.70    0.60
   3   9   2    1.20    0.50
  -4  -9  -2    4.50    0.70
  -4  -9  -2    4.50    0.70
   4   9   2    3.00    0.70
  -5  -9  -2   48.40    2.10
  -5  -9  -2   52.19    2.00
   5   9   2   50.49    2.20
  -6  -9  -2   54.99    2.10
  -6  -9  -2   53.39    2.20
   6   9   2   51.39    2.30
   7 -10  -2    1.70    1.20
  -7  10   2    1.60    0.90
   6 -10  -2    0.50    0.70
  -6  10   2    0.20    0.70
  -6  10   2    1.60    0.80
   5 -10  -2    0.00    0.60
  -5  10   2   -0.50    0.70
  -5  10   2   -0.50    0.80
   4 -10  -2    7.20    0.80
  -4  10   2    8.90    1.10
  -4  10   2    6.10    1.00
   3 -10  -2   10.40    1.10
  -3  10   2    9.20    1.40
  -3  10   2   11.30    1.10
   2 -10  -2   26.50    1.60
   2 -10  -2   24.60    1.40
  -2  10   2   25.20    1.40
  -2  10   2   25.30    1.80
   1 -10  -2    4.30    0.80
   1 -10  -2    5.10    0.70
  -1  10   2    5.50    1.00
  -1  10   2    6.00    0.80
  -1  10   2    5.00    0.70
   0 -10  -2    7.80    1.00
   0 -10  -2    8.40    1.20
   0  10   2    8.10    1.00
   0  10   2   12.90    1.50
  -1 -10  -2    1.20    0.60
  -1 -10  -2    0.40    0.60
   1  10   2    0.40    0.60
   1  10   2    0.10    0.60
  -2 -10  -2    0.80    0.50
  -2 -10  -2   -0.10    0.60
   2  10   2    1.20    0.60
   2  10   2    1.30    0.60
  -3 -10  -2    0.50    0.60
  -3 -10  -2    1.60    0.70
   3  10   2    1.60    0.70
   3  10   2    2.30    0.70
  -4 -10  -2   13.60    1.30
  -4 -10  -2    9.30    1.20
   4  10   2   12.00    1.30
  -5 -10  -2    0.90    0.70
  -5 -10  -2    1.20    0.70
   5  10   2    0.00    0.80
   6 -11  -2    0.60    0.90
  -6  11   2    2.10    0.80
  -6  11   2    0.20    0.90
   5 -11  -2    0.40    0.70
  -5  11   2   -0.70    0.80
  -5  11   2    0.90    0.80
   4 -11  -2   74.49    2.70
  -4  11   2   75.99    2.90
  -4  11   2   74.99    2.70
   3 -11  -2    5.70    0.80
  -3  11   2    4.40    1.00
  -3  11   2    6.10    0.90
   2 -11  -2   50.69    2.00
   2 -11  -2   48.20    2.30
  -2  11   2   49.60    2.00
  -2  11   2   52.39    2.40
   1 -11  -2    0.40    0.60
   1 -11  -2   -0.40    0.80
  -1  11   2   -0.10    0.50
  -1  11   2    0.10    1.00
  -1  11   2   -0.10    0.60
   0 -11  -2   40.00    1.80
   0 -11  -2   39.40    2.00
   0  11   2   40.80    1.70
  -1 -11  -2   28.40    1.60
  -1 -11  -2   29.40    1.70
   1  11   2   29.60    1.50
   1  11   2   26.50    1.50
  -2 -11  -2   17.90    1.50
  -2 -11  -2   16.60    1.30
   2  11   2   16.60    1.50
   2  11   2   18.80    1.40
  -3 -11  -2    6.10    0.90
  -3 -11  -2    5.30    0.90
   3  11   2    5.60    0.90
  -4 -11  -2    1.00    0.70
  -4 -11  -2    1.10    0.70
   4  11   2    0.00    0.80
   5 -12  -2   37.60    2.20
   4 -12  -2    9.30    1.10
  -4  12   2    9.90    1.20
  -4  12   2   11.70    1.40
   3 -12  -2   21.30    1.60
  -3  12   2   17.20    1.50
  -3  12   2   13.30    1.80
   2 -12  -2    0.30    0.70
  -2  12   2    0.00    1.00
  -2  12   2    1.50    0.80
   1 -12  -2    8.70    1.00
   1 -12  -2    8.20    1.10
  -1  12   2    8.00    1.00
   0 -12  -2   68.09    2.50
   0 -12  -2   66.49    2.70
   0  12   2   67.89    2.20
   0  12   2   68.59    2.40
  -1 -12  -2   39.20    2.20
  -1 -12  -2   41.40    1.90
   1  12   2   39.30    1.80
   1  12   2   41.80    1.80
  -2 -12  -2    4.20    0.80
  -2 -12  -2    4.50    0.90
   2  12   2    6.10    0.90
   0  13  -3    4.10    1.00
   0 -13   3    5.30    1.20
   0 -13   3    3.10    0.90
  -1  13  -3    4.40    1.00
   1 -13   3    3.90    1.30
   1 -13   3    3.20    0.80
   3  12  -3    6.50    1.00
  -3 -12   3    5.60    1.00
  -3 -12   3    6.80    0.90
  -3 -12   3    5.80    0.80
   2  12  -3    5.00    0.90
  -2 -12   3    5.70    0.80
  -2 -12   3    6.50    0.80
  -2 -12   3    7.00    1.00
   1  12  -3   13.20    1.50
  -1 -12   3   16.00    1.20
  -1 -12   3   17.10    1.30
  -1 -12   3   18.50    1.80
   0  12  -3    2.30    0.80
   0 -12   3    1.50    0.70
   0 -12   3    1.80    0.90
   0 -12   3    1.70    0.60
  -1  12  -3   12.80    1.50
  -1  12  -3   13.10    1.90
   1 -12   3   17.00    1.70
  -2  12  -3    1.60    1.10
  -2  12  -3    3.10    0.80
   2 -12   3    2.40    0.80
  -3  12  -3    0.70    0.80
  -3  12  -3   -0.60    1.00
   3 -12   3   -0.40    0.70
  -4  12  -3    7.00    1.10
  -4  12  -3    6.40    1.20
   4 -12   3   11.50    1.50
   5  11  -3   22.80    1.60
  -5 -11   3   20.70    1.60
  -5 -11   3   17.90    1.40
   4  11  -3   15.60    1.50
  -4 -11   3   15.80    1.20
  -4 -11   3   18.80    1.70
  -4 -11   3   18.00    1.40
   3  11  -3   41.60    1.90
  -3 -11   3   41.20    1.70
  -3 -11   3   44.00    2.10
  -3 -11   3   42.20    1.80
   2  11  -3    0.10    0.70
  -2 -11   3    0.30    0.60
  -2 -11   3    0.30    0.50
  -2 -11   3    0.00    0.70
   1  11  -3   43.80    1.90
  -1 -11   3   45.50    2.10
  -1 -11   3   43.30    1.70
  -1 -11   3   43.40    1.70
   0  11  -3    9.70    1.40
   0  11  -3   10.00    1.20
   0 -11   3    8.10    1.00
   0 -11   3    8.30    0.90
   0 -11   3    9.60    1.00
  -1  11  -3    3.10    0.80
  -1  11  -3    5.20    1.30
   1 -11   3    6.50    0.90
   1 -11   3    4.70    0.70
   1 -11   3    4.20    0.50
  -2  11  -3    9.30    1.20
  -2  11  -3    6.50    1.00
   2 -11   3    7.40    0.80
   2 -11   3    8.00    1.10
  -3  11  -3    0.60    0.70
  -3  11  -3    0.70    0.80
   3 -11   3    0.70    0.70
  -4  11  -3    8.70    1.30
  -4  11  -3    7.80    1.10
   4 -11   3   10.80    1.20
  -5  11  -3    1.80    1.00
  -5  11  -3   -0.50    0.80
   5 -11   3   -0.40    0.70
  -6  11  -3    3.10    1.00
  -6  11  -3    3.90    1.40
   6 -11   3    2.50    1.30
   6  10  -3    6.30    0.90
  -6 -10   3    6.80    0.90
  -6 -10   3    6.10    0.80
   5  10  -3   12.90    1.30
  -5 -10   3   13.50    1.40
  -5 -10   3   13.60    1.30
  -5 -10   3   15.50    1.10
   4  10  -3    8.50    1.10
  -4 -10   3    9.60    1.20
  -4 -10   3    9.90    1.10
  -4 -10   3   11.10    1.00
   3  10  -3    7.50    1.00
  -3 -10   3    6.40    0.80
  -3 -10   3    8.10    0.90
   2  10  -3   67.39    2.30
  -2 -10   3   63.59    2.10
  -2 -10   3   68.69    2.20
  -2 -10   3   66.49    2.40
   1  10  -3   10.60    1.10
  -1 -10   3   10.90    1.10
  -1 -10   3   11.40    1.00
  -1 -10   3   10.60    1.20
   0  10  -3   11.60    1.10
   0  10  -3    8.90    1.30
   0 -10   3    9.30    0.80
   0 -10   3   12.10    1.30
  -1  10  -3    0.30    0.70
  -1  10  -3   -0.60    0.60
   1 -10   3    0.20    0.40
   1 -10   3    0.90    0.70
   1 -10   3   -0.30    0.50
  -2  10  -3   14.20    1.30
  -2  10  -3   15.40    1.50
   2 -10   3   15.20    1.40
   2 -10   3   16.80    1.10
  -3  10  -3    2.60    0.80
  -3  10  -3    1.50    0.60
   3 -10   3    3.40    0.60
  -4  10  -3   -0.10    0.70
  -4  10  -3    0.20    0.60
   4 -10   3   -0.30    0.60
  -5  10  -3    1.30    0.80
  -5  10  -3    1.20    0.80
   5 -10   3    0.00    0.60
  -6  10  -3   -0.10    0.70
  -6  10  -3   -1.20    0.70
   6 -10   3    0.40    0.70
  -7  10  -3   21.50    1.80
  -7  10  -3   22.20    1.70
   7 -10   3   21.90    1.70
   7   9  -3   -0.20    1.00
  -7  -9   3    0.10    0.60
  -7  -9   3    0.10    0.50
   6   9  -3    0.80    0.70
  -6  -9   3    0.40    0.70
  -6  -9   3    1.20    0.50
   5   9  -3    8.40    1.10
  -5  -9   3    8.40    1.00
  -5  -9   3    6.30    0.90
  -5  -9   3    5.80    0.70
   4   9  -3    1.30    0.60
  -4  -9   3    1.40    0.50
  -4  -9   3    0.00    0.50
  -4  -9   3    0.70    0.50
   3   9  -3   31.80    1.40
  -3  -9   3   29.90    1.40
  -3  -9   3   30.70    1.50
  -3  -9   3   32.60    1.30
   2   9  -3   46.80    1.90
  -2  -9   3   45.10    1.90
  -2  -9   3   47.40    1.60
   1   9  -3   38.50    1.60
  -1  -9   3   38.90    1.40
  -1  -9   3   40.00    1.40
  -1  -9   3   40.80    1.70
   0   9  -3    6.70    1.20
   0   9  -3    4.40    0.60
   0  -9   3    5.20    0.70
   0  -9   3    4.80    0.60
   0  -9   3    4.40    0.70
  -1   9  -3   41.90    1.70
   1  -9   3   43.40    1.80
   1  -9   3   42.40    1.60
   1  -9   3   42.80    1.40
  -2   9  -3    6.80    1.40
  -2   9  -3    3.60    0.70
   2  -9   3    5.00    0.60
   2  -9   3    5.30    1.10
  -3   9  -3   29.30    1.50
  -3   9  -3   26.40    1.60
   3  -9   3   27.30    1.60
   3  -9   3   27.40    1.30
  -4   9  -3    0.40    0.60
  -4   9  -3   -0.30    0.60
   4  -9   3    0.40    0.50
  -5   9  -3    0.10    0.60
  -5   9  -3    0.70    0.60
   5  -9   3    0.80    0.60
  -6   9  -3    5.30    0.90
  -6   9  -3    4.50    0.90
   6  -9   3    3.70    0.80
  -7   9  -3    3.50    0.80
  -7   9  -3    3.70    0.90
   7  -9   3    4.20    0.90
  -8  -8   3    0.50    0.40
  -8  -8   3   -0.70    0.70
   7   8  -3    3.70    0.80
  -7  -8   3    2.70    0.60
  -7  -8   3    3.80    0.90
  -7  -8   3    3.90    0.60
   6   8  -3   33.00    1.50
  -6  -8   3   32.50    1.40
  -6  -8   3   33.10    1.60
  -6  -8   3   30.00    1.40
  -5  -8   3    5.20    0.70
  -5  -8   3    5.20    0.80
  -5  -8   3    4.90    0.60
   4   8  -3   38.40    1.50
  -4  -8   3   37.20    1.60
  -4  -8   3   36.60    1.30
  -4  -8   3   37.90    1.50
   3   8  -3   29.90    1.40
  -3  -8   3   28.00    1.30
  -3  -8   3   30.10    1.10
   2   8  -3   16.20    1.20
   2   8  -3   21.00    1.10
  -2  -8   3   18.50    1.00
  -2  -8   3   19.70    0.90
  -2  -8   3   19.80    1.20
   1   8  -3    0.30    0.50
   1   8  -3    0.10    0.50
  -1  -8   3    0.20    0.40
  -1  -8   3    0.30    0.50
  -1  -8   3    0.10    0.40
   0   8  -3   72.89    2.30
   0  -8   3   69.69    2.00
   0  -8   3   69.29    2.10
  -1   8  -3    1.00    0.50
  -1   8  -3    2.90    1.20
   1  -8   3    1.90    0.60
   1  -8   3    1.20    0.40
   1  -8   3    1.90    0.40
   1  -8   3    1.80    0.50
   2  -8   3  441.76   10.70
   2  -8   3  439.36   10.50
   2  -8   3  437.56   10.20
   2  -8   3  439.76   10.70
  -3   8  -3    1.10    0.60
  -3   8  -3    1.10    0.60
   3  -8   3    1.50    0.50
   3  -8   3    0.10    0.60
   3  -8   3    1.70    0.50
  -4   8  -3  104.19    3.50
  -4   8  -3  110.69    3.20
   4  -8   3  107.89    3.10
  -5   8  -3   11.30    1.10
  -5   8  -3   10.60    1.10
   5  -8   3   13.60    1.10
  -6   8  -3  314.37    8.00
  -6   8  -3  317.87    8.00
   6  -8   3  310.57    7.90
  -7   8  -3   46.70    1.90
  -7   8  -3   44.80    2.00
   7  -8   3   44.90    2.00
  -8   8  -3    7.80    1.00
  -8   8  -3    7.90    1.30
   8  -8   3    7.60    1.00
   8   7  -3    9.60    1.00
  -8  -7   3    9.70    0.80
  -8  -7   3   10.30    0.70
  -8  -7   3   14.30    1.30
  -8  -7   3    8.80    1.10
   7   7  -3    6.60    0.80
  -7  -7   3    7.20    0.90
  -7  -7   3    6.50    0.70
  -7  -7   3    6.50    0.80
  -7  -7   3    9.40    0.90
   6   7  -3    6.30    0.80
  -6  -7   3    5.80    0.70
  -6  -7   3    5.60    0.60
  -6  -7   3    6.00    0.70
   5   7  -3   34.60    1.40
  -5  -7   3   33.20    1.20
  -5  -7   3   33.10    1.30
  -5  -7   3   32.80    1.50
   4   7  -3    3.30    0.60
  -4  -7   3    2.80    0.50
  -4  -7   3    2.60    0.40
  -4  -7   3    4.60    0.70
   3   7  -3   31.70    1.30
   3   7  -3   31.60    1.60
  -3  -7   3   32.30    1.10
  -3  -7   3   32.70    1.30
  -3  -7   3   31.00    1.30
   2   7  -3    0.80    0.40
   2   7  -3    0.90    0.40
  -2  -7   3    0.90    0.40
  -2  -7   3    0.90    0.30
  -2  -7   3    0.70    0.40
   1   7  -3   47.50    1.60
   1   7  -3   44.80    1.70
  -1  -7   3   45.50    1.60
  -1  -7   3   46.90    1.50
  -1  -7   3   48.30    1.40
  -1  -7   3   47.50    1.70
   0   7  -3   15.40    0.90
   0  -7   3   16.10    0.80
   0  -7   3   16.20    0.80
   0  -7   3   15.20    1.00
  -1   7  -3  134.19    3.70
  -1   7  -3  131.79    3.60
   1  -7   3  136.09    3.50
   1  -7   3  135.99    3.30
   1  -7   3  134.19    3.60
  -2   7  -3   82.49    2.50
  -2   7  -3   82.79    2.50
   2  -7   3   84.89    2.10
   2  -7   3   81.19    2.50
   2  -7   3   85.09    2.40
  -3   7  -3    1.80    0.50
  -3   7  -3    1.70    0.50
   3  -7   3    1.00    0.40
   3  -7   3    1.60    0.30
   3  -7   3    1.20    0.40
  -4   7  -3   47.30    1.80
   4  -7   3   40.40    1.80
   4  -7   3   45.10    1.70
  -5   7  -3   86.69    2.70
  -5   7  -3   85.99    2.70
   5  -7   3   88.19    2.60
  -6   7  -3   28.90    1.50
  -6   7  -3   28.70    1.40
   6  -7   3   27.60    1.40
  -7   7  -3    3.80    0.70
  -7   7  -3    4.00    0.70
   7  -7   3    3.90    0.80
  -8   7  -3   73.69    2.60
  -8   7  -3   72.09    2.40
   8  -7   3   70.59    2.60
  -9   7  -3    2.40    0.90
  -9   7  -3    2.90    0.90
   9  -7   3    2.90    0.90
  -9  -6   3    9.30    1.00
  -9  -6   3    8.00    1.10
   8   6  -3    8.00    1.00
  -8  -6   3    8.60    1.20
  -8  -6   3    7.20    0.70
   7   6  -3    1.90    0.70
  -7  -6   3    1.60    0.50
  -7  -6   3    2.10    0.40
  -7  -6   3    1.80    0.60
  -7  -6   3    1.60    0.50
   6   6  -3   22.00    1.20
  -6  -6   3   18.70    1.00
  -6  -6   3   20.50    0.90
  -6  -6   3   20.20    1.00
  -6  -6   3   19.20    1.20
   5   6  -3    4.10    0.60
  -5  -6   3    3.90    0.50
  -5  -6   3    4.50    0.60
  -5  -6   3    4.00    0.50
  -5  -6   3    3.10    0.50
   4   6  -3   24.00    1.10
  -4  -6   3   23.40    0.90
  -4  -6   3   23.50    1.10
  -4  -6   3   24.30    1.10
  -4  -6   3   23.70    1.00
   3   6  -3   39.30    1.50
   3   6  -3   43.40    1.50
  -3  -6   3   42.80    1.50
  -3  -6   3   42.10    1.50
  -3  -6   3   42.60    1.30
  -3  -6   3   42.10    1.40
   2   6  -3    9.20    0.80
   2   6  -3    9.30    0.80
  -2  -6   3    8.60    0.70
  -2  -6   3    8.50    0.80
  -2  -6   3    9.60    0.60
  -2  -6   3   10.10    0.70
  -2  -6   3    9.30    0.70
   1   6  -3  111.99    2.90
   1   6  -3  108.29    3.00
  -1  -6   3  107.09    3.00
  -1  -6   3  111.09    2.90
  -1  -6   3  112.89    2.80
   0   6  -3  394.16    9.40
   0   6  -3  387.36    9.40
   0  -6   3  381.66    9.40
   0  -6   3  399.26    9.20
   0  -6   3  402.86    9.20
  -1   6  -3    5.70    0.70
  -1   6  -3    6.30    0.70
   1  -6   3    6.00    0.70
   1  -6   3    6.50    0.50
   1  -6   3    5.90    0.40
  -2   6  -3   51.29    1.70
  -2   6  -3   53.39    1.70
   2  -6   3   51.59    1.90
   2  -6   3   53.39    1.60
   2  -6   3   53.49    1.40
  -3   6  -3    2.20    0.50
  -3   6  -3    1.60    0.50
   3  -6   3    1.50    0.30
   3  -6   3    1.70    0.40
   3  -6   3    1.90    0.40
  -4   6  -3   42.20    1.50
  -4   6  -3   38.10    1.50
  -4   6  -3   40.10    1.50
   4  -6   3   40.20    1.40
   4  -6   3   40.60    1.50
   5  -6   3   28.20    1.50
  -6   6  -3   69.09    2.30
  -6   6  -3   70.59    2.20
   6  -6   3   69.49    2.30
  -7   6  -3    0.10    0.60
  -7   6  -3   -0.10    0.50
   7  -6   3   -0.20    0.50
  -8   6  -3    1.50    0.60
  -8   6  -3   -0.50    0.60
   8  -6   3    0.00    0.60
  -9   6  -3    0.10    0.50
  -9   6  -3   -0.90    0.70
   9  -6   3   -1.40    1.10
   9   5  -3    1.00    0.60
  -9  -5   3    0.90    0.70
  -9  -5   3    1.10    0.60
   8   5  -3    1.50    0.60
  -8  -5   3    1.40    0.60
   7   5  -3   11.50    1.00
  -7  -5   3   13.90    0.90
  -7  -5   3   12.40    1.10
  -7  -5   3   12.00    0.70
   6   5  -3   -0.20    0.50
  -6  -5   3   -0.30    0.40
  -6  -5   3    0.20    0.40
  -6  -5   3    0.40    0.40
  -6  -5   3    0.40    0.30
   5   5  -3   49.70    1.60
  -5  -5   3   50.89    1.50
  -5  -5   3   50.19    1.50
  -5  -5   3   48.90    1.70
  -5  -5   3   48.60    1.50
   4   5  -3   17.40    0.90
  -4  -5   3   19.00    0.90
  -4  -5   3   18.70    0.80
  -4  -5   3   18.20    0.90
  -4  -5   3   19.30    0.80
   3   5  -3    0.50    0.40
   3   5  -3    0.70    0.40
  -3  -5   3    0.50    0.30
  -3  -5   3    0.30    0.20
  -3  -5   3    0.60    0.30
  -3  -5   3    0.50    0.30
  -3  -5   3    0.40    0.30
   2   5  -3   72.39    2.00
   2   5  -3   71.99    2.10
  -2  -5   3   69.19    2.00
  -2  -5   3   73.79    2.00
  -2  -5   3   72.39    1.80
  -2  -5   3   69.69    2.00
   1   5  -3   64.79    1.80
   1   5  -3   62.99    1.90
  -1  -5   3   63.29    1.80
  -1  -5   3   64.39    1.70
  -1  -5   3   64.09    1.90
   0   5  -3  205.18    5.10
   0  -5   3  210.18    5.00
   0  -5   3  201.98    5.10
   0  -5   3  210.88    4.90
  -1   5  -3   98.09    2.70
  -1   5  -3   95.39    2.70
   1  -5   3  114.29    2.90
   1  -5   3  101.99    2.50
   1  -5   3   97.89    2.60
  -2   5  -3   12.10    0.70
  -2   5  -3   11.60    0.80
   2  -5   3   11.10    0.60
   2  -5   3   12.30    0.80
   2  -5   3   12.70    0.50
  -3   5  -3    2.40    0.40
  -3   5  -3    2.10    0.40
  -3   5  -3    1.70    0.40
   3  -5   3    2.80    0.40
   3  -5   3    2.50    0.40
  -4   5  -3    0.80    0.40
  -4   5  -3    0.80    0.40
  -4   5  -3    0.60    0.40
   4  -5   3    1.30    0.50
   4  -5   3    0.20    0.40
  -5   5  -3    0.90    0.40
  -5   5  -3    1.10    0.50
  -5   5  -3    0.80    0.40
   5  -5   3    0.90    0.40
   5  -5   3    0.80    0.30
  -6   5  -3    3.80    0.70
  -6   5  -3    3.30    0.50
  -6   5  -3    3.10    0.50
   6  -5   3    3.80    0.40
   6  -5   3    3.70    0.60
  -7   5  -3    9.00    1.00
  -7   5  -3   10.00    0.80
  -7   5  -3    9.50    0.90
   7  -5   3    8.60    1.00
  -8   5  -3   17.70    1.30
  -8   5  -3   20.60    1.10
  -8   5  -3   20.90    1.30
   8  -5   3   19.70    1.40
  -9   5  -3    0.20    0.40
  -9   5  -3   -1.50    0.70
  -9   5  -3    0.00    0.50
   9  -5   3   -1.20    0.90
  10   4  -3   10.10    1.40
 -10  -4   3   10.00    1.20
 -10  -4   3   10.40    1.30
   9   4  -3   21.30    1.30
  -9  -4   3   19.80    1.40
  -9  -4   3   19.10    1.20
  -8  -4   3   12.00    1.00
  -8  -4   3   10.80    1.10
   7   4  -3    5.10    0.70
  -7  -4   3    7.90    0.80
  -7  -4   3    6.10    0.70
   6   4  -3    4.50    0.60
  -6  -4   3    4.80    0.50
  -6  -4   3    4.30    0.50
  -6  -4   3    4.20    0.50
   5   4  -3   61.69    1.80
  -5  -4   3   62.59    1.70
  -5  -4   3   61.09    1.90
  -5  -4   3   61.29    1.70
  -5  -4   3   60.69    1.70
   4   4  -3  180.78    4.60
  -4  -4   3  188.08    4.70
  -4  -4   3  183.98    4.40
  -4  -4   3  187.88    4.50
   3   4  -3   38.90    1.20
  -3  -4   3   37.20    1.20
  -3  -4   3   38.40    1.20
  -3  -4   3   38.90    1.30
  -3  -4   3   38.90    1.10
   2   4  -3  262.57    6.40
   2   4  -3  261.97    6.40
  -2  -4   3  265.27    6.20
  -2  -4   3  271.97    6.40
  -2  -4   3  268.87    6.40
   1   4  -3  167.08    4.10
   1   4  -3  167.68    4.10
  -1  -4   3  150.38    4.10
  -1  -4   3  162.98    4.10
  -1  -4   3  175.08    3.90
  -1  -4   3  166.28    4.00
   0   4  -3  173.18    4.60
   0   4  -3  216.48    4.80
   0  -4   3  176.68    4.50
   0  -4   3  204.48    4.70
   0  -4   3  180.38    4.50
  -1   4  -3    1.50    0.60
  -1   4  -3    0.80    0.30
   1  -4   3    0.70    0.20
   1  -4   3    1.00    0.20
   1  -4   3    0.40    0.20
  -2   4  -3   66.39    2.10
  -2   4  -3   70.19    1.90
  -2   4  -3   69.49    2.00
   2  -4   3   72.89    2.00
   2  -4   3   72.19    1.90
  -3   4  -3  228.28    5.30
  -3   4  -3  214.68    5.40
  -3   4  -3  214.68    5.60
  -3   4  -3  222.28    5.40
   3  -4   3  219.68    5.20
   3  -4   3  215.28    5.40
  -4   4  -3   12.20    0.80
  -4   4  -3   12.90    0.80
  -4   4  -3   11.90    0.70
  -4   4  -3   11.90    0.70
   4  -4   3   10.40    0.80
   4  -4   3   13.20    0.50
  -5   4  -3    1.90    0.40
  -5   4  -3    2.10    0.40
  -5   4  -3    2.20    0.50
  -5   4  -3    2.40    0.40
   5  -4   3    2.40    0.30
  -6   4  -3    0.20    0.40
  -6   4  -3   -1.00    0.40
  -6   4  -3    0.50    0.40
  -6   4  -3   -0.10    0.40
   6  -4   3   -0.10    0.30
  -7   4  -3    3.60    0.50
  -7   4  -3    3.00    0.60
  -7   4  -3    2.80    0.50
   7  -4   3    2.80    0.40
  -8   4  -3    5.10    0.70
  -8   4  -3    5.20    0.80
  -8   4  -3    5.90    0.70
  -8   4  -3    6.40    0.70
   8  -4   3    5.60    0.60
  -9   4  -3    8.50    1.00
  -9   4  -3    8.80    0.70
  -9   4  -3    9.80    1.30
  10   3  -3    1.40    0.70
 -10  -3   3    2.50    0.70
 -10  -3   3    3.00    0.70
   9   3  -3   -0.90    0.50
  -9  -3   3    0.00    0.50
  -9  -3   3   -0.20    0.50
  -8  -3   3   10.70    1.00
  -8  -3   3    9.90    0.90
   7   3  -3    1.90    0.50
  -7  -3   3    2.70    0.50
  -7  -3   3    2.30    0.50
   6   3  -3    0.40    0.40
  -6  -3   3    1.00    0.40
  -6  -3   3    0.20    0.40
   5   3  -3   36.50    1.30
  -5  -3   3   35.80    1.10
  -5  -3   3   36.10    1.00
  -5  -3   3   37.20    1.00
  -5  -3   3   35.70    1.30
   4   3  -3   10.70    0.70
  -4  -3   3   11.40    0.50
  -4  -3   3   12.00    0.50
  -4  -3   3   10.80    0.50
  -4  -3   3   11.80    0.70
  -4  -3   3   11.50    0.50
   3   3  -3  118.49    3.00
  -3  -3   3  118.39    3.00
  -3  -3   3  117.79    2.90
  -3  -3   3  119.49    2.90
  -3  -3   3  119.69    2.80
   2   3  -3  202.58    4.90
   2   3  -3  202.78    4.90
  -2  -3   3  211.28    4.80
  -2  -3   3  207.48    4.90
  -2  -3   3  201.58    4.90
   1   3  -3    1.50    0.30
   1   3  -3    2.10    0.30
  -1  -3   3    1.90    0.30
  -1  -3   3    2.10    0.30
  -1  -3   3    2.60    0.30
  -1  -3   3    1.50    0.30
   0   3  -3  364.36    8.60
   0   3  -3  360.46    8.60
   0  -3   3  362.46    8.60
   0  -3   3  369.46    8.40
   0  -3   3  371.56    8.50
  -1   3  -3   90.99    2.40
  -1   3  -3   92.69    2.40
   1  -3   3   93.49    2.30
  -2   3  -3   33.70    1.10
  -2   3  -3   31.90    1.10
  -2   3  -3   32.50    1.00
  -2   3  -3   33.60    1.10
   2  -3   3   35.10    1.10
  -3   3  -3   77.39    2.10
  -3   3  -3   79.69    2.10
  -3   3  -3   76.99    2.10
   3  -3   3   80.69    2.00
   3  -3   3   78.09    2.10
  -4   3  -3    2.20    0.40
  -4   3  -3    2.30    0.40
  -4   3  -3    2.60    0.40
  -4   3  -3    1.90    0.40
   4  -3   3    2.60    0.30
  -5   3  -3   32.30    1.20
  -5   3  -3   31.10    1.10
  -5   3  -3   29.30    1.30
  -5   3  -3   30.40    1.10
   5  -3   3   30.00    1.00
  -6   3  -3    0.30    0.40
  -6   3  -3    0.50    0.40
   6  -3   3    0.30    0.30
  -7   3  -3    0.70    0.50
  -7   3  -3    0.50    0.40
  -7   3  -3    1.30    0.40
  -7   3  -3    1.20    0.50
   7  -3   3    0.30    0.40
  -8   3  -3    0.10    0.40
  -8   3  -3    0.30    0.60
  -8   3  -3    1.00    0.60
  -8   3  -3    0.40    0.40
   8  -3   3    1.40    0.50
  -9   3  -3    0.00    0.60
  -9   3  -3   -0.10    0.70
   9  -3   3   -1.00    0.60
 -10   3  -3   27.60    1.50
 -10   3  -3   25.50    1.80
  10   2  -3    3.50    0.80
 -10  -2   3    2.50    0.70
 -10  -2   3    3.50    0.70
   9   2  -3   19.60    1.20
  -9  -2   3   15.60    1.10
  -9  -2   3   18.60    1.20
  -8  -2   3    0.20    0.50
  -8  -2   3    0.20    0.50
   7   2  -3   13.60    1.00
  -7  -2   3   13.50    0.90
  -7  -2   3   14.00    0.80
   6   2  -3  165.08    4.20
  -6  -2   3  165.78    4.10
  -6  -2   3  165.58    4.30
   5   2  -3   15.80    0.80
  -5  -2   3   15.70    0.70
  -5  -2   3   16.50    0.80
   4   2  -3   25.70    1.00
  -4  -2   3   26.00    0.80
  -4  -2   3   26.60    0.80
  -4  -2   3   27.00    1.00
  -4  -2   3   26.50    0.80
   3   2  -3   20.60    0.80
  -3  -2   3   21.80    0.60
  -3  -2   3   20.50    0.70
  -3  -2   3   21.40    0.80
  -3  -2   3   21.80    0.70
   2   2  -3   13.30    0.60
   2   2  -3   12.10    0.60
  -2  -2   3   13.30    0.50
  -2  -2   3   13.90    0.60
  -2  -2   3   13.50    0.50
   1   2  -3   38.60    1.10
   1   2  -3   37.70    1.10
  -1  -2   3   38.00    1.10
  -1  -2   3   37.00    1.10
  -1  -2   3   38.90    1.10
   0   2  -3 2309.37   54.19
   0   2  -3 2406.96   53.79
   0   2  -3 2381.36   54.09
   0  -2   3 2306.27   54.19
  -1   2  -3   84.49    2.20
  -1   2  -3   92.09    2.20
   1  -2   3   87.89    2.20
  -2   2  -3  286.87    6.70
  -2   2  -3  285.57    6.70
  -2   2  -3  286.37    6.70
   2  -2   3  292.17    6.70
   2  -2   3  272.07    6.70
  -3   2  -3  140.49    3.60
  -3   2  -3  147.29    3.60
  -3   2  -3  146.39    3.60
  -3   2  -3  144.89    3.60
   3  -2   3  150.68    3.50
   3  -2   3  142.09    3.60
  -4   2  -3   26.00    0.90
  -4   2  -3   25.50    1.00
  -4   2  -3   26.50    0.90
  -4   2  -3   25.30    0.90
   4  -2   3   25.40    0.90
  -5   2  -3   72.99    2.00
  -5   2  -3   73.69    2.00
  -5   2  -3   72.89    2.10
  -5   2  -3   73.29    2.00
   5  -2   3   74.99    2.00
  -6   2  -3   36.30    1.30
  -6   2  -3   36.40    1.20
  -6   2  -3   35.20    1.40
  -6   2  -3   35.90    1.20
   6  -2   3   37.20    1.30
  -7   2  -3   -0.20    0.50
  -7   2  -3    0.60    0.40
  -7   2  -3    1.00    0.30
  -7   2  -3    0.20    0.30
   7  -2   3    0.90    0.40
  -8   2  -3   -0.10    0.50
  -8   2  -3   -0.30    0.50
   8  -2   3    0.60    0.50
  -9   2  -3   11.60    1.00
  -9   2  -3   10.20    1.30
   9  -2   3    8.50    1.00
 -10   2  -3    2.40    0.90
  10  -2   3    4.70    0.80
  10   1  -3   46.30    1.90
 -10  -1   3   43.20    1.90
 -10  -1   3   41.60    1.80
  -9  -1   3   -0.20    0.50
  -9  -1   3    1.00    0.60
  -9  -1   3    0.50    0.60
  -8  -1   3  147.29    3.80
  -8  -1   3  140.79    4.00
  -7  -1   3   24.30    1.00
  -7  -1   3   24.20    1.10
  -7  -1   3   22.30    1.10
  -6  -1   3   21.00    0.90
  -6  -1   3   21.00    1.00
  -6  -1   3   19.30    0.90
  -5  -1   3    8.70    0.70
  -5  -1   3    8.10    0.50
  -5  -1   3    8.40    0.60
  -4  -1   3   10.70    0.60
  -4  -1   3   11.20    0.50
  -4  -1   3   11.20    0.40
  -4  -1   3   11.00    0.60
  -4  -1   3   10.90    0.40
  -3  -1   3  129.69    3.20
  -3  -1   3  131.29    3.10
  -3  -1   3  128.79    3.10
  -3  -1   3  132.79    3.20
  -3  -1   3  129.59    3.10
   2   1  -3   68.59    1.60
   2   1  -3   66.79    1.70
   2   1  -3   66.29    1.70
   2   1  -3   64.89    1.60
  -2  -1   3   67.79    1.70
  -2  -1   3   66.19    1.70
  -2  -1   3   66.49    1.70
   1   1  -3  221.78    5.20
   1   1  -3  212.78    5.30
  -1  -1   3  225.38    5.20
   0   1  -3 1415.96   32.00
   0   1  -3 1399.26   32.10
   0   1  -3 1383.16   32.20
   0  -1   3 1443.46   32.30
   0  -1   3 1347.97   32.30
  -1   1  -3  257.77    5.90
  -1   1  -3  251.67    5.90
  -1   1  -3  254.07    6.00
   1  -1   3  245.78    6.00
  -2   1  -3  413.96   10.00
  -2   1  -3  433.56    9.90
  -2   1  -3  425.36   10.00
   2  -1   3  424.66   10.00
   2  -1   3  453.35   10.00
  -3   1  -3   99.99    2.40
  -3   1  -3   95.59    2.50
  -3   1  -3   96.59    2.50
  -3   1  -3   97.09    2.50
   3  -1   3   96.69    2.50
   3  -1   3  100.09    2.50
  -4   1  -3  143.39    3.70
  -4   1  -3  146.29    3.50
  -4   1  -3  145.99    3.60
  -4   1  -3  144.69    3.60
   4  -1   3  144.89    3.60
  -5   1  -3    0.30    0.40
  -5   1  -3    0.30    0.30
  -5   1  -3    0.00    0.30
  -5   1  -3   -0.20    0.20
   5  -1   3    0.00    0.30
  -6   1  -3   32.80    1.40
  -6   1  -3   34.50    1.10
  -6   1  -3   31.60    1.10
  -6   1  -3   32.20    1.20
   6  -1   3   32.30    1.20
  -7   1  -3    0.80    0.50
  -7   1  -3    0.00    0.30
  -7   1  -3    0.80    0.30
  -7   1  -3    0.20    0.40
   7  -1   3    1.10    0.50
  -8   1  -3   17.50    1.00
  -8   1  -3   20.20    1.30
   8  -1   3   17.00    1.30
  -9   1  -3    1.60    0.60
  -9   1  -3    2.90    0.80
   9  -1   3    3.10    0.60
 -10   1  -3    1.70    0.90
  10  -1   3    4.00    0.80
  10   0  -3    3.10    0.70
 -10   0   3    2.10    0.70
 -10   0   3    3.80    0.70
  -9   0   3    5.90    0.70
  -9   0   3    6.60    0.80
  -9   0   3    5.00    0.70
  -8   0   3   60.49    1.90
  -8   0   3   61.49    1.90
  -8   0   3   57.49    2.20
  -7   0   3   24.10    1.00
  -7   0   3   22.80    1.00
  -7   0   3   23.20    1.20
  -6   0   3   87.49    2.50
  -6   0   3   88.29    2.40
  -6   0   3   89.99    2.40
  -5   0   3    3.00    0.40
  -5   0   3    2.70    0.30
  -5   0   3    2.50    0.40
  -4   0   3   99.99    2.30
  -4   0   3   98.59    2.50
  -4   0   3   99.99    2.50
  -4   0   3   97.79    2.60
   3   0  -3  139.69    3.30
  -3   0   3  136.89    3.40
  -3   0   3  138.29    3.30
  -3   0   3  140.19    3.30
  -3   0   3  140.39    3.40
   2   0  -3 1654.43   39.10
   2   0  -3 1734.43   39.30
  -2   0   3 1737.83   39.40
  -2   0   3 1703.63   39.20
  -2   0   3 1737.83   39.40
   1   0  -3  775.52   16.90
   1   0  -3  710.63   17.00
  -1   0   3  735.83   16.90
  -1   0   3  741.33   17.00
  -1   0   3  746.03   17.00
  -1   0   3  729.53   17.00
   0   0  -3    5.10    0.30
   0   0  -3    5.20    0.30
   0   0  -3    4.60    0.40
   0   0   3    5.30    0.40
   0   0   3    5.10    0.40
  -1   0  -3    0.30    0.10
  -1   0  -3    0.30    0.20
  -1   0  -3    0.30    0.20
   1   0   3    0.20    0.20
   1   0   3    0.40    0.20
  -2   0  -3   49.00    1.30
  -2   0  -3   48.40    1.20
   2   0   3   48.00    1.30
   2   0   3   48.00    1.30
  -3   0  -3   60.79    1.70
  -3   0  -3   63.69    1.70
  -3   0  -3   61.69    1.70
  -3   0  -3   64.99    1.60
   3   0   3   62.89    1.70
  -4   0  -3 1719.73   38.80
  -4   0  -3 1701.43   39.00
  -4   0  -3 1703.23   38.90
  -4   0  -3 1686.53   38.90
   4   0   3 1680.53   39.00
  -5   0  -3  306.07    7.30
  -5   0  -3  310.97    7.30
  -5   0  -3  316.67    7.30
  -5   0  -3  314.67    7.50
   5   0   3  304.27    7.40
  -6   0  -3  241.48    5.90
  -6   0  -3  247.28    6.10
  -6   0  -3  248.98    5.80
  -6   0  -3  246.78    5.80
   6   0   3  239.88    6.00
  -7   0  -3   12.20    0.60
  -7   0  -3   12.20    1.00
  -7   0  -3   12.70    0.60
  -7   0  -3   12.70    0.80
   7   0   3   12.40    1.00
  -8   0  -3  189.18    4.70
  -8   0  -3  188.78    5.00
   8   0   3  184.48    4.90
  -9   0  -3    2.20    0.70
   9   0   3    1.60    0.70
 -10   0  -3   55.49    3.00
  10   0   3   52.49    2.20
  10  -1  -3    0.10    0.60
  10  -1  -3    0.50    0.60
 -10   1   3    0.50    0.70
   9  -1  -3    7.60    0.80
  -9   1   3    8.80    1.10
  -8   1   3    0.40    0.40
  -8   1   3    0.20    0.50
   7  -1  -3   24.20    1.10
  -7   1   3   23.50    1.20
  -7   1   3   24.90    1.00
   6  -1  -3   47.60    1.50
  -6   1   3   47.60    1.60
  -6   1   3   47.10    1.40
   5  -1  -3    9.90    0.60
  -5   1   3    9.80    0.70
  -5   1   3   10.40    0.60
   4  -1  -3  141.39    3.40
  -4   1   3  139.69    3.50
  -4   1   3  142.39    3.30
  -4   1   3  138.19    3.30
  -4   1   3  141.89    3.40
   3  -1  -3  191.88    4.50
  -3   1   3  194.38    4.50
  -3   1   3  186.98    4.50
  -3   1   3  188.48    4.50
  -3   1   3  188.08    4.60
   2  -1  -3    0.20    0.20
   2  -1  -3    0.10    0.20
  -2   1   3    0.10    0.20
  -2   1   3    0.30    0.20
  -2   1   3    0.10    0.20
  -2   1   3    0.00    0.20
   1  -1  -3    8.30    0.50
   1  -1  -3    8.70    0.40
  -1   1   3    7.60    0.40
  -1   1   3    8.50    0.50
  -1   1   3    8.10    0.40
   0  -1  -3  155.18    3.60
   0   1   3  143.09    3.70
   0   1   3  154.78    3.50
  -1  -1  -3   70.89    1.90
  -1  -1  -3   74.79    1.90
  -1  -1  -3   70.49    1.90
   1   1   3   75.49    1.90
   1   1   3   74.69    1.90
  -2  -1  -3   66.09    1.80
  -2  -1  -3   68.49    1.80
   2   1   3   66.99    1.80
   2   1   3   67.39    1.80
  -3  -1  -3  111.39    2.70
  -3  -1  -3  106.99    2.70
  -3  -1  -3  108.59    2.80
   3   1   3  107.99    2.80
  -4  -1  -3   15.30    0.50
  -4  -1  -3   15.70    0.70
  -4  -1  -3   14.40    0.70
   4   1   3   15.80    0.80
  -5  -1  -3   94.79    2.50
  -5  -1  -3   96.29    2.70
  -5  -1  -3   95.99    2.50
  -5  -1  -3   96.49    2.40
   5   1   3   93.69    2.60
  -6  -1  -3  241.38    5.70
  -6  -1  -3  243.98    6.00
  -6  -1  -3  241.78    5.70
  -6  -1  -3  240.58    5.70
   6   1   3  230.88    6.00
  -7  -1  -3   17.20    0.80
  -7  -1  -3   16.20    0.70
  -7  -1  -3   19.70    1.10
  -7  -1  -3   17.30    0.70
   7   1   3   15.80    1.10
  -8  -1  -3   26.20    1.50
   8   1   3   27.70    1.40
  -9  -1  -3   47.10    2.10
   9   1   3   44.70    2.00
  10  -2  -3    4.70    0.80
 -10   2   3    6.70    0.90
   9  -2  -3    1.00    0.60
  -9   2   3    1.30    0.60
   8  -2  -3    2.00    0.50
  -8   2   3    2.10    0.60
  -8   2   3    2.10    0.50
   7  -2  -3    4.60    0.60
  -7   2   3    3.10    0.50
  -7   2   3    3.10    0.40
   6  -2  -3   45.30    1.50
  -6   2   3   46.90    1.40
  -6   2   3   47.20    1.60
   5  -2  -3    1.80    0.30
  -5   2   3    2.40    0.30
  -5   2   3    2.00    0.30
  -5   2   3    1.80    0.20
  -5   2   3    1.80    0.40
   4  -2  -3  388.56    9.10
  -4   2   3  390.86    8.90
  -4   2   3  381.06    9.00
  -4   2   3  382.26    9.10
  -4   2   3  385.26    9.00
   3  -2  -3  341.77    8.50
   3  -2  -3  369.26    8.40
  -3   2   3  355.96    8.40
  -3   2   3  362.26    8.40
  -3   2   3  371.86    8.40
  -3   2   3  366.96    8.50
   2  -2  -3  390.26    9.30
   2  -2  -3  415.06    9.30
  -2   2   3  399.46    9.30
  -2   2   3  405.06    9.20
  -2   2   3  394.36    9.30
   1  -2  -3    0.30    0.20
   1  -2  -3    0.40    0.20
  -1   2   3    0.20    0.30
  -1   2   3    0.30    0.20
  -1   2   3    0.50    0.20
  -1   2   3    0.30    0.40
   0  -2  -3  158.38    4.00
   0  -2  -3  198.18    4.20
   0   2   3  156.78    3.90
   0   2   3  156.98    4.00
  -1  -2  -3  142.39    3.70
  -1  -2  -3  154.08    3.80
  -1  -2  -3  161.68    3.70
   1   2   3  151.18    3.80
   1   2   3  159.48    3.70
  -2  -2  -3  442.76   10.20
  -2  -2  -3  438.16   10.20
   2   2   3  436.66   10.20
   2   2   3  434.96   10.20
  -3  -2  -3  245.18    5.90
  -3  -2  -3  248.78    5.90
  -3  -2  -3  246.48    5.90
   3   2   3  243.08    5.90
   3   2   3  241.68    5.90
  -4  -2  -3  127.79    3.30
  -4  -2  -3  127.89    3.20
  -4  -2  -3  129.69    3.20
   4   2   3  124.19    3.30
  -5  -2  -3    2.50    0.40
  -5  -2  -3    2.30    0.50
  -5  -2  -3    2.30    0.40
   5   2   3    1.90    0.40
  -6  -2  -3   10.00    0.70
   6   2   3   11.40    0.90
   6   2   3   10.90    0.70
  -7  -2  -3   11.40    0.60
  -7  -2  -3   11.90    0.60
  -7  -2  -3   10.60    1.00
   7   2   3   12.30    1.00
  -8  -2  -3   45.50    1.90
   8   2   3   43.50    1.80
  -9  -2  -3   -0.60    0.70
   9   2   3    0.00    0.70
  10  -3  -3   -0.70    0.70
 -10   3   3    0.70    0.70
   9  -3  -3    9.50    1.10
  -9   3   3    8.20    1.20
   8  -3  -3    3.30    0.60
  -8   3   3    3.50    0.50
  -8   3   3    3.80    0.70
   7  -3  -3    3.20    0.50
  -7   3   3    2.90    0.40
  -7   3   3    2.80    0.40
   6  -3  -3    6.60    0.70
  -6   3   3    6.90    0.50
  -6   3   3    7.60    0.50
  -6   3   3    6.50    0.80
  -6   3   3    6.50    0.50
   5  -3  -3   -0.10    0.30
  -5   3   3    0.20    0.30
  -5   3   3    0.40    0.30
  -5   3   3    0.30    0.40
  -5   3   3    0.50    0.20
   4  -3  -3    7.40    0.60
  -4   3   3    8.40    0.60
  -4   3   3    7.70    0.40
  -4   3   3    7.60    0.50
  -4   3   3    7.30    0.50
   3  -3  -3  266.37    6.50
   3  -3  -3  276.07    6.50
  -3   3   3  276.47    6.60
  -3   3   3  272.87    6.50
  -3   3   3  276.27    6.50
  -3   3   3  282.27    6.40
   2  -3  -3  108.39    2.80
   2  -3  -3  111.69    2.80
  -2   3   3  109.89    2.80
  -2   3   3  107.79    2.80
  -2   3   3  113.49    2.60
  -2   3   3  109.19    2.80
   1  -3  -3   15.60    0.70
   1  -3  -3   18.00    0.80
  -1   3   3   14.70    0.60
  -1   3   3   14.10    0.70
   0  -3  -3  261.87    6.10
   0   3   3  258.87    6.10
   0   3   3  255.17    6.20
   0   3   3  255.77    6.00
  -1  -3  -3   95.99    2.60
  -1  -3  -3  102.79    2.60
  -1  -3  -3  101.49    2.60
   1   3   3  105.89    2.40
   1   3   3  100.09    2.60
   1   3   3  100.99    2.60
  -2  -3  -3    7.80    0.50
  -2  -3  -3    8.10    0.60
   2   3   3    7.90    0.60
   2   3   3    7.40    0.60
  -3  -3  -3    4.70    0.50
  -3  -3  -3    4.80    0.50
  -3  -3  -3    4.70    0.50
   3   3   3    4.60    0.60
   3   3   3    6.30    0.60
  -4  -3  -3    0.20    0.30
  -4  -3  -3    0.10    0.30
  -4  -3  -3    0.10    0.30
   4   3   3    0.40    0.40
  -5  -3  -3    3.90    0.60
  -5  -3  -3    4.10    0.50
  -5  -3  -3    4.70    0.60
   5   3   3    4.10    0.60
  -6  -3  -3    8.50    0.80
  -6  -3  -3    7.80    0.60
  -6  -3  -3    7.80    0.70
   6   3   3    6.90    0.90
  -7  -3  -3    2.50    0.60
  -7  -3  -3    2.60    0.40
  -7  -3  -3    1.90    0.40
   7   3   3    1.40    0.60
  -8  -3  -3    6.10    0.80
   8   3   3    8.00    1.10
  -9  -3  -3    3.50    0.80
   9   3   3    5.20    0.90
  10  -4  -3   32.00    1.70
 -10   4   3   29.40    1.80
   9  -4  -3    3.00    0.70
  -9   4   3    1.80    0.70
   8  -4  -3   36.20    1.60
  -8   4   3   37.40    1.10
  -8   4   3   39.80    1.70
  -8   4   3   38.10    1.10
   7  -4  -3   71.79    1.80
   7  -4  -3   68.89    2.40
  -7   4   3   70.29    1.90
  -7   4   3   70.49    1.90
  -7   4   3   70.09    2.30
   6  -4  -3    1.50    0.50
  -6   4   3    1.70    0.40
  -6   4   3    2.00    0.50
  -6   4   3    1.50    0.40
   5  -4  -3    0.70    0.40
  -5   4   3    1.00    0.30
  -5   4   3    0.80    0.40
  -5   4   3    1.00    0.40
   4  -4  -3   73.69    2.10
   4  -4  -3   72.69    2.10
  -4   4   3   74.69    2.20
  -4   4   3   76.19    2.10
  -4   4   3   76.89    2.10
  -4   4   3   75.79    2.10
   3  -4  -3   18.00    0.80
   3  -4  -3   18.90    0.80
  -3   4   3   19.30    0.60
  -3   4   3   19.00    0.80
  -3   4   3   18.90    0.80
   2  -4  -3  189.08    4.50
  -2   4   3  172.38    4.50
  -2   4   3  183.48    4.50
  -2   4   3  187.88    4.30
  -2   4   3  182.08    4.50
   1  -4  -3  217.28    5.40
   1  -4  -3  220.68    5.30
  -1   4   3  226.88    5.20
  -1   4   3  214.58    5.30
  -1   4   3  217.98    5.20
   0  -4  -3 1284.07   29.60
   0   4   3 1283.47   29.50
   0   4   3 1296.57   29.60
  -1  -4  -3   49.00    1.50
  -1  -4  -3   49.10    1.50
   1   4   3   49.30    1.30
   1   4   3   49.10    1.50
   1   4   3   49.80    1.50
  -2  -4  -3  126.09    3.20
  -2  -4  -3  122.89    3.20
  -2  -4  -3  120.79    3.20
   2   4   3  125.49    3.20
   2   4   3  122.29    3.20
  -3  -4  -3    0.60    0.30
  -3  -4  -3    1.20    0.30
  -3  -4  -3    0.80    0.30
   3   4   3    0.30    0.40
   3   4   3    1.10    0.40
  -4  -4  -3   48.70    1.50
  -4  -4  -3   46.50    1.50
  -4  -4  -3   45.80    1.50
   4   4   3   45.80    1.60
  -5  -4  -3   26.70    1.20
  -5  -4  -3   26.10    1.10
  -6  -4  -3    4.50    0.60
  -6  -4  -3    5.50    0.70
  -6  -4  -3    4.60    0.70
   6   4   3    5.10    0.70
  -7  -4  -3   15.70    0.90
  -7  -4  -3   15.20    0.80
  -7  -4  -3   13.00    1.20
   7   4   3   14.90    1.20
  -8  -4  -3    0.30    0.30
  -8  -4  -3    0.20    0.60
  -8  -4  -3    0.60    0.40
   8   4   3   -0.50    0.60
  -9  -4  -3    1.60    0.80
   9   4   3    1.50    0.80
  10  -5  -3  110.69    3.50
 -10   5   3  105.79    3.50
   9  -5  -3   30.60    1.60
  -9   5   3   31.10    1.80
   8  -5  -3    1.00    0.60
  -8   5   3    0.20    0.60
  -8   5   3    0.40    0.40
  -8   5   3    0.90    0.40
   7  -5  -3    2.70    0.60
  -7   5   3    4.30    0.70
  -7   5   3    3.00    0.50
  -7   5   3    3.90    0.50
   6  -5  -3   25.20    1.40
  -6   5   3   24.50    1.40
  -6   5   3   24.90    1.10
  -6   5   3   26.50    1.10
   5  -5  -3    0.30    0.40
  -5   5   3    0.50    0.40
  -5   5   3    0.20    0.40
  -5   5   3    0.50    0.40
   4  -5  -3   24.10    1.00
   4  -5  -3   21.80    1.00
  -4   5   3   24.60    1.00
  -4   5   3   24.90    1.10
  -4   5   3   23.70    1.00
   3  -5  -3  126.69    3.30
   3  -5  -3  129.59    3.40
  -3   5   3  123.69    3.40
  -3   5   3  127.79    3.30
  -3   5   3  133.79    3.40
   2  -5  -3    1.90    0.40
   2  -5  -3    1.40    0.40
  -2   5   3    2.50    0.40
  -2   5   3    1.90    0.40
   1  -5  -3   60.59    1.80
   1  -5  -3   72.99    2.00
  -1   5   3   62.89    1.90
  -1   5   3   59.99    1.70
  -1   5   3   61.69    1.70
   0  -5  -3    2.40    0.40
   0  -5  -3    3.20    0.60
   0   5   3    2.20    0.30
   0   5   3    3.30    0.70
   0   5   3    2.10    0.30
  -1  -5  -3    0.30    0.30
  -1  -5  -3    0.10    0.30
   1   5   3   -0.20    0.30
   1   5   3    0.70    0.20
   1   5   3    0.60    0.30
  -2  -5  -3  290.27    6.90
  -2  -5  -3  289.97    7.00
  -2  -5  -3  272.77    6.90
   2   5   3  287.67    7.00
   2   5   3  280.77    6.90
   2   5   3  290.67    6.60
  -3  -5  -3   89.69    2.90
  -3  -5  -3  110.29    2.90
  -3  -5  -3  105.99    2.80
   3   5   3  106.59    2.90
   3   5   3  105.49    2.90
  -4  -5  -3   45.80    1.50
  -4  -5  -3   43.30    1.50
  -4  -5  -3   43.40    1.50
   4   5   3   43.80    1.60
  -5  -5  -3    0.60    0.40
  -5  -5  -3    0.70    0.50
  -5  -5  -3    1.00    0.50
   5   5   3    1.20    0.50
  -6  -5  -3    0.10    0.50
  -6  -5  -3    0.70    0.40
  -6  -5  -3    0.90    0.50
   6   5   3    0.40    0.50
  -7  -5  -3   10.20    1.10
  -7  -5  -3    9.10    0.80
  -7  -5  -3    8.70    0.80
   7   5   3    9.10    1.10
  -8  -5  -3    1.60    0.50
  -8  -5  -3    1.30    0.60
  -8  -5  -3    1.50    0.50
   8   5   3    1.50    0.70
  10  -6  -3   22.60    1.70
   9  -6  -3    2.50    0.80
  -9   6   3    3.20    0.50
  -9   6   3    2.90    0.80
  -9   6   3    3.00    0.50
   8  -6  -3   10.40    1.10
  -8   6   3   13.40    0.90
  -8   6   3   11.10    0.90
  -8   6   3    8.90    1.30
   7  -6  -3    0.90    0.50
  -7   6   3    1.00    0.60
  -7   6   3    0.00    0.50
  -7   6   3    0.50    0.50
   6  -6  -3   11.90    1.00
  -6   6   3   12.60    1.10
  -6   6   3   11.70    0.90
   5  -6  -3   18.90    1.10
  -5   6   3   19.00    1.10
  -5   6   3   20.10    1.00
   4  -6  -3  129.49    3.50
   4  -6  -3  128.79    3.50
  -4   6   3  135.99    3.90
  -4   6   3  129.99    3.50
  -4   6   3  130.29    3.50
   3  -6  -3   17.60    1.00
   3  -6  -3   16.00    0.90
  -3   6   3   16.80    0.90
  -3   6   3   16.50    1.00
   2  -6  -3  139.09    3.60
  -2   6   3  140.39    3.70
  -2   6   3  138.19    3.30
  -2   6   3  135.19    3.60
   1  -6  -3   87.09    2.50
   1  -6  -3   87.79    2.40
  -1   6   3   88.49    2.40
  -1   6   3   89.39    2.30
   0  -6  -3   21.40    1.00
   0  -6  -3   24.20    1.00
   0   6   3   23.20    0.90
   0   6   3   22.80    0.90
   0   6   3   22.50    1.10
  -1  -6  -3    1.20    0.40
  -1  -6  -3    0.90    0.40
   1   6   3    1.40    0.40
   1   6   3    1.70    0.30
   1   6   3    1.70    0.50
  -2  -6  -3   73.79    2.30
  -2  -6  -3   74.09    2.20
  -2  -6  -3   83.39    3.10
   2   6   3   73.29    2.20
   2   6   3   74.09    1.90
  -3  -6  -3    2.40    0.50
  -3  -6  -3    2.40    0.50
   3   6   3    3.00    0.60
   3   6   3    3.60    0.70
  -4  -6  -3    2.60    0.50
   4   6   3    2.90    0.60
  -5  -6  -3    5.10    0.70
  -5  -6  -3    5.50    0.70
   5   6   3    6.70    0.90
  -6  -6  -3    0.30    0.50
  -6  -6  -3   -0.10    0.40
   6   6   3    0.60    0.60
  -7  -6  -3    3.90    0.60
  -7  -6  -3    4.20    0.80
   7   6   3    3.30    0.80
  -8  -6  -3   19.10    1.60
  -8  -6  -3   21.70    1.50
   8   6   3   19.40    1.60
   9  -7  -3    5.90    0.90
  -9   7   3    6.10    1.10
  -9   7   3    5.90    0.90
   8  -7  -3   26.40    1.60
  -8   7   3   25.70    1.30
  -8   7   3   25.40    1.60
   7  -7  -3   12.90    1.20
  -7   7   3   11.70    1.20
  -7   7   3   12.70    1.00
   6  -7  -3  250.27    6.40
  -6   7   3  250.17    6.50
  -6   7   3  254.07    6.40
   5  -7  -3   43.30    1.70
  -5   7   3   43.80    1.70
  -5   7   3   45.00    1.70
   4  -7  -3    0.30    0.50
  -4   7   3    0.30    0.50
  -4   7   3    0.00    0.50
   3  -7  -3    7.80    0.90
   3  -7  -3    9.70    0.80
  -3   7   3    7.80    1.00
  -3   7   3    7.50    0.80
   2  -7  -3   13.70    0.90
  -2   7   3   14.40    0.60
  -2   7   3   12.80    0.80
  -2   7   3   12.80    1.10
   1  -7  -3    1.40    0.70
   1  -7  -3    1.00    0.40
  -1   7   3    1.20    0.50
  -1   7   3    0.70    0.30
  -1   7   3    0.90    0.40
   0  -7  -3   45.20    1.60
   0  -7  -3   54.29    1.90
   0   7   3   45.10    1.50
   0   7   3   44.00    1.80
   0   7   3   44.30    1.40
  -1  -7  -3    7.50    0.80
  -1  -7  -3    5.90    0.90
   1   7   3    8.00    0.80
   1   7   3    7.50    0.60
   1   7   3    9.00    1.00
  -2  -7  -3  118.09    3.20
  -2  -7  -3  116.99    3.30
   2   7   3  116.09    2.90
   2   7   3  116.69    3.30
   2   7   3  116.69    3.20
  -3  -7  -3    0.40    0.50
   3   7   3    0.60    0.50
   3   7   3    0.50    0.30
  -4  -7  -3  136.09    3.70
  -4  -7  -3  132.29    3.70
   4   7   3  131.89    3.70
  -5  -7  -3   11.10    1.00
  -5  -7  -3   12.80    1.10
   5   7   3   10.70    1.10
  -6  -7  -3   74.69    2.40
  -6  -7  -3   75.09    2.50
   6   7   3   73.89    2.70
  -7  -7  -3   -0.30    0.70
  -7  -7  -3    1.00    0.50
   7   7   3    0.30    0.70
   9  -8  -3    0.50    0.70
  -9   8   3    0.00    0.60
   8  -8  -3   39.50    1.90
  -8   8   3   37.90    2.30
  -8   8   3   38.90    2.00
   7  -8  -3    1.40    0.70
  -7   8   3    2.40    0.60
  -7   8   3    2.30    0.70
   6  -8  -3    1.30    0.60
  -6   8   3    2.10    0.70
  -6   8   3    2.60    0.70
   5  -8  -3   62.89    2.20
  -5   8   3   62.49    2.20
  -5   8   3   64.89    2.20
   4  -8  -3   49.50    1.80
  -4   8   3   51.59    1.90
   3  -8  -3    0.20    0.50
   3  -8  -3    0.20    0.50
  -3   8   3    0.10    0.60
  -3   8   3    0.50    0.50
   2  -8  -3   -0.20    0.50
   2  -8  -3    0.50    0.50
  -2   8   3    0.60    0.50
  -2   8   3    0.50    0.30
  -2   8   3    0.00    0.60
  -1   8   3  107.19    3.00
  -1   8   3  112.09    3.30
  -1   8   3  112.19    2.90
   0  -8  -3  105.79    3.10
   0   8   3  107.59    2.90
   0   8   3  108.69    3.20
   0   8   3  107.09    2.90
  -1  -8  -3   20.00    1.10
  -1  -8  -3   21.00    1.30
   1   8   3   21.00    1.10
   1   8   3   18.20    1.30
   1   8   3   19.90    1.00
  -2  -8  -3   26.10    1.20
   2   8   3   26.00    1.10
  -3  -8  -3    3.40    0.60
  -3  -8  -3    4.30    0.70
   3   8   3    4.20    0.50
   3   8   3    4.20    0.70
  -4  -8  -3   28.00    1.40
  -4  -8  -3   27.80    1.40
   4   8   3   25.40    1.40
  -5  -8  -3  110.79    3.30
  -5  -8  -3  114.09    3.30
   5   8   3  108.89    3.40
  -6  -8  -3   24.90    1.50
  -6  -8  -3   24.30    1.60
   6   8   3   25.60    1.70
  -7  -8  -3    1.10    0.70
  -7  -8  -3    1.20    0.90
   7   8   3    0.70    1.20
   8  -9  -3    2.20    0.90
  -8   9   3    0.70    0.80
  -8   9   3    2.60    0.70
   7  -9  -3    5.70    0.90
  -7   9   3    6.10    0.90
  -7   9   3    3.40    1.20
   6  -9  -3   10.80    1.20
  -6   9   3    7.70    1.00
  -6   9   3    8.20    1.20
   5  -9  -3    0.10    0.50
  -5   9   3    0.70    0.60
  -5   9   3   -0.10    0.60
   4  -9  -3    1.60    0.60
  -4   9   3    2.20    0.70
  -4   9   3    1.70    0.60
   3  -9  -3    3.90    0.80
   3  -9  -3    3.90    0.60
  -3   9   3    4.30    0.80
  -3   9   3    3.40    0.60
   2  -9  -3   25.30    1.50
   2  -9  -3   24.40    1.30
  -2   9   3   25.20    1.60
  -2   9   3   26.10    1.00
   1  -9  -3   17.70    1.30
   1  -9  -3   19.20    1.20
  -1   9   3   19.10    1.40
  -1   9   3   20.00    1.00
  -1   9   3   20.50    1.10
   0  -9  -3    2.80    0.70
   0  -9  -3    2.10    0.60
   0   9   3    2.90    0.60
   0   9   3    2.80    0.80
   0   9   3    3.00    0.50
  -1  -9  -3    0.40    0.50
  -1  -9  -3    1.10    0.60
   1   9   3    1.20    0.70
   1   9   3    1.20    0.50
   1   9   3    0.90    0.60
  -2  -9  -3    6.70    0.80
  -2  -9  -3    6.40    0.80
   2   9   3    5.00    0.70
   2   9   3    6.00    0.80
  -3  -9  -3    1.60    0.60
  -3  -9  -3   -0.60    0.50
   3   9   3    0.60    0.60
  -4  -9  -3    3.10    0.70
  -4  -9  -3    4.60    0.80
   4   9   3    3.20    0.70
  -5  -9  -3   14.90    1.30
  -5  -9  -3   12.20    1.30
   5   9   3    8.70    1.00
  -6  -9  -3    6.90    0.90
  -6  -9  -3    8.20    1.20
   6   9   3    6.50    1.00
   7 -10  -3    0.70    0.80
  -7  10   3    1.80    0.90
  -7  10   3   -1.20    0.80
   6 -10  -3   38.00    2.10
  -6  10   3   38.50    1.90
  -6  10   3   39.40    2.00
   5 -10  -3    9.60    1.20
  -5  10   3    9.40    1.30
  -5  10   3    8.70    1.20
   4 -10  -3    0.70    0.60
  -4  10   3   -0.90    0.70
  -4  10   3    0.50    0.70
   3 -10  -3   -0.40    0.60
  -3  10   3   -0.20    0.60
  -3  10   3   -1.00    0.70
   2 -10  -3    0.50    0.50
   2 -10  -3   -0.30    0.70
  -2  10   3    1.80    0.80
  -2  10   3    0.30    0.60
   1 -10  -3    8.60    1.00
   1 -10  -3    8.80    1.00
  -1  10   3    8.90    0.80
  -1  10   3    7.50    1.00
  -1  10   3   10.10    1.50
   0 -10  -3   48.20    2.30
   0 -10  -3   43.00    1.80
   0  10   3   44.40    2.10
   0  10   3   43.60    1.70
   0  10   3   43.80    1.90
  -1 -10  -3   10.20    1.20
  -1 -10  -3   10.20    1.10
   1  10   3   10.80    1.00
   1  10   3   10.50    1.00
  -2 -10  -3   -0.40    0.70
  -2 -10  -3    0.10    0.60
   2  10   3    1.20    0.60
   2  10   3    0.60    0.60
  -3 -10  -3   -1.00    0.60
  -3 -10  -3    0.30    0.60
   3  10   3   -1.00    0.60
  -4 -10  -3    0.20    0.70
  -4 -10  -3    1.20    0.70
   4  10   3   -0.80    0.70
  -5 -10  -3    1.40    0.70
  -5 -10  -3    0.90    0.70
   5  10   3   -0.10    0.80
   6 -11  -3    1.00    0.80
  -6  11   3    0.00    0.90
  -6  11   3    1.90    0.90
   5 -11  -3    1.80    1.20
  -5  11   3    1.60    0.90
  -5  11   3    2.80    0.80
   4 -11  -3    0.70    0.80
  -4  11   3    1.80    0.90
  -4  11   3    1.90    0.80
   3 -11  -3    4.80    0.90
  -3  11   3    5.60    1.10
  -3  11   3    6.20    0.90
   2 -11  -3    2.90    0.70
   2 -11  -3    1.40    0.80
  -2  11   3    2.10    0.70
  -2  11   3    2.60    1.00
   1 -11  -3    8.90    1.20
  -1  11   3   12.50    1.20
  -1  11   3   11.50    1.70
  -1  11   3   12.80    1.00
   0 -11  -3   30.40    1.80
   0 -11  -3   35.10    1.70
   0  11   3   33.90    1.50
   0  11   3   31.80    1.50
  -1 -11  -3   14.70    1.40
  -1 -11  -3   17.90    1.40
   1  11   3   18.00    1.30
   1  11   3   13.10    1.20
  -2 -11  -3   65.19    2.60
  -2 -11  -3   64.79    2.40
   2  11   3   65.79    2.40
  -3 -11  -3   10.30    1.10
  -3 -11  -3   12.40    1.40
   3  11   3   12.90    1.40
   4 -12  -3   16.90    1.90
  -4  12   3   13.70    1.80
  -4  12   3   14.60    1.60
   3 -12  -3    2.20    0.80
  -3  12   3    1.30    1.00
  -3  12   3    2.00    0.80
   2 -12  -3    5.60    0.90
  -2  12   3    7.60    0.90
  -2  12   3    7.10    1.20
   1 -12  -3    9.20    1.20
   1 -12  -3    8.70    1.10
  -1  12   3    9.50    1.30
   0 -12  -3    7.70    1.00
   0 -12  -3    7.50    1.10
   0  12   3    7.40    0.80
   0  12   3    9.00    1.20
  -1 -12  -3   -0.50    0.70
  -1 -12  -3   -1.30    0.90
   1  12   3    0.80    0.80
   1  12   3   -0.30    0.70
  -2 -12  -3   10.60    1.40
  -2 -12  -3   14.90    1.60
   2  12   3   15.60    1.50
   3  12  -4    3.10    0.90
  -3 -12   4    2.40    0.80
  -3 -12   4    2.10    0.80
   2  12  -4   15.70    1.50
  -2 -12   4   14.90    1.20
  -2 -12   4   15.30    1.30
  -2 -12   4   14.40    1.60
   1  12  -4   31.50    1.90
  -1 -12   4   34.50    1.50
  -1 -12   4   34.90    2.00
  -1 -12   4   31.70    1.50
   0  12  -4   11.10    1.50
   0 -12   4   11.30    1.60
   0 -12   4   11.10    1.20
   0 -12   4   12.40    1.10
  -1  12  -4    1.90    0.80
  -1  12  -4    3.00    1.50
   1 -12   4    0.50    0.90
   1 -12   4    3.20    0.80
  -2  12  -4   10.40    1.50
  -2  12  -4    8.40    1.30
   2 -12   4    8.80    1.00
  -3  12  -4   27.90    2.10
  -3  12  -4   28.10    2.20
   3 -12   4   27.70    1.60
  -4  12  -4    8.00    1.30
  -4  12  -4    5.20    1.00
   4 -12   4    4.60    0.90
   5  11  -4   -1.20    0.80
  -5 -11   4   -0.10    0.70
  -5 -11   4    0.30    0.70
   4  11  -4    3.80    0.80
  -4 -11   4    4.50    0.80
  -4 -11   4    3.40    0.90
   3  11  -4   12.30    1.40
  -3 -11   4   10.40    1.10
  -3 -11   4   12.20    1.40
  -3 -11   4    9.60    1.00
   2  11  -4    9.70    1.40
  -2 -11   4   13.40    1.10
  -2 -11   4   14.90    1.00
  -2 -11   4   14.70    1.40
   1  11  -4    3.90    0.80
  -1 -11   4    3.60    0.60
  -1 -11   4    2.30    0.70
  -1 -11   4    3.30    0.70
   0  11  -4   46.50    2.00
   0 -11   4   45.10    2.10
   0 -11   4   45.70    1.80
   0 -11   4   44.90    1.70
  -1  11  -4  106.39    3.50
  -1  11  -4  103.89    3.30
   1 -11   4  105.39    2.90
   1 -11   4  103.09    3.10
   1 -11   4  105.99    3.50
  -2  11  -4    0.70    0.80
  -2  11  -4    0.20    0.80
   2 -11   4    0.90    0.90
   2 -11   4    1.00    0.60
  -3  11  -4    2.20    0.90
  -3  11  -4    0.00    0.70
   3 -11   4    0.60    0.60
  -4  11  -4    8.20    1.30
  -4  11  -4   10.40    1.60
   4 -11   4   11.50    1.30
  -5  11  -4    7.80    1.20
  -5  11  -4    5.90    1.00
   5 -11   4    6.20    1.00
   6  10  -4    1.70    0.80
  -6 -10   4    0.50    0.70
  -6 -10   4    1.50    0.60
   5  10  -4   -0.50    0.80
  -5 -10   4    1.20    0.60
  -5 -10   4    1.40    0.90
   4  10  -4    1.50    0.70
  -4 -10   4    1.70    0.60
  -4 -10   4    1.90    0.70
  -4 -10   4    1.60    0.70
   3  10  -4   14.90    1.30
  -3 -10   4   17.20    1.10
  -3 -10   4   15.60    1.00
  -3 -10   4   16.60    1.30
   2  10  -4   48.70    1.90
  -2 -10   4   47.80    2.00
  -2 -10   4   46.30    1.70
  -2 -10   4   45.00    1.70
   1  10  -4   11.10    1.20
  -1 -10   4   12.10    1.20
  -1 -10   4   12.40    1.00
   0  10  -4   21.40    1.30
   0  10  -4   19.50    1.60
   0 -10   4   18.20    1.30
   0 -10   4   19.90    1.50
   0 -10   4   19.50    1.00
  -1  10  -4    1.50    0.70
  -1  10  -4    1.30    0.60
   1 -10   4    2.00    0.80
   1 -10   4    1.60    0.50
   1 -10   4    2.20    0.50
  -2  10  -4   26.70    1.50
   2 -10   4   25.50    1.70
   2 -10   4   25.00    1.30
   2 -10   4   26.70    1.10
  -3  10  -4    1.70    0.70
  -3  10  -4    1.90    0.70
   3 -10   4    2.20    0.60
  -4  10  -4    8.40    1.20
  -4  10  -4    7.20    1.00
   4 -10   4    7.30    0.80
  -5  10  -4    0.60    0.70
  -5  10  -4   -0.10    0.60
   5 -10   4    0.40    0.60
  -6  10  -4   13.50    1.50
  -6  10  -4   11.50    1.80
   6 -10   4   11.90    1.40
   7   9  -4   12.00    1.40
  -7  -9   4   11.90    1.20
  -7  -9   4   13.30    1.40
   6   9  -4    3.40    0.70
  -6  -9   4    3.20    0.70
  -6  -9   4    3.20    1.20
   5   9  -4    2.90    0.70
  -5  -9   4    1.80    0.50
  -5  -9   4    3.10    0.60
  -5  -9   4    3.00    0.70
   4   9  -4    5.10    0.70
  -4  -9   4    4.70    0.70
  -4  -9   4    3.70    0.50
  -4  -9   4    4.10    0.70
   3   9  -4   73.99    2.40
  -3  -9   4   73.29    2.40
  -3  -9   4   73.29    2.10
  -3  -9   4   75.59    2.50
   2   9  -4   25.80    1.30
  -2  -9   4   26.70    1.10
  -2  -9   4   25.40    1.40
  -2  -9   4   25.30    1.40
   1   9  -4    1.30    0.50
   1   9  -4    1.90    0.70
  -1  -9   4    1.60    0.50
  -1  -9   4    1.90    0.50
  -1  -9   4    1.60    0.60
   0   9  -4    1.70    0.60
   0   9  -4    3.30    0.80
   0  -9   4    3.20    0.50
   0  -9   4    1.80    0.60
   0  -9   4    3.40    0.50
  -1   9  -4   40.40    1.80
  -1   9  -4   41.10    1.70
   1  -9   4   40.50    1.80
   1  -9   4   42.20    1.40
   1  -9   4   41.40    1.50
   1  -9   4   40.70    1.80
  -2   9  -4   -0.20    0.70
  -2   9  -4    0.20    0.50
   2  -9   4    0.00    0.60
   2  -9   4    0.50    0.30
   2  -9   4    0.90    0.60
  -3   9  -4   99.49    3.10
   3  -9   4  103.79    3.20
   3  -9   4  101.99    3.20
   3  -9   4   95.89    2.90
  -4   9  -4   58.49    2.30
  -4   9  -4   60.19    2.20
   4  -9   4   59.39    2.10
  -5   9  -4   17.90    1.50
  -5   9  -4   18.50    1.40
   5  -9   4   17.70    1.30
  -6   9  -4    6.70    0.90
  -6   9  -4    6.30    0.90
   6  -9   4    9.10    1.20
  -7   9  -4    4.80    0.90
  -7   9  -4    5.50    1.00
   7  -9   4    5.70    1.00
   8   8  -4   23.10    1.60
  -8  -8   4   22.10    1.60
  -8  -8   4   20.70    1.10
   7   8  -4    1.50    0.70
  -7  -8   4    1.30    0.70
  -7  -8   4    1.50    0.50
   6   8  -4   34.50    1.60
  -6  -8   4   37.30    1.40
  -6  -8   4   34.80    1.60
  -6  -8   4   34.90    1.50
   5   8  -4    1.40    0.60
  -5  -8   4    1.90    0.50
  -5  -8   4    2.00    0.60
  -5  -8   4    1.50    0.50
   4   8  -4    2.70    0.80
  -4  -8   4    3.60    0.50
  -4  -8   4    4.20    0.60
  -4  -8   4    4.50    0.60
   3   8  -4   33.70    1.70
  -3  -8   4   33.80    1.50
  -3  -8   4   34.50    1.40
  -3  -8   4   36.50    1.20
   2   8  -4   57.59    2.10
   2   8  -4   59.59    2.00
  -2  -8   4   56.89    1.90
  -2  -8   4   56.39    1.70
  -2  -8   4   55.59    2.00
   1   8  -4    2.10    0.60
   1   8  -4    1.90    0.60
  -1  -8   4    1.60    0.50
  -1  -8   4    3.00    0.50
  -1  -8   4    3.10    0.60
  -1  -8   4    2.80    0.40
   0   8  -4    5.40    0.60
   0   8  -4    4.90    0.70
   0  -8   4    6.20    0.90
   0  -8   4    5.30    0.70
   0  -8   4    5.00    0.70
   1  -8   4   20.20    1.00
   1  -8   4   20.80    0.90
   1  -8   4   21.10    1.20
  -2   8  -4   10.70    1.00
  -2   8  -4   11.40    1.10
   2  -8   4   11.20    1.10
   2  -8   4   10.50    0.90
   2  -8   4   11.70    0.70
  -3   8  -4  147.19    4.10
  -3   8  -4  146.89    4.10
   3  -8   4  148.49    4.10
   3  -8   4  149.99    4.10
   3  -8   4  148.89    3.60
  -4   8  -4  320.77    8.00
  -4   8  -4  317.87    7.90
   4  -8   4  311.77    7.80
  -5   8  -4    2.20    0.60
  -5   8  -4    1.10    0.60
   5  -8   4    2.00    0.60
  -6   8  -4   36.30    1.80
  -6   8  -4   36.40    1.70
   6  -8   4   36.50    1.70
  -7   8  -4   32.70    1.70
  -7   8  -4   32.00    1.70
   7  -8   4   33.30    1.70
  -8   8  -4   43.90    2.00
  -8   8  -4   42.20    2.10
   8  -8   4   44.20    2.20
   8   7  -4    5.10    0.90
  -8  -7   4    5.80    1.00
  -8  -7   4    4.80    0.70
  -8  -7   4    6.10    0.60
   7   7  -4    9.30    1.20
  -7  -7   4   13.00    1.00
  -7  -7   4   11.80    0.80
  -7  -7   4   12.50    1.20
  -7  -7   4   13.40    0.90
   6   7  -4   40.80    1.70
  -6  -7   4   42.90    1.80
  -6  -7   4   42.10    1.50
  -6  -7   4   41.70    1.50
   5   7  -4   23.30    1.30
  -5  -7   4   23.50    1.20
  -5  -7   4   21.70    1.00
  -5  -7   4   21.90    1.10
   4   7  -4    0.70    0.50
  -4  -7   4    1.10    0.40
  -4  -7   4    0.80    0.40
  -4  -7   4    0.40    0.40
   3   7  -4   38.50    1.50
  -3  -7   4   39.60    1.20
  -3  -7   4   38.90    1.50
  -3  -7   4   39.90    1.50
   2   7  -4    7.00    1.00
   2   7  -4    5.90    0.80
  -2  -7   4    7.60    0.80
  -2  -7   4    6.80    0.60
  -2  -7   4    5.70    0.70
   1   7  -4    5.90    1.00
   1   7  -4    7.40    0.80
  -1  -7   4    6.90    0.80
  -1  -7   4    6.50    0.60
  -1  -7   4    7.50    0.70
   0   7  -4    1.20    0.40
   0   7  -4    2.00    0.50
   0  -7   4    2.70    0.80
   0  -7   4    1.30    0.40
   0  -7   4    2.20    0.40
  -1   7  -4    1.30    0.50
  -1   7  -4    1.20    0.50
   1  -7   4    1.70    0.40
   1  -7   4    1.10    0.50
   1  -7   4    1.40    0.30
  -2   7  -4   11.30    1.00
  -2   7  -4   11.10    0.90
   2  -7   4   10.90    0.80
   2  -7   4   11.10    0.60
   2  -7   4   10.30    0.90
  -3   7  -4    4.00    0.60
  -3   7  -4    4.70    0.70
   3  -7   4    5.20    0.50
   3  -7   4    6.30    0.90
   3  -7   4    4.70    0.60
  -4   7  -4    8.50    1.00
  -4   7  -4    9.70    0.90
   4  -7   4    7.70    0.50
  -5   7  -4   37.60    1.60
  -5   7  -4   38.30    1.70
   5  -7   4   39.50    1.60
  -6   7  -4   77.49    2.60
  -6   7  -4   75.29    2.50
   6  -7   4   78.49    2.50
  -7   7  -4    9.50    1.20
  -7   7  -4   10.00    1.10
   7  -7   4    9.30    1.20
  -8   7  -4   24.20    1.90
  -8   7  -4   22.40    1.60
   8  -7   4   21.60    1.60
   9   6  -4    3.60    0.80
  -9  -6   4    4.10    0.90
   8   6  -4    5.60    0.80
  -8  -6   4    6.30    0.90
  -8  -6   4    5.60    0.70
   7   6  -4   10.40    1.00
  -7  -6   4   11.10    0.80
  -7  -6   4   11.30    1.10
  -7  -6   4   12.80    0.90
  -7  -6   4    9.50    0.70
   6   6  -4    7.00    1.00
  -6  -6   4    7.50    0.90
  -6  -6   4    6.80    0.70
  -6  -6   4    8.10    0.80
  -6  -6   4    7.10    0.70
   5   6  -4   13.90    1.00
  -5  -6   4   11.30    0.90
  -5  -6   4   12.20    0.70
  -5  -6   4   13.10    1.00
  -5  -6   4   12.10    0.80
   4   6  -4   32.90    1.40
  -4  -6   4   33.50    1.30
  -4  -6   4   33.20    1.30
  -4  -6   4   33.20    1.10
  -4  -6   4   35.00    1.40
   3   6  -4    1.00    0.60
   3   6  -4    0.80    0.50
  -3  -6   4   -0.10    0.30
  -3  -6   4   -0.10    0.30
  -3  -6   4    0.00    0.30
  -3  -6   4    0.20    0.40
   2   6  -4    1.90    0.40
   2   6  -4    2.60    0.50
  -2  -6   4    2.20    0.30
  -2  -6   4    2.10    0.40
  -2  -6   4    2.40    0.40
  -2  -6   4    3.50    0.60
   1   6  -4   33.50    1.30
   1   6  -4   33.40    1.30
  -1  -6   4   34.10    1.10
  -1  -6   4   33.70    1.30
  -1  -6   4   33.50    1.20
   0   6  -4    1.40    0.50
   0   6  -4    1.60    0.40
   0  -6   4    1.40    0.40
   0  -6   4    1.90    0.30
   0  -6   4    1.20    0.30
  -1   6  -4   70.19    2.10
  -1   6  -4   57.79    1.80
   1  -6   4   56.59    1.90
   1  -6   4   58.19    1.60
   1  -6   4   58.29    1.70
  -2   6  -4   50.19    1.70
  -2   6  -4   47.20    1.70
   2  -6   4   50.79    1.70
   2  -6   4   51.99    1.40
   2  -6   4   50.79    1.50
  -3   6  -4   13.90    0.90
  -3   6  -4   12.90    1.00
   3  -6   4   14.80    0.90
   3  -6   4   13.90    0.60
   3  -6   4   12.80    0.80
  -4   6  -4   32.60    1.40
  -4   6  -4   31.40    1.40
   4  -6   4   31.10    1.40
   4  -6   4   31.90    1.30
   4  -6   4   31.20    1.00
  -5   6  -4    5.10    0.70
   5  -6   4    4.90    0.50
   5  -6   4    4.90    0.60
  -6   6  -4   95.99    2.90
  -6   6  -4   93.69    2.80
   6  -6   4   96.09    2.90
  -7   6  -4   14.20    1.10
  -7   6  -4   16.60    1.20
   7  -6   4   15.20    1.20
  -8   6  -4   24.80    1.60
  -8   6  -4   28.90    1.50
   8  -6   4   23.80    2.10
  -9   6  -4   -0.50    0.70
  -9   6  -4    0.30    0.90
   9  -6   4    0.10    1.30
   9   5  -4   14.50    1.30
  -9  -5   4   13.20    1.40
   8   5  -4    2.00    0.70
  -8  -5   4    1.10    0.60
  -8  -5   4    1.30    0.50
  -7  -5   4    0.30    0.30
  -7  -5   4    0.50    0.30
  -7  -5   4    1.30    0.50
  -7  -5   4    0.60    0.50
   6   5  -4   35.90    1.40
  -6  -5   4   35.60    1.20
  -6  -5   4   36.50    1.50
  -6  -5   4   34.30    1.20
  -6  -5   4   35.20    1.20
   5   5  -4   10.10    0.90
  -5  -5   4   11.00    1.00
  -5  -5   4    9.80    0.80
  -5  -5   4    9.70    0.60
  -5  -5   4   11.40    0.80
   4   5  -4    7.50    0.80
  -4  -5   4    6.50    0.70
  -4  -5   4    7.40    0.60
  -4  -5   4    7.30    0.60
  -4  -5   4    7.90    0.70
  -4  -5   4    7.70    0.50
   3   5  -4  232.28    5.90
   3   5  -4  246.68    5.90
  -3  -5   4  245.88    5.90
  -3  -5   4  239.58    5.90
  -3  -5   4  243.68    5.70
  -3  -5   4  242.48    5.90
   2   5  -4    3.70    0.50
   2   5  -4    4.10    0.60
  -2  -5   4    3.60    0.40
  -2  -5   4    3.10    0.40
  -2  -5   4    3.20    0.40
  -2  -5   4    4.10    0.50
   1   5  -4   40.10    1.30
  -1  -5   4   41.60    1.10
  -1  -5   4   39.30    1.30
  -1  -5   4   39.00    1.20
   0   5  -4   13.90    0.80
   0   5  -4   12.40    0.80
   0  -5   4   13.90    0.70
   0  -5   4   14.00    0.60
   0  -5   4   12.90    0.80
  -1   5  -4    0.40    0.40
  -1   5  -4    0.20    0.30
   1  -5   4    0.40    0.20
   1  -5   4    0.30    0.30
   1  -5   4    0.30    0.30
  -2   5  -4   76.29    2.20
  -2   5  -4   77.09    2.20
   2  -5   4   77.59    2.10
   2  -5   4   79.19    2.00
   2  -5   4   76.19    2.20
  -3   5  -4   68.09    2.00
  -3   5  -4   62.09    2.00
  -3   5  -4   64.79    2.00
   3  -5   4   67.09    1.70
   3  -5   4   66.69    1.90
   3  -5   4   64.59    2.00
  -4   5  -4   13.00    0.90
  -4   5  -4   11.90    0.90
   4  -5   4   11.00    0.90
   4  -5   4   12.70    0.60
   4  -5   4   12.20    0.80
  -5   5  -4   18.10    1.20
  -5   5  -4   21.00    1.10
  -5   5  -4   20.50    1.10
  -5   5  -4   16.40    1.50
   5  -5   4   20.50    0.80
  -6   5  -4   -0.20    0.40
  -6   5  -4   -0.40    0.50
   6  -5   4   -0.30    0.30
  -7   5  -4    0.50    0.50
  -7   5  -4    0.60    0.60
  -7   5  -4    0.50    0.50
   7  -5   4    1.70    0.70
  -8   5  -4    1.60    0.50
  -8   5  -4    1.70    0.70
   8  -5   4    1.80    0.70
  -9   5  -4    0.90    0.50
  -9   5  -4   -0.10    0.70
   9  -5   4   -1.40    1.10
  10   4  -4   41.00    1.90
 -10  -4   4   42.10    2.00
   9   4  -4   43.10    1.80
  -9  -4   4   43.40    1.90
  -9  -4   4   41.10    1.60
   8   4  -4    8.50    1.00
  -8  -4   4    8.20    0.90
  -8  -4   4    9.10    1.10
   7   4  -4    6.90    0.80
  -7  -4   4    6.60    0.80
  -7  -4   4    7.80    0.90
   6   4  -4    5.00    0.60
  -6  -4   4    5.20    0.50
  -6  -4   4    5.30    0.60
  -6  -4   4    4.50    0.70
   5   4  -4    3.20    0.50
  -5  -4   4    3.10    0.40
  -5  -4   4    3.40    0.50
  -5  -4   4    3.20    0.40
  -5  -4   4    3.00    0.40
   4   4  -4  123.59    3.20
  -4  -4   4  122.59    3.30
  -4  -4   4  125.39    3.20
  -4  -4   4  120.79    3.10
  -4  -4   4  125.99    3.00
   3   4  -4  262.37    6.50
   3   4  -4  271.27    6.60
  -3  -4   4  274.77    6.50
  -3  -4   4  270.67    6.60
  -3  -4   4  274.07    6.50
  -3  -4   4  278.87    6.30
   2   4  -4   12.00    0.70
   2   4  -4   12.70    0.70
  -2  -4   4   12.90    0.40
  -2  -4   4   11.80    0.60
  -2  -4   4   11.60    0.60
   1   4  -4   45.00    1.40
   1   4  -4   47.80    1.40
  -1  -4   4   48.00    1.40
  -1  -4   4   45.30    1.40
  -1  -4   4   48.30    1.20
   0   4  -4 1189.48   27.50
   0   4  -4 1182.48   27.50
   0  -4   4 1183.88   27.50
   0  -4   4 1201.58   27.40
   0  -4   4 1213.58   27.40
  -1   4  -4    1.50    0.40
  -1   4  -4    1.80    0.30
   1  -4   4    1.60    0.30
   1  -4   4    0.80    0.30
   1  -4   4    1.30    0.20
  -2   4  -4   34.40    1.20
  -2   4  -4   35.10    1.10
  -2   4  -4   35.80    1.20
   2  -4   4   35.80    1.20
   2  -4   4   35.40    1.00
  -3   4  -4    0.00    0.30
  -3   4  -4   -0.20    0.30
  -3   4  -4    0.50    0.30
  -3   4  -4    0.40    0.30
   3  -4   4    0.10    0.20
   3  -4   4   -0.20    0.40
  -4   4  -4   68.19    2.00
  -4   4  -4   66.39    2.00
  -4   4  -4   68.99    2.00
  -4   4  -4   66.19    2.00
   4  -4   4   64.39    2.00
   4  -4   4   68.69    1.80
  -5   4  -4   41.30    1.40
  -5   4  -4   39.30    1.40
  -5   4  -4   41.70    1.50
  -5   4  -4   40.00    1.40
   5  -4   4   39.90    1.20
  -6   4  -4   16.30    1.00
  -6   4  -4   16.10    0.90
  -6   4  -4   16.30    1.10
  -6   4  -4   16.20    1.00
   6  -4   4   15.60    0.80
  -7   4  -4   19.80    1.00
  -7   4  -4   21.10    1.30
  -7   4  -4   22.40    1.10
   7  -4   4   20.90    1.00
  -8   4  -4   -0.10    0.40
  -8   4  -4    0.00    0.50
  -8   4  -4   -1.00    0.60
  -8   4  -4   -0.80    0.60
   8  -4   4    0.40    0.50
  -9   4  -4    0.30    0.40
  -9   4  -4    0.20    0.40
  -9   4  -4    0.60    0.70
  -9   4  -4   -1.10    0.80
 -10  -3   4   11.60    1.30
 -10  -3   4    9.50    1.10
   9   3  -4   25.20    1.50
  -9  -3   4   26.90    1.50
  -9  -3   4   25.20    1.30
   8   3  -4   34.10    1.60
  -8  -3   4   37.80    1.60
  -8  -3   4   34.60    1.40
   7   3  -4   56.19    1.90
  -7  -3   4   54.29    1.90
  -7  -3   4   55.09    1.70
   6   3  -4   55.09    1.80
  -6  -3   4   55.09    1.80
  -6  -3   4   54.79    1.60
   5   3  -4   34.50    1.30
  -5  -3   4   34.30    1.30
  -5  -3   4   34.00    1.00
  -5  -3   4   34.70    1.00
  -5  -3   4   34.20    1.00
  -5  -3   4   34.40    1.00
   4   3  -4   31.50    1.10
  -4  -3   4   29.90    1.10
  -4  -3   4   30.70    1.00
  -4  -3   4   28.00    1.00
   3   3  -4   -0.40    0.30
  -3  -3   4    0.30    0.10
  -3  -3   4    0.40    0.20
  -3  -3   4    0.00    0.30
  -3  -3   4    0.20    0.20
   2   3  -4   17.30    0.80
   2   3  -4   17.10    0.70
  -2  -3   4   17.00    0.70
  -2  -3   4   16.80    0.70
   1   3  -4   42.50    1.30
   1   3  -4   42.00    1.30
  -1  -3   4   39.60    1.30
  -1  -3   4   44.20    1.10
  -1  -3   4   41.30    1.20
  -1  -3   4   46.10    1.20
  -1  -3   4   43.20    1.30
   0   3  -4   17.00    0.80
   0   3  -4   16.70    0.70
   0  -3   4   16.30    0.70
   0  -3   4   17.30    0.70
   0  -3   4   17.10    0.60
  -1   3  -4  210.58    4.70
  -1   3  -4  180.68    4.50
  -1   3  -4  179.18    4.50
   1  -3   4  179.48    4.60
   1  -3   4  187.28    4.50
  -2   3  -4  984.90   22.20
  -2   3  -4  969.10   22.20
  -2   3  -4  967.30   22.30
  -2   3  -4  885.41   22.20
   2  -3   4  990.50   22.10
   2  -3   4  982.10   22.30
  -3   3  -4   99.39    2.60
  -3   3  -4   96.49    2.60
  -3   3  -4  101.79    2.70
   3  -3   4  100.79    2.50
   3  -3   4   99.19    2.60
  -4   3  -4   11.30    0.70
  -4   3  -4   10.10    0.70
  -4   3  -4    9.90    0.70
  -4   3  -4   11.00    0.70
   4  -3   4   10.90    0.70
   4  -3   4   10.80    0.60
  -5   3  -4   12.00    0.80
  -5   3  -4   12.70    0.90
  -5   3  -4   11.80    0.80
  -5   3  -4   11.70    0.80
   5  -3   4   11.20    0.70
  -6   3  -4    8.70    0.80
  -6   3  -4    9.50    0.70
  -6   3  -4    8.30    0.90
  -6   3  -4    7.30    0.70
   6  -3   4    8.00    0.70
  -7   3  -4   28.30    1.40
  -7   3  -4   29.10    1.20
  -7   3  -4   27.80    1.20
  -7   3  -4   29.20    1.30
   7  -3   4   29.70    1.20
  -8   3  -4   -0.60    0.80
  -8   3  -4    0.70    0.40
  -8   3  -4    0.50    0.40
  -8   3  -4    0.20    0.70
   8  -3   4    0.80    0.50
  -9   3  -4    4.90    0.90
  -9   3  -4    3.90    0.70
   9  -3   4    3.70    0.70
  10   2  -4   21.60    1.50
 -10  -2   4   16.40    1.30
 -10  -2   4   15.30    1.30
   9   2  -4    1.50    0.60
  -9  -2   4    0.10    0.60
  -9  -2   4   -0.20    0.50
   8   2  -4    0.00    0.50
  -8  -2   4    0.60    0.50
  -8  -2   4    1.00    0.50
   7   2  -4   12.90    1.00
  -7  -2   4   11.90    1.10
  -7  -2   4   13.00    0.80
   6   2  -4   47.10    1.60
  -6  -2   4   48.40    1.40
  -6  -2   4   48.00    1.60
   5   2  -4   33.30    1.20
  -5  -2   4   33.60    1.20
  -5  -2   4   34.80    1.00
  -5  -2   4   34.00    0.90
  -5  -2   4   34.20    1.00
   4   2  -4    2.60    0.40
  -4  -2   4    3.80    0.40
  -4  -2   4    3.00    0.30
  -4  -2   4    3.20    0.40
  -4  -2   4    3.20    0.40
   3   2  -4   28.60    1.00
  -3  -2   4   28.90    0.90
  -3  -2   4   27.80    1.00
  -3  -2   4   29.00    0.70
  -3  -2   4   28.60    0.90
   2   2  -4  355.66    8.40
   2   2  -4  358.16    8.40
  -2  -2   4  367.16    8.40
  -2  -2   4  356.56    8.40
   1   2  -4    9.80    0.60
   1   2  -4   10.50    0.60
  -1  -2   4   10.30    0.50
  -1  -2   4   10.20    0.50
  -1  -2   4   11.00    0.70
   0   2  -4  601.64   14.70
   0   2  -4  604.84   14.60
   0   2  -4  687.93   14.80
   0  -2   4  589.94   14.70
   0  -2   4  698.33   14.80
  -1   2  -4  102.69    2.50
  -1   2  -4  101.09    2.60
  -1   2  -4  104.59    2.60
   1  -2   4  106.09    2.60
   1  -2   4  101.79    2.60
  -2   2  -4   11.60    0.60
  -2   2  -4   11.30    0.60
  -2   2  -4   11.90    0.60
  -2   2  -4   11.50    0.60
   2  -2   4   10.90    0.60
   2  -2   4   11.60    0.60
  -3   2  -4   21.20    0.80
  -3   2  -4   20.80    0.80
  -3   2  -4   21.10    0.90
  -3   2  -4   17.80    0.80
   3  -2   4   21.50    0.90
   3  -2   4   22.30    0.80
  -4   2  -4  283.87    6.70
  -4   2  -4  278.27    6.80
  -4   2  -4  278.27    6.70
  -4   2  -4  279.07    6.70
   4  -2   4  282.47    6.70
  -5   2  -4   32.50    1.20
  -5   2  -4   31.50    1.30
  -5   2  -4   32.20    1.10
   5  -2   4   32.10    1.10
  -6   2  -4  121.69    3.60
  -6   2  -4  117.29    3.30
  -6   2  -4  128.09    3.20
  -6   2  -4  123.39    3.20
   6  -2   4  124.79    3.20
  -7   2  -4    7.20    0.70
  -7   2  -4    6.50    0.80
  -7   2  -4    6.30    0.60
  -7   2  -4    4.40    0.70
   7  -2   4    5.10    0.60
  -8   2  -4    0.70    0.40
  -8   2  -4    1.60    0.40
  -8   2  -4    1.50    0.50
  -8   2  -4    1.30    0.60
  -9   2  -4   11.10    1.00
  -9   2  -4    8.80    1.00
   9  -2   4    7.20    1.00
  10   1  -4    0.80    0.60
  10   1  -4    1.30    0.70
 -10  -1   4   -0.20    0.60
  -9  -1   4    1.00    0.50
  -9  -1   4    1.10    0.60
  -9  -1   4    1.60    0.60
  -8  -1   4   69.19    2.30
  -8  -1   4   71.49    2.10
  -8  -1   4   68.89    2.20
  -7  -1   4  121.09    3.30
  -7  -1   4  115.99    3.20
  -7  -1   4  117.69    3.10
  -6  -1   4  279.67    6.70
  -6  -1   4  286.27    6.90
  -6  -1   4  284.07    6.90
  -5  -1   4    5.70    0.40
  -5  -1   4    5.10    0.60
  -5  -1   4    5.50    0.60
  -4  -1   4   96.49    2.50
  -4  -1   4   96.79    2.40
  -4  -1   4   97.09    2.50
  -4  -1   4   98.19    2.60
  -4  -1   4   98.79    2.40
   3   1  -4    3.90    0.30
  -3  -1   4    3.70    0.40
  -3  -1   4    3.80    0.40
  -3  -1   4    4.10    0.50
  -3  -1   4    3.30    0.30
   2   1  -4  364.36    8.50
   2   1  -4  366.16    8.40
  -2  -1   4  372.76    8.50
  -2  -1   4  375.66    8.50
  -2  -1   4  332.57    8.40
   1   1  -4 1338.37   30.70
   1   1  -4 1345.57   30.50
   1   1  -4 1342.57   30.70
  -1  -1   4 1312.17   30.50
  -1  -1   4 1323.67   30.80
  -1  -1   4 1382.66   30.90
  -1  -1   4 1325.07   30.70
   0   1  -4   10.40    0.40
   0   1  -4    9.80    0.50
   0   1  -4   10.10    0.60
   0  -1   4   10.10    0.50
   0  -1   4    9.80    0.50
  -1   1  -4   19.40    0.70
  -1   1  -4   18.00    0.80
  -1   1  -4   20.70    0.80
  -1   1  -4   20.90    0.70
   1  -1   4   20.80    0.70
   1  -1   4   20.20    0.70
  -2   1  -4   41.20    1.30
  -2   1  -4   43.60    1.40
   2  -1   4   41.30    1.20
   2  -1   4   42.90    1.30
  -3   1  -4   17.90    0.70
  -3   1  -4   17.90    0.60
  -3   1  -4   18.30    0.80
  -3   1  -4   17.80    0.70
   3  -1   4   17.90    0.70
   3  -1   4   18.10    0.70
  -4   1  -4   11.00    0.70
  -4   1  -4   11.20    0.70
  -4   1  -4   10.00    0.50
  -4   1  -4   11.30    0.70
   4  -1   4   11.00    0.70
  -5   1  -4  175.18    4.40
  -5   1  -4  172.88    4.20
  -5   1  -4  168.98    4.20
  -5   1  -4  166.98    4.20
   5  -1   4  168.78    4.30
  -6   1  -4  343.07    8.20
  -6   1  -4  345.57    8.20
   6  -1   4  341.77    8.30
  -7   1  -4    2.70    0.40
  -7   1  -4    2.40    0.40
  -7   1  -4    2.80    0.60
  -7   1  -4    2.60    0.50
   7  -1   4    2.60    0.50
  -8   1  -4   40.10    1.30
  -8   1  -4   42.70    1.80
  -8   1  -4   41.50    1.30
  -8   1  -4   39.40    1.40
   8  -1   4   41.50    1.60
  -9   1  -4   -1.20    0.60
   9  -1   4   -0.30    0.60
  10   0  -4    1.40    0.70
 -10   0   4    1.00    0.80
 -10   0   4    0.70    0.70
   9   0  -4   26.10    1.30
  -9   0   4   25.80    1.50
  -9   0   4   25.90    1.30
   8   0  -4   14.10    0.90
  -8   0   4   11.40    0.90
  -8   0   4   11.90    1.00
   7   0  -4   11.70    0.80
  -7   0   4   12.50    0.80
  -7   0   4   13.80    1.00
   6   0  -4    0.80    0.30
  -6   0   4    0.50    0.40
  -6   0   4    0.50    0.40
   5   0  -4    0.10    0.20
  -5   0   4    0.60    0.30
  -5   0   4    0.00    0.30
  -5   0   4    0.10    0.20
   4   0  -4  512.95   11.80
  -4   0   4  508.55   11.90
  -4   0   4  515.15   11.80
  -4   0   4  513.35   12.00
  -4   0   4  510.05   11.80
   3   0  -4   60.99    1.50
  -3   0   4   58.89    1.70
  -3   0   4   61.29    1.60
  -3   0   4   61.19    1.60
  -3   0   4   60.99    1.60
   2   0  -4   87.59    2.30
   2   0  -4   95.19    2.20
  -2   0   4   91.29    2.30
  -2   0   4   93.19    2.30
  -2   0   4   92.39    2.30
   1   0  -4   96.89    2.20
   1   0  -4   92.69    2.30
  -1   0   4   86.89    2.40
  -1   0   4   84.99    2.30
  -1   0   4   96.49    2.30
  -1   0   4   95.19    2.30
   0   0  -4 1481.75   34.30
   0   0  -4 1509.95   34.40
   0   0  -4 1498.85   34.30
   0   0   4 1501.75   34.40
   0   0   4 1504.95   34.40
  -1   0  -4   46.10    1.10
  -1   0  -4   43.80    1.30
  -1   0  -4   44.30    1.20
  -1   0  -4   41.40    1.30
   1   0   4   44.70    1.30
   1   0   4   44.20    1.30
  -2   0  -4  306.67    6.90
  -2   0  -4  295.47    7.10
  -2   0  -4  302.87    7.10
   2   0   4  298.67    7.10
   2   0   4  297.57    7.10
  -3   0  -4   70.69    1.80
  -3   0  -4   71.19    2.00
  -3   0  -4   70.69    1.90
  -3   0  -4   73.99    1.90
   3   0   4   70.19    1.90
   3   0   4   70.89    1.90
  -4   0  -4   70.59    1.90
  -4   0  -4   70.59    1.90
  -4   0  -4   72.29    2.00
  -4   0  -4   71.79    2.00
   4   0   4   70.79    2.00
  -5   0  -4   12.40    0.70
  -5   0  -4   11.10    0.80
  -5   0  -4    9.60    0.70
  -5   0  -4   10.30    0.60
   5   0   4   11.50    0.80
  -6   0  -4  184.88    5.10
  -6   0  -4  189.08    4.50
  -6   0  -4  184.18    4.60
   6   0   4  188.68    4.80
  -7   0  -4   25.50    1.00
  -7   0  -4   24.60    1.40
  -7   0  -4   24.70    1.00
  -7   0  -4   24.60    1.00
   7   0   4   24.50    1.50
  -8   0  -4  293.07    7.40
   8   0   4  287.47    7.30
  -9   0  -4    1.10    0.70
   9   0   4    1.00    0.60
  10  -1  -4    1.90    0.70
 -10   1   4    1.10    0.60
 -10   1   4    2.40    0.70
   9  -1  -4    2.20    0.60
  -9   1   4    1.90    0.60
   8  -1  -4   21.80    1.10
  -8   1   4   20.30    1.00
  -8   1   4   20.80    1.30
   7  -1  -4   58.79    1.80
  -7   1   4   59.29    1.80
  -7   1   4   59.99    2.00
   6  -1  -4   38.10    1.30
  -6   1   4   37.70    1.40
  -6   1   4   38.90    1.30
   5  -1  -4    8.10    0.60
  -5   1   4    8.40    0.40
  -5   1   4    8.30    0.70
  -5   1   4    8.90    0.40
  -5   1   4    9.70    0.60
   4  -1  -4   96.09    2.40
  -4   1   4   96.99    2.40
  -4   1   4   94.79    2.50
  -4   1   4   97.59    2.40
  -4   1   4   88.89    2.60
   3  -1  -4   14.10    0.60
  -3   1   4   14.60    0.60
  -3   1   4   14.20    0.60
  -3   1   4   14.40    0.70
  -3   1   4   13.80    0.60
   2  -1  -4    8.80    0.50
   2  -1  -4    8.70    0.50
  -2   1   4    8.80    0.40
  -2   1   4    9.20    0.50
  -2   1   4    8.50    0.50
   1  -1  -4  288.37    6.50
  -1   1   4  260.57    6.60
  -1   1   4  287.97    6.50
  -1   1   4  277.77    6.50
  -1   1   4  276.87    6.60
   0  -1  -4  114.39    2.70
   0  -1  -4   98.29    2.50
   0   1   4   96.49    2.60
   0   1   4   98.49    2.50
   0   1   4  114.69    2.70
  -1  -1  -4    5.40    0.50
  -1  -1  -4    5.30    0.40
  -1  -1  -4    5.40    0.50
  -1  -1  -4    5.10    0.30
  -1  -1  -4    5.20    0.30
   1   1   4    4.60    0.40
   1   1   4    5.20    0.50
  -2  -1  -4   21.20    0.80
  -2  -1  -4   20.90    0.80
   2   1   4   20.80    0.80
   2   1   4   21.00    0.80
  -3  -1  -4    3.40    0.50
  -3  -1  -4    3.30    0.50
  -3  -1  -4    3.10    0.40
   3   1   4    2.90    0.40
   3   1   4    3.20    0.40
  -4  -1  -4   11.50    0.60
  -4  -1  -4   11.00    0.60
  -4  -1  -4   11.90    0.70
   4   1   4   12.20    0.70
  -5  -1  -4    3.10    0.40
  -5  -1  -4    3.90    0.50
  -5  -1  -4    3.30    0.50
  -5  -1  -4    3.00    0.40
   5   1   4    2.40    0.50
  -6  -1  -4   50.99    1.60
  -6  -1  -4   52.19    1.80
  -6  -1  -4   51.99    1.40
  -6  -1  -4   53.19    1.60
   6   1   4   53.89    1.80
  -7  -1  -4    0.80    0.30
  -7  -1  -4    0.70    0.40
  -7  -1  -4   -0.50    0.50
   7   1   4    0.40    0.50
  -8  -1  -4    5.30    0.80
   8   1   4    5.30    0.80
  -9  -1  -4   56.69    2.30
   9   1   4   51.99    2.20
  10  -2  -4    1.10    0.70
 -10   2   4    0.20    0.80
   9  -2  -4    0.30    0.50
  -9   2   4    0.70    0.50
  -9   2   4    0.30    0.60
  -8   2   4   22.50    1.00
  -8   2   4   24.90    1.40
   7  -2  -4    3.60    0.50
  -7   2   4    3.60    0.40
   6  -2  -4   46.20    1.50
  -6   2   4   46.80    1.40
  -6   2   4   46.70    1.30
  -6   2   4   43.90    1.60
  -6   2   4   47.10    1.30
   5  -2  -4    0.00    0.30
  -5   2   4    0.00    0.30
  -5   2   4    0.00    0.20
  -5   2   4    0.30    0.30
  -5   2   4    0.30    0.20
   4  -2  -4   78.29    2.10
  -4   2   4   76.79    2.20
  -4   2   4   78.39    2.10
  -4   2   4   80.29    2.00
  -4   2   4   79.79    2.10
   3  -2  -4    0.40    0.30
   3  -2  -4    0.60    0.20
  -3   2   4   -0.10    0.20
  -3   2   4    0.20    0.30
  -3   2   4    0.30    0.20
  -3   2   4    0.10    0.20
   2  -2  -4  178.28    4.20
   2  -2  -4  169.08    4.30
  -2   2   4  175.18    4.30
  -2   2   4  178.18    4.40
  -2   2   4  179.68    4.30
  -2   2   4  183.88    4.20
   1  -2  -4  175.28    4.30
   1  -2  -4  180.38    4.20
  -1   2   4  175.28    4.20
  -1   2   4  174.68    4.30
  -1   2   4  178.78    4.20
   0  -2  -4  791.82   16.80
   0  -2  -4  666.03   16.50
   0   2   4  654.73   16.50
   0   2   4  667.43   16.50
   0   2   4  811.42   16.80
  -1  -2  -4   11.10    0.70
  -1  -2  -4    8.70    0.60
  -1  -2  -4    9.30    0.50
   1   2   4    9.00    0.50
   1   2   4    9.80    0.60
  -2  -2  -4    1.80    0.30
  -2  -2  -4    1.80    0.30
   2   2   4    1.80    0.30
   2   2   4    1.60    0.30
  -3  -2  -4    6.50    0.60
  -3  -2  -4    6.30    0.60
  -3  -2  -4    7.40    0.60
   3   2   4    6.30    0.60
   3   2   4    6.20    0.60
  -4  -2  -4    5.80    0.70
  -4  -2  -4    4.80    0.60
  -4  -2  -4    6.40    0.60
   4   2   4    5.90    0.60
  -5  -2  -4   19.00    0.90
  -5  -2  -4   18.40    0.90
  -5  -2  -4   17.60    1.00
   5   2   4   17.50    1.00
  -6  -2  -4    5.00    0.70
  -6  -2  -4    5.50    0.60
  -6  -2  -4    6.20    0.80
   6   2   4    6.20    0.80
  -7  -2  -4    0.80    0.40
  -7  -2  -4    0.90    0.60
  -7  -2  -4    1.00    0.30
   7   2   4    0.40    0.50
  -8  -2  -4   19.60    1.40
   8   2   4   17.60    1.30
  -9  -2  -4    6.50    1.00
   9   2   4    5.80    0.90
  10  -3  -4  123.99    3.60
 -10   3   4  120.79    3.70
   9  -3  -4   42.90    1.80
  -9   3   4   44.80    2.00
   8  -3  -4   13.20    1.00
  -8   3   4   15.20    0.80
  -8   3   4   15.60    1.20
   7  -3  -4   80.69    2.40
  -7   3   4   82.39    2.10
  -7   3   4   80.69    2.50
  -7   3   4   82.39    2.20
  -7   3   4   82.29    2.10
   6  -3  -4    1.80    0.40
  -6   3   4    2.90    0.50
  -6   3   4    2.30    0.40
  -6   3   4    2.00    0.30
  -6   3   4    2.50    0.40
   5  -3  -4   13.70    0.80
  -5   3   4   13.50    0.60
  -5   3   4   13.70    0.70
  -5   3   4   14.40    0.70
  -5   3   4   14.00    0.90
   4  -3  -4  165.98    4.10
  -4   3   4  164.98    4.20
  -4   3   4  168.18    4.00
  -4   3   4  165.98    4.10
  -4   3   4  162.78    4.10
   3  -3  -4    0.30    0.30
   3  -3  -4    0.50    0.30
  -3   3   4    0.00    0.30
  -3   3   4    0.90    0.20
  -3   3   4    0.50    0.30
  -3   3   4    0.30    0.30
   2  -3  -4    1.30    0.30
   2  -3  -4    1.80    0.30
  -2   3   4    1.80    0.30
  -2   3   4    2.00    0.40
  -2   3   4    1.80    0.20
  -2   3   4    1.20    0.30
   1  -3  -4  303.47    7.10
   1  -3  -4  293.57    7.20
  -1   3   4  304.57    7.00
  -1   3   4  298.27    7.20
  -1   3   4  300.67    7.00
   0  -3  -4   95.89    2.40
   0  -3  -4   91.19    2.50
   0   3   4   95.79    2.30
   0   3   4   95.39    2.40
   0   3   4   91.69    2.50
  -1  -3  -4  114.09    2.90
  -1  -3  -4  112.29    2.90
   1   3   4  111.39    2.90
   1   3   4  114.59    2.70
   1   3   4  114.39    2.90
  -2  -3  -4   46.80    1.50
  -2  -3  -4   50.19    1.50
  -2  -3  -4   50.99    1.50
   2   3   4   49.30    1.50
   2   3   4   50.89    1.50
  -3  -3  -4   29.90    1.10
  -3  -3  -4   29.00    1.10
  -3  -3  -4   28.80    1.10
   3   3   4   30.70    1.10
   3   3   4   28.90    1.10
  -4  -3  -4   38.70    1.40
  -4  -3  -4   40.50    1.40
  -4  -3  -4   38.40    1.30
   4   3   4   39.10    1.40
  -5  -3  -4    2.40    0.50
  -5  -3  -4    2.70    0.50
   5   3   4    2.30    0.60
  -6  -3  -4    0.30    0.40
  -6  -3  -4    0.10    0.40
  -6  -3  -4    0.50    0.30
   6   3   4    0.80    0.50
  -7  -3  -4    0.70    0.40
  -7  -3  -4    0.30    0.40
  -7  -3  -4    0.20    0.50
   7   3   4    0.40    0.50
  -8  -3  -4   -1.60    0.60
  -8  -3  -4   -0.10    0.30
  -8  -3  -4   -0.40    0.40
   8   3   4   -0.70    0.60
  -9  -3  -4    1.80    0.80
   9   3   4    2.50    0.80
  10  -4  -4   19.30    1.50
 -10   4   4   20.20    1.70
   9  -4  -4   42.40    1.80
  -9   4   4   44.60    2.00
   8  -4  -4  271.57    6.80
  -8   4   4  270.57    7.00
  -8   4   4  278.27    6.40
  -8   4   4  264.67    6.40
  -7   4   4   28.50    1.00
  -7   4   4   27.40    1.00
  -7   4   4   28.90    0.90
  -7   4   4   27.00    1.40
   6  -4  -4   25.20    1.20
  -6   4   4   26.50    0.80
  -6   4   4   24.50    1.10
  -6   4   4   27.90    1.40
  -6   4   4   26.00    1.00
   5  -4  -4   10.60    0.80
  -5   4   4   11.00    0.70
  -5   4   4   11.70    0.80
  -5   4   4   10.90    0.90
  -5   4   4   11.10    0.70
  -5   4   4   11.50    0.70
   4  -4  -4   69.79    2.10
   4  -4  -4   73.59    2.10
  -4   4   4   72.69    1.80
  -4   4   4   72.89    2.10
  -4   4   4   72.89    2.10
  -4   4   4   73.19    2.10
   3  -4  -4    1.90    0.40
   3  -4  -4    1.30    0.30
  -3   4   4    0.80    0.40
  -3   4   4    1.20    0.30
  -3   4   4    0.80    0.30
   2  -4  -4  124.39    3.30
   2  -4  -4  125.99    3.20
  -2   4   4  128.49    3.20
  -2   4   4  124.99    3.30
  -2   4   4  131.69    3.10
   1  -4  -4  284.27    7.20
   1  -4  -4  289.67    7.00
  -1   4   4  302.37    6.90
  -1   4   4  297.77    7.10
  -1   4   4  300.17    7.00
   0  -4  -4   18.30    0.90
   0  -4  -4   18.90    0.80
   0   4   4   19.10    0.80
   0   4   4   19.50    0.70
   0   4   4   17.50    1.00
  -1  -4  -4    0.00    0.30
  -1  -4  -4   -0.10    0.30
   1   4   4    0.40    0.30
   1   4   4    0.30    0.20
   1   4   4    0.10    0.30
  -2  -4  -4  404.36    9.70
  -2  -4  -4  410.76    9.70
  -2  -4  -4  412.06    9.70
   2   4   4  415.96    9.70
   2   4   4  395.96    9.70
  -3  -4  -4   14.40    0.80
  -3  -4  -4   12.70    0.80
  -3  -4  -4   10.80    0.80
   3   4   4   13.00    0.90
   3   4   4   14.00    0.80
  -4  -4  -4  253.07    6.20
  -4  -4  -4  248.28    6.20
  -4  -4  -4  255.97    6.20
   4   4   4  247.08    6.30
  -5  -4  -4   27.20    1.10
  -5  -4  -4   26.80    1.20
  -5  -4  -4   25.70    1.20
   5   4   4   25.90    1.30
  -6  -4  -4    2.60    0.60
  -6  -4  -4    3.50    0.50
  -6  -4  -4    3.10    0.50
   6   4   4    3.50    0.60
  -7  -4  -4   -0.50    0.60
  -7  -4  -4    0.10    0.40
  -7  -4  -4    0.30    0.40
   7   4   4   -0.10    0.60
  -8  -4  -4    3.40    0.50
  -8  -4  -4    3.30    0.50
  -8  -4  -4    4.50    0.80
   8   4   4    3.40    0.80
  10  -5  -4    3.00    0.80
 -10   5   4    3.00    0.90
   9  -5  -4    7.10    0.90
  -9   5   4    7.10    1.00
   8  -5  -4    9.10    1.00
  -8   5   4    9.10    0.70
  -8   5   4    8.30    0.70
  -8   5   4    8.00    1.00
   7  -5  -4    2.60    0.60
  -7   5   4    2.70    0.60
  -7   5   4    2.90    0.40
  -7   5   4    2.70    0.50
   6  -5  -4   99.59    3.20
  -6   5   4   95.39    2.70
  -6   5   4   93.09    2.80
  -6   5   4   93.59    2.60
   5  -5  -4   45.10    1.60
  -5   5   4   46.90    1.60
  -5   5   4   48.00    1.70
  -5   5   4   45.30    1.50
   4  -5  -4  108.79    2.90
   4  -5  -4  102.89    2.90
  -4   5   4  107.29    2.90
  -4   5   4  108.69    3.00
   3  -5  -4   51.29    1.70
   3  -5  -4   52.59    1.60
  -3   5   4   51.79    1.70
  -3   5   4   49.60    1.70
  -3   5   4   52.89    1.60
   2  -5  -4   26.50    1.10
   2  -5  -4   25.90    1.00
  -2   5   4   24.40    1.00
  -2   5   4   26.30    0.80
  -2   5   4   25.00    1.10
   1  -5  -4    4.40    0.50
   1  -5  -4    3.60    0.50
  -1   5   4    4.00    0.50
  -1   5   4    3.10    0.50
  -1   5   4    3.30    0.50
   0  -5  -4   67.39    2.10
   0  -5  -4   71.59    2.00
   0   5   4   71.89    1.90
   0   5   4   70.29    1.90
   0   5   4   69.59    2.10
  -1  -5  -4    1.60    0.40
  -1  -5  -4    2.00    0.40
   1   5   4    2.10    0.30
   1   5   4    1.90    0.40
   1   5   4    1.90    0.50
  -2  -5  -4  138.69    3.50
  -2  -5  -4  129.79    3.60
  -2  -5  -4  134.39    3.60
   2   5   4  135.19    3.60
   2   5   4  137.59    3.50
  -3  -5  -4    0.20    0.40
  -3  -5  -4    0.30    0.40
   3   5   4    0.50    0.40
   3   5   4    0.30    0.50
  -4  -5  -4  120.49    3.30
   4   5   4  115.79    3.70
  -5  -5  -4    2.90    0.50
  -5  -5  -4    2.40    0.60
   5   5   4    1.70    0.50
  -6  -5  -4   16.80    1.20
  -6  -5  -4   15.70    1.00
   6   5   4   15.80    1.20
  -7  -5  -4    1.00    0.50
  -7  -5  -4    0.60    0.60
   7   5   4    0.50    0.60
  -8  -5  -4    9.70    1.30
  -8  -5  -4    8.90    0.90
   8   5   4    8.90    1.00
   9  -6  -4   17.00    1.40
  -9   6   4   17.10    0.90
  -9   6   4   15.90    1.60
  -9   6   4   14.80    0.90
   8  -6  -4   12.80    1.20
  -8   6   4   12.70    1.30
  -8   6   4   10.00    0.90
   7  -6  -4    0.90    0.50
  -7   6   4    1.50    0.50
  -7   6   4    0.30    0.60
   6  -6  -4    2.20    0.50
  -6   6   4    2.40    0.60
  -6   6   4    3.00    0.50
  -5   6   4    0.30    0.50
   4  -6  -4  220.98    5.50
   4  -6  -4  217.78    5.50
  -4   6   4  219.38    5.50
  -4   6   4  226.28    5.60
  -4   6   4  211.78    5.50
  -4   6   4  215.78    5.50
   3  -6  -4   -0.40    0.50
   3  -6  -4    0.10    0.40
  -3   6   4    0.30    0.40
  -3   6   4    0.20    0.30
  -3   6   4   -0.20    0.40
   2  -6  -4    7.10    0.70
   2  -6  -4    5.30    0.80
  -2   6   4    6.50    0.70
  -2   6   4    6.70    0.80
  -2   6   4    5.90    0.50
   1  -6  -4   20.20    1.00
   1  -6  -4   20.00    1.00
  -1   6   4   19.30    1.10
  -1   6   4   19.60    0.80
  -1   6   4   19.60    0.90
   0  -6  -4   44.30    1.50
   0  -6  -4   45.30    1.60
   0   6   4   43.80    1.30
   0   6   4   46.40    1.40
   0   6   4   44.70    1.60
  -1  -6  -4   35.80    1.40
  -1  -6  -4   35.70    1.30
   1   6   4   34.60    1.10
   1   6   4   36.30    1.30
   1   6   4   31.70    2.00
  -2  -6  -4  284.87    7.10
  -2  -6  -4  285.17    7.00
   2   6   4  288.67    7.10
   2   6   4  281.17    7.00
  -3  -6  -4    0.90    0.40
  -3  -6  -4    1.60    0.70
   3   6   4    0.70    0.50
  -4  -6  -4    4.10    0.60
  -4  -6  -4    4.10    0.60
   4   6   4    4.40    0.70
  -5  -6  -4    8.70    0.90
  -5  -6  -4    7.50    1.00
   5   6   4    8.70    1.00
  -6  -6  -4    0.40    0.50
  -6  -6  -4    1.30    0.60
   6   6   4    0.20    0.60
  -7  -6  -4   -0.40    0.60
  -7  -6  -4   -0.70    0.50
   7   6   4    2.30    1.00
  -8  -6  -4   34.70    1.40
   8   6   4   32.90    2.00
   9  -7  -4   10.60    1.30
  -9   7   4    9.20    1.20
  -9   7   4   11.00    1.00
   8  -7  -4   -0.40    0.60
  -8   7   4   -0.60    0.80
  -8   7   4    0.10    0.50
   7  -7  -4    3.90    0.70
  -7   7   4    4.50    0.70
  -7   7   4    5.20    0.80
   6  -7  -4    1.90    0.60
  -6   7   4    1.50    0.60
  -6   7   4    2.40    0.60
   5  -7  -4    7.40    0.90
  -5   7   4    6.40    0.90
  -5   7   4    4.50    0.70
   4  -7  -4  154.78    4.30
   4  -7  -4  171.28    4.60
  -4   7   4  162.28    4.40
   3  -7  -4    1.30    0.50
   3  -7  -4    1.60    0.60
  -3   7   4    1.00    0.50
  -3   7   4    1.20    0.50
  -3   7   4    0.90    0.30
   2  -7  -4   61.79    1.90
   2  -7  -4   61.29    2.10
  -2   7   4   60.39    1.70
  -2   7   4   60.29    1.90
  -2   7   4   59.69    2.10
   1  -7  -4   27.90    1.30
   1  -7  -4   26.90    1.20
  -1   7   4   26.60    1.00
  -1   7   4   25.30    1.30
  -1   7   4   25.90    1.10
   0  -7  -4    4.10    0.50
   0  -7  -4    4.00    0.60
   0   7   4    3.40    0.60
   0   7   4    4.50    0.50
   0   7   4    4.50    0.60
  -1  -7  -4   55.09    1.80
  -1  -7  -4   53.09    1.90
   1   7   4   54.19    2.00
   1   7   4   54.49    1.80
   1   7   4   54.99    1.60
  -2  -7  -4    1.20    0.50
  -2  -7  -4    1.70    0.50
   2   7   4    2.50    0.70
   2   7   4    0.80    0.50
   2   7   4    2.20    0.40
  -3  -7  -4    3.70    0.60
  -3  -7  -4    2.80    0.50
   3   7   4    2.60    0.60
  -4  -7  -4    0.80    0.50
  -4  -7  -4    1.20    0.50
   4   7   4    1.00    0.60
  -5  -7  -4    3.90    0.70
  -5  -7  -4    3.30    0.70
   5   7   4    3.70    0.70
  -6  -7  -4    0.50    0.60
  -6  -7  -4    1.50    0.60
   6   7   4    1.00    1.00
  -7  -7  -4   72.39    2.70
  -7  -7  -4   67.99    3.30
   7   7   4   79.69    3.40
   8  -8  -4    1.60    0.80
  -8   8   4    1.00    0.70
  -8   8   4    0.10    0.80
   7  -8  -4   17.90    1.40
  -7   8   4   19.40    1.30
  -7   8   4   17.90    1.50
   6  -8  -4   14.80    1.20
  -6   8   4   12.60    1.20
  -6   8   4   13.00    1.30
   5  -8  -4   12.30    1.10
  -5   8   4   14.70    1.20
  -5   8   4   16.70    1.20
   4  -8  -4  104.49    3.10
  -4   8   4  112.69    3.20
  -4   8   4  109.69    3.30
   3  -8  -4  105.79    3.20
   3  -8  -4   98.39    3.00
  -3   8   4  100.69    3.10
  -3   8   4  103.79    2.50
   2  -8  -4    4.70    0.70
   2  -8  -4    7.80    1.20
  -2   8   4    4.90    0.60
  -2   8   4    4.20    0.70
  -2   8   4    4.30    0.60
   1  -8  -4    0.10    0.50
   1  -8  -4   -0.60    0.50
  -1   8   4   -0.30    0.40
  -1   8   4    0.70    0.40
  -1   8   4    0.50    0.70
   0  -8  -4   76.59    2.60
   0  -8  -4   79.79    2.40
   0   8   4   77.79    2.60
   0   8   4   82.39    2.30
   0   8   4   79.29    2.30
  -1  -8  -4    6.50    1.00
  -1  -8  -4    7.00    0.80
   1   8   4    7.10    0.90
   1   8   4    5.30    0.90
   1   8   4    6.10    0.70
  -2  -8  -4   28.50    1.30
  -2  -8  -4   29.90    1.50
   2   8   4   28.80    1.30
   2   8   4   27.70    1.00
  -3  -8  -4    4.00    0.70
  -3  -8  -4    4.70    0.70
   3   8   4    3.80    0.70
  -4  -8  -4   33.30    1.60
  -4  -8  -4   33.20    1.60
   4   8   4   33.30    1.60
  -5  -8  -4   22.80    1.40
  -5  -8  -4   24.20    1.40
   5   8   4   22.70    1.50
  -6  -8  -4   27.00    1.60
  -6  -8  -4   22.80    1.40
   6   8   4   28.10    1.80
   8  -9  -4    0.20    0.80
  -8   9   4   -0.40    0.80
  -8   9   4    1.50    0.80
   7  -9  -4    0.20    0.70
  -7   9   4    0.90    0.70
  -7   9   4   -0.90    0.70
   6  -9  -4    8.20    0.90
  -6   9   4    5.30    0.90
  -6   9   4    6.00    0.90
   5  -9  -4    6.90    0.80
  -5   9   4    8.30    1.20
  -5   9   4    5.80    0.80
   4  -9  -4    4.10    0.70
  -4   9   4    5.10    0.70
  -4   9   4    3.70    0.70
   3  -9  -4    2.20    0.90
   3  -9  -4    0.00    0.50
  -3   9   4    0.00    0.60
   2  -9  -4    2.70    0.60
   2  -9  -4    4.80    1.00
  -2   9   4    2.10    0.70
  -2   9   4    2.40    0.40
   1  -9  -4   10.70    1.00
   1  -9  -4   10.60    1.20
  -1   9   4   10.60    1.00
  -1   9   4   11.80    0.90
  -1   9   4   13.50    1.30
   0  -9  -4    3.60    0.80
   0  -9  -4    3.30    0.60
   0   9   4    3.10    0.60
   0   9   4    2.20    0.90
   0   9   4    3.50    0.60
  -1  -9  -4    4.60    1.10
  -1  -9  -4    2.30    0.60
   1   9   4    1.50    0.70
   1   9   4    2.80    0.50
   1   9   4    1.80    1.10
  -2  -9  -4   18.90    1.30
  -2  -9  -4   17.90    1.20
   2   9   4   18.90    1.20
   2   9   4   20.10    1.00
  -3  -9  -4    2.20    0.60
  -3  -9  -4    2.50    0.70
   3   9   4    1.40    0.70
  -4  -9  -4   13.60    1.30
  -4  -9  -4   13.80    1.30
   4   9   4   12.00    1.30
  -5  -9  -4    1.70    0.70
  -5  -9  -4    0.90    0.60
   5   9   4    1.10    0.80
   7 -10  -4    1.50    0.80
  -7  10   4    2.40    0.90
  -7  10   4    1.10    1.40
   6 -10  -4   14.60    1.70
  -6  10   4   13.80    1.50
  -6  10   4   13.40    1.50
   5 -10  -4    2.60    1.40
  -5  10   4    3.60    0.80
  -5  10   4    0.90    0.70
   4 -10  -4   70.09    2.50
  -4  10   4   73.89    2.50
  -4  10   4   67.09    2.60
   3 -10  -4   11.10    1.20
  -3  10   4    9.50    1.10
  -3  10   4    9.40    1.30
   2 -10  -4    1.60    0.60
   2 -10  -4    0.10    1.20
  -2  10   4    0.60    1.10
  -2  10   4    0.90    0.60
   1 -10  -4    0.10    0.70
  -1  10   4    0.30    0.50
  -1  10   4   -0.10    0.90
  -1  10   4   -0.60    0.50
   0 -10  -4   -0.10    0.50
   0  10   4    0.30    0.70
   0  10   4    0.10    0.60
   0  10   4    0.60    0.80
  -1 -10  -4    0.60    0.60
  -1 -10  -4    0.60    0.60
   1  10   4    1.40    0.60
   1  10   4   -1.10    0.50
  -2 -10  -4   20.10    1.50
  -2 -10  -4   18.40    1.40
   2  10   4   18.60    1.30
  -3 -10  -4    4.10    0.80
  -3 -10  -4    4.40    0.90
   3  10   4    4.60    0.80
  -4 -10  -4   -0.10    0.70
  -4 -10  -4    0.30    0.70
   4  10   4    0.00    0.70
   6 -11  -4   36.90    2.10
  -6  11   4   35.20    2.10
  -6  11   4   37.50    2.30
   5 -11  -4   59.79    2.50
  -5  11   4   55.79    2.50
  -5  11   4   52.09    2.30
   4 -11  -4    1.00    0.70
  -4  11   4    2.20    0.70
  -4  11   4    1.60    0.80
   3 -11  -4    1.20    1.00
  -3  11   4    0.40    0.70
  -3  11   4    2.20    1.00
   2 -11  -4   18.90    1.50
  -2  11   4   18.50    1.40
  -2  11   4   23.20    1.80
   1 -11  -4    1.40    0.90
   1 -11  -4    1.80    0.80
  -1  11   4    4.30    0.80
  -1  11   4    5.90    1.30
  -1  11   4    3.80    0.60
   0 -11  -4    6.30    0.90
   0  11   4    8.10    1.00
   0  11   4    5.20    0.70
  -1 -11  -4   15.70    1.40
  -1 -11  -4   16.10    1.50
   1  11   4   12.60    1.30
  -2 -11  -4   16.90    1.50
  -2 -11  -4   17.40    1.60
   2  11   4   13.60    1.40
  -3 -11  -4    7.60    1.00
  -3 -11  -4    8.80    1.10
   3  11   4    6.50    1.00
   4 -12  -4   12.90    1.80
  -4  12   4   13.50    1.90
  -4  12   4    9.80    1.20
   3 -12  -4    1.70    0.80
  -3  12   4    1.60    1.00
  -3  12   4    2.80    0.80
   2 -12  -4   18.30    1.60
  -2  12   4   14.60    1.50
  -2  12   4   18.00    2.00
   1 -12  -4    2.90    1.00
   1 -12  -4    4.20    0.90
  -1  12   4    3.10    0.90
   0 -12  -4    7.30    1.20
   0 -12  -4    6.40    1.00
   0  12   4    6.40    0.90
   0  12   4    6.50    0.90
  -1 -12  -4   11.50    1.60
  -1 -12  -4   13.40    1.50
   1  12   4   13.70    1.30
   3  12  -5    9.80    1.20
  -3 -12   5   14.80    1.30
  -3 -12   5   12.00    1.60
   2  12  -5    0.30    0.80
  -2 -12   5   -0.10    0.80
  -2 -12   5    0.20    0.70
   1  12  -5    6.00    1.00
  -1 -12   5    3.40    0.70
  -1 -12   5    4.90    0.70
  -1 -12   5    3.50    1.00
   0  12  -5    6.50    1.10
   0 -12   5    5.10    0.80
   0 -12   5    6.60    1.00
   0 -12   5    6.40    0.70
  -1  12  -5   11.30    1.20
   1 -12   5   11.40    1.30
   1 -12   5   15.10    1.70
  -2  12  -5    0.20    1.20
  -2  12  -5    1.60    1.00
   2 -12   5    0.70    0.70
  -3  12  -5   13.50    1.90
  -3  12  -5    9.20    1.10
   3 -12   5   12.40    1.30
   4  11  -5    0.20    0.80
  -4 -11   5   -0.40    0.60
  -4 -11   5    0.00    0.60
   3  11  -5    9.20    1.00
  -3 -11   5   11.00    1.40
  -3 -11   5   11.30    1.20
   2  11  -5    1.20    0.70
  -2 -11   5    0.40    0.60
  -2 -11   5    0.90    0.60
   1  11  -5   46.70    2.10
  -1 -11   5   46.50    1.80
  -1 -11   5   48.30    2.20
  -1 -11   5   45.70    1.70
   0  11  -5   38.10    1.80
   0 -11   5   35.70    1.70
   0 -11   5   38.90    1.60
   0 -11   5   36.40    1.90
  -1  11  -5    1.60    0.70
  -1  11  -5   -1.60    0.90
   1 -11   5    1.00    0.50
   1 -11   5    0.50    0.60
  -2  11  -5   51.39    2.40
  -2  11  -5   48.10    2.10
   2 -11   5   48.10    1.90
  -3  11  -5   17.10    1.70
  -3  11  -5   18.10    1.50
   3 -11   5   17.40    1.30
  -4  11  -5    3.70    0.90
  -4  11  -5    3.50    1.00
   4 -11   5    3.70    0.80
  -5  11  -5    6.50    1.00
  -5  11  -5    6.10    1.10
   5 -11   5    6.20    0.90
   6  10  -5    5.60    0.90
  -6 -10   5    6.70    0.90
  -6 -10   5    6.70    0.90
   5  10  -5    5.10    0.90
  -5 -10   5    6.90    0.90
  -5 -10   5    6.30    0.90
   4  10  -5   -0.70    0.60
  -4 -10   5    0.10    0.60
  -4 -10   5    0.00    0.60
   3  10  -5    1.10    0.70
  -3 -10   5    0.70    0.60
  -3 -10   5    0.00    0.50
  -3 -10   5    0.70    0.50
   2  10  -5   47.90    2.00
  -2 -10   5   49.80    2.10
  -2 -10   5   48.70    1.70
  -2 -10   5   51.89    1.80
   1  10  -5    0.20    0.60
  -1 -10   5    0.70    0.50
  -1 -10   5   -0.60    0.50
  -1 -10   5   -0.30    0.60
   0  10  -5    0.70    0.60
   0  10  -5    1.60    0.90
   0 -10   5    0.50    0.80
   0 -10   5    1.30    0.60
   0 -10   5    2.00    0.50
  -1  10  -5    5.30    0.80
  -1  10  -5    5.50    0.90
   1 -10   5    7.00    0.80
   1 -10   5    7.30    1.00
   1 -10   5    5.30    0.80
   1 -10   5    6.30    1.00
  -2  10  -5   21.10    1.50
  -2  10  -5   22.20    2.00
   2 -10   5   24.40    1.00
   2 -10   5   20.80    1.60
   2 -10   5   20.40    1.60
   2 -10   5   21.00    1.20
  -3  10  -5    1.20    0.70
  -3  10  -5    0.50    0.70
   3 -10   5    1.10    0.60
  -4  10  -5  126.69    4.00
  -4  10  -5  128.39    3.90
   4 -10   5  125.29    3.70
  -5  10  -5    0.90    0.80
  -5  10  -5    2.00    0.90
   5 -10   5    2.30    0.70
  -6  10  -5    0.50    0.80
  -6  10  -5    0.10    0.80
   6 -10   5   -0.60    0.70
   7   9  -5   -0.70    0.80
  -7  -9   5    1.40    0.70
  -7  -9   5    0.60    0.70
   6   9  -5   10.60    1.40
  -6  -9   5   12.40    1.60
  -6  -9   5   10.30    1.10
   5   9  -5   13.40    1.30
  -5  -9   5   11.70    1.10
  -5  -9   5   12.60    1.20
   4   9  -5   33.40    1.60
  -4  -9   5   33.40    1.50
  -4  -9   5   32.50    1.50
  -4  -9   5   31.70    1.20
   3   9  -5   38.40    1.70
  -3  -9   5   35.70    1.70
  -3  -9   5   37.50    1.60
  -3  -9   5   37.70    1.30
   2   9  -5    3.30    0.70
  -2  -9   5    2.90    0.60
  -2  -9   5    2.90    0.50
  -2  -9   5    2.60    0.60
   1   9  -5   11.10    1.10
   1   9  -5    8.90    1.30
  -1  -9   5   10.60    0.90
  -1  -9   5    9.90    1.10
  -1  -9   5    8.00    1.10
  -1  -9   5   10.80    0.80
   0   9  -5   -0.20    0.70
   0   9  -5   -0.10    0.50
   0  -9   5    0.50    0.50
   0  -9   5    0.90    0.60
   0  -9   5    0.60    0.40
  -1   9  -5    0.80    0.50
  -1   9  -5    1.60    0.70
   1  -9   5    1.60    0.50
   1  -9   5    1.10    0.40
   1  -9   5    1.10    0.60
  -2   9  -5    7.10    0.80
  -2   9  -5    8.00    1.00
   2  -9   5    6.40    0.80
   2  -9   5    7.30    0.70
  -3   9  -5   90.49    2.90
  -3   9  -5   89.19    3.10
   3  -9   5   89.09    2.70
  -4   9  -5    7.50    1.00
  -4   9  -5    8.60    1.20
   4  -9   5    8.60    1.00
  -5   9  -5   17.10    1.40
  -5   9  -5   16.30    1.40
   5  -9   5   17.70    1.30
  -6   9  -5   16.40    1.50
  -6   9  -5   14.50    1.40
   6  -9   5   14.20    1.40
  -7   9  -5    7.80    1.00
  -7   9  -5    8.80    1.10
   7  -9   5    8.90    1.10
   7   8  -5   11.20    1.40
  -7  -8   5   12.60    1.30
  -7  -8   5   12.90    1.00
   6   8  -5   18.90    1.30
  -6  -8   5   18.80    1.30
  -6  -8   5   18.80    1.10
   5   8  -5   81.09    2.60
  -5  -8   5   79.99    2.70
  -5  -8   5   81.99    2.60
  -5  -8   5   84.69    2.50
   4   8  -5  175.58    4.70
  -4  -8   5  181.58    4.70
  -4  -8   5  171.68    4.30
  -4  -8   5  177.48    4.70
   3   8  -5    4.40    0.70
  -3  -8   5    4.80    0.60
  -3  -8   5    4.90    0.70
  -3  -8   5    3.60    0.60
   2   8  -5    5.60    0.80
   2   8  -5    6.20    1.00
  -2  -8   5    5.80    0.70
  -2  -8   5    4.70    0.70
  -2  -8   5    7.30    0.60
   1   8  -5   13.80    1.20
  -1  -8   5   11.80    0.80
  -1  -8   5   10.70    1.00
  -1  -8   5   11.90    0.80
   0   8  -5   40.10    1.70
   0   8  -5   34.70    1.80
   0  -8   5   38.70    1.60
   0  -8   5   38.30    1.30
   0  -8   5   39.50    1.30
  -1   8  -5   47.60    1.80
  -1   8  -5   45.40    1.90
   1  -8   5   49.20    1.50
   1  -8   5   48.50    1.80
   1  -8   5   48.60    1.60
  -2   8  -5    0.10    0.50
  -2   8  -5    0.10    0.50
   2  -8   5    0.30    0.40
   2  -8   5    0.20    0.50
   2  -8   5    0.50    0.30
  -3   8  -5    1.30    0.60
  -3   8  -5    2.30    0.60
   3  -8   5    2.20    0.60
   3  -8   5    2.60    0.40
  -4   8  -5    1.70    0.60
  -4   8  -5    1.20    0.60
   4  -8   5    1.00    0.50
  -5   8  -5   24.90    1.50
  -5   8  -5   25.40    1.50
   5  -8   5   26.80    1.40
  -6   8  -5   94.19    3.10
  -6   8  -5   96.69    3.10
   6  -8   5   97.59    3.10
  -7   8  -5   -0.40    0.90
  -7   8  -5    0.80    0.70
   7  -8   5   -0.10    0.60
   8  -8   5  107.09    3.60
   8   7  -5   11.70    1.40
  -8  -7   5   14.10    0.80
  -8  -7   5   15.40    1.60
  -8  -7   5   14.10    0.80
   7   7  -5   -0.80    0.70
  -7  -7   5    1.60    0.70
  -7  -7   5    1.00    0.40
   6   7  -5    2.70    0.70
  -6  -7   5    3.60    0.50
  -6  -7   5    4.00    0.70
   5   7  -5    6.90    0.80
  -5  -7   5    8.60    0.90
  -5  -7   5    9.30    0.80
  -5  -7   5    8.10    0.70
  -4  -7   5    2.80    0.60
  -4  -7   5    2.60    0.50
  -4  -7   5    1.70    0.40
   3   7  -5    5.30    0.70
  -3  -7   5    4.40    0.60
  -3  -7   5    5.50    0.50
  -3  -7   5    5.30    0.80
   2   7  -5    0.20    0.40
   2   7  -5    1.20    0.50
  -2  -7   5    0.50    0.30
  -2  -7   5    0.60    0.40
  -2  -7   5    0.30    0.40
   1   7  -5   28.80    1.40
   1   7  -5   29.10    1.30
  -1  -7   5   29.20    1.30
  -1  -7   5   28.20    1.00
  -1  -7   5   28.60    1.10
   0   7  -5   59.29    2.00
   0   7  -5   61.99    2.10
   0  -7   5   58.79    1.80
   0  -7   5   59.49    2.00
   0  -7   5   60.29    1.70
  -1   7  -5   37.50    1.60
  -1   7  -5   37.00    1.50
   1  -7   5   37.00    1.30
   1  -7   5   38.20    1.50
   1  -7   5   38.50    1.20
  -2   7  -5   20.70    1.10
  -2   7  -5   21.20    1.20
   2  -7   5   20.60    0.90
   2  -7   5   20.10    1.20
   2  -7   5   19.40    1.00
  -3   7  -5    0.50    0.60
   3  -7   5    0.00    0.70
   3  -7   5    0.20    0.40
   3  -7   5   -0.30    0.30
  -4   7  -5   -0.60    0.50
   4  -7   5    0.10    0.30
   4  -7   5    0.10    0.40
  -5   7  -5   14.10    1.20
  -5   7  -5   13.10    1.20
   5  -7   5   14.60    1.10
  -6   7  -5   22.60    1.40
  -6   7  -5   19.90    1.40
   6  -7   5   20.50    1.30
  -7   7  -5   54.39    2.20
  -7   7  -5   52.59    2.10
   7  -7   5   55.59    2.20
  -8   7  -5   54.39    2.30
  -8   7  -5   56.59    2.30
   8  -7   5   60.19    2.40
   9   6  -5    0.00    0.70
  -9  -6   5   -0.90    0.70
   8   6  -5    4.20    0.80
  -8  -6   5    6.40    0.90
   7   6  -5   -0.30    0.50
  -7  -6   5    0.30    0.50
  -7  -6   5   -0.70    0.30
  -7  -6   5   -0.20    0.50
   6   6  -5   -0.10    0.50
  -6  -6   5    0.90    0.40
  -6  -6   5    0.20    0.50
  -6  -6   5    0.50    0.50
   5   6  -5    2.10    0.60
  -5  -6   5    1.70    0.40
  -5  -6   5    0.60    0.50
  -5  -6   5    1.30    0.50
  -5  -6   5    1.80    0.40
   4   6  -5   19.70    1.10
  -4  -6   5   18.30    1.10
  -4  -6   5   18.20    1.20
  -4  -6   5   19.40    1.20
  -4  -6   5   17.80    0.70
   3   6  -5    1.50    0.50
   3   6  -5    0.50    0.50
  -3  -6   5    0.60    0.40
  -3  -6   5    0.60    0.30
  -3  -6   5    0.40    0.40
   2   6  -5    5.90    0.80
   2   6  -5    5.90    0.90
  -2  -6   5    6.50    0.70
  -2  -6   5    6.50    0.90
  -2  -6   5    5.70    0.40
  -2  -6   5    6.40    0.70
   1   6  -5   10.50    0.80
   1   6  -5   11.70    0.90
  -1  -6   5   10.80    0.70
  -1  -6   5    9.70    0.80
  -1  -6   5   10.40    0.60
   0   6  -5   59.19    1.90
   0   6  -5   58.19    2.00
   0  -6   5   61.59    1.80
   0  -6   5   62.49    1.70
   0  -6   5   61.19    1.90
  -1   6  -5    2.90    0.60
  -1   6  -5    2.50    0.50
   1  -6   5    1.90    0.30
   1  -6   5    2.00    0.30
   1  -6   5    2.90    0.50
  -2   6  -5    8.50    0.80
  -2   6  -5    9.90    0.90
   2  -6   5    9.80    0.60
   2  -6   5    9.60    0.70
   2  -6   5    9.50    0.80
  -3   6  -5    4.00    0.60
  -3   6  -5    3.80    0.60
   3  -6   5    2.90    0.50
   3  -6   5    2.70    0.40
   3  -6   5    3.60    0.40
  -4   6  -5    4.50    0.60
  -4   6  -5    4.00    0.60
   4  -6   5    4.30    0.40
   4  -6   5    6.80    0.90
   4  -6   5    4.80    0.60
  -5   6  -5    1.40    0.60
  -5   6  -5    1.70    0.50
   5  -6   5    1.60    0.50
   5  -6   5    2.30    0.40
  -6   6  -5   15.90    1.20
  -6   6  -5   16.30    1.10
   6  -6   5   14.70    1.10
  -7   6  -5    2.50    0.70
  -7   6  -5    2.60    0.60
   7  -6   5    1.60    0.60
  -8   6  -5   14.00    1.20
  -8   6  -5   17.00    1.30
   8  -6   5   15.00    1.50
   9   5  -5   27.70    1.60
  -9  -5   5   26.30    1.70
   8   5  -5    0.40    0.60
  -8  -5   5    0.30    0.60
   7   5  -5   11.20    1.00
  -7  -5   5   11.60    1.10
  -7  -5   5    9.40    0.70
  -7  -5   5   10.60    0.80
  -7  -5   5    9.10    0.60
   6   5  -5    1.30    0.70
  -6  -5   5    0.60    0.30
  -6  -5   5    0.30    0.40
  -6  -5   5    0.30    0.50
  -6  -5   5    0.90    0.40
   5   5  -5   15.10    1.00
  -5  -5   5   15.80    0.70
  -5  -5   5   14.90    0.90
   4   5  -5   15.70    1.00
  -4  -5   5   14.90    0.80
  -4  -5   5   15.10    0.90
  -4  -5   5   15.70    0.90
   3   5  -5    3.90    0.50
   3   5  -5    5.20    0.60
  -3  -5   5    5.20    0.60
  -3  -5   5    5.20    0.70
  -3  -5   5    4.70    0.60
  -3  -5   5    4.30    0.30
   2   5  -5   12.30    0.80
   2   5  -5   11.90    0.80
  -2  -5   5   11.10    0.70
  -2  -5   5   10.20    0.70
  -2  -5   5   10.30    0.80
  -2  -5   5   11.70    0.50
   1   5  -5  161.48    4.10
   1   5  -5  162.28    4.20
  -1  -5   5  163.68    3.90
  -1  -5   5  165.98    4.10
  -1  -5   5  161.68    4.20
   0   5  -5   22.80    1.00
   0   5  -5   24.00    1.10
   0  -5   5   23.90    0.90
   0  -5   5   23.30    0.80
   0  -5   5   22.60    1.00
  -1   5  -5  117.69    3.10
  -1   5  -5  116.89    3.20
   1  -5   5  120.59    3.20
   1  -5   5  119.79    3.00
   1  -5   5  117.69    3.00
  -2   5  -5   28.80    1.10
  -2   5  -5   28.10    1.20
   2  -5   5   28.80    1.20
   2  -5   5   27.40    1.00
   2  -5   5   27.40    0.90
  -3   5  -5    0.50    0.40
  -3   5  -5    0.10    0.40
   3  -5   5    0.60    0.40
   3  -5   5    0.30    0.30
   3  -5   5    0.10    0.30
  -4   5  -5    3.20    0.50
  -4   5  -5    3.00    0.50
  -4   5  -5    3.10    0.50
  -4   5  -5    2.60    0.50
   4  -5   5    2.80    0.40
   4  -5   5    2.90    0.50
  -5   5  -5   17.90    1.20
  -5   5  -5   15.70    1.00
  -5   5  -5   16.00    1.00
   5  -5   5   15.90    0.80
  -6   5  -5   29.50    1.40
  -6   5  -5   29.50    1.70
  -6   5  -5   33.40    1.50
   6  -5   5   31.00    1.10
  -7   5  -5    5.30    0.70
  -7   5  -5    5.90    0.90
  -7   5  -5    4.40    0.70
   7  -5   5    5.60    0.60
  -8   5  -5    0.00    0.60
  -8   5  -5    0.80    0.70
  -8   5  -5    0.80    0.90
  -9   5  -5    1.10    0.60
  -9   5  -5    0.70    0.80
   9  -5   5    1.90    1.00
   9   4  -5   24.80    1.50
  -9  -4   5   26.60    1.60
   8   4  -5  131.29    3.70
  -8  -4   5  133.59    3.80
  -8  -4   5  131.29    3.40
   7   4  -5    0.40    0.60
  -7  -4   5    0.80    0.50
  -7  -4   5    0.80    0.40
   6   4  -5    0.70    0.50
  -6  -4   5    0.00    0.30
  -6  -4   5   -0.20    0.40
  -6  -4   5   -0.40    0.30
  -6  -4   5    0.30    0.30
   5   4  -5    7.10    0.80
  -5  -4   5    8.40    0.80
  -5  -4   5    7.70    0.50
  -5  -4   5    7.10    0.70
  -5  -4   5    7.40    0.60
   4   4  -5    5.10    0.70
  -4  -4   5    5.10    0.50
  -4  -4   5    5.30    0.60
  -4  -4   5    4.50    0.30
  -4  -4   5    5.20    0.60
   3   4  -5   -0.30    0.30
   3   4  -5   -0.30    0.40
  -3  -4   5   -0.10    0.30
  -3  -4   5    0.20    0.30
  -3  -4   5   -0.30    0.30
   2   4  -5  157.58    4.00
   2   4  -5  157.18    4.00
  -2  -4   5  163.18    4.00
  -2  -4   5  154.38    4.00
  -2  -4   5  162.18    4.00
   1   4  -5   30.50    1.10
   1   4  -5   30.70    1.10
  -1  -4   5   32.30    0.80
  -1  -4   5   30.80    1.00
  -1  -4   5   30.50    1.10
   0   4  -5   39.20    1.30
   0  -4   5   37.70    1.20
   0  -4   5   39.00    1.10
  -1   4  -5  128.99    3.30
  -1   4  -5  129.49    3.40
   1  -4   5  129.59    3.40
   1  -4   5  129.99    3.20
   1  -4   5  131.19    3.20
  -2   4  -5  313.07    7.60
  -2   4  -5  315.97    7.60
  -2   4  -5  313.77    7.50
   2  -4   5  313.67    7.60
   2  -4   5  320.17    7.50
  -3   4  -5  114.69    3.00
  -3   4  -5  111.39    2.90
  -3   4  -5  103.09    3.00
  -3   4  -5  117.09    3.10
   3  -4   5  114.89    2.80
   3  -4   5  113.09    3.00
  -4   4  -5  154.78    4.00
  -4   4  -5  155.48    4.00
  -4   4  -5  151.98    4.00
   4  -4   5  160.18    3.90
   4  -4   5  154.68    4.00
  -5   4  -5   14.50    1.20
  -5   4  -5   14.70    1.00
  -5   4  -5   13.40    0.90
   5  -4   5   13.90    0.80
  -6   4  -5    0.50    0.40
  -6   4  -5   -0.50    0.40
  -6   4  -5    0.10    0.60
  -6   4  -5   -0.70    0.40
   6  -4   5    0.50    0.40
  -7   4  -5    1.30    0.60
  -7   4  -5    0.50    0.40
   7  -4   5    0.60    0.40
  -8   4  -5    1.70    0.50
  -8   4  -5   -0.40    0.60
  -8   4  -5    1.90    0.70
   8  -4   5    1.00    0.50
  -9   4  -5   23.50    1.40
  -9   4  -5   26.00    2.30
  -9   4  -5   28.90    1.60
  10   3  -5   16.70    1.50
 -10  -3   5   13.80    1.40
   9   3  -5    7.40    0.90
  -9  -3   5    8.20    0.90
  -9  -3   5    7.00    0.80
   8   3  -5   72.39    2.40
  -8  -3   5   71.99    2.10
  -8  -3   5   74.19    2.40
  -7  -3   5   14.10    0.80
  -7  -3   5   14.60    1.00
   6   3  -5  163.08    4.30
  -6  -3   5  165.68    3.90
  -6  -3   5  160.98    4.00
  -6  -3   5  162.38    3.90
  -6  -3   5  165.28    4.30
   5   3  -5  242.78    5.90
  -5  -3   5  234.78    5.90
  -5  -3   5  235.08    5.60
  -5  -3   5  235.48    5.70
  -5  -3   5  241.88    5.70
   4   3  -5    0.30    0.40
  -4  -3   5    0.20    0.30
  -4  -3   5   -0.10    0.30
  -4  -3   5    0.10    0.30
   3   3  -5   37.50    1.20
   3   3  -5   37.40    1.30
  -3  -3   5   37.80    1.20
  -3  -3   5   38.40    1.20
  -3  -3   5   37.40    1.20
   2   3  -5   11.90    0.70
   2   3  -5   11.90    0.70
  -2  -3   5   11.50    0.60
  -2  -3   5   11.40    0.60
   1   3  -5   15.10    0.70
   1   3  -5   14.60    0.70
  -1  -3   5   15.40    0.50
  -1  -3   5   14.40    0.70
  -1  -3   5   16.10    0.70
  -1  -3   5   15.30    0.50
   0   3  -5  135.79    3.60
   0   3  -5  171.78    3.90
   0   3  -5  137.29    3.50
   0  -3   5  138.29    3.60
  -1   3  -5  106.79    2.70
  -1   3  -5  103.29    2.80
  -1   3  -5  108.39    2.60
   1  -3   5  106.09    2.70
   1  -3   5  105.39    2.80
  -2   3  -5   28.40    1.00
  -2   3  -5   27.50    1.10
  -2   3  -5   29.50    1.00
   2  -3   5   34.80    1.20
   2  -3   5   29.80    1.00
  -3   3  -5   16.40    0.80
  -3   3  -5   14.70    0.90
  -3   3  -5   16.20    0.80
  -3   3  -5   16.60    0.80
   3  -3   5   15.50    0.80
   3  -3   5   16.00    0.70
  -4   3  -5  158.58    4.00
  -4   3  -5  153.18    3.90
  -4   3  -5  155.68    4.00
  -4   3  -5  154.28    4.00
   4  -3   5  151.58    4.00
   4  -3   5  154.08    3.90
  -5   3  -5    0.60    0.40
  -5   3  -5    0.40    0.40
  -5   3  -5    0.90    0.40
  -5   3  -5    0.90    0.40
   5  -3   5    0.40    0.30
  -6   3  -5   11.20    0.80
  -6   3  -5   10.80    0.80
  -6   3  -5   10.50    1.00
  -6   3  -5   10.80    0.80
   6  -3   5    9.90    0.80
  -7   3  -5    4.30    0.60
  -7   3  -5    5.40    0.70
  -7   3  -5    3.20    0.60
  -7   3  -5    5.50    0.70
   7  -3   5    4.20    0.60
  -8   3  -5    2.90    0.70
  -8   3  -5    3.60    0.50
  -8   3  -5    2.80    0.50
  -9   3  -5    2.60    0.50
  -9   3  -5    2.20    0.80
  -9   3  -5    2.70    0.50
  -9   3  -5    2.90    0.70
   9  -3   5    4.30    0.70
  10   2  -5    0.30    0.70
  10   2  -5    1.30    0.70
 -10  -2   5   -0.20    0.60
   9   2  -5    0.60    0.60
   9   2  -5    0.30    0.50
  -9  -2   5   -0.20    0.50
   8   2  -5   22.10    1.20
  -8  -2   5   21.80    1.10
  -8  -2   5   21.20    1.20
  -7  -2   5    8.20    0.70
   6   2  -5   59.09    1.90
  -6  -2   5   59.19    1.90
  -6  -2   5   59.69    1.60
   5   2  -5   47.20    1.60
  -5  -2   5   48.50    1.60
  -5  -2   5   48.50    1.30
  -5  -2   5   48.50    1.40
  -5  -2   5   49.30    1.30
   4   2  -5    0.50    0.30
   4   2  -5    0.40    0.20
  -4  -2   5    0.40    0.20
  -4  -2   5    0.30    0.30
   3   2  -5  158.28    4.00
  -3  -2   5  159.78    3.90
  -3  -2   5  160.98    3.90
   2   2  -5  182.68    4.40
   2   2  -5  175.88    4.40
  -2  -2   5  180.88    4.40
  -2  -2   5  183.88    4.40
   1   2  -5  106.29    2.80
   1   2  -5  108.29    2.80
  -1  -2   5  108.89    2.80
  -1  -2   5  111.19    2.80
   0   2  -5  934.21   21.80
   0   2  -5  952.70   21.80
   0   2  -5  941.21   21.60
   0  -2   5  953.60   21.80
  -1   2  -5  134.79    3.30
  -1   2  -5  132.49    3.40
  -1   2  -5  131.99    3.20
   1  -2   5  133.39    3.40
   1  -2   5  135.19    3.30
  -2   2  -5    3.20    0.40
  -2   2  -5    2.50    0.30
  -2   2  -5    2.50    0.40
  -2   2  -5    1.90    0.40
   2  -2   5    3.10    0.40
   2  -2   5    2.60    0.40
  -3   2  -5   71.09    2.00
  -3   2  -5   73.49    1.90
  -3   2  -5   71.09    2.00
   3  -2   5   71.79    2.00
   3  -2   5   73.59    2.00
  -4   2  -5   24.30    1.00
  -4   2  -5   24.50    1.00
  -4   2  -5   22.80    1.00
  -4   2  -5   24.40    0.90
   4  -2   5   22.50    1.00
   4  -2   5   25.50    1.00
  -5   2  -5   22.80    1.00
  -5   2  -5   20.40    1.00
  -5   2  -5   21.40    0.90
  -5   2  -5   22.70    1.10
   5  -2   5   24.00    1.00
  -6   2  -5  194.98    4.80
  -6   2  -5  191.48    5.00
  -6   2  -5  197.58    4.90
  -6   2  -5  189.68    4.90
   6  -2   5  196.58    4.90
  -7   2  -5    0.80    0.50
  -7   2  -5    1.20    0.40
  -7   2  -5    1.20    0.50
  -7   2  -5    1.80    0.50
   7  -2   5    1.60    0.50
  -8   2  -5    4.90    0.80
  -8   2  -5    5.50    0.80
  -8   2  -5    6.30    0.70
   8  -2   5    6.20    0.70
  -9   2  -5    0.40    0.40
  -9   2  -5   -0.50    0.70
   9  -2   5    2.50    0.60
  10   1  -5    0.10    0.60
  10   1  -5    0.20    0.80
 -10  -1   5   -0.60    0.60
  -9  -1   5    0.10    0.60
  -9  -1   5    0.30    0.50
   8   1  -5    0.70    0.40
  -8  -1   5   -1.10    0.40
  -8  -1   5    0.10    0.60
   7   1  -5   80.09    2.20
  -7  -1   5   74.79    2.80
  -7  -1   5   79.29    2.30
   6   1  -5   13.60    0.70
  -6  -1   5   13.60    0.90
  -6  -1   5   13.00    1.00
   5   1  -5   25.60    0.80
  -5  -1   5   24.70    1.10
  -5  -1   5   24.10    0.80
  -5  -1   5   24.40    1.00
  -5  -1   5   24.80    0.80
   4   1  -5  383.56    8.90
  -4  -1   5  386.76    9.00
  -4  -1   5  378.56    9.10
  -4  -1   5  385.76    9.10
   3   1  -5   36.80    0.90
   3   1  -5   35.50    1.20
  -3  -1   5   37.20    1.10
  -3  -1   5   35.80    1.10
  -3  -1   5   36.20    1.10
   2   1  -5  572.54   13.10
   2   1  -5  551.24   13.10
  -2  -1   5  568.44   13.10
  -2  -1   5  569.84   13.10
   1   1  -5   79.59    1.90
   1   1  -5   78.89    2.00
   1   1  -5   79.79    2.10
  -1  -1   5   73.19    2.10
  -1  -1   5   77.59    2.10
  -1  -1   5   80.69    2.00
   0   1  -5  113.49    2.70
   0   1  -5  114.39    2.80
   0   1  -5  112.89    2.90
   0  -1   5  109.19    2.90
   0  -1   5  113.69    2.80
  -1   1  -5   80.59    2.10
  -1   1  -5   81.39    2.20
  -1   1  -5   80.79    2.00
   1  -1   5   79.59    2.20
   1  -1   5   81.79    2.10
  -2   1  -5   35.10    1.00
  -2   1  -5   32.20    1.10
  -2   1  -5   33.00    1.10
  -2   1  -5   34.00    1.10
   2  -1   5   34.40    1.10
   2  -1   5   34.10    1.10
  -3   1  -5   16.50    0.80
  -3   1  -5   16.00    0.60
  -3   1  -5   16.20    0.80
   3  -1   5   16.40    0.80
   3  -1   5   16.40    0.80
  -4   1  -5    7.70    0.50
  -4   1  -5    7.40    0.70
  -4   1  -5    7.90    0.60
  -4   1  -5    8.40    0.70
   4  -1   5    7.90    0.60
  -5   1  -5   51.79    1.60
  -5   1  -5   53.09    1.70
  -5   1  -5   47.30    1.80
  -5   1  -5   51.89    1.50
   5  -1   5   51.69    1.60
  -6   1  -5   11.40    0.70
  -6   1  -5   11.30    0.70
  -6   1  -5    8.60    0.80
  -6   1  -5    8.80    0.90
   6  -1   5   11.10    0.90
  -7   1  -5   18.30    1.20
  -7   1  -5   16.80    0.90
  -7   1  -5   16.30    0.90
  -7   1  -5   15.50    0.90
   7  -1   5   14.50    1.20
  -8   1  -5   70.29    2.40
  -8   1  -5   63.49    1.90
  -8   1  -5   66.19    1.90
   8  -1   5   65.89    2.20
  -9   1  -5   -0.40    0.80
   9  -1   5    1.70    0.70
  10   0  -5    2.00    0.70
 -10   0   5    0.80    0.70
 -10   0   5    1.50    0.70
   9   0  -5   20.60    1.20
  -9   0   5   19.50    1.10
  -9   0   5   18.40    1.40
   8   0  -5   31.10    1.20
  -8   0   5   28.80    1.30
  -8   0   5   28.50    1.40
   7   0  -5   26.20    1.00
  -7   0   5   25.10    1.10
   6   0  -5   78.39    2.10
  -6   0   5   80.59    2.40
  -6   0   5   80.79    2.30
   5   0  -5   37.40    1.10
  -5   0   5   36.00    1.10
  -5   0   5   35.60    1.30
  -5   0   5   37.10    1.10
  -5   0   5   36.20    1.20
   4   0  -5  325.97    7.40
  -4   0   5  320.37    7.40
  -4   0   5  309.17    7.60
  -4   0   5  318.37    7.50
  -4   0   5  305.67    7.40
   3   0  -5   36.80    1.20
   3   0  -5   36.40    1.00
  -3   0   5   37.20    1.10
  -3   0   5   35.90    1.20
  -3   0   5   37.00    1.10
  -3   0   5   35.60    1.10
   2   0  -5  691.93   16.70
   2   0  -5  748.33   16.60
  -2   0   5  716.43   16.70
  -2   0   5  738.03   16.70
  -2   0   5  721.03   16.70
   1   0  -5   28.90    0.80
   1   0  -5   33.20    1.10
   1   0  -5   25.90    0.90
  -1   0   5   27.30    0.90
  -1   0   5   26.90    1.00
  -1   0   5   32.70    1.10
   0   0  -5  311.97    7.20
   0   0  -5  309.37    7.20
   0   0   5  313.57    7.30
   0   0   5  302.87    7.30
  -1   0  -5  126.69    3.00
  -1   0  -5  120.09    3.10
  -1   0  -5  124.89    3.10
   1   0   5  126.99    3.10
   1   0   5  122.59    3.10
  -2   0  -5  224.68    5.40
  -2   0  -5  233.58    5.30
  -2   0  -5  215.18    5.50
  -2   0  -5  218.28    5.40
   2   0   5  227.88    5.40
   2   0   5  229.98    5.50
  -3   0  -5   55.59    1.60
  -3   0  -5   51.69    1.60
  -3   0  -5   56.29    1.60
  -3   0  -5   57.69    1.40
   3   0   5   55.99    1.60
   3   0   5   55.59    1.60
  -4   0  -5   99.89    2.70
  -4   0  -5   98.19    2.70
  -4   0  -5   97.29    2.60
   4   0   5  100.49    2.70
  -5   0  -5    2.50    0.50
  -5   0  -5    3.10    0.50
  -5   0  -5    3.20    0.40
  -5   0  -5    2.90    0.40
   5   0   5    3.10    0.50
  -6   0  -5    6.30    0.70
  -6   0  -5    6.70    0.60
  -6   0  -5    7.10    0.90
  -6   0  -5    7.30    0.70
   6   0   5    7.80    0.90
  -7   0  -5    0.00    0.40
  -7   0  -5    1.00    0.50
  -7   0  -5    0.60    0.40
   7   0   5   -0.20    0.50
  -8   0  -5    0.80    0.60
  -8   0  -5    0.10    0.40
  -8   0  -5    0.40    0.40
   8   0   5    0.30    0.60
  -9   0  -5   24.90    1.60
   9   0   5   19.90    1.40
  10  -1  -5    1.10    0.60
 -10   1   5    0.00    0.80
 -10   1   5    0.20    0.60
   9  -1  -5    4.00    0.60
  -9   1   5    3.80    0.70
  -9   1   5    2.40    0.70
   8  -1  -5    0.10    0.40
  -8   1   5   -0.10    0.40
  -8   1   5    0.70    0.60
   7  -1  -5    1.30    0.40
  -7   1   5    0.90    0.40
   6  -1  -5   22.70    0.90
  -6   1   5   23.00    0.70
  -6   1   5   22.20    0.90
  -6   1   5   21.90    0.70
  -6   1   5   22.40    1.10
   5  -1  -5  134.89    3.30
  -5   1   5  129.89    3.50
  -5   1   5  133.69    3.40
  -5   1   5  135.09    3.30
  -5   1   5  134.69    3.30
   4  -1  -5   95.39    2.40
  -4   1   5   95.59    2.40
  -4   1   5   94.69    2.40
  -4   1   5   94.79    2.40
  -4   1   5   92.59    2.50
   3  -1  -5   37.50    1.20
   3  -1  -5   38.10    1.10
  -3   1   5   39.10    1.10
  -3   1   5   38.10    1.20
  -3   1   5   37.90    1.20
  -3   1   5   37.90    1.20
   2  -1  -5   41.30    1.30
   2  -1  -5   41.50    1.10
  -2   1   5   40.10    1.40
  -2   1   5   41.40    1.20
  -2   1   5   41.10    1.40
   1  -1  -5    1.90    0.20
   1  -1  -5    2.10    0.40
  -1   1   5    1.50    0.30
  -1   1   5    1.80    0.30
  -1   1   5    1.90    0.30
   0  -1  -5    0.50    0.50
   0  -1  -5    0.30    0.20
   0  -1  -5    0.50    0.20
   0   1   5    0.40    0.30
   0   1   5    0.40    0.20
  -1  -1  -5    7.20    0.50
  -1  -1  -5    7.50    0.60
  -1  -1  -5    7.80    0.40
   1   1   5    7.40    0.50
  -2  -1  -5  306.47    7.20
  -2  -1  -5  312.07    7.30
  -2  -1  -5  288.87    7.30
   2   1   5  309.87    7.30
   2   1   5  305.27    7.30
  -3  -1  -5    0.60    0.30
  -3  -1  -5    0.60    0.30
  -3  -1  -5    0.30    0.30
   3   1   5    0.70    0.30
   3   1   5    0.70    0.40
  -4  -1  -5    4.20    0.60
  -4  -1  -5    3.20    0.50
  -4  -1  -5    4.20    0.60
   4   1   5    3.60    0.50
  -5  -1  -5   -0.30    0.40
  -5  -1  -5    0.20    0.40
  -5  -1  -5    0.10    0.30
   5   1   5    0.30    0.40
  -6  -1  -5    1.10    0.40
  -6  -1  -5    1.00    0.40
  -6  -1  -5    0.60    0.40
   6   1   5    0.80    0.50
  -7  -1  -5   44.10    1.80
  -7  -1  -5   42.20    1.50
  -7  -1  -5   43.80    1.50
   7   1   5   45.00    1.70
  -8  -1  -5  132.49    3.40
  -8  -1  -5  134.39    3.90
   8   1   5  128.49    3.80
  -9  -1  -5    5.10    1.00
   9   1   5    3.80    0.80
  10  -2  -5    0.30    0.70
 -10   2   5   -0.70    0.70
 -10   2   5   -0.60    0.90
   9  -2  -5    1.00    0.60
  -9   2   5    0.90    0.70
  -9   2   5    1.00    0.50
  -8   2   5    2.80    0.50
  -8   2   5    3.50    0.70
   7  -2  -5    7.30    0.80
  -7   2   5    7.20    0.70
  -7   2   5    7.90    0.90
   6  -2  -5   10.10    0.70
  -6   2   5    9.50    0.60
  -6   2   5    9.50    0.70
  -6   2   5   11.20    0.90
  -6   2   5    9.30    0.60
   5  -2  -5    0.30    0.30
  -5   2   5    0.00    0.30
  -5   2   5    0.40    0.30
  -5   2   5    0.30    0.30
  -5   2   5    0.30    0.40
   4  -2  -5  116.89    2.90
  -4   2   5  115.89    2.90
  -4   2   5  114.29    3.10
  -4   2   5  116.29    3.00
  -4   2   5  117.39    3.00
   3  -2  -5   22.70    0.80
   3  -2  -5   21.40    0.80
  -3   2   5   21.80    0.90
  -3   2   5   20.60    0.90
  -3   2   5   23.40    0.80
  -3   2   5   20.90    0.90
   2  -2  -5   15.40    0.60
   2  -2  -5   15.80    0.70
  -2   2   5   14.60    0.70
  -2   2   5   15.50    0.70
  -2   2   5   16.10    0.60
  -2   2   5   15.20    0.80
   1  -2  -5  101.49    2.50
   1  -2  -5   95.99    2.60
  -1   2   5   97.19    2.60
  -1   2   5   97.59    2.50
  -1   2   5   95.59    2.40
   0  -2  -5   67.89    1.80
   0  -2  -5   65.59    1.90
   0   2   5   66.99    1.90
   0   2   5   67.99    1.70
   0   2   5   66.59    1.80
  -1  -2  -5    0.10    0.30
  -1  -2  -5    0.00    0.30
  -1  -2  -5    0.20    0.10
   1   2   5   -0.10    0.20
   1   2   5    0.00    0.30
  -2  -2  -5  116.19    3.10
  -2  -2  -5  123.09    3.20
  -2  -2  -5  120.39    3.10
   2   2   5  123.69    3.10
   2   2   5  122.69    3.20
  -3  -2  -5   15.80    0.80
  -3  -2  -5   12.70    0.80
  -3  -2  -5   16.10    0.80
   3   2   5   16.20    0.80
  -4  -2  -5    1.50    0.40
  -4  -2  -5    1.60    0.40
  -4  -2  -5    1.70    0.40
   4   2   5    1.50    0.40
  -5  -2  -5    7.70    0.70
   5   2   5    8.20    0.90
  -6  -2  -5   18.30    0.90
  -6  -2  -5   18.90    1.00
  -6  -2  -5   20.20    1.20
   6   2   5   17.30    1.10
  -7  -2  -5    1.20    0.40
  -7  -2  -5    1.20    0.60
  -7  -2  -5    1.40    0.50
   7   2   5    1.60    0.60
  -8  -2  -5    1.00    0.40
  -8  -2  -5    0.50    0.70
   8   2   5    0.40    0.70
  -9  -2  -5   -1.90    0.80
   9   2   5    1.60    0.70
  10  -3  -5    6.00    0.80
 -10   3   5    5.70    1.00
   9  -3  -5    0.30    0.60
  -9   3   5    1.30    0.70
   8  -3  -5   99.69    2.90
  -8   3   5   96.79    2.60
  -8   3   5  100.99    3.10
   7  -3  -5   72.39    2.20
  -7   3   5   74.19    2.00
  -7   3   5   71.59    1.90
  -7   3   5   72.59    2.40
  -7   3   5   72.69    2.00
   6  -3  -5   63.89    2.00
  -6   3   5   65.99    1.90
  -6   3   5   65.79    1.80
  -6   3   5   68.29    2.10
  -6   3   5   67.59    1.90
   5  -3  -5   13.30    0.80
  -5   3   5   13.30    0.70
  -5   3   5   13.10    0.90
  -5   3   5   13.90    0.60
   4  -3  -5    3.00    0.40
  -4   3   5    3.80    0.60
  -4   3   5    3.90    0.40
  -4   3   5    3.90    0.50
  -4   3   5    3.40    0.40
   3  -3  -5   53.49    1.70
   3  -3  -5   56.79    1.60
  -3   3   5   56.89    1.70
  -3   3   5   55.99    1.70
  -3   3   5   57.99    1.50
   2  -3  -5  193.68    4.80
   2  -3  -5  200.68    4.80
  -2   3   5  193.18    4.90
  -2   3   5  200.68    4.70
  -2   3   5  193.98    4.80
  -2   3   5  195.48    4.80
   1  -3  -5   20.70    0.90
   1  -3  -5   20.80    0.80
  -1   3   5   20.90    0.80
  -1   3   5   26.10    1.20
  -1   3   5   20.80    0.80
   0  -3  -5    1.20    0.30
   0  -3  -5    1.70    0.40
   0   3   5    1.00    0.30
   0   3   5    1.10    0.40
   0   3   5    1.00    0.30
  -1  -3  -5    6.50    0.60
  -1  -3  -5    6.00    0.60
   1   3   5    6.30    0.60
   1   3   5    6.40    0.60
  -2  -3  -5    0.20    0.40
  -2  -3  -5    0.50    0.30
  -2  -3  -5   -0.10    0.30
   2   3   5   -0.10    0.30
   2   3   5    0.40    0.30
  -3  -3  -5   82.79    2.40
  -3  -3  -5   84.59    2.40
   3   3   5   86.29    2.40
   3   3   5   84.49    2.40
  -4  -3  -5   21.90    1.00
  -4  -3  -5   22.10    1.10
  -4  -3  -5   22.10    1.10
   4   3   5   22.20    1.10
  -5  -3  -5    0.00    0.50
  -5  -3  -5   -0.20    0.40
  -5  -3  -5    0.50    0.40
   5   3   5    0.50    0.50
  -6  -3  -5   56.39    1.80
  -6  -3  -5   56.49    1.80
  -6  -3  -5   53.89    2.00
   6   3   5   55.59    2.00
  -7  -3  -5    2.70    0.70
  -7  -3  -5    4.00    0.50
  -7  -3  -5    5.30    0.80
   7   3   5    3.90    0.70
  -8  -3  -5    0.70    0.50
  -8  -3  -5   -0.10    0.40
  -8  -3  -5   -0.40    0.70
   8   3   5    0.80    0.70
  10  -4  -5  270.17    7.00
 -10   4   5  271.47    7.20
   9  -4  -5   23.00    1.40
  -9   4   5   21.40    1.60
   8  -4  -5   11.10    1.00
  -8   4   5   12.20    0.70
  -8   4   5   14.60    1.20
  -8   4   5   11.50    0.70
  -7   4   5    6.40    0.70
  -7   4   5    6.30    0.60
  -7   4   5    5.00    0.60
  -7   4   5    5.40    0.80
   6  -4  -5  207.48    5.20
  -6   4   5  211.68    5.90
  -6   4   5  207.08    5.00
  -6   4   5  205.38    5.10
   5  -4  -5    1.30    0.40
  -5   4   5    0.80    0.40
  -5   4   5    1.10    0.30
  -5   4   5    0.90    0.40
  -5   4   5    0.70    0.50
   4  -4  -5    6.20    0.70
   4  -4  -5    6.50    0.60
  -4   4   5    5.90    0.40
  -4   4   5    5.90    0.60
  -4   4   5    5.30    0.70
  -4   4   5    6.00    0.70
   3  -4  -5    3.70    0.50
   3  -4  -5    3.10    0.40
  -3   4   5    4.10    0.60
  -3   4   5    3.30    0.40
  -3   4   5    3.90    0.40
  -3   4   5    3.60    0.50
   2  -4  -5   91.79    2.40
   2  -4  -5   90.99    2.50
  -2   4   5   93.19    2.40
  -2   4   5   88.09    2.50
  -2   4   5   92.29    2.30
   1  -4  -5   66.19    2.00
   1  -4  -5   69.99    1.90
  -1   4   5   69.99    1.80
  -1   4   5   67.79    1.80
  -1   4   5   65.99    2.00
   0  -4  -5    0.00    0.30
   0  -4  -5    0.40    0.30
   0   4   5    0.20    0.40
   0   4   5    0.50    0.20
   0   4   5    0.20    0.30
  -1  -4  -5   11.40    0.70
  -1  -4  -5   10.20    0.70
   1   4   5   11.10    0.70
   1   4   5   11.70    0.40
   1   4   5   10.90    0.80
  -2  -4  -5   74.69    2.30
  -2  -4  -5   74.49    2.10
  -2  -4  -5   71.39    2.20
   2   4   5   75.09    2.20
   2   4   5   74.69    2.20
  -3  -4  -5    6.70    0.70
  -3  -4  -5    7.30    0.70
   3   4   5    7.90    0.80
   3   4   5    7.60    0.80
  -4  -4  -5    0.50    0.40
  -4  -4  -5    0.10    0.40
  -5  -4  -5   19.10    1.00
  -5  -4  -5   18.40    1.10
   5   4   5   19.00    1.20
  -6  -4  -5  105.89    3.00
  -6  -4  -5  108.19    3.20
   6   4   5  102.69    3.20
  -7  -4  -5    0.10    0.70
  -7  -4  -5   -1.00    0.60
   7   4   5    0.70    0.70
  -8  -4  -5   15.80    1.00
  -8  -4  -5   18.30    1.50
   8   4   5   14.90    1.50
  10  -5  -5    0.00    0.70
 -10   5   5   -0.90    0.90
   9  -5  -5    4.10    0.80
  -9   5   5    4.40    0.60
  -9   5   5    5.10    0.60
  -9   5   5    5.00    0.90
   8  -5  -5  155.58    4.30
  -8   5   5  162.88    4.50
  -8   5   5  156.68    4.00
  -8   5   5  155.28    4.00
   7  -5  -5   26.20    1.30
  -7   5   5   25.30    1.10
  -7   5   5   27.30    1.50
  -7   5   5   26.30    1.10
  -6   5   5    0.40    0.50
  -6   5   5    0.40    0.50
  -6   5   5    0.70    0.40
   5  -5  -5    0.60    0.40
  -5   5   5    1.30    0.50
  -5   5   5    0.80    0.50
  -5   5   5    0.50    0.50
   4  -5  -5  346.77    8.30
   4  -5  -5  332.07    8.30
  -4   5   5  343.37    8.00
  -4   5   5  349.67    8.30
  -4   5   5  340.67    8.30
   3  -5  -5   73.99    2.20
   3  -5  -5   74.79    2.20
  -3   5   5   76.29    1.90
  -3   5   5   76.59    2.30
  -3   5   5   73.99    2.50
  -3   5   5   75.29    2.20
   2  -5  -5    2.30    0.50
   2  -5  -5    2.80    0.40
  -2   5   5    2.30    0.40
  -2   5   5    2.40    0.50
  -2   5   5    3.10    0.40
   1  -5  -5   48.10    1.60
   1  -5  -5   58.49    1.80
  -1   5   5   47.10    1.50
  -1   5   5   48.50    1.50
  -1   5   5   49.20    1.70
   0  -5  -5   10.60    0.70
   0  -5  -5   11.00    0.80
   0   5   5   11.20    0.90
   0   5   5   10.30    0.70
   0   5   5   10.50    0.60
  -1  -5  -5    0.20    0.30
  -1  -5  -5    0.10    0.30
   1   5   5    0.50    0.50
   1   5   5    0.30    0.40
  -2  -5  -5  231.08    5.80
  -2  -5  -5  237.38    5.90
   2   5   5  236.78    5.80
   2   5   5  232.28    5.90
  -3  -5  -5   -0.20    0.40
  -3  -5  -5   -0.30    0.40
   3   5   5    0.40    0.40
   3   5   5    1.00    0.50
  -4  -5  -5   49.00    1.70
  -4  -5  -5   48.40    1.70
   4   5   5   47.60    1.80
  -5  -5  -5   21.90    1.20
  -5  -5  -5   22.00    1.20
   5   5   5   21.30    1.30
  -6  -5  -5    2.10    0.50
  -6  -5  -5    2.00    0.70
   6   5   5    2.30    0.60
  -7  -5  -5   11.40    1.30
  -7  -5  -5    9.20    1.10
   7   5   5   11.50    1.40
  -8  -5  -5    3.10    0.60
  -8  -5  -5    2.10    0.80
   8   5   5    2.20    0.80
   9  -6  -5    1.70    0.70
  -9   6   5    2.80    0.90
  -9   6   5    1.20    0.50
   8  -6  -5    3.50    0.70
  -8   6   5    4.20    0.60
  -8   6   5    4.40    0.80
   7  -6  -5    6.40    0.70
  -7   6   5    6.40    0.80
  -7   6   5    6.50    0.80
   6  -6  -5   61.59    2.10
  -6   6   5   63.19    2.10
  -6   6   5   62.79    2.20
  -5   6   5   37.80    1.60
  -5   6   5   36.40    1.50
   4  -6  -5    3.70    0.70
   4  -6  -5    4.30    0.60
  -4   6   5    4.10    0.40
  -4   6   5    4.00    0.60
  -4   6   5    4.30    0.60
   3  -6  -5   39.70    1.50
   3  -6  -5   40.60    1.60
  -3   6   5   39.60    1.50
  -3   6   5   40.10    1.20
  -3   6   5   40.40    1.60
   2  -6  -5   61.79    2.00
   2  -6  -5   59.49    1.90
  -2   6   5   61.29    1.90
  -2   6   5   61.39    2.00
  -2   6   5   60.99    1.70
   1  -6  -5    3.10    0.50
   1  -6  -5    2.20    0.60
  -1   6   5    4.00    0.60
  -1   6   5    3.10    0.40
  -1   6   5    3.00    0.60
   0  -6  -5   58.89    1.90
   0  -6  -5   72.69    2.20
   0   6   5   59.89    1.70
   0   6   5   59.49    2.10
   0   6   5   61.59    1.90
  -1  -6  -5  222.88    5.50
  -1  -6  -5  215.18    5.60
   1   6   5  222.98    5.50
   1   6   5  219.08    5.20
  -2  -6  -5   46.80    1.70
  -2  -6  -5   46.60    1.80
   2   6   5   48.30    1.70
   2   6   5   47.30    1.80
  -3  -6  -5    7.40    0.90
   3   6   5    7.90    0.90
  -4  -6  -5   22.70    1.20
  -4  -6  -5   23.90    1.30
   4   6   5   21.40    1.30
  -5  -6  -5    0.00    0.50
  -5  -6  -5    0.70    0.60
   5   6   5    0.00    0.50
  -6  -6  -5    8.60    0.90
  -6  -6  -5   10.40    1.00
   6   6   5   12.20    1.30
  -7  -6  -5   27.90    1.50
  -7  -6  -5   26.60    1.70
   7   6   5   29.60    1.80
   9  -7  -5    0.60    0.80
  -9   7   5   -0.10    1.20
  -9   7   5    0.10    0.60
   8  -7  -5    0.70    0.70
  -8   7   5    1.90    0.80
  -8   7   5    0.50    0.60
   7  -7  -5    1.50    0.60
  -7   7   5   -0.80    0.60
  -7   7   5    1.10    0.50
   6  -7  -5    4.40    0.70
  -6   7   5    4.10    0.70
  -6   7   5    3.90    0.70
   5  -7  -5   32.90    1.50
  -5   7   5   32.80    1.50
  -5   7   5   32.30    1.50
   4  -7  -5   13.90    1.00
  -4   7   5   13.10    1.30
   3  -7  -5   10.40    1.10
  -3   7   5   11.20    0.90
  -3   7   5    8.80    0.60
  -3   7   5   10.60    1.00
   2  -7  -5   20.80    1.20
   2  -7  -5   18.70    1.20
  -2   7   5   20.10    1.00
  -2   7   5   19.90    1.20
  -2   7   5   19.20    0.80
   1  -7  -5   55.29    2.00
   1  -7  -5   53.39    2.00
  -1   7   5   55.69    1.70
  -1   7   5   55.99    2.00
  -1   7   5   54.99    1.70
   0  -7  -5  116.49    3.40
   0   7   5  118.59    3.40
   0   7   5  117.39    3.00
   0   7   5  117.99    3.10
  -1  -7  -5    1.20    0.50
  -1  -7  -5    1.10    0.50
   1   7   5    1.90    0.40
   1   7   5    1.30    0.50
   1   7   5    0.10    0.50
  -2  -7  -5   10.40    1.00
  -2  -7  -5    9.90    0.90
   2   7   5    9.10    1.20
   2   7   5   10.40    0.60
  -3  -7  -5    1.00    0.50
  -3  -7  -5    0.40    0.50
   3   7   5    0.50    0.50
  -4  -7  -5    1.20    0.50
  -4  -7  -5    1.30    0.60
   4   7   5    1.80    0.60
  -5  -7  -5   19.30    1.30
  -5  -7  -5   17.90    1.20
   5   7   5   17.50    1.40
  -6  -7  -5    9.30    1.20
  -6  -7  -5   10.00    1.30
   6   7   5   10.60    1.30
  -7  -7  -5   10.60    1.50
   7   7   5   15.40    1.60
   8  -8  -5    4.50    0.90
  -8   8   5    5.50    1.00
  -8   8   5    5.50    1.10
   7  -8  -5    6.60    0.80
  -7   8   5    5.90    0.90
  -7   8   5    7.00    0.90
   6  -8  -5    4.70    0.70
  -6   8   5    3.90    0.80
  -6   8   5    3.90    0.80
   5  -8  -5    5.80    0.70
  -5   8   5    4.80    0.70
  -5   8   5    7.60    1.10
   4  -8  -5    2.00    0.60
  -4   8   5    0.70    0.60
  -4   8   5    1.20    0.60
   3  -8  -5    1.60    0.70
   3  -8  -5    1.80    0.50
  -3   8   5    2.60    0.40
  -3   8   5    1.10    0.60
   2  -8  -5  230.68    6.00
   2  -8  -5  235.28    6.10
  -2   8   5  236.68    5.70
  -2   8   5  237.78    6.20
  -2   8   5  236.58    5.90
   1  -8  -5   34.30    1.70
   1  -8  -5   34.70    1.50
  -1   8   5   34.60    1.30
  -1   8   5   36.60    1.30
   0  -8  -5    1.80    0.50
   0  -8  -5    1.20    0.60
   0   8   5    1.70    0.50
   0   8   5    2.20    0.70
   0   8   5    2.00    0.50
  -1  -8  -5   33.00    1.50
  -1  -8  -5   33.90    1.60
   1   8   5   33.60    1.20
   1   8   5   32.10    1.70
   1   8   5   32.50    2.00
  -2  -8  -5   44.40    1.80
  -2  -8  -5   43.80    1.70
   2   8   5   43.90    1.70
  -3  -8  -5    4.90    0.70
  -3  -8  -5    4.40    0.70
   3   8   5    4.60    0.70
  -4  -8  -5    1.10    0.60
  -4  -8  -5    2.00    0.60
   4   8   5    1.70    0.70
  -5  -8  -5   47.10    2.00
  -5  -8  -5   44.20    1.90
   5   8   5   42.80    2.10
  -6  -8  -5    2.70    0.70
  -6  -8  -5    4.20    0.80
   6   8   5    3.80    1.00
   8  -9  -5    1.70    0.80
  -8   9   5    3.70    1.10
  -8   9   5    3.40    1.00
   7  -9  -5   -0.30    0.70
  -7   9   5    0.50    0.70
  -7   9   5    0.50    0.80
   6  -9  -5    1.00    0.60
  -6   9   5    0.60    0.70
  -6   9   5   -0.50    0.70
   5  -9  -5    0.10    0.60
  -5   9   5    0.90    0.70
  -5   9   5   -0.70    0.60
   4  -9  -5   10.60    1.10
  -4   9   5   12.10    1.30
  -4   9   5   11.10    1.10
   3  -9  -5    0.70    0.60
  -3   9   5   -0.70    0.50
  -3   9   5    0.40    0.70
   2  -9  -5    7.80    1.00
   2  -9  -5    6.50    0.90
  -2   9   5    6.90    0.90
  -2   9   5    7.70    1.00
  -2   9   5    7.40    0.70
   1  -9  -5    0.50    0.50
   1  -9  -5    0.70    0.70
  -1   9   5    0.20    0.40
  -1   9   5   -0.80    0.60
  -1   9   5   -0.10    0.50
   0  -9  -5    2.50    0.70
   0  -9  -5    3.30    0.60
   0   9   5    3.60    0.90
   0   9   5    3.50    0.60
   0   9   5    3.50    0.60
  -1  -9  -5    4.00    0.70
  -1  -9  -5    4.20    0.70
   1   9   5    4.90    0.70
   1   9   5    5.00    0.60
  -2  -9  -5   -0.70    0.50
  -2  -9  -5   -0.20    0.50
   2   9   5   -0.10    0.60
  -3  -9  -5    4.00    0.80
  -3  -9  -5    2.70    0.70
   3   9   5    1.80    0.70
  -4  -9  -5   44.60    2.00
  -4  -9  -5   46.70    2.00
   4   9   5   45.80    2.10
  -5  -9  -5    4.00    0.90
  -5  -9  -5    6.60    0.90
   5   9   5    4.30    1.00
   7 -10  -5    7.80    1.50
  -7  10   5    9.00    1.20
  -7  10   5    7.60    1.10
   6 -10  -5    1.30    0.90
  -6  10   5    1.30    0.80
  -6  10   5    1.10    0.80
   5 -10  -5   21.10    1.60
  -5  10   5   25.40    1.70
  -5  10   5   19.80    1.60
   4 -10  -5    2.90    0.80
  -4  10   5    2.10    0.70
  -4  10   5    4.10    0.90
   3 -10  -5   10.80    1.20
  -3  10   5    8.90    1.00
  -3  10   5   13.80    1.50
   2 -10  -5   11.50    1.20
   2 -10  -5   11.40    1.40
  -2  10   5   13.20    1.80
  -2  10   5   10.90    1.40
  -2  10   5   12.90    1.10
   1 -10  -5   -0.10    0.60
   1 -10  -5    0.10    0.60
  -1  10   5    0.00    0.80
  -1  10   5    1.20    0.50
  -1  10   5    2.20    0.60
   0 -10  -5    9.00    1.20
   0 -10  -5   11.80    1.30
   0  10   5    6.80    1.00
   0  10   5   11.10    1.70
   0  10   5    7.70    1.00
  -1 -10  -5    2.50    0.70
  -1 -10  -5    3.00    0.70
   1  10   5    3.10    0.60
  -2 -10  -5    0.20    0.60
  -2 -10  -5   -0.60    0.60
   2  10   5   -1.30    0.60
  -3 -10  -5    3.50    0.80
  -3 -10  -5    3.00    0.80
   3  10   5    3.60    0.80
  -4 -10  -5    0.40    0.60
  -4 -10  -5   -0.60    0.70
   4  10   5   -1.70    0.70
   5 -11  -5    0.10    1.00
  -5  11   5    0.80    0.90
  -5  11   5   -1.40    0.80
   4 -11  -5   49.70    2.20
  -4  11   5   46.20    2.20
  -4  11   5   50.89    2.40
   3 -11  -5    0.10    0.70
  -3  11   5   -0.20    0.70
  -3  11   5    1.60    0.90
   2 -11  -5    0.80    0.70
  -2  11   5    3.20    1.00
  -2  11   5   -0.90    0.70
   1 -11  -5    1.70    0.70
   1 -11  -5    0.80    0.80
  -1  11   5    2.90    1.60
  -1  11   5    0.70    0.60
   0 -11  -5    4.80    0.90
   0 -11  -5    6.10    1.10
   0  11   5    9.10    1.10
   0  11   5    6.10    0.80
  -1 -11  -5    6.70    0.90
  -1 -11  -5    3.70    0.80
   1  11   5    4.60    0.80
  -2 -11  -5    8.50    1.10
  -2 -11  -5    8.00    1.10
   2  11   5    6.70    0.90
   3 -12  -5    8.10    2.00
  -3  12   5   12.80    1.90
  -3  12   5    7.20    1.00
   2 -12  -5    9.60    1.40
  -2  12   5    7.70    1.00
  -2  12   5   10.50    1.40
   1 -12  -5    9.30    1.10
  -1  12   5    6.40    1.00
   0 -12  -5    5.10    1.20
   0 -12  -5    3.40    0.90
   0  12   5    5.30    1.10
   2  12  -6    8.30    1.20
  -2 -12   6    8.00    1.00
  -2 -12   6    9.50    1.20
   1  12  -6    1.80    0.90
  -1 -12   6    1.60    0.60
  -1 -12   6    1.90    1.00
   0  12  -6   32.60    2.50
   0 -12   6   29.60    1.40
   0 -12   6   28.30    1.50
   0 -12   6   28.50    2.00
  -1  12  -6   41.30    2.60
   1 -12   6   41.10    2.30
   1 -12   6   41.30    1.80
  -2  12  -6   -0.30    1.10
  -2  12  -6    0.00    0.90
   2 -12   6    1.30    0.70
  -3  12  -6    4.50    1.20
  -3  12  -6    6.30    1.10
   3 -12   6    4.50    0.90
   4  11  -6   37.30    1.90
  -4 -11   6   33.00    1.90
  -4 -11   6   32.70    1.80
   3  11  -6   17.40    1.60
  -3 -11   6   19.70    1.60
  -3 -11   6   19.10    1.40
   2  11  -6   33.70    1.80
  -2 -11   6   33.80    1.60
  -2 -11   6   34.80    1.90
   1  11  -6    3.00    0.80
  -1 -11   6    2.80    0.60
  -1 -11   6    1.50    0.60
   0  11  -6    4.20    0.90
   0 -11   6    5.10    0.70
   0 -11   6    7.00    0.90
   0 -11   6    5.30    1.00
  -1  11  -6   11.70    1.40
   1 -11   6   10.20    1.00
   1 -11   6   10.30    1.10
   1 -11   6   12.90    1.70
  -2  11  -6    1.90    0.90
  -2  11  -6    0.90    0.80
   2 -11   6    1.70    0.60
  -3  11  -6   45.70    2.40
  -3  11  -6   42.20    2.20
   3 -11   6   42.80    1.80
  -4  11  -6    2.60    1.00
  -4  11  -6    4.70    1.00
   4 -11   6    4.00    0.90
  -6 -10   6    0.80    0.70
  -6 -10   6    1.30    1.20
   5  10  -6   -1.80    0.80
  -5 -10   6    0.70    0.60
  -5 -10   6    0.40    1.00
   4  10  -6    7.80    1.00
  -4 -10   6    7.70    1.20
  -4 -10   6    9.60    1.20
   3  10  -6   47.90    2.10
  -3 -10   6   48.20    1.90
  -3 -10   6   46.90    2.00
   2  10  -6    5.30    0.80
  -2 -10   6    5.20    0.70
  -2 -10   6    5.60    0.80
  -2 -10   6    5.90    0.80
   1  10  -6    3.90    0.80
  -1 -10   6    3.30    0.60
  -1 -10   6    2.70    0.70
  -1 -10   6    2.80    0.50
  -1 -10   6    5.20    0.90
   0  10  -6    1.50    0.80
   0  10  -6   -0.60    0.60
   0 -10   6    0.10    0.50
  -1  10  -6    0.50    0.90
  -1  10  -6    0.40    0.60
   1 -10   6    0.50    0.50
   1 -10   6   -1.30    0.70
  -2  10  -6    5.60    0.80
  -2  10  -6    4.70    1.40
   2 -10   6    4.40    0.90
   2 -10   6    4.60    0.70
   2 -10   6    3.90    0.50
  -3  10  -6   36.30    1.80
  -3  10  -6   34.50    2.10
   3 -10   6   37.00    1.60
  -4  10  -6   28.30    1.70
  -4  10  -6   23.30    1.90
   4 -10   6   25.90    1.40
  -5  10  -6    0.90    0.80
  -5  10  -6   -0.50    0.90
   5 -10   6    0.30    0.70
  -6  10  -6   13.10    1.70
  -6  10  -6   17.00    1.60
   6 -10   6   15.90    1.50
   7   9  -6   -0.70    0.90
  -7  -9   6    0.30    0.70
  -7  -9   6    1.40    0.70
   6   9  -6   -0.50    0.70
  -6  -9   6    0.90    0.70
  -6  -9   6    0.00    0.60
   5   9  -6    0.60    0.70
  -5  -9   6   -0.10    0.50
  -5  -9   6    0.40    0.60
   4   9  -6    3.40    0.70
  -4  -9   6    2.80    0.60
  -4  -9   6    3.70    0.70
   3   9  -6   13.10    1.20
  -3  -9   6   13.90    1.10
  -3  -9   6   13.20    0.90
  -3  -9   6   14.30    1.20
   2   9  -6   23.60    1.40
  -2  -9   6   26.90    1.30
  -2  -9   6   24.00    1.00
  -2  -9   6   26.90    1.50
   1   9  -6   10.40    1.40
   1   9  -6    9.60    1.10
  -1  -9   6    7.40    1.20
  -1  -9   6    9.10    0.80
   0   9  -6   17.60    1.20
   0   9  -6   19.90    1.60
   0  -9   6   18.30    1.00
   0  -9   6   16.70    1.30
   0  -9   6   15.50    1.00
  -1   9  -6    2.40    0.80
  -1   9  -6    1.70    0.60
   1  -9   6    2.70    0.50
   1  -9   6    3.30    0.50
   1  -9   6    3.00    0.70
  -2   9  -6    2.80    0.80
  -2   9  -6    1.70    0.60
   2  -9   6    2.60    0.50
   2  -9   6    1.60    0.60
  -3   9  -6   40.90    2.00
  -3   9  -6   40.60    1.90
   3  -9   6   39.20    1.60
   3  -9   6   42.40    1.40
  -4   9  -6    0.50    0.70
  -4   9  -6   -0.60    0.80
   4  -9   6    0.10    0.50
  -5   9  -6    2.30    0.80
  -5   9  -6    3.00    0.90
   5  -9   6    2.30    0.70
  -6   9  -6   -0.60    0.70
  -6   9  -6    0.40    0.70
   6  -9   6    0.60    0.70
   7   8  -6    4.30    0.90
  -7  -8   6    6.30    0.90
  -7  -8   6    6.40    1.00
   6   8  -6   22.60    1.50
  -6  -8   6   20.60    1.20
  -6  -8   6   24.30    1.50
   5   8  -6   31.20    1.50
  -5  -8   6   28.80    1.50
  -5  -8   6   30.90    1.40
   4   8  -6   13.20    1.10
  -4  -8   6   10.60    1.00
  -4  -8   6   11.20    1.00
   3   8  -6   47.80    1.90
  -3  -8   6   48.70    1.80
  -3  -8   6   47.80    1.90
  -3  -8   6   47.20    1.40
   2   8  -6   69.09    2.30
  -2  -8   6   67.09    1.90
   1   8  -6    0.10    0.60
   1   8  -6    0.50    0.50
  -1  -8   6    0.00    0.40
  -1  -8   6    0.50    0.50
  -1  -8   6    0.70    0.40
   0   8  -6   27.70    1.50
   0   8  -6   28.00    1.40
   0  -8   6   27.00    1.10
   0  -8   6   28.20    1.40
   0  -8   6   27.20    1.10
  -1   8  -6    3.70    0.60
  -1   8  -6    2.70    0.70
   1  -8   6    2.90    0.70
   1  -8   6    5.00    0.60
   1  -8   6    3.80    0.50
  -2   8  -6    3.70    0.60
  -2   8  -6    5.40    0.80
   2  -8   6    6.70    0.80
   2  -8   6    6.80    1.00
   2  -8   6    6.40    0.60
  -3   8  -6    0.60    0.90
  -3   8  -6   -0.30    0.50
   3  -8   6    0.80    0.60
  -4   8  -6   12.80    1.20
  -4   8  -6   13.50    1.30
   4  -8   6   14.40    0.90
   4  -8   6   15.20    1.00
  -5   8  -6    2.10    0.70
  -5   8  -6    0.90    0.60
   5  -8   6    0.70    0.60
  -6   8  -6    1.40    0.80
  -6   8  -6    2.40    0.80
   6  -8   6    2.50    0.70
  -7   8  -6   10.00    1.40
  -7   8  -6    7.40    1.00
   7  -8   6   12.10    1.40
   8   7  -6   -1.10    0.70
  -8  -7   6    0.70    0.50
  -8  -7   6   -0.30    0.70
  -8  -7   6    0.10    0.40
   7   7  -6    0.70    0.70
  -7  -7   6    1.00    0.50
  -7  -7   6    0.40    0.70
   6   7  -6    3.60    0.70
  -6  -7   6    3.60    0.60
  -6  -7   6    3.40    0.70
   5   7  -6    8.50    0.90
  -5  -7   6    8.30    1.00
  -5  -7   6   10.30    0.90
   4   7  -6   28.40    1.40
  -4  -7   6   27.90    0.90
  -4  -7   6   28.70    1.30
  -4  -7   6   28.70    1.30
  -3  -7   6   14.30    0.60
   2   7  -6    7.40    1.00
   2   7  -6    6.50    0.80
  -2  -7   6    7.40    0.90
  -2  -7   6    7.30    0.80
  -2  -7   6    6.90    0.50
   1   7  -6    1.40    0.60
   1   7  -6    1.80    0.50
  -1  -7   6    2.60    0.50
  -1  -7   6    1.60    0.40
  -1  -7   6    1.60    0.50
   0   7  -6   26.60    1.30
   0   7  -6   24.10    1.30
   0  -7   6   25.30    1.00
   0  -7   6   23.90    1.20
   0  -7   6   23.90    0.90
  -1   7  -6    9.70    0.90
  -1   7  -6    8.90    1.00
   1  -7   6    9.40    0.70
   1  -7   6    8.10    1.00
   1  -7   6    9.90    0.70
  -2   7  -6    7.60    0.90
   2  -7   6    7.00    0.70
   2  -7   6    7.40    0.60
   2  -7   6    6.20    0.90
  -3   7  -6   70.99    2.40
  -3   7  -6   70.49    2.30
   3  -7   6   69.19    2.10
   3  -7   6   70.99    2.40
   3  -7   6   72.09    2.00
  -4   7  -6    1.10    0.60
  -4   7  -6    0.20    0.50
   4  -7   6    0.10    0.40
   4  -7   6    1.10    0.50
  -5   7  -6    0.60    0.60
  -5   7  -6    0.50    0.60
   5  -7   6    0.60    0.40
   5  -7   6    0.90    0.50
  -6   7  -6   20.20    1.40
  -6   7  -6   20.60    1.40
   6  -7   6   17.90    1.30
  -7   7  -6   20.80    1.60
  -7   7  -6   23.80    1.50
   7  -7   6   21.20    1.50
  -8   7  -6   13.80    1.50
  -8   7  -6   11.10    1.30
   8  -7   6    8.10    1.00
   9   6  -6    1.90    0.80
  -9  -6   6    2.90    0.90
   8   6  -6    3.00    0.70
  -8  -6   6    3.90    0.80
   7   6  -6   -0.20    0.60
  -7  -6   6   -0.40    0.40
  -7  -6   6   -0.10    0.50
  -7  -6   6    0.50    0.60
   6   6  -6    4.50    0.70
  -6  -6   6    5.60    0.70
  -6  -6   6    5.40    0.60
  -6  -6   6    5.40    0.70
   5   6  -6    8.30    0.90
  -5  -6   6    6.80    0.90
  -5  -6   6    8.40    0.80
  -5  -6   6    7.30    0.90
   4   6  -6   64.39    2.10
  -4  -6   6   60.89    2.00
  -4  -6   6   64.99    2.20
  -4  -6   6   59.49    2.20
   3   6  -6    1.10    0.50
   3   6  -6    0.90    0.60
  -3  -6   6    0.90    0.40
  -3  -6   6    1.60    0.40
   2   6  -6   33.60    1.40
   2   6  -6   32.00    1.40
  -2  -6   6   33.50    1.30
  -2  -6   6   32.50    1.30
   1   6  -6   19.20    1.80
   1   6  -6   20.70    1.10
  -1  -6   6   21.20    0.80
  -1  -6   6   20.80    1.10
  -1  -6   6   20.90    1.00
   0   6  -6   15.50    1.10
   0   6  -6   16.00    1.00
   0  -6   6   15.80    1.00
   0  -6   6   16.60    0.70
   0  -6   6   16.70    0.80
  -1   6  -6   24.60    1.20
   1  -6   6   24.70    1.20
   1  -6   6   25.00    1.00
   1  -6   6   24.20    0.90
  -2   6  -6   64.19    2.00
  -2   6  -6   62.89    2.10
   2  -6   6   63.59    1.90
   2  -6   6   63.09    2.10
   2  -6   6   61.69    1.80
  -3   6  -6    6.30    0.90
  -3   6  -6    6.20    0.90
   3  -6   6    7.70    1.00
   3  -6   6    6.10    0.60
   3  -6   6    6.20    0.70
   4  -6   6   17.40    0.80
   4  -6   6   15.90    1.50
  -5   6  -6   32.90    1.60
  -5   6  -6   31.80    1.40
   5  -6   6   34.40    1.20
   5  -6   6   32.50    1.50
  -6   6  -6   17.90    1.30
  -6   6  -6   17.70    1.20
   6  -6   6   16.40    0.90
   6  -6   6   16.20    1.20
  -7   6  -6    0.40    0.60
  -7   6  -6   -0.80    0.60
   7  -6   6   -0.40    0.60
  -8   6  -6    0.00    0.70
  -8   6  -6   -0.20    0.60
   8  -6   6   -0.30    0.70
   9   5  -6   19.10    1.50
  -9  -5   6   17.90    1.50
   8   5  -6   33.10    1.70
  -8  -5   6   32.10    1.70
   7   5  -6    0.70    0.60
  -7  -5   6    0.10    0.30
  -7  -5   6   -0.10    0.40
  -7  -5   6   -0.40    0.50
   6   5  -6   28.40    1.40
  -6  -5   6   26.40    1.30
  -6  -5   6   28.00    1.20
  -6  -5   6   28.50    1.10
   5   5  -6   14.10    1.00
  -5  -5   6   14.30    1.00
  -5  -5   6   14.00    0.80
  -5  -5   6   13.50    0.90
   4   5  -6    7.40    0.90
  -4  -5   6    7.40    0.80
  -4  -5   6    7.00    0.80
  -4  -5   6    6.70    0.70
   3   5  -6   72.09    2.20
   3   5  -6   70.59    2.20
  -3  -5   6   71.99    2.10
  -3  -5   6   70.69    2.10
   2   5  -6    0.00    0.40
   2   5  -6    0.50    0.40
  -2  -5   6   -0.40    0.40
  -2  -5   6   -0.10    0.30
  -2  -5   6    0.20    0.30
   1   5  -6   32.60    1.30
   1   5  -6   30.90    1.20
  -1  -5   6   28.10    1.10
  -1  -5   6   33.60    1.20
  -1  -5   6   34.10    1.30
   0   5  -6   30.20    1.30
   0   5  -6   29.30    1.20
   0  -5   6   29.10    1.10
   0  -5   6   29.00    1.20
   0  -5   6   30.90    0.90
  -1   5  -6   17.60    1.10
  -1   5  -6   15.50    0.90
   1  -5   6   14.20    0.70
   1  -5   6   14.30    0.70
   1  -5   6   13.50    0.90
  -2   5  -6    2.50    0.50
  -2   5  -6    2.20    0.50
   2  -5   6    2.30    0.40
   2  -5   6    3.20    0.60
   2  -5   6    2.60    0.40
  -3   5  -6  100.09    2.90
  -3   5  -6   98.69    2.80
  -3   5  -6  102.69    2.80
   3  -5   6  100.79    2.60
   3  -5   6  100.89    2.90
  -4   5  -6   30.20    1.40
  -4   5  -6   30.10    1.30
  -4   5  -6   31.50    1.30
   4  -5   6   31.30    1.10
   4  -5   6   29.60    1.70
  -5   5  -6    0.80    0.50
  -5   5  -6   -0.30    0.40
  -5   5  -6   -0.10    0.50
   5  -5   6    1.10    0.40
  -6   5  -6    0.20    0.50
  -6   5  -6   -0.30    0.60
  -6   5  -6    0.50    0.50
   6  -5   6   -0.20    0.40
  -7   5  -6    0.80    0.50
  -7   5  -6   -0.40    0.60
  -7   5  -6    0.40    0.50
   7  -5   6    0.80    0.50
  -8   5  -6    1.20    0.90
  -8   5  -6    1.60    0.60
  -8   5  -6    0.80    0.60
   9   4  -6   52.09    2.20
  -9  -4   6   55.09    2.20
   8   4  -6   14.10    1.30
  -8  -4   6   13.00    1.20
   7   4  -6  183.68    4.90
  -7  -4   6  182.38    4.90
  -7  -4   6  182.18    4.50
  -7  -4   6  183.08    4.40
  -7  -4   6  185.98    4.40
  -6  -4   6  149.09    3.60
  -6  -4   6  152.78    3.80
  -6  -4   6  147.29    3.80
  -6  -4   6  153.88    4.10
   5   4  -6    8.70    0.90
  -5  -4   6    8.80    0.70
  -5  -4   6    9.30    0.80
  -5  -4   6    9.80    0.80
   4   4  -6  116.99    3.20
  -4  -4   6  115.99    3.20
  -4  -4   6  122.19    3.10
  -4  -4   6  116.29    3.10
   3   4  -6   82.49    2.40
   3   4  -6   80.19    2.40
  -3  -4   6   84.59    2.40
  -3  -4   6   84.59    2.40
  -3  -4   6   84.59    2.30
   2   4  -6   53.99    1.70
   2   4  -6   51.69    1.70
  -2  -4   6   53.09    1.60
  -2  -4   6   51.49    1.60
  -2  -4   6   50.89    1.70
   1   4  -6   63.09    1.90
   1   4  -6   63.59    1.90
  -1  -4   6   66.89    1.60
  -1  -4   6   63.69    1.80
  -1  -4   6   63.49    1.90
   0   4  -6    2.70    0.40
   0   4  -6    2.30    0.40
   0  -4   6    3.20    0.30
   0  -4   6    2.40    0.40
   0  -4   6    3.00    0.40
  -1   4  -6    6.00    0.70
  -1   4  -6    6.20    0.60
  -1   4  -6    6.00    0.50
   1  -4   6    7.30    0.70
   1  -4   6    6.10    0.50
  -2   4  -6  242.08    5.90
  -2   4  -6  237.78    5.80
  -2   4  -6  238.68    6.00
   2  -4   6  238.98    5.80
   2  -4   6  245.38    6.00
  -3   4  -6  139.19    3.70
  -3   4  -6  139.49    3.60
  -3   4  -6  135.59    3.60
   3  -4   6  139.59    3.50
   3  -4   6  142.39    3.70
  -4   4  -6    7.30    0.80
  -4   4  -6    6.50    0.80
  -4   4  -6    6.90    0.80
   4  -4   6    6.60    0.80
   4  -4   6    6.90    0.60
  -5   4  -6   24.20    1.20
  -5   4  -6   22.70    1.20
  -5   4  -6   24.00    1.10
   5  -4   6   24.20    1.00
  -6   4  -6  147.19    4.00
  -6   4  -6  137.39    3.90
  -6   4  -6  142.19    3.80
   6  -4   6  143.99    3.70
  -7   4  -6    3.30    0.70
  -7   4  -6    2.80    0.70
  -7   4  -6    3.00    0.60
   7  -4   6    3.80    0.50
  -8   4  -6    2.40    1.10
  -8   4  -6    2.60    0.80
  -8   4  -6    2.60    0.70
   8  -4   6    3.10    0.70
  -9   4  -6    0.10    0.80
  -9   4  -6    1.60    1.00
  -9   4  -6    0.30    0.60
  10   3  -6   69.69    2.60
 -10  -3   6   72.39    2.60
   9   3  -6   10.80    1.40
  -9  -3   6   15.90    1.30
   8   3  -6   90.19    2.80
   8   3  -6   89.09    2.40
  -8  -3   6   87.79    2.80
   7   3  -6    1.00    0.40
   7   3  -6   -0.10    0.60
  -7  -3   6   -0.10    0.50
   6   3  -6   64.79    2.10
   6   3  -6   64.69    1.70
  -6  -3   6   65.49    1.80
   5   3  -6    8.80    0.90
  -5  -3   6    9.90    0.80
  -5  -3   6    8.90    0.70
  -5  -3   6    8.60    0.60
   4   3  -6    0.90    0.40
  -4  -3   6    0.80    0.30
  -4  -3   6    1.00    0.40
  -4  -3   6    1.00    0.30
   3   3  -6  428.96   10.20
   3   3  -6  421.96   10.20
  -3  -3   6  444.36   10.20
  -3  -3   6  430.16   10.20
  -3  -3   6  431.46   10.20
   2   3  -6   20.50    0.90
   2   3  -6   18.50    0.90
  -2  -3   6   18.80    0.90
  -2  -3   6   19.70    0.80
  -2  -3   6   18.80    0.80
   1   3  -6  428.66    9.40
   1   3  -6  373.76    9.30
  -1  -3   6  380.26    9.30
  -1  -3   6  385.16    9.20
   0   3  -6  257.97    6.30
   0   3  -6  253.07    6.10
   0   3  -6  261.17    6.20
   0  -3   6  262.97    6.30
   0  -3   6  260.47    6.20
  -1   3  -6   16.90    0.80
  -1   3  -6   17.00    0.70
  -1   3  -6   16.40    0.90
   1  -3   6   17.00    0.70
   1  -3   6   16.10    1.00
  -2   3  -6    2.90    0.40
  -2   3  -6    2.90    0.40
  -2   3  -6    3.70    0.60
   2  -3   6    3.10    0.40
   2  -3   6    4.20    0.60
  -3   3  -6    2.70    0.50
  -3   3  -6    2.50    0.40
  -3   3  -6    2.00    0.40
  -3   3  -6    2.70    0.40
   3  -3   6    2.80    0.50
   3  -3   6    3.10    0.40
  -4   3  -6   46.40    1.60
  -4   3  -6   45.10    1.50
  -4   3  -6   47.50    1.50
  -4   3  -6   37.20    1.60
   4  -3   6   43.80    1.60
   4  -3   6   47.50    1.50
  -5   3  -6    8.80    1.10
  -5   3  -6    7.80    0.80
  -5   3  -6    7.40    0.70
   5  -3   6    8.30    0.70
  -6   3  -6   10.40    0.80
  -6   3  -6   11.40    0.90
  -6   3  -6    9.80    1.00
   6  -3   6   12.00    0.90
  -7   3  -6    2.60    0.60
  -7   3  -6    2.40    0.60
  -7   3  -6    2.80    0.50
   7  -3   6    2.90    0.60
  -8   3  -6   40.40    1.90
  -8   3  -6   37.50    1.50
   8  -3   6   37.70    1.60
  -9   3  -6   18.90    1.30
  -9   3  -6   16.10    1.60
   9  -3   6   15.70    1.30
  10   2  -6    2.00    0.80
 -10  -2   6    2.00    0.80
   9   2  -6    6.90    0.70
   9   2  -6    6.40    0.90
  -9  -2   6    8.20    1.10
   8   2  -6    2.60    0.60
   8   2  -6    1.60    0.40
  -8  -2   6    1.50    0.50
   7   2  -6   23.70    1.30
   7   2  -6   26.30    1.00
  -7  -2   6   22.80    1.20
   6   2  -6   -0.10    0.50
   6   2  -6    0.80    0.30
  -6  -2   6   -0.10    0.20
  -6  -2   6    0.00    0.30
  -6  -2   6    0.00    0.40
   5   2  -6   29.50    1.20
   5   2  -6   31.00    0.90
  -5  -2   6   29.30    1.20
  -5  -2   6   30.90    1.00
  -5  -2   6   30.40    1.00
   4   2  -6    3.40    0.50
  -4  -2   6    3.60    0.40
  -4  -2   6    3.80    0.50
  -4  -2   6    3.40    0.50
   3   2  -6   83.59    2.30
   3   2  -6   82.69    2.30
  -3  -2   6   86.69    2.30
  -3  -2   6   84.59    2.30
  -3  -2   6   85.49    2.30
   2   2  -6    0.60    0.30
   2   2  -6    0.40    0.30
  -2  -2   6    0.50    0.30
  -2  -2   6    0.20    0.30
  -2  -2   6    1.00    0.30
   1   2  -6  419.56    9.90
   1   2  -6  422.06    9.70
  -1  -2   6  432.46    9.90
  -1  -2   6  408.76    9.90
   0   2  -6   25.10    1.00
   0   2  -6   23.80    0.90
   0   2  -6   26.90    0.90
   0  -2   6   27.00    0.90
   0  -2   6   25.80    1.00
  -1   2  -6   54.39    1.50
  -1   2  -6   53.09    1.60
  -1   2  -6   53.99    1.50
   1  -2   6   55.49    1.60
   1  -2   6   55.09    1.60
  -2   2  -6    6.30    0.50
  -2   2  -6    6.90    0.50
  -2   2  -6    6.70    0.60
   2  -2   6    6.90    0.60
   2  -2   6    6.90    0.60
  -3   2  -6    1.60    0.40
  -3   2  -6    1.40    0.40
  -3   2  -6    1.40    0.30
  -3   2  -6    1.20    0.40
   3  -2   6    1.30    0.30
   3  -2   6    1.20    0.40
  -4   2  -6    2.80    0.50
  -4   2  -6    2.70    0.50
  -4   2  -6    3.00    0.50
  -4   2  -6    2.80    0.40
   4  -2   6    2.90    0.40
   4  -2   6    3.30    0.60
  -5   2  -6  117.59    3.10
  -5   2  -6  117.29    3.20
   5  -2   6  118.69    3.20
  -6   2  -6    0.10    0.50
  -6   2  -6   -0.20    0.40
  -6   2  -6   -0.40    0.50
  -6   2  -6    0.00    0.40
   6  -2   6   -0.30    0.40
  -7   2  -6   14.90    1.00
  -7   2  -6   19.10    1.00
  -7   2  -6   17.10    1.20
   7  -2   6   14.80    1.00
  -8   2  -6    2.60    0.70
  -8   2  -6    2.80    0.50
   8  -2   6    3.50    0.60
  -9   2  -6    2.60    0.80
  -9   2  -6    1.20    0.50
   9  -2   6    0.90    0.70
  10   1  -6    0.50    0.70
  10   1  -6    0.90    0.80
 -10  -1   6    2.20    0.70
   9   1  -6   23.50    1.20
   9   1  -6   22.00    1.50
  -9  -1   6   22.70    1.30
   8   1  -6   13.30    0.90
  -8  -1   6   12.30    1.00
  -8  -1   6   10.70    1.10
   7   1  -6    7.40    0.70
  -7  -1   6    6.50    0.80
  -7  -1   6    6.50    0.90
   6   1  -6    2.00    0.30
  -6  -1   6    1.40    0.50
  -6  -1   6    1.50    0.30
  -6  -1   6    2.40    0.30
  -6  -1   6    1.50    0.40
   5   1  -6    1.90    0.30
  -5  -1   6    1.50    0.50
  -5  -1   6    2.00    0.30
  -5  -1   6    1.90    0.30
  -5  -1   6    1.50    0.40
   4   1  -6   56.39    1.80
   4   1  -6   57.49    1.40
  -4  -1   6   58.89    1.60
  -4  -1   6   56.49    1.60
  -4  -1   6   56.29    1.70
   3   1  -6   36.70    1.20
   3   1  -6   36.20    1.20
  -3  -1   6   36.40    1.20
  -3  -1   6   36.60    1.20
  -3  -1   6   37.00    1.20
   2   1  -6   23.50    0.60
   2   1  -6   22.00    0.90
   2   1  -6   22.40    0.90
  -2  -1   6   21.80    0.80
  -2  -1   6   22.30    0.90
  -2  -1   6   22.60    0.90
  -2  -1   6   22.50    0.70
   1   1  -6  115.79    3.00
   1   1  -6  116.69    2.80
   1   1  -6  116.69    3.00
  -1  -1   6  117.89    3.00
   0   1  -6  445.26   10.30
   0   1  -6  419.56   10.50
   0   1  -6  444.26   10.20
   0  -1   6  452.55   10.30
   0  -1   6  440.56   10.40
  -1   1  -6   80.89    2.10
  -1   1  -6   79.69    2.20
  -1   1  -6   81.29    2.10
   1  -1   6   78.59    2.20
   1  -1   6   82.69    2.20
  -2   1  -6   24.60    0.90
  -2   1  -6   25.30    1.00
  -2   1  -6   26.00    0.80
  -2   1  -6   23.50    1.10
   2  -1   6   25.00    0.90
   2  -1   6   26.40    1.00
  -3   1  -6   59.59    1.80
  -3   1  -6   62.29    1.60
  -3   1  -6   61.19    1.90
   3  -1   6   61.29    1.80
   3  -1   6   61.79    1.80
  -4   1  -6   21.70    1.10
  -4   1  -6   21.10    1.00
  -4   1  -6   22.40    0.80
  -4   1  -6   21.60    1.00
   4  -1   6   22.60    1.00
   4  -1   6   19.50    1.00
  -5   1  -6   42.60    1.50
  -5   1  -6   44.70    1.30
   5  -1   6   44.30    1.50
  -6   1  -6    7.70    1.00
  -6   1  -6    9.40    0.70
  -6   1  -6    6.60    0.80
  -6   1  -6    6.70    0.70
   6  -1   6    6.30    0.80
  -7   1  -6    0.00    0.40
  -7   1  -6   -0.10    0.40
  -7   1  -6    0.60    0.50
  -7   1  -6   -0.50    0.40
   7  -1   6   -0.30    0.50
  -8   1  -6   -0.20    0.90
  -8   1  -6   -0.60    0.60
  -8   1  -6    0.40    0.40
   8  -1   6    0.50    0.60
  -9   1  -6    0.20    0.40
  -9   1  -6   -0.10    0.80
  -9   1  -6    1.30    0.50
   9  -1   6    0.20    0.70
  10   0  -6    3.70    0.70
 -10   0   6    1.50    0.80
 -10   0   6    3.80    0.70
  -9   0   6    0.20    0.60
  -9   0   6    0.30    0.50
   8   0  -6    0.80    0.40
  -8   0   6   -0.30    0.60
   7   0  -6   -0.10    0.30
  -7   0   6    0.10    0.50
  -7   0   6   -0.40    0.40
   6   0  -6   17.80    0.80
  -6   0   6   18.40    0.70
  -6   0   6   19.00    0.90
  -6   0   6   18.60    1.10
  -6   0   6   19.50    0.70
   5   0  -6   12.90    0.60
  -5   0   6   12.50    0.60
  -5   0   6   13.20    0.60
  -5   0   6   13.10    0.90
  -5   0   6   13.00    0.70
   4   0  -6  131.89    3.20
  -4   0   6  128.99    3.40
  -4   0   6  132.59    3.30
  -4   0   6  130.89    3.30
  -4   0   6  128.79    3.30
   3   0  -6   29.60    0.80
   3   0  -6   27.60    1.00
  -3   0   6   27.80    1.00
  -3   0   6   29.30    1.00
  -3   0   6   28.30    1.00
  -3   0   6   28.40    1.00
   2   0  -6  616.24   13.70
   2   0  -6  592.14   13.90
  -2   0   6  601.54   13.90
  -2   0   6  598.14   13.90
  -2   0   6  581.54   13.90
   1   0  -6   11.10    0.60
   1   0  -6   10.70    0.50
   1   0  -6   10.90    0.70
  -1   0   6   10.60    0.60
  -1   0   6   10.70    0.70
   0   0  -6    8.20    0.50
   0   0  -6    7.60    0.50
   0   0  -6    8.00    0.60
   0   0   6    7.20    0.60
   0   0   6    8.00    0.60
  -1   0  -6   86.29    2.10
  -1   0  -6   86.09    2.20
  -1   0  -6   82.79    2.30
   1   0   6   85.49    2.30
   1   0   6   83.99    2.30
  -2   0  -6   64.19    1.90
  -2   0  -6   61.79    1.70
  -2   0  -6   66.19    1.80
  -2   0  -6   61.79    1.90
   2   0   6   67.19    1.90
   2   0   6   65.19    1.80
  -3   0  -6    8.60    0.70
  -3   0  -6    7.80    0.40
  -3   0  -6    8.40    0.70
   3   0   6    7.90    0.70
   3   0   6    7.90    0.70
  -4   0  -6   40.50    1.40
  -4   0  -6   41.60    1.50
  -4   0  -6   42.50    1.40
   4   0   6   38.20    1.40
   4   0   6   39.70    1.40
  -5   0  -6    1.70    0.40
  -5   0  -6    1.50    0.30
   5   0   6    1.30    0.50
  -6   0  -6   49.20    1.70
  -6   0  -6   50.19    1.80
  -6   0  -6   47.80    1.60
  -6   0  -6   50.39    1.40
   6   0   6   49.50    1.80
  -7   0  -6    0.00    0.60
  -7   0  -6    1.50    0.50
  -7   0  -6    0.80    0.50
   7   0   6    1.20    0.50
  -8   0  -6    3.70    0.60
  -8   0  -6    2.30    0.90
  -8   0  -6    3.10    0.60
   8   0   6    4.80    0.70
  -9   0  -6   32.60    1.90
  -9   0  -6   30.80    1.20
  -9   0  -6   33.30    1.20
   9   0   6   34.50    1.70
  10  -1  -6    1.10    0.70
 -10   1   6    0.10    0.70
 -10   1   6    0.70    0.60
   9  -1  -6    0.10    0.50
  -9   1   6    1.20    0.50
  -9   1   6    0.10    0.60
   8  -1  -6   -0.40    0.50
  -8   1   6    0.80    0.50
  -8   1   6    0.50    0.60
   7  -1  -6   46.70    1.50
  -7   1   6   46.30    1.80
  -7   1   6   45.40    1.50
   6  -1  -6   18.50    0.80
  -6   1   6   18.90    0.90
  -6   1   6   18.50    0.70
  -6   1   6   18.70    0.80
  -6   1   6   18.90    1.10
   5  -1  -6    5.20    0.50
  -5   1   6    4.40    0.50
  -5   1   6    4.80    0.60
  -5   1   6    5.50    0.50
  -5   1   6    4.80    0.50
   4  -1  -6    0.30    0.20
  -4   1   6    0.00    0.30
  -4   1   6    0.40    0.30
  -4   1   6   -0.20    0.30
  -4   1   6    0.20    0.30
   3  -1  -6   31.70    1.10
   3  -1  -6   32.20    1.00
  -3   1   6   31.80    1.10
  -3   1   6   32.70    1.00
  -3   1   6   31.30    1.10
  -3   1   6   30.50    1.10
   2  -1  -6  166.88    4.10
   2  -1  -6  176.08    4.00
  -2   1   6  164.28    4.10
  -2   1   6  160.58    4.10
  -2   1   6  162.88    4.10
  -2   1   6  165.18    4.10
   1  -1  -6  449.26   10.60
   1  -1  -6  465.75   10.50
  -1   1   6  438.76   10.60
  -1   1   6  462.95   10.50
  -1   1   6  441.16   10.60
   0  -1  -6  319.07    7.40
   0  -1  -6  320.27    7.40
   0  -1  -6  313.17    7.50
   0   1   6  308.17    7.50
  -1  -1  -6    0.50    0.30
  -1  -1  -6    0.40    0.20
  -1  -1  -6    0.40    0.30
   1   1   6    0.30    0.30
   1   1   6    0.50    0.30
  -2  -1  -6    2.10    0.20
  -2  -1  -6    1.90    0.40
  -2  -1  -6    1.40    0.40
  -2  -1  -6    1.70    0.30
   2   1   6    1.70    0.40
   2   1   6    1.70    0.40
  -3  -1  -6   19.30    0.90
  -3  -1  -6   19.60    0.90
   3   1   6   19.10    0.90
   3   1   6   19.10    1.00
  -4  -1  -6   62.09    1.90
  -4  -1  -6   62.49    1.90
  -4  -1  -6   60.29    1.90
   4   1   6   62.79    1.90
   4   1   6   58.29    1.90
  -5  -1  -6    7.00    0.80
  -5  -1  -6    5.20    0.60
  -5  -1  -6    6.20    0.70
   5   1   6    6.80    0.90
  -6  -1  -6    8.60    0.80
  -6  -1  -6    8.70    1.00
  -6  -1  -6    9.10    0.80
   6   1   6    7.20    0.90
  -7  -1  -6    0.70    0.50
  -7  -1  -6    1.10    0.50
  -7  -1  -6    0.70    0.60
   7   1   6    1.00    0.60
  -8  -1  -6   12.10    1.20
  -8  -1  -6    8.80    1.00
  -8  -1  -6   10.40    1.10
   8   1   6    9.90    1.30
  -9  -1  -6   32.10    1.90
   9   1   6   33.00    1.80
  10  -2  -6    3.00    0.70
 -10   2   6    1.10    0.80
   9  -2  -6    5.30    0.70
  -9   2   6    5.10    0.60
  -9   2   6    6.50    0.90
   8  -2  -6   -0.70    0.40
  -8   2   6   -0.40    0.40
  -8   2   6    0.50    0.60
   7  -2  -6   14.40    0.90
  -7   2   6   12.60    0.70
  -7   2   6   13.10    1.10
  -7   2   6   13.40    0.70
  -7   2   6   13.80    0.80
   6  -2  -6   -0.40    0.40
  -6   2   6   -0.40    0.40
  -6   2   6    0.60    0.30
  -6   2   6   -0.40    0.30
  -6   2   6    0.00    0.30
   5  -2  -6    7.80    0.60
  -5   2   6    7.70    0.60
  -5   2   6    5.70    0.80
  -5   2   6    7.30    0.70
  -5   2   6    7.40    0.60
   4  -2  -6   45.10    1.30
  -4   2   6   43.10    1.50
  -4   2   6   44.00    1.40
  -4   2   6   44.50    1.40
  -4   2   6   42.60    1.30
   3  -2  -6   65.59    1.90
   3  -2  -6   66.59    1.80
  -3   2   6   65.79    1.80
  -3   2   6   67.89    1.90
  -3   2   6   63.89    1.90
   2  -2  -6  125.89    3.10
   2  -2  -6  122.99    3.20
  -2   2   6  113.89    3.20
  -2   2   6  129.09    3.10
  -2   2   6  125.19    3.20
  -2   2   6  123.09    3.10
   1  -2  -6    0.60    0.30
   1  -2  -6    0.50    0.30
  -1   2   6    0.30    0.30
  -1   2   6    0.30    0.30
  -1   2   6    1.00    0.60
   0  -2  -6    7.30    0.50
   0  -2  -6    8.50    0.90
   0   2   6    8.40    0.80
   0   2   6    6.60    0.50
   0   2   6    7.10    0.50
  -1  -2  -6   84.49    2.40
  -1  -2  -6   83.59    2.30
  -1  -2  -6   85.69    2.00
   1   2   6   83.59    2.30
  -2  -2  -6  262.17    7.00
  -2  -2  -6  295.67    7.00
  -2  -2  -6  296.57    7.00
   2   2   6  291.37    7.00
   2   2   6  300.37    7.00
  -3  -2  -6   34.80    1.30
  -3  -2  -6   34.50    1.30
   3   2   6   34.00    1.30
   3   2   6   34.00    1.30
  -4  -2  -6    5.20    0.60
  -4  -2  -6    5.70    0.80
  -4  -2  -6    6.50    0.70
   4   2   6    5.80    0.80
  -5  -2  -6    0.30    0.40
  -5  -2  -6   -0.20    0.40
  -5  -2  -6   -0.10    0.40
   5   2   6   -0.10    0.40
  -6  -2  -6   -0.10    0.60
  -6  -2  -6    0.20    0.40
  -6  -2  -6    0.30    0.50
   6   2   6    0.40    0.50
  -7  -2  -6   15.50    1.20
  -7  -2  -6   13.30    0.90
   7   2   6   13.20    1.20
  -8  -2  -6   14.60    0.90
  -8  -2  -6   13.90    1.40
   8   2   6   14.30    1.40
  10  -3  -6   21.10    1.50
 -10   3   6   21.10    1.80
   9  -3  -6    0.30    0.60
  -9   3   6    0.40    0.70
   8  -3  -6  187.68    4.80
  -8   3   6  186.58    5.10
  -8   3   6  184.38    4.50
  -8   3   6  185.38    4.60
   7  -3  -6   -0.30    0.50
  -7   3   6    0.30    0.40
  -7   3   6    0.10    0.50
  -7   3   6    0.30    0.30
  -7   3   6    0.10    0.30
   6  -3  -6   16.20    0.90
  -6   3   6   15.50    0.80
  -6   3   6   13.50    0.80
   5  -3  -6   14.50    0.80
  -5   3   6   14.90    0.70
  -5   3   6   14.70    0.90
  -5   3   6   14.00    0.80
  -5   3   6   13.90    0.90
   4  -3  -6   86.89    2.50
   4  -3  -6   91.49    2.40
  -4   3   6   88.89    2.50
  -4   3   6   93.19    2.50
  -4   3   6   91.79    2.30
  -4   3   6   90.99    2.50
   3  -3  -6    6.50    0.60
   3  -3  -6    4.40    0.70
  -3   3   6    6.60    0.70
  -3   3   6    6.20    0.70
  -3   3   6    5.60    0.60
  -3   3   6    5.90    0.50
   2  -3  -6   22.60    1.00
   2  -3  -6   23.40    0.90
  -2   3   6   23.00    0.80
  -2   3   6   24.30    1.00
  -2   3   6   23.10    0.90
   1  -3  -6  106.49    3.20
   1  -3  -6  123.29    3.00
  -1   3   6  120.89    3.00
  -1   3   6  119.79    3.00
   0  -3  -6   30.60    1.10
   0   3   6   30.20    1.10
   0   3   6   31.20    0.90
   0   3   6   30.80    1.20
  -1  -3  -6   15.00    0.80
  -1  -3  -6   14.70    0.50
  -1  -3  -6   14.10    0.80
   1   3   6   14.00    0.90
   1   3   6   14.90    0.80
  -2  -3  -6   13.20    0.80
  -2  -3  -6   14.00    0.80
   2   3   6   13.50    0.90
   2   3   6   14.50    0.80
  -3  -3  -6   37.10    1.40
  -3  -3  -6   36.20    1.40
  -3  -3  -6   35.70    1.70
   3   3   6   38.00    1.50
   3   3   6   38.30    1.40
  -4  -3  -6   -0.60    0.50
  -4  -3  -6    0.00    0.40
  -5  -3  -6   41.00    1.60
  -5  -3  -6   41.00    1.50
   5   3   6   41.00    1.60
  -6  -3  -6    3.80    0.60
  -6  -3  -6    4.80    0.70
   6   3   6    3.70    0.70
  -7  -3  -6    2.10    0.50
  -7  -3  -6    1.20    0.70
   7   3   6    1.80    0.60
  -8  -3  -6    6.20    0.90
  -8  -3  -6    8.00    1.10
   8   3   6    8.10    1.50
  10  -4  -6    5.10    0.90
 -10   4   6    6.90    1.50
   9  -4  -6   33.70    1.60
  -9   4   6   36.80    1.90
   8  -4  -6  133.59    3.70
  -8   4   6  127.09    3.30
  -8   4   6  132.99    3.90
  -8   4   6  131.29    3.40
   7  -4  -6    1.00    0.80
  -7   4   6    1.50    0.40
  -7   4   6    1.90    0.40
  -7   4   6    1.50    0.60
  -7   4   6    1.20    0.40
   6  -4  -6  824.92   19.00
  -6   4   6  813.22   18.90
  -6   4   6  797.92   18.90
  -6   4   6  823.42   19.10
  -6   4   6  801.32   18.70
   5  -4  -6    4.00    0.50
  -5   4   6    4.90    0.70
  -5   4   6    4.70    0.70
  -5   4   6    4.90    0.60
  -5   4   6    4.90    0.50
   4  -4  -6   -0.80    0.40
   4  -4  -6    0.30    0.40
  -4   4   6    0.20    0.30
  -4   4   6   -0.20    0.40
  -4   4   6    0.30    0.40
  -4   4   6   -0.70    0.40
   3  -4  -6   28.60    1.20
   3  -4  -6   29.60    1.10
  -3   4   6   29.50    1.30
  -3   4   6   29.50    1.10
  -3   4   6   28.30    1.00
  -3   4   6   28.00    1.20
   2  -4  -6  395.46    9.60
   2  -4  -6  404.56    9.50
  -2   4   6  403.16    9.70
  -2   4   6  401.56    9.50
  -2   4   6  410.06    9.50
   1  -4  -6  108.39    3.00
   1  -4  -6  113.79    2.90
  -1   4   6  110.69    3.00
  -1   4   6  112.79    2.90
  -1   4   6  111.89    2.80
   0  -4  -6  142.49    3.60
   0  -4  -6  136.49    3.70
   0   4   6  143.59    3.40
   0   4   6  137.99    3.60
   0   4   6  138.69    3.70
  -1  -4  -6   16.20    0.90
   1   4   6   16.70    0.60
   1   4   6   15.80    0.90
  -2  -4  -6   90.79    2.60
  -2  -4  -6   89.79    2.60
   2   4   6   93.59    2.70
   2   4   6   92.89    2.60
  -3  -4  -6    1.30    0.40
  -3  -4  -6    3.00    0.60
  -3  -4  -6    2.00    0.80
   3   4   6    2.40    0.50
   3   4   6    1.40    0.50
  -4  -4  -6   87.59    2.60
  -4  -4  -6   89.49    2.60
   4   4   6   87.59    2.70
  -5  -4  -6    6.60    0.80
  -5  -4  -6    9.20    1.00
   5   4   6    6.60    0.80
  -6  -4  -6   24.80    1.40
  -6  -4  -6   21.40    1.20
   6   4   6   20.10    1.40
  -7  -4  -6   -0.10    0.70
  -7  -4  -6    0.40    0.70
   7   4   6    0.50    0.70
  -8  -4  -6   29.30    2.10
  -8  -4  -6   30.70    1.40
   8   4   6   30.80    1.80
  10  -5  -6    9.80    1.30
 -10   5   6    8.10    1.20
   9  -5  -6   14.80    1.30
  -9   5   6   14.40    1.50
  -9   5   6   15.20    0.80
  -9   5   6   16.70    0.90
   8  -5  -6    7.00    0.80
  -8   5   6    6.90    0.80
  -8   5   6    9.40    1.20
  -8   5   6    6.80    0.80
   7  -5  -6    7.90    0.90
  -7   5   6    6.20    0.80
  -7   5   6    6.60    0.80
  -7   5   6    7.80    1.10
  -6   5   6  252.47    6.10
  -6   5   6  249.68    6.30
  -6   5   6  249.18    5.80
  -6   5   6  236.18    6.30
  -6   5   6  232.78    6.30
   5  -5  -6  139.89    3.60
  -5   5   6  134.99    3.30
  -5   5   6  134.19    3.70
   4  -5  -6   29.20    1.30
   4  -5  -6   27.70    1.20
  -4   5   6   29.30    1.30
  -4   5   6   29.80    1.00
  -4   5   6   28.00    1.60
  -4   5   6   28.30    1.30
   3  -5  -6   13.20    0.90
   3  -5  -6   15.40    1.00
  -3   5   6   14.20    0.90
  -3   5   6   13.90    0.70
  -3   5   6   13.40    1.00
   2  -5  -6   10.70    0.90
   2  -5  -6   10.40    0.80
  -2   5   6   10.00    0.70
  -2   5   6   11.10    0.90
  -2   5   6   10.50    0.60
   1  -5  -6   38.90    1.50
   1  -5  -6   39.30    1.40
  -1   5   6   38.30    1.30
  -1   5   6   39.20    1.50
  -1   5   6   39.40    1.20
   0  -5  -6   28.30    1.20
   0  -5  -6   27.50    1.20
   0   5   6   28.30    0.90
   0   5   6   27.50    1.30
   0   5   6   29.10    1.10
  -1  -5  -6   78.29    2.30
   1   5   6   77.39    2.40
   1   5   6   77.89    2.30
  -2  -5  -6  156.78    4.10
  -2  -5  -6  153.68    4.20
   2   5   6  155.68    4.20
   2   5   6  153.98    4.10
  -3  -5  -6    0.70    0.50
  -3  -5  -6    1.00    0.40
   3   5   6    0.40    0.50
  -4  -5  -6    6.80    0.90
  -4  -5  -6    7.40    0.90
   4   5   6    4.70    0.70
  -5  -5  -6    0.30    0.50
  -5  -5  -6    0.90    0.60
   5   5   6   -0.50    0.50
  -6  -5  -6   49.50    2.00
  -6  -5  -6   49.40    1.80
   6   5   6   46.80    2.10
  -7  -5  -6    5.10    0.90
  -7  -5  -6    5.50    0.90
   7   5   6    4.90    1.00
   9  -6  -6    2.70    0.80
  -9   6   6    5.60    1.10
  -9   6   6    2.90    0.60
   8  -6  -6    2.80    0.70
  -8   6   6    2.90    0.60
  -8   6   6    2.50    0.80
   7  -6  -6    1.20    0.60
  -7   6   6    2.60    0.60
  -7   6   6    1.80    0.70
   6  -6  -6   18.10    1.10
  -6   6   6   14.90    1.10
  -6   6   6   16.40    1.20
   5  -6  -6   46.60    1.70
  -5   6   6   46.50    1.70
  -5   6   6   45.00    1.30
  -5   6   6   45.20    1.80
   4  -6  -6   56.19    2.30
   4  -6  -6   59.19    2.00
  -4   6   6   55.89    2.00
  -4   6   6   58.99    2.00
  -4   6   6   57.09    1.60
   3  -6  -6    0.30    0.50
   3  -6  -6   -0.20    0.40
  -3   6   6    0.10    0.30
  -3   6   6    0.40    0.50
  -3   6   6   -0.10    0.40
   2  -6  -6   51.79    1.70
   2  -6  -6   52.29    1.80
  -2   6   6   50.69    1.90
  -2   6   6   51.29    1.50
  -2   6   6   50.79    1.60
   1  -6  -6    5.30    0.60
   1  -6  -6    7.80    0.80
  -1   6   6    6.70    0.90
  -1   6   6    6.60    0.60
  -1   6   6    6.30    0.70
   0  -6  -6    4.00    0.50
   0  -6  -6    6.40    1.00
   0   6   6    4.30    0.50
   0   6   6    4.00    0.60
   0   6   6    5.10    0.60
   1   6   6   60.29    1.60
   1   6   6   56.09    2.00
   1   6   6   57.19    1.90
  -2  -6  -6    0.50    0.40
  -2  -6  -6    1.50    0.50
   2   6   6    0.70    0.60
  -3  -6  -6   37.80    1.50
  -3  -6  -6   37.30    1.60
   3   6   6   39.10    1.60
  -4  -6  -6    0.60    0.50
  -4  -6  -6    0.20    0.50
   4   6   6   -0.10    0.50
  -5  -6  -6    2.20    0.60
  -5  -6  -6    2.00    0.60
   5   6   6    1.80    0.70
  -6  -6  -6   -0.40    0.90
  -6  -6  -6   -0.40    0.50
   6   6   6   -1.50    0.60
  -7  -6  -6   26.40    2.20
  -7  -6  -6   25.40    1.40
   7   6   6   24.10    1.80
   9  -7  -6    0.50    0.80
  -9   7   6    0.90    0.90
  -9   7   6    1.20    0.80
   8  -7  -6    6.10    0.90
  -8   7   6    6.10    0.80
  -8   7   6    5.00    1.10
   7  -7  -6   11.20    1.20
  -7   7   6   11.60    1.10
  -7   7   6   11.20    1.30
   6  -7  -6    7.70    0.80
  -6   7   6    7.50    0.90
  -6   7   6    8.20    1.00
   5  -7  -6    0.60    0.50
  -5   7   6    0.10    0.50
  -5   7   6    1.00    0.60
   4  -7  -6    0.80    0.50
  -4   7   6    0.70    0.30
  -4   7   6    1.20    0.50
  -4   7   6    0.40    0.70
   3  -7  -6   14.50    1.00
   3  -7  -6   13.80    1.20
  -3   7   6   14.60    1.20
  -3   7   6   13.90    0.70
  -3   7   6   16.50    1.00
   2  -7  -6   39.00    1.50
   2  -7  -6   40.00    1.70
  -2   7   6   38.70    1.70
  -2   7   6   40.20    1.30
  -2   7   6   40.00    1.50
   1  -7  -6   68.29    2.30
   1  -7  -6   68.29    2.20
  -1   7   6   68.49    2.00
  -1   7   6   69.59    2.00
  -1   7   6   70.19    2.40
   0  -7  -6   50.89    1.80
   0  -7  -6   51.69    1.90
   0   7   6   49.10    1.70
   0   7   6   48.60    1.90
   0   7   6   49.70    1.50
  -1  -7  -6    6.40    0.90
  -1  -7  -6    7.00    0.80
   1   7   6    6.60    0.80
   1   7   6    7.10    0.60
   1   7   6    6.70    0.90
  -2  -7  -6   67.59    2.20
  -2  -7  -6   66.29    2.70
   2   7   6   70.49    2.20
  -3  -7  -6    8.60    1.00
  -3  -7  -6    9.20    1.00
   3   7   6    7.30    0.80
  -4  -7  -6   20.60    1.30
  -4  -7  -6   20.10    1.30
   4   7   6   21.20    1.40
  -5  -7  -6   62.09    2.30
  -5  -7  -6   60.19    2.30
   5   7   6   60.99    2.40
  -6  -7  -6   -0.10    0.60
  -6  -7  -6    0.60    0.70
   8  -8  -6    0.60    0.70
  -8   8   6    0.50    0.70
  -8   8   6   -1.40    0.80
   7  -8  -6    2.50    0.80
  -7   8   6    1.60    0.70
  -7   8   6    2.60    0.80
   6  -8  -6    1.60    0.60
  -6   8   6   -0.10    0.70
  -6   8   6    0.50    0.60
   5  -8  -6   14.30    1.20
  -5   8   6   11.20    1.20
  -5   8   6   12.20    1.20
   4  -8  -6   -0.20    0.50
  -4   8   6   -0.30    0.60
  -4   8   6   -0.50    0.50
   3  -8  -6    1.10    0.70
   3  -8  -6    2.10    0.60
  -3   8   6    1.50    0.40
  -3   8   6    1.80    0.60
  -3   8   6    2.80    1.10
   2  -8  -6   -1.00    0.50
   2  -8  -6   -0.20    0.40
  -2   8   6   -0.20    0.60
  -2   8   6    0.20    0.50
  -2   8   6    0.50    0.40
   1  -8  -6    2.60    0.70
   1  -8  -6    2.90    0.60
  -1   8   6    3.60    0.80
  -1   8   6    2.90    0.50
  -1   8   6    3.20    0.50
   0  -8  -6   66.59    2.20
   0  -8  -6   68.09    2.40
   0   8   6   66.59    2.00
   0   8   6   69.59    2.10
  -1  -8  -6    4.30    0.60
   1   8   6    3.90    0.60
   1   8   6    4.80    0.90
   1   8   6    4.60    0.50
  -2  -8  -6   65.69    2.30
  -2  -8  -6   64.59    2.40
   2   8   6   67.29    2.20
  -3  -8  -6   55.59    2.10
  -3  -8  -6   54.89    2.20
   3   8   6   55.99    2.10
  -4  -8  -6    0.70    0.60
  -4  -8  -6   -0.10    0.60
   4   8   6   -0.10    0.60
  -5  -8  -6   12.90    1.30
  -5  -8  -6    9.80    1.30
   5   8   6   10.10    1.40
   7  -9  -6    2.30    0.80
  -7   9   6    2.80    0.90
  -7   9   6    3.40    0.80
   6  -9  -6   14.90    1.40
  -6   9   6   16.40    1.80
  -6   9   6   13.50    1.40
   5  -9  -6    3.90    0.80
  -5   9   6    3.70    0.80
  -5   9   6    4.50    0.90
   4  -9  -6    0.60    0.60
  -4   9   6    0.50    0.60
  -4   9   6   -0.20    0.70
   3  -9  -6    0.00    0.60
  -3   9   6    0.80    0.60
  -3   9   6    0.30    0.70
   2  -9  -6    1.70    0.60
   2  -9  -6    2.20    0.80
  -2   9   6    2.70    0.50
  -2   9   6    1.50    0.80
  -2   9   6    2.30    0.60
   1  -9  -6    4.00    0.70
   1  -9  -6    4.50    0.80
  -1   9   6    4.70    0.60
  -1   9   6    4.70    1.20
  -1   9   6    4.40    0.60
   0  -9  -6   43.40    1.80
   0  -9  -6   40.10    2.00
   0   9   6   43.50    1.50
   0   9   6   42.40    1.60
   0   9   6   43.50    2.10
  -1  -9  -6    1.00    0.60
  -1  -9  -6    1.70    0.60
   1   9   6    2.80    0.60
  -2  -9  -6    0.10    0.60
  -2  -9  -6    1.10    0.70
   2   9   6    0.90    0.60
  -3  -9  -6    0.00    0.60
  -3  -9  -6    0.40    0.70
   3   9   6   -0.20    0.70
  -4  -9  -6    2.40    0.80
  -4  -9  -6    2.70    0.80
   4   9   6    0.00    0.80
   6 -10  -6   13.30    2.30
  -6  10   6    8.40    1.10
  -6  10   6   10.50    1.20
   5 -10  -6   38.00    2.60
  -5  10   6   37.90    2.00
  -5  10   6   37.40    2.10
   4 -10  -6   11.60    1.20
  -4  10   6   12.30    1.60
  -4  10   6    9.30    1.30
   3 -10  -6    2.00    0.70
  -3  10   6    2.70    0.90
  -3  10   6    1.80    0.70
   2 -10  -6   13.10    1.70
   2 -10  -6   14.80    1.30
  -2  10   6   14.60    1.60
  -2  10   6   14.90    1.20
  -2  10   6   13.80    1.20
   1 -10  -6   36.90    2.00
   1 -10  -6   40.00    1.80
  -1  10   6   35.60    1.60
  -1  10   6   39.10    2.20
   0 -10  -6    0.80    0.80
   0 -10  -6    0.20    0.60
   0  10   6    0.70    0.60
   0  10   6    1.00    0.60
  -1 -10  -6   33.00    1.90
  -1 -10  -6   31.90    1.70
   1  10   6   30.40    1.60
  -2 -10  -6   11.70    1.50
  -2 -10  -6   11.40    1.40
   2  10   6   13.30    1.30
  -3 -10  -6   -0.10    0.70
  -3 -10  -6    0.20    0.70
   3  10   6    1.30    0.70
   5 -11  -6    0.40    1.20
  -5  11   6   -1.00    0.90
  -5  11   6   -0.30    0.90
   4 -11  -6   10.20    2.00
  -4  11   6   10.40    1.40
  -4  11   6   12.40    1.80
   3 -11  -6   50.79    2.30
  -3  11   6   51.39    2.10
  -3  11   6   49.70    2.50
   2 -11  -6   22.40    2.20
  -2  11   6   21.70    1.50
  -2  11   6   27.90    2.10
   1 -11  -6   30.00    2.10
   1 -11  -6   28.40    1.90
  -1  11   6   27.10    3.00
  -1  11   6   26.40    1.50
  -1  11   6   26.60    1.40
   0 -11  -6    1.70    0.90
   0 -11  -6    0.20    0.70
   0  11   6   -1.30    0.60
  -1 -11  -6    7.00    1.10
  -1 -11  -6    6.80    1.00
   1  11   6    8.20    1.00
  -2 -11  -6    1.30    0.80
  -2 -11  -6   -0.50    0.80
   2  11   6    2.70    0.80
   1  12  -7   17.00    1.80
  -1 -12   7   18.80    1.80
  -1 -12   7   17.60    1.30
   0  12  -7   17.50    1.70
   0 -12   7   15.00    1.20
   0 -12   7   12.80    1.70
  -1  12  -7    1.50    0.90
   1 -12   7    0.10    1.20
   1 -12   7   -0.20    0.70
  -2  12  -7   25.50    1.90
  -2  12  -7   27.20    2.30
   2 -12   7   24.60    1.60
   4  11  -7   18.70    1.70
  -4 -11   7   17.40    1.60
  -4 -11   7   17.70    1.40
   3  11  -7   55.79    2.40
  -3 -11   7   55.79    2.40
  -3 -11   7   59.39    2.20
   2  11  -7   98.59    3.30
  -2 -11   7   98.19    3.40
  -2 -11   7   96.19    3.00
   1  11  -7   25.20    1.70
  -1 -11   7   28.10    1.80
  -1 -11   7   27.70    1.40
   0  11  -7   10.10    1.40
   0 -11   7    7.80    1.00
   0 -11   7    8.90    1.00
   0 -11   7    7.00    1.10
   0 -11   7   12.40    1.70
  -1  11  -7   -0.30    0.70
  -1  11  -7   -2.10    1.20
   1 -11   7    0.80    0.60
   1 -11   7   -0.70    0.50
   1 -11   7    1.00    0.90
   1 -11   7   -0.10    0.80
  -2  11  -7    1.30    1.00
  -2  11  -7    2.00    1.30
   2 -11   7    0.90    0.70
  -3  11  -7    8.40    1.10
  -3  11  -7    9.50    1.30
   3 -11   7    9.80    1.20
  -4  11  -7   18.10    1.80
  -4  11  -7   14.80    1.90
   4 -11   7   17.90    1.40
   5  10  -7    5.00    1.00
  -5 -10   7    5.20    0.90
  -5 -10   7    3.30    0.80
   4  10  -7    1.20    0.80
  -4 -10   7   -0.20    0.60
  -4 -10   7    0.10    0.60
   3  10  -7   12.60    1.40
  -3 -10   7   11.00    1.30
  -3 -10   7    9.40    1.10
   2  10  -7    0.80    0.70
  -2 -10   7   -0.10    0.70
  -2 -10   7    0.30    0.60
  -2 -10   7    1.30    0.70
   1  10  -7    1.20    0.70
  -1 -10   7   -0.10    0.70
  -1 -10   7    0.60    0.50
  -1 -10   7    0.70    0.50
   0  10  -7    4.80    0.80
   0  10  -7    5.50    1.00
   0 -10   7    6.80    0.90
   0 -10   7    5.30    0.70
   0 -10   7    6.00    0.90
  -1  10  -7    1.60    0.90
  -1  10  -7    1.10    0.70
   1 -10   7    0.00    0.50
   1 -10   7   -0.80    0.70
  -2  10  -7    1.60    0.70
  -2  10  -7    0.80    0.90
   2 -10   7    1.40    0.90
   2 -10   7    1.50    0.50
   2 -10   7    2.10    0.60
  -3  10  -7   23.50    1.90
  -3  10  -7   23.90    1.60
   3 -10   7   22.70    1.30
  -4  10  -7   -1.40    0.90
  -4  10  -7    1.20    0.80
   4 -10   7    2.20    0.70
  -5  10  -7    6.20    1.10
  -5  10  -7    4.80    1.10
   5 -10   7    9.10    1.20
   6   9  -7    3.20    0.90
  -6  -9   7    3.30    0.80
  -6  -9   7    2.50    0.60
   5   9  -7   15.10    1.50
  -5  -9   7   15.60    1.30
  -5  -9   7   16.10    1.30
   4   9  -7    7.50    1.00
  -4  -9   7    8.10    1.10
  -4  -9   7    7.30    0.80
   3   9  -7   17.80    1.30
  -3  -9   7   16.60    1.40
  -3  -9   7   16.00    1.20
   2   9  -7    2.20    0.70
  -2  -9   7    1.50    0.50
  -2  -9   7    3.70    0.70
   1   9  -7    0.80    0.60
  -1  -9   7    2.00    0.60
  -1  -9   7    1.00    0.50
  -1  -9   7    1.50    0.40
   0   9  -7    3.40    0.70
   0   9  -7    3.60    0.80
   0  -9   7    3.60    0.70
   0  -9   7    4.50    0.60
   0  -9   7    5.00    0.70
  -1   9  -7   77.09    2.70
  -1   9  -7   81.99    2.90
   1  -9   7   78.89    2.30
   1  -9   7   81.49    2.40
   1  -9   7   82.69    2.80
  -2   9  -7    1.30    0.60
  -2   9  -7    0.80    0.80
   2  -9   7    0.80    0.40
   2  -9   7    1.10    0.70
  -3   9  -7    0.80    0.80
  -3   9  -7    0.40    0.60
   3  -9   7   -0.50    0.50
   3  -9   7    0.60    0.40
  -4   9  -7    5.30    0.90
  -4   9  -7    7.20    1.00
   4  -9   7    5.00    1.00
  -5   9  -7   -0.30    0.70
  -5   9  -7    1.00    0.80
   5  -9   7   -0.40    0.60
  -6   9  -7   -1.10    0.80
  -6   9  -7    0.20    0.80
   6  -9   7    0.50    0.70
   7   8  -7   -1.40    0.80
  -7  -8   7    0.20    0.80
  -7  -8   7   -0.40    1.10
   6   8  -7    2.70    0.80
  -6  -8   7    1.70    0.70
  -6  -8   7    2.60    0.70
   5   8  -7    6.30    0.90
  -5  -8   7    5.20    0.80
  -5  -8   7    6.80    0.90
   4   8  -7    1.40    0.60
  -4  -8   7    1.20    0.60
  -4  -8   7    1.20    0.60
   3   8  -7    6.20    0.80
  -3  -8   7    7.00    0.90
  -3  -8   7    5.80    0.70
   2   8  -7   29.80    1.40
  -2  -8   7   27.90    1.50
  -2  -8   7   25.30    0.90
  -2  -8   7   26.90    1.30
   1   8  -7    3.80    0.70
   1   8  -7    3.00    0.80
  -1  -8   7    4.20    0.50
  -1  -8   7    4.50    0.60
  -1  -8   7    3.70    0.70
   0   8  -7    3.90    0.90
   0   8  -7    3.10    0.60
   0  -8   7    4.90    0.70
   0  -8   7    5.30    0.70
   0  -8   7    4.00    0.70
  -1   8  -7   22.20    1.30
  -1   8  -7   25.10    1.80
   1  -8   7   21.50    1.00
   1  -8   7   21.50    1.00
   1  -8   7   20.40    1.30
  -2   8  -7  106.99    3.30
  -2   8  -7  102.89    3.10
   2  -8   7  103.99    2.90
   2  -8   7  100.89    3.20
   2  -8   7  105.39    2.80
  -3   8  -7    0.20    0.70
  -3   8  -7    1.10    0.60
   3  -8   7   -0.90    0.40
  -4   8  -7   10.70    1.30
  -4   8  -7    8.90    1.00
   4  -8   7   10.60    1.00
   4  -8   7   10.40    0.80
  -5   8  -7    6.30    0.90
  -5   8  -7    6.80    1.00
   5  -8   7   10.00    1.10
  -6   8  -7   27.10    1.70
  -6   8  -7   21.30    1.60
   6  -8   7   22.10    1.50
  -7   8  -7   13.20    1.50
  -7   8  -7   14.00    1.50
   7  -8   7   16.60    1.50
   8   7  -7   -1.90    0.70
  -8  -7   7   -0.30    0.70
  -8  -7   7   -0.10    0.40
   7   7  -7    5.70    0.90
  -7  -7   7    6.00    0.80
  -7  -7   7    5.40    0.90
   6   7  -7    1.40    0.70
  -6  -7   7    2.30    0.70
  -6  -7   7    2.10    0.50
   5   7  -7    1.50    0.70
  -5  -7   7    1.60    0.60
  -5  -7   7    1.10    0.50
   4   7  -7   -0.10    0.50
  -4  -7   7    0.80    0.50
  -4  -7   7    0.80    0.50
   3   7  -7   49.90    1.90
  -3  -7   7   52.69    1.80
  -3  -7   7   54.09    1.90
   2   7  -7  119.59    3.40
   2   7  -7  118.59    3.40
  -2  -7   7  112.79    2.80
  -2  -7   7  116.59    3.40
  -2  -7   7  118.49    3.30
   1   7  -7   70.09    2.40
  -1  -7   7   73.79    2.20
  -1  -7   7   72.99    2.40
  -1  -7   7   73.99    1.90
   0   7  -7   17.10    1.50
   0   7  -7   13.00    1.20
   0  -7   7   14.20    0.80
   0  -7   7   14.70    0.90
   0  -7   7   17.40    1.30
  -1   7  -7   10.60    1.00
  -1   7  -7    9.40    1.20
   1  -7   7    9.30    0.70
   1  -7   7   11.10    0.70
   1  -7   7   10.90    1.00
  -2   7  -7    0.50    0.60
  -2   7  -7   -0.50    0.50
   2  -7   7    0.40    0.40
   2  -7   7    0.80    0.40
   2  -7   7    0.60    0.50
  -3   7  -7    6.20    0.90
  -3   7  -7    5.60    0.70
   3  -7   7    5.70    0.60
   3  -7   7    4.50    0.70
   3  -7   7    5.30    0.70
  -4   7  -7    0.50    0.60
  -4   7  -7    0.00    0.50
   4  -7   7    0.20    0.50
   4  -7   7   -0.20    0.40
  -5   7  -7   33.70    1.60
  -5   7  -7   31.80    1.70
   5  -7   7   33.40    1.20
   5  -7   7   33.40    1.60
  -6   7  -7   17.00    1.40
  -6   7  -7   16.10    1.40
   6  -7   7   17.80    1.30
  -7   7  -7    0.50    0.70
  -7   7  -7   -0.20    0.70
   7  -7   7    0.10    0.70
   8   6  -7    7.90    1.00
  -8  -6   7    6.10    0.60
  -8  -6   7   10.40    1.30
  -8  -6   7    7.00    0.70
   7   6  -7    0.20    0.60
  -7  -6   7   -0.30    0.40
  -7  -6   7   -0.50    0.50
  -7  -6   7    0.50    0.60
   6   6  -7    0.00    0.60
  -6  -6   7    0.10    0.40
  -6  -6   7   -0.60    0.50
  -6  -6   7    0.30    0.40
   5   6  -7    0.20    0.50
  -5  -6   7   -0.40    0.50
  -5  -6   7    0.60    0.40
   4   6  -7   18.80    1.20
  -4  -6   7   20.20    1.10
  -4  -6   7   19.70    1.10
  -3  -6   7    1.10    0.50
  -3  -6   7    2.00    0.50
   2   6  -7   91.69    2.80
   2   6  -7   96.09    2.80
  -2  -6   7   94.19    2.70
  -2  -6   7   90.89    2.70
   1   6  -7    1.80    0.50
   1   6  -7    1.80    0.60
  -1  -6   7    1.10    0.50
  -1  -6   7    2.00    0.40
  -1  -6   7    1.80    0.30
   0   6  -7   16.30    1.00
   0   6  -7   14.20    1.10
   0  -6   7   14.20    1.00
   0  -6   7   14.90    0.80
   0  -6   7   14.90    0.70
  -1   6  -7   18.20    1.10
  -1   6  -7   17.30    1.20
   1  -6   7   17.90    0.80
   1  -6   7   17.50    1.10
   1  -6   7   18.00    0.90
  -2   6  -7   19.10    1.10
  -2   6  -7   19.30    1.30
   2  -6   7   20.20    0.90
   2  -6   7   19.80    1.20
   2  -6   7   21.80    0.90
  -3   6  -7    0.60    0.80
  -3   6  -7    0.00    0.50
   3  -6   7    0.20    0.60
   3  -6   7   -0.30    0.40
   3  -6   7    0.10    0.40
  -4   6  -7    2.00    0.60
  -4   6  -7    2.40    0.60
   4  -6   7    1.80    0.40
   4  -6   7    1.50    0.50
  -5   6  -7    8.80    1.10
  -5   6  -7    6.40    0.80
   5  -6   7    6.90    1.00
   5  -6   7    6.90    0.70
  -6   6  -7   14.30    1.10
  -6   6  -7   13.60    1.30
   6  -6   7   12.60    0.90
   6  -6   7   12.60    1.20
  -7   6  -7    8.90    1.20
  -7   6  -7    9.20    1.20
   7  -6   7    8.60    1.00
  -8   6  -7    5.90    0.90
  -8   6  -7    5.10    0.90
   8  -6   7    5.40    1.00
   9   5  -7    1.10    0.80
  -9  -5   7    2.30    0.80
   8   5  -7   43.50    2.00
  -8  -5   7   44.30    2.00
   7   5  -7    3.30    0.70
  -7  -5   7    3.40    0.50
  -7  -5   7    2.80    0.50
  -7  -5   7    2.50    0.70
   6   5  -7    3.10    0.70
  -6  -5   7    3.90    0.60
  -6  -5   7    3.10    0.50
  -6  -5   7    3.00    0.50
   5   5  -7    2.40    0.60
  -5  -5   7    2.10    0.40
  -5  -5   7    1.70    0.50
  -5  -5   7    1.60    0.50
   4   5  -7    6.70    0.90
  -4  -5   7    6.30    0.70
  -4  -5   7    5.50    0.70
   3   5  -7   12.70    1.00
   3   5  -7   14.00    1.00
  -3  -5   7   12.20    0.80
  -3  -5   7   12.50    0.90
   2   5  -7    8.30    0.90
   2   5  -7    7.10    0.80
  -2  -5   7    7.30    0.80
   1   5  -7    1.50    0.90
   1   5  -7    1.40    0.40
  -1  -5   7    1.00    0.40
  -1  -5   7    1.70    0.20
  -1  -5   7    0.60    0.40
   0   5  -7    0.50    0.40
   0   5  -7    0.60    0.80
   0  -5   7    0.10    0.30
   0  -5   7   -0.20    0.70
   0  -5   7    0.40    0.20
  -1   5  -7   16.50    1.00
  -1   5  -7   17.50    1.10
   1  -5   7   17.70    0.80
   1  -5   7   16.70    1.00
   1  -5   7   17.80    0.90
  -2   5  -7    3.50    0.60
  -2   5  -7    3.80    0.50
   2  -5   7    4.20    0.60
   2  -5   7    3.20    0.50
  -3   5  -7    2.80    0.60
  -3   5  -7    2.10    0.50
  -3   5  -7    2.70    0.50
   3  -5   7    2.90    0.40
   3  -5   7    2.50    0.50
  -4   5  -7    0.00    0.50
  -4   5  -7   -0.10    0.50
   4  -5   7    0.40    0.30
  -5   5  -7    3.00    0.60
  -5   5  -7    3.00    0.60
   5  -5   7    3.70    0.50
  -6   5  -7    0.40    0.60
  -6   5  -7    0.00    0.50
  -6   5  -7    0.10    0.60
   6  -5   7   -0.20    0.50
  -7   5  -7   -1.00    0.60
  -7   5  -7    0.40    0.80
  -7   5  -7   -0.70    0.60
   7  -5   7    0.10    0.50
  -8   5  -7   11.70    1.60
  -8   5  -7   10.90    1.50
  -8   5  -7   13.90    1.30
   9   4  -7   -0.30    0.80
  -9  -4   7    0.40    0.70
   8   4  -7  221.28    5.90
  -8  -4   7  221.18    5.90
   7   4  -7   16.50    1.30
  -7  -4   7   15.10    0.80
  -7  -4   7   13.20    1.20
  -7  -4   7   15.40    0.70
   6   4  -7  528.25   12.70
  -6  -4   7  542.55   12.50
  -6  -4   7  532.25   12.80
  -6  -4   7  523.05   12.50
   5   4  -7  191.28    5.30
  -5  -4   7  205.48    4.90
  -5  -4   7  193.98    5.10
   4   4  -7  101.89    2.90
  -4  -4   7  101.59    2.90
  -4  -4   7  103.29    2.80
  -4  -4   7  104.39    2.80
   3   4  -7   26.90    1.20
   3   4  -7   24.10    1.20
  -3  -4   7   25.80    1.10
  -3  -4   7   26.60    1.10
   2   4  -7   72.29    2.20
   2   4  -7   73.39    2.20
  -2  -4   7   71.69    2.20
  -2  -4   7   73.19    2.20
  -2  -4   7   73.19    2.10
   1   4  -7   60.49    1.90
   1   4  -7   61.79    1.90
  -1  -4   7   60.39    1.50
  -1  -4   7   59.89    1.80
  -1  -4   7   59.69    1.90
   0   4  -7  111.79    3.00
   0   4  -7  107.99    3.00
   0  -4   7  111.39    2.70
   0  -4   7  109.69    3.00
   0  -4   7  107.79    2.90
  -1   4  -7    9.10    0.70
  -1   4  -7    8.30    0.80
  -1   4  -7    9.70    0.60
   1  -4   7    9.50    0.60
   1  -4   7    8.30    0.80
  -2   4  -7    2.90    0.40
  -2   4  -7    2.80    0.50
  -2   4  -7    2.80    0.50
   2  -4   7    2.60    0.40
  -3   4  -7    1.00    0.40
  -3   4  -7    1.30    0.40
  -3   4  -7    0.60    0.40
   3  -4   7    1.20    0.50
   3  -4   7    0.70    0.40
  -4   4  -7   48.90    1.70
  -4   4  -7   49.80    1.80
  -4   4  -7   48.80    1.70
   4  -4   7   47.80    1.60
  -5   4  -7    3.10    0.60
  -5   4  -7    2.20    0.60
  -5   4  -7    2.40    0.60
   5  -4   7    2.80    0.50
  -6   4  -7    3.80    0.70
  -6   4  -7    3.80    0.60
  -6   4  -7    4.80    0.70
   6  -4   7    5.90    0.80
  -7   4  -7    8.00    1.00
  -7   4  -7    5.10    0.80
  -7   4  -7    7.40    1.00
   7  -4   7    5.70    0.80
  -8   4  -7    6.20    0.80
  -8   4  -7    7.10    1.10
  -8   4  -7    5.50    0.90
   8  -4   7    8.30    1.10
  10   3  -7    0.00    0.80
 -10  -3   7    1.00    0.70
   9   3  -7    3.20    0.80
  -9  -3   7    2.50    0.70
   8   3  -7   40.20    1.80
  -8  -3   7   40.90    1.70
   7   3  -7  144.89    4.00
  -7  -3   7  144.49    4.00
  -7  -3   7  139.79    3.50
  -7  -3   7  143.19    3.50
   6   3  -7  145.29    4.00
  -6  -3   7  147.09    4.00
  -6  -3   7  149.39    3.70
  -6  -3   7  148.19    3.70
   5   3  -7    1.80    0.50
  -5  -3   7    2.60    0.50
  -5  -3   7    2.00    0.40
  -5  -3   7    2.70    0.40
   4   3  -7  146.29    3.90
  -4  -3   7  146.69    3.70
  -4  -3   7  145.19    3.80
  -4  -3   7  144.59    3.70
   3   3  -7   23.20    1.10
   3   3  -7   21.70    1.00
  -3  -3   7   20.80    1.00
  -3  -3   7   24.70    1.00
  -3  -3   7   23.50    1.00
   2   3  -7   11.00    0.80
   2   3  -7   10.70    0.80
  -2  -3   7   11.60    0.70
  -2  -3   7   11.40    0.80
  -2  -3   7   11.00    0.90
   1   3  -7  357.76    8.50
   1   3  -7  357.86    8.60
  -1  -3   7  360.86    8.50
  -1  -3   7  353.46    8.60
   0   3  -7  159.38    3.70
   0   3  -7  158.08    3.90
   0   3  -7  148.69    4.00
   0  -3   7  152.18    3.90
  -1   3  -7  226.78    5.60
  -1   3  -7  225.68    5.70
  -1   3  -7  227.58    5.40
   1  -3   7  230.18    5.70
   1  -3   7  229.38    5.60
  -2   3  -7    8.60    0.60
  -2   3  -7    9.10    0.80
  -2   3  -7    8.50    0.70
   2  -3   7    9.80    0.80
   2  -3   7    9.20    0.70
  -3   3  -7   26.70    1.20
  -3   3  -7   26.80    1.10
  -3   3  -7   28.00    1.10
   3  -3   7   28.80    1.10
   3  -3   7   30.30    1.30
  -4   3  -7    1.40    0.40
  -4   3  -7    2.40    0.40
  -4   3  -7    1.50    0.50
   4  -3   7    2.30    0.80
   4  -3   7    2.00    0.40
  -5   3  -7    5.60    0.70
  -5   3  -7    3.90    0.60
  -5   3  -7    3.50    0.60
   5  -3   7    4.10    0.50
  -6   3  -7  137.79    3.80
  -6   3  -7  140.59    3.70
  -6   3  -7  141.09    3.90
   6  -3   7  142.09    3.80
  -7   3  -7    0.10    0.50
  -7   3  -7    0.50    0.60
  -7   3  -7   -0.40    0.50
   7  -3   7    0.80    0.50
  -8   3  -7    6.20    1.10
  -8   3  -7    8.70    1.00
   8  -3   7    6.00    0.70
  10   2  -7    0.80    0.80
 -10  -2   7    0.20    0.70
   9   2  -7   41.20    1.90
  -9  -2   7   42.90    1.80
   8   2  -7    0.90    0.60
  -8  -2   7   -0.10    0.50
   7   2  -7    8.70    0.60
   7   2  -7    6.50    0.80
  -7  -2   7    6.10    0.80
  -7  -2   7    6.70    0.50
  -7  -2   7    6.00    0.50
   6   2  -7    8.40    0.50
  -6  -2   7    8.50    0.80
  -6  -2   7    7.90    0.70
  -6  -2   7    9.00    0.70
   5   2  -7   17.30    1.00
  -5  -2   7   17.30    0.90
  -5  -2   7   19.00    0.80
  -5  -2   7   17.80    1.00
   4   2  -7    1.40    0.50
  -4  -2   7    1.30    0.40
  -4  -2   7    1.90    0.40
  -4  -2   7    1.00    0.30
   3   2  -7   46.00    1.50
   3   2  -7   45.50    1.50
  -3  -2   7   47.00    1.50
  -3  -2   7   45.80    1.50
  -3  -2   7   47.10    1.50
   2   2  -7   25.80    1.00
   2   2  -7   25.60    1.00
  -2  -2   7   24.60    1.10
  -2  -2   7   25.70    1.00
  -2  -2   7   25.10    1.00
   1   2  -7   23.10    1.00
   1   2  -7   22.70    0.70
  -1  -2   7   23.70    1.00
  -1  -2   7   22.60    0.90
   0   2  -7   13.20    0.70
   0   2  -7   12.90    0.50
   0   2  -7   12.20    0.80
   0  -2   7   12.30    0.80
   0  -2   7   11.70    0.70
  -1   2  -7    0.70    0.60
  -1   2  -7    0.90    0.30
  -1   2  -7    0.70    0.30
   1  -2   7    0.60    0.30
   1  -2   7    0.50    0.30
  -2   2  -7   54.29    1.60
  -2   2  -7   54.09    1.60
  -2   2  -7   54.59    1.80
   2  -2   7   55.69    1.70
   2  -2   7   55.59    1.70
  -3   2  -7   45.00    1.50
  -3   2  -7   46.70    1.60
  -3   2  -7   46.00    1.40
  -3   2  -7   43.00    1.60
   3  -2   7   48.00    1.50
   3  -2   7   48.70    1.60
  -4   2  -7   42.70    1.40
  -4   2  -7   42.40    1.60
  -4   2  -7   44.90    1.60
   4  -2   7   44.30    1.70
   4  -2   7   41.50    1.50
  -5   2  -7   99.79    2.90
  -5   2  -7   97.39    2.80
  -5   2  -7   96.99    2.60
   5  -2   7   99.09    2.80
  -6   2  -7    1.30    0.50
  -6   2  -7    1.20    0.60
  -6   2  -7    1.00    0.50
   6  -2   7    2.00    0.60
  -7   2  -7   15.80    1.30
  -7   2  -7   15.20    1.00
  -7   2  -7   14.10    1.00
   7  -2   7   15.60    1.10
  -8   2  -7    6.00    1.20
  -8   2  -7    6.70    0.90
   8  -2   7    8.10    1.10
  10   1  -7    3.70    0.80
 -10  -1   7    1.70    0.70
   9   1  -7    6.50    0.90
   9   1  -7    6.70    0.80
  -9  -1   7    5.70    0.70
   8   1  -7   10.90    1.10
   8   1  -7   11.80    0.80
  -8  -1   7    9.60    1.00
   7   1  -7    7.10    1.00
   7   1  -7    8.60    0.60
   6   1  -7   12.00    0.60
  -6  -1   7   12.20    0.70
  -6  -1   7   11.80    0.90
   5   1  -7    4.40    0.60
  -5  -1   7    4.10    0.60
  -5  -1   7    4.80    0.60
  -5  -1   7    4.20    0.50
   4   1  -7    0.00    0.40
  -4  -1   7    0.00    0.30
  -4  -1   7    0.60    0.40
  -4  -1   7    0.40    0.30
   3   1  -7  129.09    3.30
   3   1  -7  128.89    3.40
  -3  -1   7  131.79    3.30
  -3  -1   7  131.69    3.30
  -3  -1   7  123.99    3.30
   2   1  -7  433.26   10.30
   2   1  -7  438.06   10.30
   2   1  -7  439.66   10.00
  -2  -1   7  420.26   10.30
  -2  -1   7  451.55   10.30
  -2  -1   7  434.36   10.30
   1   1  -7   13.50    0.80
   1   1  -7   11.60    0.60
   1   1  -7   12.40    0.70
  -1  -1   7   12.30    0.70
  -1  -1   7   12.90    0.70
   0   1  -7   18.90    0.70
   0   1  -7   17.40    0.90
   0   1  -7   17.50    0.70
   0  -1   7   19.20    0.80
   0  -1   7   17.90    0.90
  -1   1  -7   23.90    0.90
  -1   1  -7   25.70    0.90
  -1   1  -7   24.10    1.10
   1  -1   7   24.40    1.00
  -2   1  -7  101.89    2.60
  -2   1  -7  100.69    2.80
  -2   1  -7  100.99    2.70
   2  -1   7  102.39    2.70
   2  -1   7  102.29    2.80
  -3   1  -7  193.48    5.10
  -3   1  -7  204.18    5.10
  -3   1  -7  204.68    4.90
  -3   1  -7  205.48    5.20
   3  -1   7  204.28    5.10
   3  -1   7  207.38    5.10
  -4   1  -7   -0.10    0.40
  -4   1  -7    0.80    0.30
  -4   1  -7    0.80    0.40
  -4   1  -7    0.90    0.40
   4  -1   7    0.70    0.50
   4  -1   7    0.30    0.40
  -5   1  -7   13.60    1.00
  -5   1  -7   12.70    0.70
  -5   1  -7   11.20    0.90
   5  -1   7   14.00    1.00
  -6   1  -7   26.60    1.00
  -6   1  -7   23.60    1.40
  -6   1  -7   24.90    1.20
   6  -1   7   23.20    1.20
  -7   1  -7    1.30    0.70
  -7   1  -7    3.00    0.80
   7  -1   7    1.40    0.60
  -8   1  -7    6.40    1.30
  -8   1  -7    9.70    1.00
   8  -1   7    8.20    0.90
 -10   0   7   23.00    1.40
 -10   0   7   19.70    1.70
   9   0  -7    6.70    0.70
  -9   0   7    6.50    0.90
  -9   0   7    6.00    0.70
   8   0  -7    8.50    0.80
  -8   0   7    7.90    1.10
  -8   0   7    8.30    0.90
   7   0  -7    3.10    0.40
  -7   0   7    2.90    0.40
  -7   0   7    3.40    0.60
  -7   0   7    3.10    0.40
  -7   0   7    3.00    0.60
   6   0  -7    7.00    0.60
  -6   0   7    5.70    0.60
  -6   0   7    4.70    0.50
  -6   0   7    4.50    0.60
   5   0  -7   54.49    1.50
  -5   0   7   52.59    1.60
  -5   0   7   54.39    1.70
  -5   0   7   55.59    1.60
  -5   0   7   54.69    1.80
   4   0  -7   32.10    0.90
  -4   0   7   32.90    1.10
  -4   0   7   31.00    1.20
  -4   0   7   31.50    1.10
  -4   0   7   31.50    1.10
   3   0  -7    1.30    0.40
  -3   0   7    1.00    0.30
  -3   0   7    0.40    0.40
  -3   0   7    0.80    0.40
  -3   0   7    0.80    0.30
   2   0  -7   11.80    0.60
   2   0  -7   11.70    0.70
   2   0  -7   11.60    0.70
  -2   0   7   12.10    0.60
  -2   0   7   11.60    0.70
  -2   0   7   12.10    0.80
   1   0  -7    3.50    0.50
   1   0  -7    3.10    0.40
   1   0  -7    3.80    0.40
  -1   0   7    3.40    0.40
  -1   0   7    3.70    0.50
   0   0  -7  426.66   10.00
   0   0  -7  425.16   10.20
   0   0  -7  425.96   10.00
   0   0   7  433.26   10.20
   0   0   7  436.46   10.10
  -1   0  -7   68.29    1.80
  -1   0  -7   67.89    1.90
  -1   0  -7   65.09    2.00
   1   0   7   67.69    1.90
   1   0   7   67.89    2.00
  -2   0  -7  491.25   11.70
  -2   0  -7  494.65   11.50
  -2   0  -7  487.55   11.80
   2   0   7  506.35   11.80
   2   0   7  509.25   11.80
  -3   0  -7   12.10    0.60
  -3   0  -7   11.90    0.80
  -3   0  -7   11.70    0.80
  -3   0  -7   13.10    0.90
   3   0   7   11.20    0.90
   3   0   7   12.10    0.80
  -4   0  -7   38.80    1.50
  -4   0  -7   38.40    1.40
  -4   0  -7   37.00    1.40
   4   0   7   38.20    1.40
  -5   0  -7    2.60    0.50
  -5   0  -7    3.50    0.60
  -5   0  -7    3.70    0.40
  -6   0  -7   36.30    1.60
  -6   0  -7   34.70    1.40
   6   0   7   34.70    1.50
  -7   0  -7    7.10    0.90
  -7   0  -7   10.20    0.90
   7   0   7    6.80    0.80
  -8   0  -7   35.30    1.50
  -8   0  -7   35.90    2.20
   8   0   7   33.60    1.70
  10  -1  -7   28.40    1.50
 -10   1   7   30.50    1.50
 -10   1   7   27.50    1.80
   9  -1  -7    3.40    0.70
  -9   1   7    3.10    0.80
  -9   1   7    3.00    0.60
   8  -1  -7    0.80    0.50
  -8   1   7    0.70    0.60
  -8   1   7   -0.30    0.60
   7  -1  -7    2.70    0.50
  -7   1   7    2.90    0.50
  -7   1   7    3.00    0.60
  -7   1   7    3.30    0.50
  -7   1   7    3.20    0.40
   6  -1  -7    0.70    0.30
  -6   1   7    1.00    0.40
  -6   1   7    1.20    0.40
   5  -1  -7  132.59    3.30
  -5   1   7  131.69    3.40
  -5   1   7  129.29    3.40
  -5   1   7  132.29    3.40
  -5   1   7  133.99    3.60
   4  -1  -7   70.29    1.80
  -4   1   7   69.39    2.00
  -4   1   7   69.89    2.10
  -4   1   7   70.79    2.00
  -4   1   7   68.79    2.00
   3  -1  -7   14.70    0.80
   3  -1  -7   16.00    0.60
  -3   1   7   15.00    0.80
  -3   1   7   16.20    0.80
  -3   1   7   15.70    0.80
   2  -1  -7   42.80    1.20
   2  -1  -7   40.90    1.40
  -2   1   7   42.50    1.30
  -2   1   7   40.80    1.30
  -2   1   7   40.40    1.40
  -2   1   7   43.80    1.60
   1  -1  -7    5.20    0.50
   1  -1  -7    4.30    0.50
   1  -1  -7    3.70    0.50
  -1   1   7    3.20    0.50
  -1   1   7    4.30    0.50
   0  -1  -7   32.40    1.00
   0  -1  -7   31.70    1.20
   0  -1  -7   32.30    1.00
   0   1   7   31.90    1.20
   0   1   7   31.60    1.10
  -1  -1  -7  276.97    6.50
  -1  -1  -7  277.67    6.40
  -1  -1  -7  269.77    6.60
   1   1   7  262.37    6.60
   1   1   7  268.97    6.60
  -2  -1  -7  123.69    2.90
  -2  -1  -7  122.49    3.30
  -2  -1  -7  124.59    3.20
   2   1   7  120.29    3.30
   2   1   7  122.29    3.30
  -3  -1  -7    1.30    0.40
  -3  -1  -7    1.00    0.40
  -3  -1  -7    0.90    0.40
   3   1   7    1.30    0.50
   3   1   7    0.90    0.40
  -4  -1  -7    3.80    0.50
  -4  -1  -7    3.90    0.60
  -4  -1  -7    2.80    0.50
   4   1   7    3.40    0.50
  -5  -1  -7    1.30    0.50
  -5  -1  -7    1.70    0.50
   5   1   7    0.90    0.50
  -6  -1  -7    1.20    0.60
  -6  -1  -7    1.90    0.50
   6   1   7    1.00    0.50
  -7  -1  -7    6.70    0.80
  -7  -1  -7    5.70    0.80
   7   1   7    5.00    0.70
  -8  -1  -7   15.60    1.60
  -8  -1  -7   18.10    1.10
   8   1   7   21.80    1.50
  10  -2  -7    0.60    0.70
 -10   2   7   -0.30    0.80
   9  -2  -7    2.60    0.60
  -9   2   7    1.50    0.80
   8  -2  -7    3.70    0.60
  -8   2   7    3.70    0.60
  -8   2   7    3.30    0.70
   7  -2  -7   12.90    0.90
  -7   2   7   11.30    0.80
  -7   2   7   10.10    1.10
  -7   2   7   10.00    0.70
  -7   2   7   10.60    0.70
   6  -2  -7    0.30    0.40
  -6   2   7   -0.50    0.50
  -6   2   7    0.20    0.40
  -6   2   7    0.10    0.40
  -6   2   7    0.00    0.40
   5  -2  -7    0.40    0.30
  -5   2   7    0.70    0.40
  -5   2   7    0.00    0.40
  -5   2   7    0.60    0.30
  -5   2   7   -0.20    0.30
   4  -2  -7   16.10    1.00
   4  -2  -7   14.30    0.70
  -4   2   7   14.70    0.90
  -4   2   7   14.80    0.90
  -4   2   7   14.20    0.70
  -4   2   7   14.20    0.80
   3  -2  -7   16.80    0.90
   3  -2  -7   17.10    0.70
  -3   2   7   17.10    0.80
  -3   2   7   18.10    0.90
  -3   2   7   17.60    0.90
  -3   2   7   18.70    1.00
   2  -2  -7   77.89    2.20
   2  -2  -7   79.99    2.10
  -2   2   7   76.69    2.20
  -2   2   7   78.39    2.10
  -2   2   7   78.09    2.10
   1  -2  -7  303.27    7.10
   1  -2  -7  265.37    6.70
  -1   2   7  258.97    6.80
  -1   2   7  262.47    6.70
  -1   2   7  323.27    7.10
   0  -2  -7    5.00    0.50
   0  -2  -7    4.40    0.70
   0  -2  -7    4.20    0.40
   0   2   7    5.00    0.70
   0   2   7    3.80    0.50
  -1  -2  -7    6.00    0.40
  -1  -2  -7    5.30    0.70
  -1  -2  -7    5.30    0.60
   1   2   7    6.90    0.60
  -2  -2  -7    1.30    0.40
  -2  -2  -7    1.10    0.40
   2   2   7    0.90    0.40
   2   2   7    0.90    0.40
  -3  -2  -7   28.40    1.30
  -3  -2  -7   29.40    1.30
  -3  -2  -7   30.00    1.20
   3   2   7   31.10    1.30
  -4  -2  -7   42.60    1.80
   4   2   7   39.40    1.90
  -5  -2  -7   37.70    1.60
  -5  -2  -7   39.60    1.50
   5   2   7   39.40    1.60
  -6  -2  -7    1.40    0.60
  -6  -2  -7    0.40    0.50
   6   2   7    0.90    0.60
  -7  -2  -7    3.50    0.60
  -7  -2  -7    4.10    0.80
   7   2   7    2.80    0.70
  -8  -2  -7    2.30    0.90
  -8  -2  -7    1.10    0.50
   8   2   7    2.30    0.80
  10  -3  -7   28.40    1.60
 -10   3   7   25.50    2.10
   9  -3  -7   63.49    2.20
  -9   3   7   62.99    2.50
   8  -3  -7   33.90    1.40
  -8   3   7   33.50    1.20
  -8   3   7   34.60    1.80
  -8   3   7   33.60    1.30
  -8   3   7   33.40    1.20
   7  -3  -7    5.40    0.60
  -7   3   7    4.70    0.70
  -7   3   7    6.70    0.70
  -7   3   7    5.30    0.70
  -7   3   7    7.00    0.70
   6  -3  -7  220.28    5.40
  -6   3   7  218.48    5.60
  -6   3   7  213.48    5.30
  -6   3   7  220.08    5.40
  -6   3   7  211.88    5.40
   5  -3  -7   49.00    1.60
  -5   3   7   47.70    1.70
  -5   3   7   48.40    1.60
  -5   3   7   48.60    1.50
  -5   3   7   49.90    1.60
   4  -3  -7   78.19    2.30
   4  -3  -7   78.69    2.20
  -4   3   7   78.89    2.20
  -4   3   7   81.39    2.30
  -4   3   7   79.59    2.30
  -4   3   7   80.59    2.30
   3  -3  -7  128.19    3.20
   3  -3  -7  126.69    3.40
  -3   3   7  129.39    3.40
  -3   3   7  127.09    3.30
  -3   3   7  131.79    3.20
  -3   3   7  120.69    3.40
   2  -3  -7    0.70    0.40
   2  -3  -7    0.50    0.30
  -2   3   7    0.30    0.30
  -2   3   7    0.00    0.40
  -2   3   7    0.20    0.30
   1  -3  -7    1.20    0.40
   1  -3  -7    1.00    0.30
  -1   3   7    1.10    0.30
  -1   3   7    1.20    0.30
  -1   3   7    1.10    0.40
   0  -3  -7    6.30    0.60
   0  -3  -7    5.20    0.70
   0   3   7    5.70    0.70
   0   3   7    5.50    0.60
   0   3   7    6.20    0.50
  -1  -3  -7    6.80    0.70
  -1  -3  -7    7.40    0.40
  -1  -3  -7    7.30    0.80
   1   3   7    7.40    0.80
   1   3   7    7.70    0.70
  -2  -3  -7    2.70    0.50
  -2  -3  -7    3.80    0.60
   2   3   7    2.70    0.50
   2   3   7    2.60    0.50
  -3  -3  -7    1.40    0.50
  -3  -3  -7    1.30    0.40
   3   3   7    1.80    0.60
   3   3   7    0.90    0.50
  -4  -3  -7    1.60    0.50
  -4  -3  -7    1.10    0.50
   4   3   7    0.70    0.50
  -5  -3  -7    1.10    0.50
  -5  -3  -7    1.10    0.50
   5   3   7    1.50    0.60
  -6  -3  -7    1.10    0.60
  -6  -3  -7    0.80    0.50
   6   3   7    0.80    0.60
  -7  -3  -7   -0.30    0.70
  -7  -3  -7    0.20    0.50
   7   3   7   -0.30    0.60
  -8  -3  -7    6.00    0.80
  -8  -3  -7    7.70    1.60
   8   3   7    7.10    1.00
  10  -4  -7   11.20    1.40
 -10   4   7   13.00    1.70
   9  -4  -7   14.90    1.20
  -9   4   7   16.80    1.50
   8  -4  -7  103.59    3.10
  -8   4   7  104.79    2.80
  -8   4   7  110.09    3.50
  -8   4   7  103.19    2.80
   7  -4  -7   16.70    1.20
  -7   4   7   16.90    1.30
  -7   4   7   17.60    1.00
  -7   4   7   18.10    0.90
  -7   4   7   18.80    1.00
   6  -4  -7   26.70    1.20
  -6   4   7   26.80    1.00
  -6   4   7   26.60    1.20
  -6   4   7   23.90    1.20
  -6   4   7   26.70    1.40
   5  -4  -7   10.50    0.80
  -5   4   7   10.00    1.00
  -5   4   7   11.50    0.70
  -5   4   7    9.90    0.90
   4  -4  -7 2031.40   47.40
   4  -4  -7 2084.49   47.40
  -4   4   7 2028.50   47.40
  -4   4   7 2076.19   47.30
  -4   4   7 2090.79   47.50
   3  -4  -7    0.60    0.50
   3  -4  -7    0.20    0.40
  -3   4   7    0.80    0.40
  -3   4   7    0.40    0.30
  -3   4   7    0.40    0.40
   2  -4  -7  123.39    3.60
   2  -4  -7  127.59    3.30
  -2   4   7  123.09    3.40
  -2   4   7  126.29    3.20
  -2   4   7  125.39    3.20
   1  -4  -7   20.50    0.90
  -1   4   7   19.90    0.80
  -1   4   7   21.00    1.10
  -1   4   7   19.20    0.90
   0  -4  -7  122.69    3.40
   0  -4  -7  126.99    3.30
   0   4   7  129.09    3.10
   0   4   7  124.89    3.40
   0   4   7  125.69    3.30
  -1  -4  -7   21.70    1.00
  -1  -4  -7   21.60    1.10
   1   4   7   21.20    1.00
   1   4   7   22.40    1.20
  -2  -4  -7   48.20    1.60
  -2  -4  -7   47.20    1.70
   2   4   7   47.90    1.80
   2   4   7   48.40    1.70
  -3  -4  -7    6.70    0.80
  -3  -4  -7    7.90    0.80
   3   4   7    7.20    0.80
  -4  -4  -7    6.70    0.90
  -4  -4  -7    7.10    0.90
   4   4   7    7.00    0.90
  -5  -4  -7    2.40    0.60
  -5  -4  -7    2.40    0.60
   5   4   7    2.40    0.60
  -6  -4  -7    1.60    0.60
  -6  -4  -7    0.10    0.60
   6   4   7    0.00    0.60
  -7  -4  -7    0.20    0.70
   7   4   7   -0.70    0.70
   9  -5  -7   -0.40    0.70
  -9   5   7   -0.60    0.40
  -9   5   7    0.50    0.50
  -9   5   7    0.50    0.80
   8  -5  -7    2.90    0.70
  -8   5   7    3.30    0.60
  -8   5   7    2.80    0.80
   7  -5  -7    5.40    0.70
  -7   5   7    4.40    0.60
  -7   5   7    4.80    0.70
   6  -5  -7    0.70    0.50
  -6   5   7    1.20    0.60
  -6   5   7    0.50    0.40
  -6   5   7   -0.20    0.50
   5  -5  -7   19.90    1.10
  -5   5   7   20.10    0.80
  -5   5   7   19.10    1.10
  -5   5   7   19.30    1.20
   4  -5  -7   19.10    1.00
   4  -5  -7   20.00    1.20
  -4   5   7   18.00    0.80
  -4   5   7   18.80    1.10
  -4   5   7   18.00    1.10
   3  -5  -7   24.30    1.10
   3  -5  -7   25.30    1.20
  -3   5   7   25.90    1.30
  -3   5   7   25.60    1.00
  -3   5   7   25.10    1.10
   2  -5  -7  365.56    8.80
   2  -5  -7  354.46    8.90
  -2   5   7  367.56    8.70
  -2   5   7  368.06    8.70
  -2   5   7  375.26    9.00
   1  -5  -7    1.40    0.40
   1  -5  -7    0.70    0.40
  -1   5   7    1.00    0.50
  -1   5   7    1.30    0.40
  -1   5   7    1.80    0.40
   0  -5  -7   56.49    1.80
   0  -5  -7   53.29    1.90
   0   5   7   55.59    1.80
   0   5   7   54.99    1.60
   0   5   7   55.49    2.00
  -1  -5  -7   38.80    1.50
  -1  -5  -7   39.20    1.60
   1   5   7   38.80    1.60
   1   5   7   36.50    1.40
  -2  -5  -7  113.59    3.30
  -2  -5  -7  115.99    3.20
   2   5   7  117.49    3.40
  -3  -5  -7   12.50    1.00
  -3  -5  -7   13.40    1.00
   3   5   7   11.70    1.00
  -4  -5  -7   12.20    1.00
  -4  -5  -7   12.00    1.00
   4   5   7   12.20    1.00
  -5  -5  -7    5.00    0.70
  -5  -5  -7    6.70    0.80
   5   5   7    4.70    0.80
  -6  -5  -7    1.10    0.60
  -6  -5  -7    0.90    0.70
   6   5   7    0.50    0.60
  -7  -5  -7   10.90    1.20
  -7  -5  -7   12.90    1.50
   7   5   7    8.90    1.10
   9  -6  -7    3.40    0.80
  -9   6   7    3.40    0.60
  -9   6   7    3.30    0.90
   8  -6  -7    9.10    1.20
  -8   6   7    7.10    1.10
  -8   6   7    8.50    1.20
   7  -6  -7   23.50    1.30
  -7   6   7   23.30    1.50
  -7   6   7   22.90    1.30
   6  -6  -7    1.80    0.60
  -6   6   7    2.50    0.70
  -6   6   7    1.50    0.50
   5  -6  -7   34.20    1.40
  -5   6   7   32.70    1.50
  -5   6   7   31.70    1.10
  -5   6   7   32.50    1.50
   4  -6  -7   31.70    1.70
  -4   6   7   34.30    1.10
   3  -6  -7   11.40    1.10
  -3   6   7   10.80    0.70
  -3   6   7   11.10    1.10
  -3   6   7   11.40    0.90
   2  -6  -7   33.40    1.40
   2  -6  -7   32.30    1.50
  -2   6   7   32.70    1.50
  -2   6   7   31.80    1.20
  -2   6   7   33.10    1.30
   1  -6  -7    5.60    0.70
   1  -6  -7    5.70    0.70
  -1   6   7    5.80    0.70
  -1   6   7    7.10    0.70
  -1   6   7    6.70    1.00
   0   6   7   97.69    3.00
   0   6   7   97.59    2.50
   0   6   7   97.99    2.70
  -1  -6  -7   54.69    1.90
  -1  -6  -7   54.89    2.00
   1   6   7   56.19    1.90
   1   6   7   56.29    1.50
   1   6   7   55.99    2.10
  -2  -6  -7   29.40    1.40
  -2  -6  -7   31.60    1.70
   2   6   7   28.60    1.40
  -3  -6  -7    1.00    0.50
  -3  -6  -7    0.70    0.50
   3   6   7    0.40    0.50
  -4  -6  -7    1.20    0.60
  -4  -6  -7    0.70    0.60
   4   6   7    0.90    0.60
  -5  -6  -7    0.40    0.60
  -5  -6  -7    0.60    0.60
   5   6   7    1.70    0.60
  -6  -6  -7    3.40    0.80
  -6  -6  -7    4.30    0.80
   6   6   7    4.50    1.00
   8  -7  -7    3.20    0.80
  -8   7   7    3.80    0.80
   7  -7  -7    9.80    1.20
  -7   7   7   10.30    1.40
  -7   7   7   12.20    1.10
   6  -7  -7    5.00    0.80
  -6   7   7    4.60    0.70
  -6   7   7    4.30    0.80
   5  -7  -7    4.30    0.70
  -5   7   7    4.20    0.70
  -5   7   7    3.50    0.70
   4  -7  -7    1.40    0.60
  -4   7   7    1.00    0.50
  -4   7   7    1.50    0.40
  -4   7   7    0.60    0.60
   3  -7  -7    0.50    0.60
   3  -7  -7    0.20    0.50
  -3   7   7    0.40    0.60
  -3   7   7   -0.10    0.40
  -3   7   7   -0.10    0.50
   2  -7  -7   10.50    1.10
   2  -7  -7    9.00    0.90
  -2   7   7   10.10    0.90
  -2   7   7    9.60    1.20
  -2   7   7    9.80    0.80
   1  -7  -7    0.30    0.40
   1  -7  -7    0.20    0.60
  -1   7   7    0.40    0.40
  -1   7   7   -0.10    0.40
  -1   7   7    0.50    0.70
   0  -7  -7   57.89    2.20
   0  -7  -7   58.59    2.00
   0   7   7   60.19    1.80
   0   7   7   62.09    2.00
  -1  -7  -7    4.10    0.60
  -1  -7  -7    4.80    0.70
   1   7   7    4.00    0.60
   1   7   7    4.10    0.80
   1   7   7    4.80    0.60
  -2  -7  -7   49.50    2.00
  -2  -7  -7   48.20    1.80
   2   7   7   50.39    1.90
  -3  -7  -7    0.10    0.50
  -3  -7  -7   -0.50    0.50
   3   7   7   -1.10    0.50
  -4  -7  -7   15.50    1.30
  -4  -7  -7   17.10    1.60
   4   7   7   16.90    1.30
  -5  -7  -7   36.40    2.10
  -5  -7  -7   36.80    1.80
   5   7   7   38.60    1.90
  -6  -7  -7    0.50    1.00
  -6  -7  -7    2.30    0.80
   6   7   7    1.80    1.00
   8  -8  -7   57.79    2.40
  -8   8   7   59.89    2.30
  -8   8   7   62.39    2.90
   7  -8  -7    0.10    0.70
  -7   8   7   -1.70    0.70
  -7   8   7    2.40    0.80
   6  -8  -7    4.90    0.80
  -6   8   7    3.60    0.80
  -6   8   7    4.60    0.80
   5  -8  -7   23.90    1.40
  -5   8   7   24.60    1.50
  -5   8   7   25.70    1.50
   4  -8  -7    1.20    0.60
  -4   8   7    0.70    0.60
  -4   8   7   -0.30    0.60
   3  -8  -7    4.60    0.70
  -3   8   7    5.70    0.80
  -3   8   7    4.60    0.70
  -3   8   7    5.20    0.70
   2  -8  -7   12.40    1.10
   2  -8  -7   12.50    1.30
  -2   8   7   12.60    1.00
  -2   8   7   14.20    0.90
  -2   8   7   12.30    1.30
   1  -8  -7   20.70    1.20
   1  -8  -7   20.10    1.40
  -1   8   7   22.70    1.10
  -1   8   7   22.20    1.10
  -1   8   7   23.30    1.60
   0  -8  -7   19.20    1.70
   0  -8  -7   15.00    1.20
   0   8   7   16.40    1.50
   0   8   7   14.00    1.00
   0   8   7   13.20    0.90
  -1  -8  -7   14.90    1.20
  -1  -8  -7   18.30    1.30
   1   8   7   18.90    1.20
  -2  -8  -7    1.40    0.70
  -2  -8  -7    0.80    0.60
   2   8   7    0.90    0.60
  -3  -8  -7   -1.00    0.60
  -3  -8  -7   -0.20    0.60
   3   8   7   -0.40    0.60
  -4  -8  -7  118.49    3.70
  -4  -8  -7  116.89    3.60
   4   8   7  119.89    3.70
  -5  -8  -7   23.00    1.70
  -5  -8  -7   25.10    1.70
   5   8   7   22.30    1.70
   7  -9  -7   14.70    1.50
  -7   9   7   12.90    1.40
  -7   9   7   15.80    1.70
   6  -9  -7   14.50    1.40
  -6   9   7   13.90    1.50
  -6   9   7   16.30    1.50
   5  -9  -7   22.10    1.80
  -5   9   7   19.80    1.50
  -5   9   7   23.40    1.60
   4  -9  -7   13.30    1.30
  -4   9   7   14.40    1.50
  -4   9   7   11.60    1.30
   3  -9  -7    0.60    0.60
  -3   9   7    1.50    0.80
  -3   9   7    1.30    0.60
   2  -9  -7    2.20    0.70
   2  -9  -7    4.40    0.90
  -2   9   7    3.30    1.00
  -2   9   7    2.60    0.60
  -2   9   7    2.40    0.50
   1  -9  -7    2.60    0.80
   1  -9  -7    2.00    0.70
  -1   9   7    3.40    0.90
  -1   9   7    1.90    0.60
   0  -9  -7    0.00    0.60
   0  -9  -7    0.90    0.70
   0   9   7    0.70    0.50
   0   9   7    2.00    1.00
   0   9   7    1.50    0.50
  -1  -9  -7    0.00    0.60
  -1  -9  -7    1.40    0.60
   1   9   7    1.20    0.60
  -2  -9  -7   25.80    1.70
  -2  -9  -7   27.30    1.80
   2   9   7   27.70    1.60
  -3  -9  -7   -0.20    0.70
  -3  -9  -7   -0.30    0.70
   3   9   7   -0.20    0.70
  -4  -9  -7   -0.30    0.70
  -4  -9  -7   -1.00    0.70
   4   9   7   -1.00    0.70
   6 -10  -7    7.60    1.00
  -6  10   7    6.40    1.10
  -6  10   7    6.20    1.10
   5 -10  -7    9.70    1.30
  -5  10   7    9.50    1.20
  -5  10   7   10.60    1.60
   4 -10  -7   15.50    1.70
  -4  10   7   18.10    1.70
  -4  10   7   16.10    1.50
   3 -10  -7   -0.70    0.60
  -3  10   7    0.40    0.90
  -3  10   7    1.30    0.70
   2 -10  -7   26.30    1.80
  -2  10   7   29.90    1.50
  -2  10   7   29.60    2.00
  -2  10   7   28.10    1.50
   1 -10  -7    1.50    0.90
   1 -10  -7    0.30    0.60
  -1  10   7    1.90    0.60
  -1  10   7    1.60    0.70
   0 -10  -7   10.80    1.50
   0 -10  -7   11.80    1.40
   0  10   7   13.30    1.20
  -1 -10  -7   54.79    2.50
  -1 -10  -7   53.69    2.40
   1  10   7   54.89    2.10
  -2 -10  -7    0.30    0.80
  -2 -10  -7    0.90    0.80
   2  10   7   -1.30    0.70
   4 -11  -7   29.70    2.50
  -4  11   7   29.30    1.90
  -4  11   7   29.80    2.10
   3 -11  -7    5.60    1.10
  -3  11   7    6.30    1.00
  -3  11   7    6.60    1.20
   2 -11  -7   33.90    1.90
  -2  11   7   32.80    1.70
  -2  11   7   36.80    2.30
   1 -11  -7   48.60    2.50
   1 -11  -7   45.10    2.20
  -1  11   7   47.80    2.20
   0 -11  -7    9.40    1.10
   0 -11  -7    7.10    1.20
   0  11   7    8.60    1.20
   3  11  -8   12.30    1.60
  -3 -11   8   11.50    1.30
  -3 -11   8   13.10    1.60
   2  11  -8    8.00    1.10
  -2 -11   8    7.60    1.10
  -2 -11   8    6.90    1.10
  -2 -11   8    6.70    0.90
   1  11  -8   -0.50    0.70
  -1 -11   8    0.70    0.90
  -1 -11   8    3.90    1.00
  -1 -11   8   -1.30    0.60
   0  11  -8    7.90    1.10
   0 -11   8    7.90    1.30
   0 -11   8   10.90    1.10
  -1  11  -8   39.40    3.10
  -1  11  -8   47.80    2.40
   1 -11   8   43.40    1.70
   1 -11   8   46.40    2.50
   1 -11   8   46.20    1.70
  -2  11  -8   26.50    1.90
  -2  11  -8   17.10    2.10
   2 -11   8   23.30    1.40
  -3  11  -8   24.60    2.30
  -3  11  -8   28.60    1.90
   3 -11   8   28.80    1.50
   5  10  -8   20.60    1.70
  -5 -10   8   19.80    1.50
  -5 -10   8   22.70    1.60
   4  10  -8   25.60    1.80
  -4 -10   8   29.60    1.70
  -4 -10   8   29.20    1.60
   3  10  -8    6.00    1.30
  -3 -10   8    6.60    1.00
  -3 -10   8    5.70    0.90
  -3 -10   8    5.90    0.90
   2  10  -8    7.00    1.10
  -2 -10   8    7.30    1.00
  -2 -10   8    6.80    0.80
   1  10  -8   10.10    1.30
  -1 -10   8   12.70    1.40
  -1 -10   8    8.60    1.00
   0  10  -8    2.70    0.80
   0 -10   8    1.40    0.60
   0 -10   8    2.30    0.60
   0 -10   8    3.50    0.80
  -1  10  -8    4.80    1.10
  -1  10  -8    5.40    0.90
   1 -10   8    4.70    0.70
  -2  10  -8    2.80    1.00
  -2  10  -8    1.90    0.80
   2 -10   8    2.40    0.70
   2 -10   8    3.00    0.60
  -3  10  -8   31.40    2.00
  -3  10  -8   31.30    2.10
   3 -10   8   32.10    1.50
  -4  10  -8    0.20    0.80
  -4  10  -8    0.80    1.00
   4 -10   8    0.80    0.70
   5 -10   8    1.70    0.80
   6   9  -8    0.50    0.80
  -6  -9   8    1.30    1.00
  -6  -9   8    0.50    0.60
   5   9  -8    8.50    1.10
  -5  -9   8    7.90    0.90
  -5  -9   8    9.10    1.20
   4   9  -8    9.70    1.40
  -4  -9   8   13.40    1.30
  -4  -9   8   11.20    1.20
   3   9  -8    6.40    0.90
  -3  -9   8    7.80    1.00
   2   9  -8    1.00    0.70
  -2  -9   8    0.30    0.60
  -2  -9   8    0.20    0.50
   1   9  -8    0.50    0.70
  -1  -9   8   -0.60    0.50
  -1  -9   8    0.10    0.60
   0   9  -8    1.10    0.60
   0   9  -8    1.10    0.90
   0  -9   8    0.80    0.70
   0  -9   8    0.90    0.40
   0  -9   8    0.90    0.50
  -1   9  -8    4.40    1.00
  -1   9  -8    4.30    0.80
   1  -9   8    4.00    0.90
   1  -9   8    4.90    0.60
  -2   9  -8   15.20    1.70
  -2   9  -8   16.20    1.40
   2  -9   8   15.30    1.20
   2  -9   8   17.10    1.00
   2  -9   8   16.50    1.50
  -3   9  -8    8.80    1.20
  -3   9  -8   12.20    1.30
   3  -9   8   10.30    0.90
   3  -9   8    9.40    1.00
  -4   9  -8    0.60    0.90
  -4   9  -8    0.10    0.80
   4  -9   8    2.20    0.70
  -5   9  -8    7.40    1.10
  -5   9  -8    5.50    0.90
   5  -9   8    8.60    1.20
   7   8  -8   -0.40    0.80
  -7  -8   8    1.80    0.90
  -7  -8   8    2.80    0.80
   6   8  -8    7.80    1.10
  -6  -8   8    7.40    0.90
  -6  -8   8    8.80    1.10
   5   8  -8   22.50    1.60
  -5  -8   8   27.60    1.50
  -5  -8   8   25.10    1.50
   4   8  -8   -0.20    0.60
  -4  -8   8    0.80    0.50
  -4  -8   8   -0.70    0.50
   3   8  -8    6.20    0.80
  -3  -8   8    5.90    0.70
  -3  -8   8    7.50    1.00
   2   8  -8    0.30    0.60
  -2  -8   8    0.00    0.40
  -2  -8   8   -0.30    0.50
   1   8  -8    2.40    0.80
   1   8  -8    3.00    0.70
  -1  -8   8    2.10    0.40
  -1  -8   8    2.00    0.50
  -1  -8   8    2.30    0.70
   0   8  -8  145.39    4.10
   0  -8   8  144.89    3.70
   0  -8   8  148.29    4.20
   0  -8   8  140.89    4.10
  -1   8  -8    1.30    0.70
  -1   8  -8    2.00    0.60
   1  -8   8    2.90    1.20
   1  -8   8    3.50    0.60
   1  -8   8    1.80    0.50
  -2   8  -8   14.50    1.30
  -2   8  -8   14.30    1.50
   2  -8   8   15.10    1.00
   2  -8   8   13.30    0.90
   2  -8   8   14.20    1.40
  -3   8  -8   22.40    1.60
  -3   8  -8   23.90    1.50
   3  -8   8   25.20    1.20
   3  -8   8   23.90    1.10
  -4   8  -8   20.90    1.60
  -4   8  -8   20.40    1.50
   4  -8   8   19.80    1.20
   4  -8   8   20.90    1.10
  -5   8  -8    1.50    0.90
  -5   8  -8    0.50    0.70
   5  -8   8    1.10    0.60
  -6   8  -8   -0.60    0.70
  -6   8  -8    0.00    0.80
   6  -8   8    0.20    0.70
   8   7  -8   -0.40    0.80
  -8  -7   8    2.10    1.50
  -8  -7   8    0.00    0.60
   7   7  -8   -1.00    0.70
  -7  -7   8    0.30    0.50
  -7  -7   8   -1.40    0.60
   6   7  -8    3.60    0.80
  -6  -7   8    3.50    0.80
  -6  -7   8    5.90    0.90
  -6  -7   8    4.20    0.60
   5   7  -8    5.00    0.80
  -5  -7   8    5.70    0.80
  -5  -7   8    7.10    0.90
   4   7  -8    4.10    0.70
  -4  -7   8    6.20    0.70
  -4  -7   8    7.00    0.90
   3   7  -8    2.00    0.60
  -3  -7   8    2.30    0.60
  -3  -7   8    2.50    0.50
   2   7  -8    0.80    0.50
   2   7  -8   -0.50    0.80
  -2  -7   8   -0.30    0.40
  -2  -7   8   -0.20    0.40
   1   7  -8   28.50    1.40
   1   7  -8   27.00    1.60
  -1  -7   8   27.10    1.20
  -1  -7   8   26.90    1.40
  -1  -7   8   27.50    1.00
   0   7  -8   74.19    2.70
   0   7  -8   56.79    2.10
   0  -7   8   57.59    2.00
   0  -7   8   59.79    1.80
   0  -7   8   70.59    2.50
  -1   7  -8   44.70    2.00
  -1   7  -8   45.40    1.80
   1  -7   8   46.50    1.50
   1  -7   8   47.00    1.60
  -2   7  -8   22.90    1.50
  -2   7  -8   25.10    1.40
   2  -7   8   23.00    1.10
   2  -7   8   22.90    1.40
   2  -7   8   24.50    1.10
  -3   7  -8    3.60    0.70
  -3   7  -8    5.60    1.00
   3  -7   8    4.60    0.60
  -4   7  -8   22.50    1.40
  -4   7  -8   21.40    1.50
   4  -7   8   19.50    1.00
   4  -7   8   19.70    1.20
  -5   7  -8    1.30    0.80
  -5   7  -8    1.90    0.70
   5  -7   8    1.30    0.60
   5  -7   8    1.80    0.50
  -6   7  -8   -0.50    0.70
  -6   7  -8    0.20    0.70
   6  -7   8    0.50    0.60
  -7   7  -8    3.00    0.80
  -7   7  -8    2.20    0.90
   7  -7   8    3.70    0.80
   8   6  -8   18.70    1.50
  -8  -6   8   16.50    0.90
  -8  -6   8   18.40    1.50
  -8  -6   8   16.60    1.00
   7   6  -8    8.60    1.20
  -7  -6   8    5.20    0.90
  -7  -6   8    5.90    0.80
   6   6  -8    4.60    0.80
  -6  -6   8    6.50    0.80
  -6  -6   8    5.90    0.80
   5   6  -8    1.00    0.60
  -5  -6   8   -0.50    0.40
  -5  -6   8   -0.40    0.50
   4   6  -8   15.50    1.10
  -4  -6   8   16.10    1.00
  -4  -6   8   16.50    1.00
   3   6  -8    2.70    0.60
  -3  -6   8    4.70    0.60
   2   6  -8    3.00    0.70
   2   6  -8    1.40    0.60
  -2  -6   8    1.70    0.50
  -2  -6   8    1.50    0.50
   1   6  -8    1.40    0.70
  -1  -6   8    0.80    0.30
  -1  -6   8    1.30    0.50
  -1  -6   8    0.60    0.50
   0   6  -8   11.30    1.10
   0   6  -8   11.60    1.20
   0  -6   8   11.80    0.60
   0  -6   8   11.30    0.80
   0  -6   8   11.70    1.00
  -1   6  -8    1.10    0.60
  -1   6  -8    0.80    0.60
   1  -6   8    0.10    0.50
   1  -6   8    1.00    0.30
   1  -6   8    0.10    0.40
  -2   6  -8   27.20    1.50
   2  -6   8   27.70    1.10
   2  -6   8   26.50    1.10
   2  -6   8   26.30    1.40
  -3   6  -8    8.60    0.90
  -3   6  -8    8.20    1.10
   3  -6   8    9.40    1.10
   3  -6   8    9.30    0.80
   3  -6   8    8.30    0.80
  -4   6  -8    5.20    0.70
  -4   6  -8    4.30    0.80
   4  -6   8    5.70    0.80
   4  -6   8    4.50    0.60
  -5   6  -8    3.10    0.70
  -5   6  -8    3.30    0.70
   5  -6   8    3.40    0.50
  -6   6  -8    8.80    1.20
  -6   6  -8    7.90    0.90
   6  -6   8    7.30    0.90
  -7   6  -8    0.90    0.70
  -7   6  -8   -0.20    0.70
   7  -6   8   -0.40    0.70
   9   5  -8   19.00    1.70
  -9  -5   8   15.70    1.60
   8   5  -8    6.30    0.90
  -8  -5   8    5.40    0.60
  -8  -5   8    7.10    0.60
  -8  -5   8    5.70    1.30
   7   5  -8   12.60    1.30
  -7  -5   8   15.00    0.90
  -7  -5   8   12.90    0.80
  -7  -5   8   13.20    1.20
  -7  -5   8   12.30    1.00
   6   5  -8   44.80    1.80
  -6  -5   8   44.00    1.60
  -6  -5   8   45.60    1.80
  -6  -5   8   45.10    1.60
   5   5  -8   11.30    1.10
  -5  -5   8   10.60    0.80
  -5  -5   8    9.50    0.90
   4   5  -8  110.39    3.20
  -4  -5   8  113.79    3.20
  -4  -5   8  114.29    3.20
   3   5  -8    1.10    0.60
   3   5  -8    1.00    0.60
  -3  -5   8    1.30    0.50
  -3  -5   8    1.00    0.40
   2   5  -8    2.70    0.60
   2   5  -8    4.20    0.70
  -2  -5   8    3.20    0.50
  -2  -5   8    2.80    0.60
   1   5  -8   55.89    1.90
   1   5  -8   55.59    2.00
  -1  -5   8   56.39    1.80
  -1  -5   8   57.19    1.90
  -1  -5   8   56.89    1.50
   0   5  -8   -0.20    0.50
   0   5  -8   -0.10    0.40
   0  -5   8    0.50    0.50
   0  -5   8    0.00    0.40
   0  -5   8    0.50    0.30
  -1   5  -8    1.00    0.50
  -1   5  -8    1.10    0.50
   1  -5   8    1.10    0.30
   1  -5   8    0.80    0.40
   1  -5   8    0.80    0.90
  -2   5  -8   33.40    1.50
  -2   5  -8   33.00    1.20
  -2   5  -8   33.00    1.40
   2  -5   8   32.30    1.20
   2  -5   8   32.10    1.50
  -3   5  -8    1.30    0.50
  -3   5  -8    1.30    0.50
  -3   5  -8    1.40    0.60
   3  -5   8    1.40    0.40
  -4   5  -8    5.90    0.80
  -4   5  -8    7.50    0.90
  -4   5  -8    6.60    0.90
   4  -5   8    7.10    0.80
  -5   5  -8   35.40    1.60
  -5   5  -8   36.10    1.50
  -5   5  -8   34.50    1.60
   5  -5   8   35.70    1.40
  -6   5  -8    3.40    0.70
  -6   5  -8    3.60    0.70
  -6   5  -8    3.40    0.70
  -7   5  -8   -1.10    0.60
  -7   5  -8   -0.70    0.70
  -7   5  -8    0.80    0.90
   7  -5   8    1.00    0.60
   9   4  -8    4.40    1.00
  -9  -4   8    5.10    0.90
   8   4  -8   18.60    1.50
  -8  -4   8   19.50    1.40
   7   4  -8    1.30    0.70
  -7  -4   8    1.60    0.50
  -7  -4   8    1.80    0.60
  -7  -4   8    2.50    0.40
   6   4  -8  169.38    4.60
  -6  -4   8  172.18    4.40
  -6  -4   8  170.98    4.60
  -6  -4   8  175.58    4.40
   5   4  -8   39.10    1.60
  -5  -4   8   39.90    1.50
  -5  -4   8   38.00    1.50
  -5  -4   8   41.30    1.50
   4   4  -8  696.43   16.90
  -4  -4   8  704.43   17.00
  -4  -4   8  741.93   16.80
  -4  -4   8  710.33   16.70
   3   4  -8   65.79    2.10
   3   4  -8   65.89    2.10
  -3  -4   8   69.19    2.10
   2   4  -8  143.99    3.80
   2   4  -8  139.39    3.80
  -2  -4   8  141.59    3.70
  -2  -4   8  142.89    3.80
   1   4  -8  203.38    5.40
   1   4  -8  216.18    5.30
  -1  -4   8  217.78    5.30
  -1  -4   8  206.78    5.30
   0   4  -8   -0.20    0.40
   0   4  -8    0.80    0.40
   0  -4   8    0.50    0.70
   0  -4   8    0.30    0.30
  -1   4  -8   34.20    1.10
  -1   4  -8   33.50    1.40
  -1   4  -8   34.40    1.30
   1  -4   8   32.90    1.20
  -2   4  -8   15.30    0.90
  -2   4  -8   15.40    0.80
  -2   4  -8   14.70    1.00
   2  -4   8   15.90    1.00
   2  -4   8   15.40    0.90
  -3   4  -8   17.60    1.00
  -3   4  -8   15.70    1.10
  -3   4  -8   18.20    1.00
   3  -4   8   15.80    1.10
   3  -4   8   18.20    0.90
  -4   4  -8   13.00    1.10
  -4   4  -8   14.10    1.00
   4  -4   8   13.30    0.90
  -5   4  -8   12.70    1.10
  -5   4  -8   13.70    1.00
  -5   4  -8   14.00    1.10
   5  -4   8   14.00    1.00
  -6   4  -8    3.10    0.70
  -6   4  -8    2.40    0.60
   6  -4   8    2.00    0.60
  -7   4  -8    1.80    0.70
  -7   4  -8    0.90    0.60
   7  -4   8    0.40    0.60
  -8   4  -8   43.50    1.90
  -8   4  -8   47.80    2.20
   8  -4   8   40.40    1.80
   9   3  -8    0.40    0.80
  -9  -3   8    1.30    0.70
   8   3  -8    0.80    0.70
  -8  -3   8    0.90    0.60
   7   3  -8   21.00    1.40
  -7  -3   8   20.10    1.30
  -7  -3   8   20.00    0.90
  -7  -3   8   20.00    0.90
   6   3  -8    4.10    0.70
  -6  -3   8    3.80    0.60
  -6  -3   8    5.00    0.80
  -6  -3   8    4.70    0.60
  -5  -3   8   18.30    1.00
  -5  -3   8   16.00    1.00
   4   3  -8  231.98    5.90
  -4  -3   8  235.18    5.80
  -4  -3   8  236.68    5.90
  -4  -3   8  229.58    5.80
   3   3  -8  118.69    3.30
   3   3  -8  123.79    3.30
  -3  -3   8  122.39    3.30
  -3  -3   8  123.99    3.30
   2   3  -8  514.85   12.30
   2   3  -8  520.75   12.30
  -2  -3   8  516.05   12.30
  -2  -3   8  526.15   12.30
   1   3  -8    7.00    0.40
   1   3  -8    6.40    0.70
  -1  -3   8    7.30    0.90
  -1  -3   8    5.80    0.60
   0   3  -8    2.90    0.50
   0   3  -8    2.50    0.40
   0   3  -8    2.10    0.30
   0  -3   8    2.00    0.40
   0  -3   8    2.40    0.50
  -1   3  -8   10.90    0.60
  -1   3  -8   11.50    0.90
  -1   3  -8   11.00    0.80
   1  -3   8   11.70    0.90
   1  -3   8   10.70    0.70
  -2   3  -8   -0.10    0.30
  -2   3  -8    0.00    0.40
  -2   3  -8    0.50    0.40
   2  -3   8   -0.20    0.50
   2  -3   8    0.30    0.40
  -3   3  -8  116.79    3.20
  -3   3  -8  119.49    3.10
  -3   3  -8  116.39    3.30
   3  -3   8  117.79    3.20
   3  -3   8  119.99    3.30
  -4   3  -8    2.20    0.60
  -4   3  -8    4.00    0.50
   4  -3   8    2.60    0.50
  -5   3  -8  124.79    3.50
  -5   3  -8  122.69    3.50
  -5   3  -8  129.19    3.30
   5  -3   8  122.39    3.40
  -6   3  -8   22.60    1.40
  -6   3  -8   24.40    1.20
  -6   3  -8   23.70    1.40
   6  -3   8   23.60    1.20
  -7   3  -8   -0.10    0.60
  -7   3  -8   -0.40    0.60
  -7   3  -8   -0.50    0.60
   7  -3   8   -1.30    0.50
  -8   3  -8    8.20    1.20
  -8   3  -8   10.80    1.10
   8  -3   8    8.40    0.90
  10   2  -8    0.30    0.90
 -10  -2   8    0.30    0.70
   9   2  -8   12.70    1.40
  -9  -2   8   13.20    1.20
   8   2  -8    4.70    0.80
  -8  -2   8    4.40    0.70
   7   2  -8    3.10    0.70
  -7  -2   8    2.60    0.40
  -7  -2   8    3.70    0.60
  -7  -2   8    2.50    0.40
   6   2  -8   13.20    1.10
  -6  -2   8   13.00    1.00
  -6  -2   8   13.30    0.80
  -6  -2   8   13.50    0.90
   5   2  -8    6.00    0.70
  -5  -2   8    6.70    0.70
  -5  -2   8    9.10    0.80
  -5  -2   8    7.10    0.80
   4   2  -8    3.00    0.50
  -4  -2   8    4.00    0.60
  -4  -2   8    3.90    0.50
  -4  -2   8    5.10    0.80
   3   2  -8   89.39    2.50
   3   2  -8   87.49    2.50
  -3  -2   8   92.29    2.50
  -3  -2   8   89.89    2.50
   2   2  -8   15.40    0.90
   2   2  -8   16.20    0.90
  -2  -2   8   17.40    0.90
  -2  -2   8   15.80    0.80
   1   2  -8   33.70    1.50
   1   2  -8   38.20    1.30
   1   2  -8   36.80    1.00
  -1  -2   8   36.90    1.30
  -1  -2   8   38.20    1.40
   0   2  -8   77.59    2.10
   0   2  -8   75.89    2.00
   0  -2   8   77.39    2.20
   0  -2   8   75.99    2.30
  -1   2  -8    0.60    0.40
  -1   2  -8    0.10    0.30
  -1   2  -8    0.60    0.30
   1  -2   8    0.10    0.30
   1  -2   8    0.30    0.40
  -2   2  -8    0.00    0.40
  -2   2  -8    0.30    0.30
  -2   2  -8    0.20    0.30
   2  -2   8   -0.20    0.40
   2  -2   8    0.80    0.40
  -3   2  -8   68.09    2.20
  -3   2  -8   68.49    1.90
  -3   2  -8   65.39    2.00
   3  -2   8   68.59    2.10
   3  -2   8   67.79    2.20
  -4   2  -8    6.20    0.70
  -4   2  -8    7.40    0.90
   4  -2   8    5.70    0.80
  -5   2  -8   67.79    2.20
  -5   2  -8   67.49    1.90
  -5   2  -8   66.99    2.20
  -6   2  -8   18.50    1.40
  -6   2  -8   20.70    1.20
  -6   2  -8   18.10    1.00
   6  -2   8   18.20    1.20
  -7   2  -8   10.70    1.20
  -7   2  -8   14.30    1.30
   7  -2   8   10.90    1.10
  -8   2  -8    0.00    0.80
  -8   2  -8   -0.20    0.60
   8  -2   8    0.50    0.70
  10   1  -8   10.60    1.40
 -10  -1   8    6.10    0.90
   9   1  -8   17.90    1.50
  -9  -1   8   17.10    1.30
   8   1  -8   22.80    1.50
  -8  -1   8   20.90    1.20
   7   1  -8   19.00    1.30
   7   1  -8   20.40    0.80
  -7  -1   8   20.00    0.80
  -7  -1   8   19.70    1.10
  -7  -1   8   19.90    0.80
   6   1  -8    0.10    0.30
   6   1  -8   -0.30    0.50
  -6  -1   8    0.30    0.40
  -6  -1   8    0.40    0.40
  -6  -1   8    0.10    0.30
   5   1  -8    0.50    0.50
  -5  -1   8    0.40    0.30
  -5  -1   8    1.10    0.40
  -5  -1   8    0.30    0.40
   4   1  -8    5.30    0.70
  -4  -1   8    5.60    0.70
  -4  -1   8    6.00    0.70
  -4  -1   8    5.90    0.60
   3   1  -8   65.09    2.00
   3   1  -8   63.59    2.00
  -3  -1   8   64.89    1.90
  -3  -1   8   62.29    1.90
   2   1  -8   83.49    2.30
   2   1  -8   81.69    2.00
   2   1  -8   86.19    2.40
  -2  -1   8   83.29    2.30
  -2  -1   8   82.79    2.40
   1   1  -8  118.89    2.80
   1   1  -8  105.09    3.30
   1   1  -8  116.99    3.00
  -1  -1   8  118.59    3.00
   0   1  -8  125.49    3.40
   0   1  -8  127.99    3.20
   0   1  -8  125.59    3.10
   0  -1   8  123.59    3.40
   0  -1   8  126.39    3.30
  -1   1  -8   20.20    0.80
  -1   1  -8   20.80    0.80
   1  -1   8   20.80    0.90
  -2   1  -8   38.00    1.30
  -2   1  -8   37.70    1.50
  -2   1  -8   37.20    1.20
   2  -1   8   36.60    1.30
   2  -1   8   38.80    1.40
  -3   1  -8   11.10    0.80
  -3   1  -8   10.10    0.60
  -3   1  -8    9.30    0.90
   3  -1   8   12.30    1.00
   3  -1   8    9.60    0.80
  -4   1  -8   14.20    0.70
  -4   1  -8   13.20    1.50
   4  -1   8   15.40    1.00
  -5   1  -8   12.30    1.10
  -5   1  -8   12.30    0.70
  -5   1  -8   11.10    1.00
   5  -1   8   13.10    1.00
  -6   1  -8    4.40    0.60
  -6   1  -8    3.20    0.70
   6  -1   8    4.40    0.60
  -7   1  -8    6.30    0.90
  -7   1  -8    5.60    0.90
   7  -1   8    8.20    1.00
  -8   1  -8   29.30    1.70
  -8   1  -8   23.70    1.50
   8  -1   8   28.90    1.50
  10   0  -8   20.70    1.70
 -10   0   8   18.90    1.40
  -9   0   8   11.00    1.60
  -9   0   8   15.00    1.10
   8   0  -8  102.09    2.70
  -8   0   8  101.89    3.20
  -8   0   8  100.79    3.00
   7   0  -8   10.50    0.70
  -7   0   8    8.20    0.70
  -7   0   8    9.10    0.60
  -7   0   8    9.30    1.10
   6   0  -8    7.70    0.60
  -6   0   8    8.30    0.70
  -6   0   8    9.00    1.00
  -6   0   8    8.50    0.70
  -6   0   8    9.70    0.80
   5   0  -8   25.90    0.90
  -5   0   8   26.10    1.20
  -5   0   8   24.30    1.10
  -5   0   8   25.60    1.00
  -5   0   8   26.70    1.40
   4   0  -8   15.10    1.20
   4   0  -8   14.90    0.60
  -4   0   8   15.00    0.90
  -4   0   8   15.30    1.00
  -4   0   8   15.60    0.80
  -4   0   8   15.30    0.80
   3   0  -8  136.59    3.60
   3   0  -8  139.19    3.30
   3   0  -8  136.19    3.60
  -3   0   8  138.69    3.60
  -3   0   8  134.89    3.50
   2   0  -8   62.49    1.80
   2   0  -8   64.89    1.60
   2   0  -8   59.79    1.90
  -2   0   8   63.09    1.80
  -2   0   8   61.89    1.90
   1   0  -8   13.30    0.60
   1   0  -8   15.80    1.30
   1   0  -8   14.60    0.70
  -1   0   8   13.20    0.80
  -1   0   8   14.90    0.80
   0   0  -8  148.09    3.70
   0   0  -8  152.78    3.70
   0   0   8  154.98    4.00
   0   0   8  148.89    3.90
  -1   0  -8   21.10    0.80
  -1   0  -8   26.30    1.30
  -1   0  -8   20.10    0.90
   1   0   8   20.80    1.00
   1   0   8   20.70    1.00
  -2   0  -8  107.19    2.80
  -2   0  -8  105.19    3.00
  -2   0  -8  105.39    2.70
   2   0   8  109.09    3.00
   2   0   8  104.29    2.90
  -3   0  -8   31.00    1.30
  -3   0  -8   31.50    1.00
  -3   0  -8   29.80    1.20
   3   0   8   31.00    1.30
   3   0   8   32.50    1.30
  -5   0  -8    0.50    0.50
  -5   0  -8    0.40    0.50
   5   0   8    0.70    0.50
  -6   0  -8   -0.60    0.40
  -6   0  -8    0.70    0.60
   6   0   8    0.10    0.50
  -7   0  -8    1.50    0.70
  -7   0  -8    3.20    0.60
   7   0   8    2.50    0.70
  -8   0  -8   -0.30    0.80
  -8   0  -8    0.30    0.60
   8   0   8   -0.30    0.70
 -10   1   8    1.60    0.90
 -10   1   8    2.40    0.70
  -9   1   8   12.90    1.40
  -9   1   8   13.00    1.10
   8  -1  -8   12.20    0.90
  -8   1   8   11.80    0.90
  -8   1   8    8.50    1.20
   7  -1  -8   27.70    1.10
  -7   1   8   29.40    1.30
  -7   1   8   28.60    1.10
  -7   1   8   26.20    1.40
  -7   1   8   29.10    1.10
   6  -1  -8   16.60    0.80
  -6   1   8   17.00    0.90
  -6   1   8   16.20    0.90
  -6   1   8   15.30    1.10
  -6   1   8   16.00    0.80
   5  -1  -8    1.10    0.40
  -5   1   8    1.50    0.40
  -5   1   8    0.90    0.40
  -5   1   8    1.10    0.50
  -5   1   8    1.60    0.50
   4  -1  -8    0.80    0.50
   4  -1  -8    1.30    0.30
  -4   1   8    1.40    0.40
  -4   1   8    1.50    0.40
  -4   1   8    2.00    0.40
  -4   1   8    1.50    0.50
   3  -1  -8   47.80    1.30
   3  -1  -8   47.60    1.60
  -3   1   8   46.40    1.60
  -3   1   8   45.10    1.60
  -3   1   8   48.20    1.50
  -3   1   8   47.10    1.60
   2  -1  -8    5.90    0.50
   2  -1  -8    5.20    0.70
   2  -1  -8    6.10    0.60
  -2   1   8    5.60    0.70
  -2   1   8    5.40    0.60
   1  -1  -8   66.49    1.90
   1  -1  -8   67.59    1.80
  -1   1   8   67.99    2.00
  -1   1   8   66.29    1.90
   0  -1  -8   12.50    0.90
   0  -1  -8   13.90    0.70
   0  -1  -8   13.80    0.70
   0   1   8   14.00    0.90
   0   1   8   13.70    0.80
  -1  -1  -8    9.20    0.70
  -1  -1  -8   12.50    1.10
  -1  -1  -8    9.90    0.50
   1   1   8    9.20    0.70
   1   1   8   10.50    0.80
  -2  -1  -8    1.70    0.50
  -2  -1  -8    1.90    0.40
   2   1   8    1.20    0.40
   2   1   8    1.50    0.50
  -3  -1  -8   19.20    1.10
  -3  -1  -8   20.20    1.10
   3   1   8   20.70    1.10
   3   1   8   19.00    1.20
  -4  -1  -8    5.90    0.70
  -4  -1  -8    6.20    0.80
   4   1   8    5.20    0.60
  -5  -1  -8   18.50    1.20
  -5  -1  -8   18.50    1.10
   5   1   8   18.50    1.20
  -6  -1  -8   32.30    1.60
  -6  -1  -8   32.30    1.50
   6   1   8   32.70    1.60
  -7  -1  -8    3.70    0.90
  -7  -1  -8    2.90    0.60
   7   1   8    2.30    0.70
  -8  -1  -8    4.40    0.70
  -8  -1  -8    4.00    0.90
   8   1   8    5.80    0.90
  10  -2  -8   -0.50    0.70
 -10   2   8    0.30    0.90
   9  -2  -8    0.10    0.60
  -9   2   8    1.40    0.70
  -9   2   8    1.50    0.50
   8  -2  -8    1.40    0.60
  -8   2   8    0.50    0.70
  -8   2   8    2.00    0.60
  -8   2   8    1.70    0.40
  -8   2   8    1.20    0.40
   7  -2  -8    2.30    0.50
  -7   2   8    2.30    0.50
  -7   2   8    2.00    0.40
  -7   2   8    2.40    0.50
  -7   2   8    2.80    0.70
   6  -2  -8   -0.20    0.40
  -6   2   8    0.40    0.50
  -6   2   8    0.00    0.40
  -6   2   8   -0.40    0.40
  -6   2   8    0.30    0.50
   5  -2  -8   15.30    0.80
  -5   2   8   15.70    1.10
  -5   2   8   15.80    1.00
  -5   2   8   14.90    0.90
  -5   2   8   15.20    0.80
   4  -2  -8    2.20    0.40
   4  -2  -8    2.20    0.60
  -4   2   8    1.80    0.40
  -4   2   8    1.80    0.50
  -4   2   8    1.60    0.50
  -4   2   8    1.40    0.50
   3  -2  -8    4.30    0.60
   3  -2  -8    4.30    0.60
  -3   2   8    3.80    0.60
  -3   2   8    4.30    0.60
  -3   2   8    3.70    0.50
  -3   2   8    4.90    0.60
   2  -2  -8    0.20    0.30
   2  -2  -8   -0.10    0.40
  -2   2   8    0.60    0.30
  -2   2   8    0.50    0.30
  -2   2   8    0.30    0.30
   1  -2  -8   45.10    1.40
   1  -2  -8   42.50    1.60
  -1   2   8   42.70    1.50
  -1   2   8   43.10    1.40
   0  -2  -8   59.39    1.90
   0  -2  -8   59.49    1.60
   0  -2  -8   59.39    1.70
   0   2   8   56.89    1.80
  -1  -2  -8   36.00    1.40
  -1  -2  -8   35.50    1.30
  -1  -2  -8   36.90    1.00
   1   2   8   35.20    1.30
   1   2   8   35.30    1.40
  -2  -2  -8   56.29    1.80
  -2  -2  -8   56.29    1.90
   2   2   8   55.49    1.90
   2   2   8   57.09    1.80
  -3  -2  -8   31.20    1.40
  -3  -2  -8   33.00    1.40
   3   2   8   29.30    1.40
  -4  -2  -8    9.30    0.90
  -4  -2  -8   11.20    0.90
   4   2   8    8.80    0.90
  -5  -2  -8   11.30    1.10
  -5  -2  -8    8.60    1.00
   5   2   8    9.30    1.00
  -6  -2  -8    0.40    0.50
  -6  -2  -8    1.40    0.60
   6   2   8    0.30    0.50
  -7  -2  -8    4.20    0.70
  -7  -2  -8    3.10    0.80
   7   2   8    3.90    0.80
  10  -3  -8   26.20    1.60
 -10   3   8   27.90    1.90
   9  -3  -8   44.70    1.80
  -9   3   8   49.70    2.20
   8  -3  -8    1.80    0.60
  -8   3   8   -0.40    0.90
  -8   3   8    0.10    0.40
  -8   3   8    1.30    0.50
  -8   3   8    0.70    0.40
   7  -3  -8  116.79    3.20
  -7   3   8  121.59    3.50
  -7   3   8  117.29    3.10
  -7   3   8  115.99    3.20
  -7   3   8  118.39    3.20
   6  -3  -8   30.00    1.20
  -6   3   8   28.00    1.40
  -6   3   8   29.30    1.20
  -6   3   8   29.70    1.30
  -6   3   8   28.60    1.30
   5  -3  -8    9.70    0.70
  -5   3   8   10.90    1.00
  -5   3   8    9.50    0.70
   4  -3  -8   55.29    1.90
   4  -3  -8   59.39    1.80
  -4   3   8   60.59    1.80
  -4   3   8   59.59    1.90
  -4   3   8   57.19    1.90
   3  -3  -8   31.30    1.40
   3  -3  -8   31.30    1.10
  -3   3   8   30.90    1.30
  -3   3   8   31.10    1.10
  -3   3   8   31.80    1.70
  -3   3   8   29.70    1.20
   2  -3  -8  609.44   14.10
   2  -3  -8  593.24   14.30
  -2   3   8  601.24   14.30
  -2   3   8  612.34   14.10
  -2   3   8  598.94   14.10
   1  -3  -8   28.00    1.30
   1  -3  -8   30.40    1.10
  -1   3   8   30.90    1.10
  -1   3   8   28.90    1.10
  -1   3   8   29.30    1.30
   0  -3  -8    0.10    0.40
   0  -3  -8    0.00    0.30
   0  -3  -8   -0.20    0.30
   0   3   8   -0.20    0.30
   0   3   8   -0.10    0.40
  -1  -3  -8   59.09    1.90
  -1  -3  -8   57.99    1.80
  -1  -3  -8   50.49    1.60
   1   3   8   56.39    1.80
   1   3   8   58.69    2.00
  -2  -3  -8    6.40    0.90
  -2  -3  -8    7.20    0.80
   2   3   8    7.90    0.80
   2   3   8    7.10    0.90
  -3  -3  -8   24.50    1.20
  -3  -3  -8   24.70    1.30
   3   3   8   22.50    1.20
  -4  -3  -8    9.80    1.00
  -4  -3  -8   10.70    1.00
   4   3   8    9.10    1.00
  -5  -3  -8    9.40    1.10
  -5  -3  -8   11.50    1.00
   5   3   8   11.60    1.10
  -6  -3  -8    2.10    0.60
  -6  -3  -8    3.00    0.70
   6   3   8    2.10    0.70
  -7  -3  -8    4.40    0.90
  -7  -3  -8    4.20    0.80
   7   3   8    4.20    0.80
   9  -4  -8    9.40    1.20
  -9   4   8    9.20    0.70
  -9   4   8    9.00    0.80
  -9   4   8    9.10    1.10
   8  -4  -8    1.60    0.60
  -8   4   8    0.50    0.50
  -8   4   8    0.50    0.40
  -8   4   8    1.30    0.70
   7  -4  -8   12.90    1.00
  -7   4   8   14.90    1.20
  -7   4   8   12.70    0.90
  -7   4   8   15.30    0.90
   6  -4  -8  118.19    3.20
  -6   4   8  115.69    3.40
  -6   4   8  117.49    3.10
  -6   4   8  119.39    3.30
   5  -4  -8   26.40    1.20
  -5   4   8   24.70    1.00
  -5   4   8   24.90    1.20
  -5   4   8   25.70    1.30
   4  -4  -8   54.09    1.70
   4  -4  -8   53.19    2.10
  -4   4   8   52.19    1.80
  -4   4   8   52.29    1.60
  -4   4   8   54.79    1.90
   3  -4  -8    8.70    1.00
   3  -4  -8    8.70    0.80
  -3   4   8    8.50    0.80
  -3   4   8    8.40    0.70
  -3   4   8    8.40    0.90
   2  -4  -8  482.75   11.20
   2  -4  -8  468.15   11.30
  -2   4   8  472.35   11.20
  -2   4   8  473.65   11.20
  -2   4   8  466.45   11.40
   1  -4  -8    8.60    0.90
   1  -4  -8    9.00    0.80
  -1   4   8    7.60    0.70
  -1   4   8    8.60    0.90
  -1   4   8    9.40    0.80
   0  -4  -8  723.03   16.90
   0   4   8  724.83   17.00
   0   4   8  724.73   16.70
   0   4   8  720.73   17.10
  -1  -4  -8   79.29    2.50
  -1  -4  -8   80.49    2.40
  -1  -4  -8   80.39    2.00
   1   4   8   83.39    2.40
   1   4   8   78.79    2.50
  -2  -4  -8   32.60    1.40
  -2  -4  -8   29.80    1.50
   2   4   8   29.40    1.70
   2   4   8   31.70    1.50
  -3  -4  -8    0.80    0.50
  -3  -4  -8    0.90    0.50
   3   4   8    0.60    0.50
  -4  -4  -8   32.40    1.50
  -4  -4  -8   32.20    1.50
   4   4   8   34.30    1.50
  -5  -4  -8    8.80    1.10
  -5  -4  -8    7.20    1.00
   5   4   8    6.90    0.90
  -6  -4  -8    3.50    0.80
  -6  -4  -8    5.30    0.70
   6   4   8    3.80    0.80
  -7  -4  -8    0.00    0.70
  -7  -4  -8    1.20    0.60
   7   4   8    0.70    0.80
   9  -5  -8    3.30    0.80
  -9   5   8    2.10    0.60
  -9   5   8    2.60    0.80
   8  -5  -8    0.10    0.60
  -8   5   8   -0.20    0.50
  -8   5   8    1.00    0.90
   7  -5  -8    0.70    0.60
  -7   5   8   -0.20    0.60
  -7   5   8    0.30    0.50
   6  -5  -8   16.90    1.10
  -6   5   8   16.50    0.90
  -6   5   8   15.90    1.20
  -6   5   8   15.40    1.10
  -5   5   8   28.20    1.40
  -5   5   8   31.40    1.40
  -5   5   8   29.00    1.10
   4  -5  -8   29.90    1.30
  -4   5   8   30.10    1.10
  -4   5   8   31.00    1.40
   3  -5  -8   78.99    2.50
   3  -5  -8   83.09    2.40
  -3   5   8   79.49    2.20
  -3   5   8   81.29    2.50
  -3   5   8   78.89    2.40
   2  -5  -8   41.80    1.70
   2  -5  -8   42.60    1.50
  -2   5   8   42.60    1.70
  -2   5   8   42.90    1.40
  -2   5   8   41.20    1.50
   1  -5  -8    0.00    0.50
   1  -5  -8    0.00    0.40
  -1   5   8    0.00    0.40
  -1   5   8   -0.10    0.30
  -1   5   8    1.20    0.60
   0  -5  -8  272.27    6.70
   0   5   8  264.97    6.80
   0   5   8  270.67    6.40
   0   5   8  268.17    6.70
  -1  -5  -8   84.89    2.70
  -1  -5  -8   82.39    2.50
   1   5   8   84.49    2.70
  -2  -5  -8   71.19    2.40
  -2  -5  -8   67.99    2.20
   2   5   8   68.59    2.20
   2   5   8   70.89    2.40
  -3  -5  -8    8.00    1.00
  -3  -5  -8    6.90    0.90
   3   5   8    7.30    1.00
  -4  -5  -8    2.60    0.60
  -4  -5  -8    2.60    0.60
   4   5   8    2.60    0.60
  -5  -5  -8    4.80    0.80
  -5  -5  -8    6.40    0.80
   5   5   8    4.20    0.80
  -6  -5  -8    0.50    0.70
  -6  -5  -8   -0.20    0.60
   6   5   8    0.40    0.70
   9  -6  -8   -1.20    0.70
  -9   6   8    0.40    0.90
  -9   6   8    0.70    0.80
   8  -6  -8   -0.10    0.70
  -8   6   8   -0.10    0.90
  -8   6   8   -0.80    0.50
   7  -6  -8   -0.60    0.50
  -7   6   8    0.00    0.70
   6  -6  -8    1.80    0.60
  -6   6   8    1.60    0.60
   5  -6  -8   -1.10    0.50
  -5   6   8   -0.50    0.50
  -5   6   8   -0.10    0.40
  -5   6   8    1.10    0.60
   4  -6  -8   21.80    1.10
  -4   6   8   20.10    1.30
  -4   6   8   20.90    1.20
  -4   6   8   20.90    0.90
   3  -6  -8    3.50    0.60
   3  -6  -8    4.30    0.70
  -3   6   8    4.40    0.60
  -3   6   8    4.50    0.70
  -3   6   8    4.50    0.50
   2  -6  -8   24.90    1.20
   2  -6  -8   27.90    1.50
  -2   6   8   25.80    1.10
  -2   6   8   25.00    1.10
  -2   6   8   26.00    1.40
   1  -6  -8    2.80    1.10
   1  -6  -8    2.60    0.60
  -1   6   8    3.40    0.70
  -1   6   8    1.10    0.50
  -1   6   8    2.30    0.50
   0  -6  -8    0.40    0.60
   0  -6  -8    0.50    0.40
   0   6   8    1.00    0.70
   0   6   8    0.70    0.50
   0   6   8    0.80    0.40
  -1  -6  -8    6.90    0.90
  -1  -6  -8    8.40    1.00
   1   6   8    9.50    0.90
   1   6   8    8.70    1.30
  -2  -6  -8   63.49    2.20
  -2  -6  -8   63.69    2.30
   2   6   8   64.49    2.20
  -3  -6  -8    7.40    1.00
  -3  -6  -8    5.90    0.80
   3   6   8    7.20    1.00
  -4  -6  -8   29.40    1.60
  -4  -6  -8   30.00    1.90
   4   6   8   28.50    1.60
  -5  -6  -8   34.90    1.80
  -5  -6  -8   35.10    1.70
   5   6   8   34.40    1.90
  -6  -6  -8    0.10    0.70
  -6  -6  -8    1.20    0.90
   6   6   8    0.40    0.80
   8  -7  -8    0.80    0.70
  -8   7   8    0.00    0.70
  -8   7   8    1.00    0.90
   7  -7  -8    1.70    0.70
  -7   7   8    1.40    0.60
  -7   7   8    3.30    0.80
   6  -7  -8   35.10    1.70
  -6   7   8   35.70    1.70
  -6   7   8   36.60    1.80
   5  -7  -8   37.00    1.60
  -5   7   8   37.90    1.70
  -5   7   8   37.80    1.80
   4  -7  -8    7.00    0.90
  -4   7   8    9.40    1.10
  -4   7   8    6.10    0.70
  -4   7   8    5.30    0.70
   3  -7  -8   -0.30    0.50
  -3   7   8   -0.30    0.40
  -3   7   8    1.10    1.00
   2  -7  -8    7.40    0.90
   2  -7  -8    5.50    0.70
  -2   7   8    8.70    1.20
  -2   7   8    6.10    0.80
  -2   7   8    5.70    0.70
   1  -7  -8    0.10    0.50
   1  -7  -8   -0.30    0.60
  -1   7   8    0.10    0.40
  -1   7   8    0.80    0.70
  -1   7   8    1.00    0.50
   0  -7  -8    0.40    0.50
   0  -7  -8    0.60    0.60
   0   7   8   -0.10    0.50
   0   7   8   -0.30    0.70
   0   7   8    0.20    0.40
  -1  -7  -8    0.10    0.50
   1   7   8    0.70    0.80
   1   7   8   -0.30    0.50
  -2  -7  -8   -0.10    0.50
  -2  -7  -8    0.50    0.50
   2   7   8    0.70    0.50
  -3  -7  -8   12.20    1.40
  -3  -7  -8   11.30    1.20
   3   7   8   13.80    1.30
  -4  -7  -8    2.50    0.70
  -4  -7  -8    1.10    0.70
   4   7   8    1.20    0.90
  -5  -7  -8   -0.60    1.30
  -5  -7  -8   -0.40    0.70
   5   7   8   -0.50    0.80
   7  -8  -8    2.50    0.80
  -7   8   8    3.30    0.90
  -7   8   8    2.40    0.80
   6  -8  -8   63.19    2.40
  -6   8   8   66.39    2.50
  -6   8   8   68.09    2.50
   5  -8  -8    1.20    0.60
  -5   8   8    1.30    0.70
  -5   8   8    0.90    0.70
   4  -8  -8   15.10    1.20
  -4   8   8   16.60    1.40
  -4   8   8   14.50    1.30
   3  -8  -8   36.80    1.70
  -3   8   8   35.30    1.60
  -3   8   8   33.90    1.30
  -3   8   8   38.10    1.90
   2  -8  -8    4.90    0.70
   2  -8  -8    4.60    0.90
  -2   8   8    5.00    0.60
  -2   8   8    6.00    0.70
  -2   8   8    6.20    1.20
   1  -8  -8    1.80    0.60
   1  -8  -8    0.90    0.70
  -1   8   8    2.30    0.50
  -1   8   8    0.80    0.90
   0  -8  -8    8.90    1.30
   0  -8  -8   10.50    1.10
   0   8   8    7.60    0.90
   0   8   8   11.00    0.90
   0   8   8    9.80    1.10
  -1  -8  -8    1.10    0.60
  -1  -8  -8    1.20    0.70
   1   8   8    1.00    0.60
  -2  -8  -8   26.20    1.50
  -2  -8  -8   24.00    1.60
   2   8   8   28.00    1.50
  -3  -8  -8   11.30    1.40
  -3  -8  -8   11.60    1.30
   3   8   8   13.30    1.30
  -4  -8  -8    6.80    1.00
  -4  -8  -8    8.20    1.00
   4   8   8    6.50    1.00
   6  -9  -8    1.90    1.00
  -6   9   8    1.40    0.80
  -6   9   8   -0.90    0.80
   5  -9  -8   11.10    1.30
  -5   9   8   13.20    1.50
  -5   9   8   14.10    1.50
   4  -9  -8   28.70    1.70
  -4   9   8   31.40    1.70
  -4   9   8   31.10    1.90
   3  -9  -8    1.00    0.60
  -3   9   8    1.70    0.90
  -3   9   8    2.30    0.70
   2  -9  -8    1.70    0.60
  -2   9   8    0.80    0.60
  -2   9   8    1.00    0.60
  -2   9   8    0.90    0.80
   1  -9  -8    2.80    0.70
   1  -9  -8    2.90    0.90
  -1   9   8    3.10    0.70
  -1   9   8    3.40    1.00
   0  -9  -8    4.10    0.80
   0  -9  -8    2.70    0.80
   0   9   8    4.40    0.70
  -1  -9  -8   17.80    1.40
  -1  -9  -8   14.80    1.50
   1   9   8   16.10    1.30
  -2  -9  -8   -0.70    0.70
  -2  -9  -8    0.30    1.00
   2   9   8    1.60    0.70
  -3  -9  -8   -0.50    0.70
  -3  -9  -8    0.70    1.10
   3   9   8    0.20    0.70
   5 -10  -8    3.80    0.90
  -5  10   8    5.50    1.10
  -5  10   8    4.10    0.90
   4 -10  -8   20.10    1.50
  -4  10   8   18.60    1.80
  -4  10   8   21.50    1.60
   3 -10  -8    5.70    1.00
  -3  10   8    4.10    1.10
  -3  10   8    5.40    0.90
   2 -10  -8   11.90    2.00
  -2  10   8   12.30    1.70
  -2  10   8   11.70    1.30
  -2  10   8   10.90    1.30
   1 -10  -8    4.60    0.90
  -1  10   8    4.90    1.20
   0 -10  -8    2.20    0.80
   0 -10  -8    1.80    0.80
   0  10   8    2.70    0.70
  -1 -10  -8    5.00    0.90
  -1 -10  -8    5.70    1.10
   1  10   8    4.30    0.80
  -2 -10  -8   10.00    1.50
  -2 -10  -8   10.70    1.30
   2  10   8   10.70    1.40
   2 -11  -8   27.00    2.20
   2  11  -9   29.00    2.00
  -2 -11   9   34.20    2.20
  -2 -11   9   27.00    2.00
  -2 -11   9   28.10    1.70
   1  11  -9   54.19    2.50
  -1 -11   9   54.79    2.70
  -1 -11   9   53.59    2.10
   0  11  -9   16.20    2.00
   0 -11   9   19.90    1.90
   0 -11   9   15.20    1.30
  -1  11  -9   16.10    1.70
   1 -11   9   21.60    2.00
   1 -11   9   17.50    1.30
  -2  11  -9   -0.10    1.20
  -2  11  -9    0.00    0.90
   2 -11   9   -0.60    0.70
   4  10  -9   25.20    1.80
  -4 -10   9   23.30    1.60
  -4 -10   9   22.90    1.60
  -4 -10   9   25.90    1.80
   3  10  -9    5.10    1.00
  -3 -10   9    4.80    0.80
  -3 -10   9    4.50    1.00
   2  10  -9   11.70    1.50
  -2 -10   9   13.70    1.30
  -2 -10   9   14.40    1.50
   1  10  -9    2.90    0.80
  -1 -10   9    2.10    0.80
  -1 -10   9    1.40    0.60
   0  10  -9   12.30    1.40
   0 -10   9    7.80    0.80
   0 -10   9   12.40    1.90
  -1  10  -9   29.70    2.10
  -1  10  -9   30.30    2.30
   1 -10   9   27.20    1.90
   1 -10   9   30.00    1.40
  -2  10  -9   21.40    1.90
  -2  10  -9   25.50    1.70
   2 -10   9   20.50    1.20
   2 -10   9   19.90    1.30
  -3  10  -9    0.60    0.90
  -3  10  -9    1.40    1.00
   3 -10   9    0.70    0.60
  -4  10  -9    1.40    1.00
  -4  10  -9   -1.00    0.80
   4 -10   9    1.70    0.70
   6   9  -9   18.60    1.70
  -6  -9   9   22.00    2.00
  -6  -9   9   19.80    1.90
   5   9  -9    0.90    0.80
  -5  -9   9    0.20    0.70
  -5  -9   9   -0.70    0.70
  -5  -9   9    0.60    0.70
   4   9  -9   12.30    1.50
  -4  -9   9   13.60    1.40
  -4  -9   9   12.10    1.30
   3   9  -9    6.50    0.90
  -3  -9   9    6.40    0.90
  -3  -9   9    6.30    0.80
   2   9  -9    5.20    0.90
  -2  -9   9    5.00    0.80
  -2  -9   9    5.30    0.70
   1   9  -9    3.10    0.80
  -1  -9   9    3.00    0.70
  -1  -9   9    4.40    0.60
   0   9  -9    4.60    0.80
   0   9  -9    3.00    1.00
   0  -9   9    6.70    0.90
   0  -9   9    4.20    0.90
  -1   9  -9   19.90    2.60
  -1   9  -9   12.10    1.30
   1  -9   9   11.00    1.00
   1  -9   9   12.10    0.90
   1  -9   9   12.50    1.40
  -2   9  -9   18.00    1.70
  -2   9  -9   14.40    1.40
   2  -9   9   16.60    1.00
   2  -9   9   16.30    1.10
  -3   9  -9    1.20    0.80
  -3   9  -9   -0.40    0.90
   3  -9   9    0.60    0.60
  -4   9  -9    2.10    0.90
  -4   9  -9    2.30    1.00
   4  -9   9    4.40    0.70
  -5   9  -9    1.00    1.00
  -5   9  -9   -1.00    0.80
   5  -9   9    0.40    0.70
   7   8  -9    5.20    1.10
  -7  -8   9    8.00    1.10
   6   8  -9    2.50    0.90
  -6  -8   9    3.70    1.10
  -6  -8   9    0.50    0.70
   5   8  -9    2.90    0.90
  -5  -8   9    4.00    0.70
  -5  -8   9    4.10    0.80
   4   8  -9   11.50    1.30
  -4  -8   9    8.80    1.20
  -4  -8   9   10.00    1.10
   3   8  -9   16.70    1.40
  -3  -8   9   14.10    1.10
  -3  -8   9   16.80    1.30
   2   8  -9    0.40    0.60
  -2  -8   9    0.80    0.60
  -2  -8   9   -0.40    0.50
   1   8  -9    0.10    0.60
   1   8  -9    0.90    1.10
  -1  -8   9    0.60    0.60
  -1  -8   9    0.30    0.40
   0   8  -9    2.00    0.70
   0   8  -9    5.90    1.20
   0  -8   9    2.20    0.40
   0  -8   9    2.90    0.50
   0  -8   9    3.20    0.80
  -1   8  -9    8.10    1.00
  -1   8  -9    9.60    1.20
   1  -8   9   10.50    1.00
   1  -8   9   10.50    0.80
   1  -8   9    9.70    1.20
  -2   8  -9   47.20    2.00
   2  -8   9   47.30    2.10
   2  -8   9   48.30    1.70
  -3   8  -9   -0.50    0.70
  -3   8  -9   -1.60    0.70
   3  -8   9   -0.50    0.50
   3  -8   9    1.10    0.50
  -4   8  -9   20.30    1.50
  -4   8  -9   21.70    1.70
   4  -8   9   21.80    1.20
   4  -8   9   23.70    1.30
  -5   8  -9   11.00    1.30
  -5   8  -9    8.90    1.20
   5  -8   9    9.10    1.20
  -6   8  -9    7.70    1.00
  -6   8  -9    5.60    1.10
   6  -8   9    6.60    0.90
   7   7  -9    1.50    0.90
  -7  -7   9    2.30    0.60
  -7  -7   9    2.60    0.90
   6   7  -9   12.20    1.40
  -6  -7   9   13.60    1.40
  -6  -7   9   15.50    1.10
   5   7  -9    0.40    0.70
  -5  -7   9    1.90    0.60
  -5  -7   9    1.60    0.60
   4   7  -9   -0.80    0.60
  -4  -7   9    0.30    0.50
  -4  -7   9    0.40    0.50
   3   7  -9    6.30    0.80
  -3  -7   9    6.50    0.70
  -3  -7   9    6.80    0.90
   2   7  -9   -0.20    0.50
  -2  -7   9    0.10    0.40
  -2  -7   9   -0.10    0.50
   1   7  -9    5.40    0.70
   1   7  -9    6.00    0.90
  -1  -7   9    4.10    0.60
  -1  -7   9    5.80    0.80
  -1  -7   9    5.30    0.60
   0   7  -9    0.30    0.70
   0   7  -9    0.20    0.50
   0  -7   9    0.20    0.40
   0  -7   9    0.80    0.60
  -1   7  -9    0.20    0.70
  -1   7  -9    0.50    0.50
   1  -7   9    0.50    0.60
   1  -7   9   -0.30    0.40
   1  -7   9    0.10    0.40
  -2   7  -9    3.20    0.70
  -2   7  -9    2.40    0.80
   2  -7   9    2.10    0.50
   2  -7   9    2.50    0.80
   2  -7   9    2.80    0.50
  -3   7  -9   25.20    1.60
  -3   7  -9   25.10    1.40
   3  -7   9   25.20    1.20
   3  -7   9   24.30    1.20
  -4   7  -9   26.60    1.70
  -4   7  -9   25.30    1.50
   4  -7   9   26.00    1.30
   4  -7   9   26.10    1.40
  -5   7  -9   21.90    1.70
  -5   7  -9   23.20    1.40
   5  -7   9   22.30    1.40
  -6   7  -9   33.50    1.80
  -6   7  -9   38.30    2.50
   6  -7   9   36.30    1.80
   8   6  -9    0.00    0.80
  -8  -6   9   -0.80    0.80
  -8  -6   9   -1.30    0.70
   7   6  -9   17.80    1.40
  -7  -6   9   17.90    1.60
  -7  -6   9   20.60    1.30
  -7  -6   9   19.60    1.30
   6   6  -9    5.50    0.80
  -6  -6   9    5.50    0.90
  -6  -6   9    5.80    0.90
   5   6  -9    5.30    0.80
  -5  -6   9    5.80    0.80
  -5  -6   9    4.90    0.70
   4   6  -9   42.50    1.80
  -4  -6   9   40.30    1.60
  -4  -6   9   42.60    1.70
   3   6  -9    1.20    0.60
  -3  -6   9    3.10    0.50
  -3  -6   9    2.00    0.60
   2   6  -9   15.00    1.30
   2   6  -9   15.40    1.10
  -2  -6   9   16.20    1.20
  -2  -6   9   16.50    1.00
   1   6  -9    3.60    0.60
   1   6  -9    1.20    0.70
  -1  -6   9    2.00    0.60
   0   6  -9   13.90    1.00
   0   6  -9   16.50    1.80
   0  -6   9   13.60    1.00
   0  -6   9   12.30    1.10
   0  -6   9   12.10    0.70
  -1   6  -9    5.70    0.80
  -1   6  -9    5.70    0.70
   1  -6   9    7.10    0.90
   1  -6   9    5.60    0.60
   1  -6   9    6.70    0.80
  -2   6  -9    6.60    0.90
  -2   6  -9    6.00    0.90
   2  -6   9    5.70    0.80
   2  -6   9    7.10    0.90
   2  -6   9    6.20    0.70
  -3   6  -9    0.00    0.50
  -3   6  -9    1.00    0.60
   3  -6   9    1.40    0.50
   3  -6   9    1.80    0.50
  -4   6  -9   34.70    1.60
  -4   6  -9   34.00    1.80
   4  -6   9   35.10    1.40
  -5   6  -9    1.60    0.70
  -5   6  -9    0.60    0.60
  -5   6  -9    0.40    0.70
  -6   6  -9    2.30    0.80
  -6   6  -9    1.70    0.70
  -6   6  -9    3.60    0.80
   6  -6   9    1.90    0.60
  -7   6  -9    0.80    0.80
  -7   6  -9    1.20    0.70
   8   5  -9   15.20    1.50
  -8  -5   9   13.50    1.40
  -8  -5   9   15.20    0.90
  -8  -5   9   13.30    0.90
   7   5  -9   75.99    2.60
  -7  -5   9   73.29    2.60
  -7  -5   9   72.79    2.20
   6   5  -9   65.69    2.40
  -6  -5   9   65.49    2.10
  -6  -5   9   69.19    2.30
   5   5  -9   19.90    1.30
  -5  -5   9   18.40    1.10
  -5  -5   9   17.40    1.10
   4   5  -9   66.19    2.20
  -4  -5   9   67.99    2.20
  -4  -5   9   65.79    2.20
   3   5  -9    3.90    0.60
  -3  -5   9    4.90    0.60
  -3  -5   9    3.50    0.70
   2   5  -9  128.09    3.60
  -2  -5   9  126.59    3.60
  -2  -5   9  126.49    3.70
   1   5  -9   42.40    1.80
   1   5  -9   45.20    1.70
  -1  -5   9   44.20    1.20
  -1  -5   9   42.80    1.70
  -1  -5   9   44.70    1.60
   0   5  -9    0.40    0.50
   0   5  -9   -0.50    0.60
   0  -5   9   -0.20    0.30
   0  -5   9    0.20    0.40
   0  -5   9    0.30    0.50
  -1   5  -9   47.30    1.90
  -1   5  -9   46.10    1.70
   1  -5   9   46.90    1.40
   1  -5   9   46.70    1.60
   1  -5   9   47.10    1.80
  -2   5  -9   20.00    1.30
  -2   5  -9   20.30    1.10
  -2   5  -9   18.10    1.00
   2  -5   9   19.30    1.00
   2  -5   9   16.70    1.30
  -3   5  -9   -0.20    0.70
  -3   5  -9    0.10    0.50
   3  -5   9    1.00    0.70
   3  -5   9    0.70    0.40
  -4   5  -9    3.90    0.70
  -4   5  -9    4.50    0.60
  -4   5  -9    4.00    0.70
   4  -5   9    3.40    0.60
  -5   5  -9    1.80    0.60
  -5   5  -9    1.60    0.60
  -5   5  -9    2.20    0.60
   5  -5   9    1.60    0.50
  -6   5  -9    1.00    0.60
  -6   5  -9   -1.00    0.60
  -6   5  -9    0.30    0.60
   6  -5   9   -1.10    0.50
  -7   5  -9    6.00    1.00
  -7   5  -9    6.40    1.00
  -7   5  -9    8.80    1.20
   7  -5   9    7.80    1.10
   9   4  -9    5.10    1.00
  -9  -4   9    2.90    0.80
   8   4  -9    2.40    0.80
  -8  -4   9    3.30    0.50
  -8  -4   9    1.90    0.70
  -8  -4   9    3.60    0.40
   7   4  -9    0.50    0.60
  -7  -4   9    0.40    0.40
  -7  -4   9    0.20    0.60
  -7  -4   9    0.00    0.50
   6   4  -9    7.30    1.10
  -6  -4   9    8.90    1.10
  -6  -4   9    6.70    0.70
  -6  -4   9    6.80    0.80
   5   4  -9   33.40    1.60
  -5  -4   9   35.10    1.40
  -5  -4   9   33.80    1.40
   4   4  -9   42.40    1.70
  -4  -4   9   41.60    1.60
  -4  -4   9   42.30    1.60
   3   4  -9   60.99    2.40
   3   4  -9   66.49    2.20
  -3  -4   9   68.09    2.50
  -3  -4   9   66.99    2.10
   2   4  -9  516.65   12.60
   2   4  -9  535.85   12.60
  -2  -4   9  517.55   12.60
  -2  -4   9  544.45   12.60
   1   4  -9   19.50    1.10
   1   4  -9   21.50    1.20
  -1  -4   9   20.00    1.00
  -1  -4   9   20.00    1.10
   0   4  -9  905.21   20.70
   0   4  -9  885.61   20.90
   0   4  -9  890.11   21.10
   0  -4   9  902.41   21.10
   0  -4   9  906.31   20.90
  -1   4  -9  129.49    3.60
  -1   4  -9  132.29    3.30
  -1   4  -9  128.19    3.50
   1  -4   9  126.79    3.40
   1  -4   9  128.39    3.60
  -2   4  -9    0.50    0.50
  -2   4  -9    0.80    0.40
  -2   4  -9    0.10    0.50
   2  -4   9    0.70    0.40
   2  -4   9    0.50    0.50
  -3   4  -9    1.90    0.60
  -3   4  -9    2.00    0.50
  -3   4  -9    2.10    0.50
   3  -4   9    2.50    0.50
  -4   4  -9   11.70    1.00
  -4   4  -9   12.50    1.00
  -4   4  -9   10.90    1.10
  -5   4  -9    0.50    0.60
  -5   4  -9    0.70    0.60
  -5   4  -9    0.40    0.50
   5  -4   9    1.10    0.50
  -6   4  -9   23.60    1.50
  -6   4  -9   22.30    1.50
  -6   4  -9   23.10    1.50
   6  -4   9   24.90    1.30
  -7   4  -9    0.60    0.80
  -7   4  -9    1.80    0.70
  -7   4  -9    2.70    0.90
   7  -4   9    0.60    0.60
   9   3  -9    3.60    0.90
  -9  -3   9    2.60    0.80
   8   3  -9    1.30    0.70
  -8  -3   9    1.60    0.40
  -8  -3   9    1.70    0.60
  -8  -3   9    2.00    0.40
   7   3  -9   23.20    1.40
  -7  -3   9   22.90    1.10
  -7  -3   9   22.20    1.30
  -7  -3   9   22.10    1.00
   6   3  -9    0.60    0.60
  -6  -3   9    0.70    0.50
  -6  -3   9    1.00    0.40
  -6  -3   9    1.40    0.50
   5   3  -9   39.80    1.70
  -5  -3   9   39.80    1.50
  -5  -3   9   39.50    1.60
  -4  -3   9   89.59    2.60
  -4  -3   9   84.19    2.60
   3   3  -9   31.30    1.40
   3   3  -9   31.80    1.40
  -3  -3   9   29.90    1.30
  -3  -3   9   30.00    1.40
  -3  -3   9   30.60    1.30
   2   3  -9    5.90    0.90
   2   3  -9    5.30    0.60
  -2  -3   9    6.30    0.70
  -2  -3   9    5.10    0.70
   1   3  -9  371.96    9.00
   1   3  -9  367.66    9.10
   1   3  -9  369.96    8.70
  -1  -3   9  379.36    9.00
  -1  -3   9  380.16    9.10
   0   3  -9  258.67    6.30
   0   3  -9  252.37    6.40
   0   3  -9  249.48    6.00
   0  -3   9  256.37    6.30
   0  -3   9  254.87    6.40
  -1   3  -9    4.60    0.50
  -1   3  -9    4.50    0.60
  -1   3  -9    4.50    0.70
   1  -3   9    4.20    0.60
   1  -3   9    4.00    0.50
  -2   3  -9   84.49    2.30
  -2   3  -9   81.89    2.40
   2  -3   9   81.49    2.60
   2  -3   9   83.09    2.40
  -3   3  -9   80.19    2.30
  -3   3  -9   76.69    2.50
  -3   3  -9   77.79    2.30
   3  -3   9   79.69    2.40
   3  -3   9   78.99    2.50
  -4   3  -9    8.30    0.80
  -4   3  -9    7.40    1.00
  -4   3  -9    8.60    0.90
  -5   3  -9   91.99    2.80
  -5   3  -9   92.89    2.60
  -5   3  -9   91.59    2.90
   5  -3   9   92.79    2.70
  -6   3  -9   11.40    1.20
  -6   3  -9    8.10    1.00
  -6   3  -9   11.00    1.00
   6  -3   9    7.10    1.00
  -7   3  -9   39.40    1.90
  -7   3  -9   42.40    2.00
   7  -3   9   42.60    1.80
   9   2  -9   10.40    1.20
  -9  -2   9    9.80    1.20
   8   2  -9   17.00    1.40
  -8  -2   9   18.00    1.30
   7   2  -9    2.10    0.70
  -7  -2   9    3.90    0.50
  -7  -2   9    3.00    0.60
  -7  -2   9    3.00    0.50
   6   2  -9    5.20    0.70
  -6  -2   9    6.30    0.70
  -6  -2   9    4.70    0.60
  -6  -2   9    5.00    0.60
   5   2  -9    0.00    0.50
  -5  -2   9   -0.10    0.40
   4   2  -9   38.90    1.60
  -4  -2   9   41.20    1.50
  -4  -2   9   40.70    1.50
  -4  -2   9   40.60    1.50
   3   2  -9   35.40    1.50
   3   2  -9   36.60    1.40
  -3  -2   9   36.50    1.40
  -3  -2   9   36.00    1.50
  -3  -2   9   36.70    1.40
   2   2  -9    1.30    0.50
   2   2  -9    1.90    0.50
  -2  -2   9    2.80    0.50
  -2  -2   9    2.40    0.40
   1   2  -9   -0.20    0.40
   1   2  -9    0.40    0.50
   1   2  -9    0.30    0.20
  -1  -2   9   -0.40    0.30
  -1  -2   9   -0.20    0.40
   0   2  -9    2.40    0.50
   0   2  -9    2.20    0.30
   0   2  -9    2.00    0.40
   0  -2   9    1.90    0.40
   0  -2   9    1.90    0.40
  -1   2  -9    6.00    0.60
  -1   2  -9    6.20    0.70
  -1   2  -9    6.80    0.80
   1  -2   9    4.90    0.60
   1  -2   9    5.90    0.80
  -2   2  -9   26.90    1.10
  -2   2  -9   26.40    1.10
  -2   2  -9   25.90    1.30
   2  -2   9   27.70    1.20
   2  -2   9   26.60    1.30
  -3   2  -9   18.70    1.10
  -3   2  -9   20.00    1.20
  -3   2  -9   18.90    0.90
   3  -2   9   19.70    1.10
   3  -2   9   20.60    1.20
  -4   2  -9    5.30    0.60
  -4   2  -9    5.20    0.70
  -4   2  -9    4.20    0.70
   4  -2   9    6.70    0.80
  -5   2  -9    2.90    0.60
  -5   2  -9    1.50    0.50
  -5   2  -9    2.40    0.60
   5  -2   9    2.00    0.50
  -6   2  -9    1.60    0.70
  -6   2  -9    2.30    0.60
   6  -2   9    1.10    0.60
  -7   2  -9    2.70    0.80
  -7   2  -9   -0.30    0.70
   7  -2   9   -0.40    0.60
   9   1  -9    4.20    0.80
  -9  -1   9    4.40    0.80
   8   1  -9   13.40    1.30
  -8  -1   9    9.60    0.80
  -8  -1   9   10.50    0.60
  -8  -1   9    9.10    1.10
   7   1  -9   38.00    1.60
  -7  -1   9   33.60    1.30
  -7  -1   9   35.30    1.20
  -7  -1   9   33.60    1.50
   6   1  -9   55.69    2.00
  -6  -1   9   53.69    1.90
  -6  -1   9   55.59    1.80
  -6  -1   9   56.19    1.70
   5   1  -9   35.50    1.60
  -5  -1   9   34.80    1.40
  -5  -1   9   36.70    1.40
  -5  -1   9   34.20    1.50
   4   1  -9   15.90    1.00
   4   1  -9   15.90    1.50
  -4  -1   9   16.50    0.90
  -4  -1   9   15.90    1.00
  -4  -1   9   15.70    0.90
   3   1  -9    0.40    0.40
   3   1  -9    0.10    0.50
  -3  -1   9    0.00    0.30
  -3  -1   9   -0.50    0.50
  -3  -1   9    0.50    0.40
   2   1  -9   53.49    1.60
   2   1  -9   53.69    1.80
   2   1  -9   51.79    1.70
  -2  -1   9   53.69    1.70
  -2  -1   9   53.59    1.80
   1   1  -9   75.89    2.30
   1   1  -9   76.79    2.20
   1   1  -9   75.79    2.00
  -1  -1   9   75.29    2.30
  -1  -1   9   75.69    2.20
   0   1  -9   49.20    1.70
   0   1  -9   48.30    1.40
   0   1  -9   49.30    1.50
   0  -1   9   48.50    1.60
   0  -1   9   48.70    1.70
  -1   1  -9   13.50    1.30
  -1   1  -9    9.70    0.70
  -1   1  -9    9.20    0.70
   1  -1   9    9.00    0.80
   1  -1   9    8.90    0.90
  -2   1  -9    1.20    0.40
  -2   1  -9    1.10    0.50
  -2   1  -9    1.30    0.40
   2  -1   9    1.10    0.50
   2  -1   9    1.60    0.40
  -3   1  -9   17.80    0.80
  -3   1  -9   16.40    1.00
  -3   1  -9   17.00    1.20
   3  -1   9   18.80    1.20
   3  -1   9   16.50    1.20
  -4   1  -9   76.99    2.10
  -4   1  -9   78.49    2.40
  -4   1  -9   74.79    2.40
   4  -1   9   78.09    2.40
  -5   1  -9    6.10    0.80
  -5   1  -9    8.90    1.00
   5  -1   9    6.50    0.90
  -6   1  -9    9.30    1.10
  -6   1  -9    9.20    1.20
   6  -1   9    8.80    1.10
  -7   1  -9    1.90    0.90
  -7   1  -9    3.20    0.70
   7  -1   9    1.50    0.70
  10   0  -9   18.20    1.80
 -10   0   9   18.80    1.40
   9   0  -9    3.10    0.90
  -9   0   9    2.90    0.70
   8   0  -9    2.10    0.70
  -8   0   9    2.30    0.40
  -8   0   9    0.40    0.70
  -8   0   9    2.20    0.60
   7   0  -9   11.30    0.70
  -7   0   9   11.50    0.90
  -7   0   9   10.00    0.70
  -7   0   9    9.90    0.80
  -7   0   9    9.30    1.10
   6   0  -9   95.09    2.40
  -6   0   9   91.99    2.60
  -6   0   9   93.79    2.90
  -6   0   9   94.09    2.60
  -6   0   9   89.39    2.90
   5   0  -9    0.40    0.30
  -5   0   9   -0.20    0.40
  -5   0   9    0.70    0.40
   4   0  -9   -0.10    0.40
   4   0  -9    0.80    0.60
   4   0  -9   -0.50    0.30
  -4   0   9    0.30    0.40
  -4   0   9   -0.10    0.40
  -4   0   9    1.00    0.50
   3   0  -9   36.70    1.50
   3   0  -9   36.40    1.40
   3   0  -9   37.90    1.10
  -3   0   9   34.80    1.50
  -3   0   9   38.30    1.40
  -3   0   9   38.50    1.40
   2   0  -9    0.10    0.30
   2   0  -9   -0.40    0.40
   2   0  -9    0.20    0.50
  -2   0   9    0.40    0.30
  -2   0   9    0.40    0.40
   1   0  -9    1.20    0.50
   1   0  -9    0.30    0.30
   1   0  -9    0.40    0.30
  -1   0   9    0.60    0.60
  -1   0   9    0.70    0.40
   0   0  -9    3.30    0.50
   0   0  -9    4.00    0.60
   0   0  -9    4.60    0.60
   0   0   9    3.40    0.50
   0   0   9    3.70    0.50
  -1   0  -9    5.40    0.70
  -1   0  -9    5.80    0.80
  -1   0  -9    5.00    0.60
   1   0   9    6.30    0.70
   1   0   9    3.70    0.50
  -2   0  -9   67.19    1.80
  -2   0  -9   67.09    2.00
  -2   0  -9   66.09    2.20
   2   0   9   68.49    2.10
  -3   0  -9    8.00    0.90
  -3   0  -9    7.50    0.60
  -3   0  -9    8.00    0.90
   3   0   9    9.80    1.00
  -4   0  -9    1.30    0.50
  -4   0  -9    1.20    0.50
   4   0   9    1.20    0.50
  -5   0  -9    2.80    0.60
  -5   0  -9    2.70    0.60
   5   0   9    3.70    0.60
  -6   0  -9   18.80    1.20
  -6   0  -9   16.90    1.40
   6   0   9   18.30    1.30
  -7   0  -9    5.80    0.80
  -7   0  -9    3.80    1.00
   7   0   9    5.90    0.80
 -10   1   9    3.90    0.70
 -10   1   9    2.40    1.00
  -9   1   9    1.20    0.80
  -9   1   9   -0.90    0.60
   8  -1  -9   60.39    1.90
  -8   1   9   59.89    1.80
  -8   1   9   61.19    1.80
  -8   1   9   63.49    2.10
  -8   1   9   61.89    2.40
   7  -1  -9    7.10    0.70
  -7   1   9    7.60    1.10
  -7   1   9    7.10    0.80
  -7   1   9    8.90    0.80
   6  -1  -9    1.50    0.40
  -6   1   9    1.30    0.60
  -6   1   9    2.50    0.50
  -6   1   9    2.80    0.60
  -6   1   9    1.80    0.50
   5  -1  -9    6.20    0.60
  -5   1   9    6.90    0.70
  -5   1   9    6.40    0.80
  -5   1   9    6.40    0.90
   4  -1  -9   48.60    1.80
   4  -1  -9   49.99    1.40
  -4   1   9   48.80    1.70
  -4   1   9   49.30    1.70
  -4   1   9   48.80    1.70
  -4   1   9   47.50    1.60
   3  -1  -9   11.00    0.60
   3  -1  -9   10.50    0.90
  -3   1   9   11.70    1.00
  -3   1   9   10.40    0.80
  -3   1   9   10.60    0.70
   2  -1  -9   38.50    1.30
   2  -1  -9   39.50    1.20
   2  -1  -9   39.80    1.50
  -2   1   9   38.40    1.40
  -2   1   9   38.70    1.50
   1  -1  -9    0.60    0.40
   1  -1  -9    0.90    0.40
   1  -1  -9    0.60    0.30
  -1   1   9    0.80    0.30
  -1   1   9    1.40    0.60
   0  -1  -9    3.60    0.40
   0  -1  -9    3.60    0.40
   0  -1  -9    2.90    0.50
   0   1   9    4.50    0.70
   0   1   9    3.10    0.50
  -1  -1  -9   20.00    0.80
  -1  -1  -9   18.60    1.10
  -1  -1  -9   18.90    0.90
   1   1   9   19.60    1.00
   1   1   9   18.30    1.10
  -2  -1  -9    5.10    0.50
  -2  -1  -9    4.60    0.60
  -2  -1  -9    4.70    0.60
   2   1   9    4.70    0.60
  -3  -1  -9    6.90    0.90
   3   1   9    8.30    0.90
   3   1   9    8.40    1.10
  -4  -1  -9   49.40    1.80
  -4  -1  -9   47.70    1.80
   4   1   9   45.70    1.80
  -5  -1  -9   -0.20    0.50
  -5  -1  -9    0.60    0.50
   5   1   9   -0.30    0.50
  -6  -1  -9    0.90    0.60
  -6  -1  -9    0.10    0.60
   6   1   9    1.00    0.60
  -7  -1  -9   16.60    1.60
  -7  -1  -9   17.20    1.50
   7   1   9   12.90    1.40
   9  -2  -9   39.20    1.50
  -9   2   9   35.10    2.00
  -9   2   9   31.00    1.50
   8  -2  -9   15.60    1.00
  -8   2   9   14.80    1.40
  -8   2   9   16.50    1.10
  -8   2   9   15.50    0.90
  -8   2   9   15.60    0.90
   7  -2  -9    0.40    0.40
  -7   2   9    0.90    0.50
  -7   2   9   -0.30    0.50
  -7   2   9   -0.30    0.40
  -7   2   9    0.10    0.60
   6  -2  -9   17.70    0.90
  -6   2   9   19.10    1.00
  -6   2   9   18.90    1.10
  -6   2   9   18.40    1.20
  -6   2   9   19.10    1.00
   5  -2  -9    2.00    0.40
  -5   2   9    2.70    0.50
  -5   2   9    1.40    0.50
  -5   2   9    1.40    0.60
  -5   2   9    2.60    0.50
   4  -2  -9   12.80    1.50
   4  -2  -9   12.40    0.70
  -4   2   9   13.80    0.80
  -4   2   9   14.00    1.00
  -4   2   9   14.40    1.00
   3  -2  -9   13.40    0.70
   3  -2  -9   12.40    1.10
  -3   2   9   14.10    0.80
  -3   2   9   13.70    0.90
  -3   2   9   12.80    0.90
   2  -2  -9    4.90    1.00
   2  -2  -9    6.80    0.60
  -2   2   9    6.20    0.70
  -2   2   9    7.30    0.80
  -2   2   9    7.40    0.70
   1  -2  -9   36.20    1.50
   1  -2  -9   33.40    1.20
   1  -2  -9   37.10    1.20
  -1   2   9   33.60    1.30
  -1   2   9   33.50    1.40
   0  -2  -9    1.20    0.50
   0  -2  -9    2.20    0.40
   0  -2  -9    1.70    0.40
   0   2   9    0.90    0.40
   0   2   9    1.40    0.50
  -1  -2  -9    5.10    0.70
  -1  -2  -9    5.40    0.70
  -1  -2  -9    4.90    0.50
   1   2   9    4.70    0.60
   1   2   9    4.60    0.60
  -2  -2  -9   29.80    1.30
  -2  -2  -9   29.60    1.40
   2   2   9   27.00    1.70
  -3  -2  -9    2.80    0.60
   3   2   9    2.80    0.60
  -4  -2  -9   11.20    1.00
  -4  -2  -9   10.70    1.00
   4   2   9    9.90    1.00
  -5  -2  -9   32.50    1.60
  -5  -2  -9   34.20    1.60
   5   2   9   34.20    1.60
  -6  -2  -9    2.50    0.70
  -6  -2  -9    1.90    0.70
   6   2   9    2.90    0.70
  -7  -2  -9   -0.70    1.10
  -7  -2  -9   -1.10    1.30
   7   2   9    1.80    0.70
   9  -3  -9    1.90    0.70
  -9   3   9    2.00    0.80
  -9   3   9    2.50    0.40
   8  -3  -9    0.20    0.60
  -8   3   9    0.10    0.50
  -8   3   9    1.40    0.70
  -8   3   9    0.50    0.40
  -8   3   9    1.30    0.60
   7  -3  -9    5.20    0.60
  -7   3   9    5.90    0.80
  -7   3   9    5.20    0.60
  -7   3   9    6.00    0.80
   6  -3  -9   31.20    1.30
  -6   3   9   30.90    1.30
  -6   3   9   30.40    1.50
  -6   3   9   30.80    1.20
   5  -3  -9  207.88    5.10
  -5   3   9  203.38    5.20
  -5   3   9  210.78    5.40
  -5   3   9  206.08    5.30
   4  -3  -9  210.38    5.20
  -4   3   9  214.88    5.50
  -4   3   9  210.68    5.40
  -4   3   9  212.08    5.30
   3  -3  -9   34.80    1.50
   3  -3  -9   36.50    1.30
  -3   3   9   35.70    1.30
  -3   3   9   34.00    1.50
  -3   3   9   36.00    1.40
   2  -3  -9   16.10    1.10
   2  -3  -9   18.80    0.90
  -2   3   9   18.80    1.00
  -2   3   9   17.70    0.90
  -2   3   9   16.90    1.10
   1  -3  -9    0.80    0.40
   1  -3  -9    0.20    0.50
  -1   3   9    0.30    0.40
  -1   3   9    0.40    0.40
  -1   3   9    0.30    0.40
   0  -3  -9  197.68    5.20
   0  -3  -9  201.08    4.80
   0  -3  -9  201.98    5.00
   0   3   9  198.38    5.20
   0   3   9  203.78    5.10
  -1  -3  -9   14.40    1.10
  -1  -3  -9   13.50    0.90
  -1  -3  -9   15.00    0.60
   1   3   9   14.40    1.10
  -2  -3  -9    0.50    0.50
  -2  -3  -9    1.10    0.50
   2   3   9    0.50    0.40
   2   3   9    0.50    0.60
  -3  -3  -9   12.90    1.00
  -3  -3  -9   12.20    1.10
   3   3   9   13.40    1.00
  -4  -3  -9    4.50    0.70
  -4  -3  -9    4.90    0.70
   4   3   9    4.30    0.70
  -5  -3  -9    1.80    0.60
  -5  -3  -9    0.30    0.50
   5   3   9    1.00    0.60
  -6  -3  -9   -0.40    1.00
  -6  -3  -9    1.00    0.60
   6   3   9   -0.40    0.70
  -7  -3  -9   -1.00    0.70
  -7  -3  -9   -0.30    0.60
   7   3   9   -0.10    0.70
   9  -4  -9   16.70    1.40
  -9   4   9   18.60    1.60
  -9   4   9   17.50    1.00
   8  -4  -9   28.30    1.40
  -8   4   9   27.80    1.80
  -8   4   9   28.40    1.30
   7  -4  -9   -0.20    0.50
  -7   4   9   -0.20    0.60
  -7   4   9    1.00    0.50
  -7   4   9   -0.10    0.50
   6  -4  -9    0.60    0.50
  -6   4   9    0.40    0.40
  -6   4   9    1.20    0.60
  -6   4   9    0.50    0.50
   5  -4  -9   11.20    0.90
  -5   4   9   10.70    1.00
  -5   4   9   11.30    1.00
  -5   4   9    9.70    0.80
   4  -4  -9    8.30    0.80
  -4   4   9    7.10    0.90
  -4   4   9    7.20    0.70
   3  -4  -9   12.40    0.90
   3  -4  -9   10.60    1.10
  -3   4   9   10.50    1.00
  -3   4   9   11.00    0.80
  -3   4   9   10.50    0.90
   2  -4  -9  672.13   16.00
   2  -4  -9  685.93   15.90
  -2   4   9  669.93   16.10
  -2   4   9  672.13   15.90
  -2   4   9  679.23   15.80
   1  -4  -9   57.79    1.90
   1  -4  -9   59.19    2.10
  -1   4   9   61.19    1.80
  -1   4   9   57.59    1.90
  -1   4   9   58.29    2.10
   0  -4  -9   21.40    1.30
   0  -4  -9   23.20    1.10
   0  -4  -9   23.60    0.90
   0   4   9   22.90    1.10
   0   4   9   22.70    1.40
  -1  -4  -9  106.19    3.20
  -1  -4  -9  110.29    3.40
   1   4   9  104.39    3.10
   1   4   9  109.19    3.20
  -2  -4  -9  665.83   15.70
  -2  -4  -9  638.34   15.50
   2   4   9  663.83   15.60
   2   4   9  653.73   15.70
  -3  -4  -9   29.70    1.40
  -3  -4  -9   28.20    1.50
   3   4   9   31.20    1.50
  -4  -4  -9   43.10    1.90
  -4  -4  -9   43.60    1.80
   4   4   9   40.90    1.80
  -5  -4  -9   12.30    1.30
  -5  -4  -9   12.20    1.20
   5   4   9   10.70    1.20
  -6  -4  -9   13.90    1.30
  -6  -4  -9   14.10    1.50
   6   4   9   14.40    1.60
   9  -5  -9    4.10    0.80
  -9   5   9    2.60    0.90
  -9   5   9    3.50    0.60
   8  -5  -9    0.80    0.70
  -8   5   9    1.90    0.50
  -8   5   9    2.50    0.80
   7  -5  -9   32.30    1.50
  -7   5   9   29.50    1.50
  -7   5   9   31.80    1.70
   6  -5  -9   20.20    1.20
  -6   5   9   21.40    1.00
  -6   5   9   21.90    1.30
  -6   5   9   23.10    1.40
   5  -5  -9   13.80    1.00
  -5   5   9   11.70    0.80
  -5   5   9   12.50    1.10
  -5   5   9   14.50    1.10
  -4   5   9   22.90    1.30
  -4   5   9   20.70    1.00
  -4   5   9   21.00    1.30
   3  -5  -9    0.30    0.50
   3  -5  -9    0.40    0.60
  -3   5   9   -0.20    0.40
  -3   5   9    0.30    0.50
  -3   5   9    0.20    0.40
   2  -5  -9   17.40    1.20
   2  -5  -9   18.20    1.30
  -2   5   9   18.70    1.30
  -2   5   9   17.90    1.00
  -2   5   9   20.40    1.00
   1  -5  -9  193.78    5.30
  -1   5   9  199.58    4.90
  -1   5   9  199.68    5.10
  -1   5   9  199.48    5.30
   0  -5  -9  183.98    5.00
   0  -5  -9  184.28    4.80
   0   5   9  186.98    5.00
   0   5   9  189.68    4.50
  -1  -5  -9    0.40    0.60
  -1  -5  -9    0.90    0.50
   1   5   9   -0.40    0.50
   1   5   9    0.60    0.50
  -2  -5  -9   16.80    1.10
  -2  -5  -9   13.70    1.20
   2   5   9   14.70    1.10
  -3  -5  -9    0.30    0.60
  -3  -5  -9    0.60    0.50
   3   5   9   -0.20    0.50
  -4  -5  -9   85.69    2.90
  -4  -5  -9   86.59    2.80
   4   5   9   85.69    2.80
  -5  -5  -9   25.20    2.10
  -5  -5  -9   28.00    1.60
   5   5   9   25.80    1.60
  -6  -5  -9    9.60    1.20
  -6  -5  -9   10.40    1.30
   6   5   9   12.80    1.40
   8  -6  -9    1.10    0.70
  -8   6   9    0.20    0.70
  -8   6   9    0.60    0.60
   7  -6  -9   13.60    1.20
  -7   6   9   14.80    1.70
  -7   6   9   14.10    1.20
   6  -6  -9   33.70    1.60
  -6   6   9   35.80    1.70
  -6   6   9   36.80    1.80
   5  -6  -9    1.80    0.60
  -5   6   9    1.90    0.70
  -5   6   9    1.80    0.60
  -5   6   9    0.80    0.50
   4  -6  -9    2.70    0.60
  -4   6   9    2.10    0.70
  -4   6   9    2.00    0.60
  -4   6   9    2.40    0.50
   3  -6  -9    9.80    1.00
  -3   6   9    9.80    0.80
  -3   6   9   10.90    1.00
   2  -6  -9   21.00    1.40
   2  -6  -9   21.50    1.20
  -2   6   9   23.40    1.10
  -2   6   9   21.60    1.10
  -2   6   9   22.70    1.50
   1  -6  -9   12.00    1.20
   1  -6  -9    9.80    1.00
  -1   6   9   10.00    0.80
  -1   6   9    9.20    1.20
   0  -6  -9   -0.40    0.50
   0  -6  -9    0.20    0.60
   0   6   9    1.10    0.50
   0   6   9    0.60    0.40
   0   6   9   -0.80    0.90
  -1  -6  -9    0.90    0.50
  -1  -6  -9    0.80    0.70
   1   6   9    1.00    0.70
   1   6   9    0.30    0.50
  -2  -6  -9   10.40    1.20
  -2  -6  -9   11.30    1.10
   2   6   9   11.80    1.10
  -3  -6  -9    3.90    0.70
  -3  -6  -9    3.90    0.80
   3   6   9    3.00    0.70
  -4  -6  -9   23.80    1.60
  -4  -6  -9   23.40    1.70
   4   6   9   25.20    1.60
  -5  -6  -9    9.90    1.10
  -5  -6  -9    9.60    1.30
   5   6   9    7.80    1.10
   8  -7  -9   18.00    1.50
  -8   7   9   16.20    1.80
  -8   7   9   18.30    1.40
   7  -7  -9   -0.60    0.70
  -7   7   9    1.20    0.80
  -7   7   9   -0.30    0.70
   6  -7  -9    5.00    0.80
  -6   7   9    5.30    0.80
  -6   7   9    5.40    0.90
   5  -7  -9   -0.10    0.60
  -5   7   9    0.00    0.60
  -5   7   9   -0.50    0.60
   4  -7  -9   22.10    1.30
  -4   7   9   24.10    1.60
  -4   7   9   24.10    1.10
  -4   7   9   27.20    1.40
   3  -7  -9   16.30    1.20
  -3   7   9   16.90    1.40
  -3   7   9   19.30    1.10
  -3   7   9   16.60    1.00
   2  -7  -9   -0.10    0.60
   2  -7  -9    0.90    0.50
  -2   7   9    0.30    0.50
  -2   7   9    0.50    0.50
  -2   7   9   -0.10    0.70
   1  -7  -9    1.40    0.80
   1  -7  -9    0.80    0.60
  -1   7   9    2.50    1.10
  -1   7   9    0.10    0.50
  -1   7   9    1.50    0.50
   0  -7  -9    0.90    0.70
   0  -7  -9   -0.10    0.50
   0   7   9    1.30    0.60
   0   7   9   -0.20    0.80
  -1  -7  -9    2.10    0.60
  -1  -7  -9    1.80    0.60
   1   7   9    2.10    0.60
  -2  -7  -9    0.90    0.60
  -2  -7  -9    0.10    0.60
   2   7   9    1.00    0.60
  -3  -7  -9    3.70    0.80
  -3  -7  -9    3.80    0.80
   3   7   9    2.30    0.70
  -4  -7  -9   38.30    2.00
  -4  -7  -9   39.80    2.00
   4   7   9   38.70    2.00
   7  -8  -9    1.30    0.80
  -7   8   9    1.50    0.90
  -7   8   9    2.20    0.80
   6  -8  -9   48.90    2.10
  -6   8   9   49.60    2.20
  -6   8   9   46.50    2.10
   5  -8  -9   25.80    1.60
  -5   8   9   27.60    1.80
  -5   8   9   31.50    1.70
   4  -8  -9    1.10    0.60
  -4   8   9   -0.10    0.80
  -4   8   9    1.20    0.70
   3  -8  -9    3.80    0.70
  -3   8   9    5.40    0.90
  -3   8   9    3.70    0.60
  -3   8   9    5.20    0.70
   2  -8  -9    8.30    1.10
   2  -8  -9    9.10    1.20
  -2   8   9    9.50    1.20
  -2   8   9    9.30    1.10
   1  -8  -9   25.30    1.50
   1  -8  -9   24.40    1.70
  -1   8   9   23.70    1.30
  -1   8   9   27.30    1.30
  -1   8   9   24.80    1.90
   0  -8  -9   -1.10    0.70
   0  -8  -9   -1.40    0.50
   0   8   9    1.30    0.60
   0   8   9   -0.70    0.80
  -1  -8  -9   37.70    1.90
  -1  -8  -9   35.10    1.80
   1   8   9   37.30    1.70
  -2  -8  -9    1.70    0.80
  -2  -8  -9    0.40    1.00
   2   8   9    0.20    0.60
  -3  -8  -9    4.30    0.90
  -3  -8  -9    2.60    0.90
   3   8   9    3.30    0.80
   6  -9  -9   28.30    1.80
  -6   9   9   32.40    1.90
  -6   9   9   26.70    1.90
   5  -9  -9    2.50    1.50
  -5   9   9    0.10    0.80
  -5   9   9    0.30    0.90
   4  -9  -9   24.20    1.60
  -4   9   9   25.40    1.60
  -4   9   9   26.80    1.90
   3  -9  -9   13.90    1.40
  -3   9   9   15.20    1.30
  -3   9   9   13.80    1.70
   2  -9  -9   22.40    1.70
  -2   9   9   21.50    1.30
  -2   9   9   20.40    1.80
  -2   9   9   25.70    1.30
   1  -9  -9    0.10    0.80
   1  -9  -9    0.00    0.70
  -1   9   9    1.10    1.00
  -1   9   9    1.50    0.60
   0  -9  -9    0.50    0.70
   0  -9  -9    2.20    1.00
   0   9   9    2.20    0.70
  -1  -9  -9    6.00    1.10
  -1  -9  -9    5.10    1.40
   1   9   9    4.60    0.90
  -2  -9  -9    4.80    0.90
  -2  -9  -9    5.00    1.00
   2   9   9    4.30    0.80
   4 -10  -9    0.60    0.80
  -4  10   9    0.20    0.80
  -4  10   9    1.70    1.00
   3 -10  -9    3.30    0.80
  -3  10   9    5.00    1.10
   2 -10  -9   19.30    1.90
  -2  10   9   22.30    1.50
  -2  10   9   22.60    2.00
   1 -10  -9    9.10    1.20
  -1  10   9    9.80    1.20
   0 -10  -9    3.20    0.90
   0 -10  -9    2.30    0.80
   0  10   9    4.00    0.80
   1  11 -10   39.50    2.20
  -1 -11  10   41.50    1.90
  -1 -11  10   45.50    2.40
   0  11 -10   32.80    2.30
   0 -11  10   40.90    2.30
   0 -11  10   33.80    1.70
   4  10 -10   -0.10    0.80
  -4 -10  10    0.20    0.90
  -4 -10  10    0.60    0.70
   3  10 -10   12.50    1.70
  -3 -10  10   15.40    1.60
  -3 -10  10    9.70    1.30
   2  10 -10    2.60    0.90
  -2 -10  10    1.40    0.70
  -2 -10  10    1.90    0.90
   1  10 -10    9.30    1.20
  -1 -10  10    7.40    1.10
  -1 -10  10    8.10    0.90
   0  10 -10   -0.70    1.10
   0 -10  10   -0.30    0.60
   0 -10  10    2.10    0.90
  -1  10 -10   19.10    2.30
  -1  10 -10   13.90    1.60
   1 -10  10   19.50    1.20
   1 -10  10   14.60    1.70
  -2  10 -10   23.80    2.20
  -2  10 -10   30.50    1.90
   2 -10  10   25.80    1.40
   2 -10  10   27.80    1.40
  -3  10 -10    1.70    1.00
  -3  10 -10   -0.30    1.10
   3 -10  10    2.20    0.70
   5   9 -10    0.20    0.80
  -5  -9  10    0.10    0.70
  -5  -9  10    0.40    0.70
   4   9 -10    4.40    1.00
  -4  -9  10    3.90    0.90
  -4  -9  10    4.00    0.80
   3   9 -10    6.20    1.00
  -3  -9  10    6.50    0.80
  -3  -9  10    7.00    0.90
   2   9 -10    3.60    0.90
  -2  -9  10    3.20    0.70
  -2  -9  10    3.70    0.90
   1   9 -10    0.20    0.70
  -1  -9  10   -0.70    0.50
  -1  -9  10    0.20    0.80
   0   9 -10    0.20    0.70
   0  -9  10   -0.80    0.50
   0  -9  10    0.10    0.70
  -1   9 -10    0.60    0.70
   1  -9  10    1.30    0.50
   1  -9  10    1.60    0.70
  -2   9 -10    2.60    1.00
  -2   9 -10    2.50    0.80
   2  -9  10    3.20    0.60
   2  -9  10    4.30    0.60
  -3   9 -10   18.00    1.90
  -3   9 -10   22.80    1.70
   3  -9  10   20.10    1.20
   3  -9  10   18.50    1.20
  -4   9 -10    5.80    1.20
  -4   9 -10    3.80    0.90
   4  -9  10    4.30    0.80
   6   8 -10   22.60    1.80
  -6  -8  10   25.90    1.70
  -6  -8  10   25.00    1.60
   5   8 -10    0.70    0.80
  -5  -8  10    0.10    0.60
  -5  -8  10    0.60    0.70
   4   8 -10   33.50    1.80
  -4  -8  10   33.00    1.60
  -4  -8  10   32.00    1.70
   3   8 -10    8.40    1.00
  -3  -8  10    6.90    0.90
  -3  -8  10    6.20    0.80
   2   8 -10    0.00    0.70
  -2  -8  10   -0.50    0.60
  -2  -8  10    0.20    0.50
   1   8 -10    1.40    0.70
  -1  -8  10    2.90    0.60
  -1  -8  10    3.20    0.80
   0   8 -10    0.40    0.70
   0   8 -10   -1.50    0.90
   0  -8  10    0.80    0.90
   0  -8  10   -0.40    0.50
  -1   8 -10   10.00    1.20
  -1   8 -10    9.70    1.30
   1  -8  10   10.50    0.90
   1  -8  10   10.90    1.40
   1  -8  10   10.60    0.90
  -2   8 -10    1.70    0.90
  -2   8 -10   -0.50    0.70
   2  -8  10    0.10    0.50
  -3   8 -10    1.40    0.90
  -3   8 -10    0.20    0.70
   3  -8  10    0.50    0.50
   3  -8  10    0.80    0.50
  -4   8 -10   -0.60    0.80
  -4   8 -10    1.30    0.80
   4  -8  10    0.20    0.50
   4  -8  10    0.70    0.60
  -5   8 -10    0.80    1.00
  -5   8 -10    0.60    0.70
   5  -8  10    1.20    0.70
   7   7 -10   10.30    1.20
  -7  -7  10   12.20    1.40
  -7  -7  10   14.80    1.20
  -7  -7  10   13.90    1.10
   6   7 -10   -0.90    0.70
  -6  -7  10    0.60    1.20
  -6  -7  10    0.90    0.60
   5   7 -10   22.70    1.60
  -5  -7  10   23.50    1.40
  -5  -7  10   25.70    1.50
   4   7 -10    0.20    0.70
  -4  -7  10    0.10    0.50
  -4  -7  10    0.50    0.60
   3   7 -10    4.00    0.80
  -3  -7  10    3.60    0.60
  -3  -7  10    2.80    0.70
   2   7 -10    0.30    0.60
  -2  -7  10    0.90    0.40
  -2  -7  10    0.90    0.60
   1   7 -10    6.10    0.90
   1   7 -10    4.30    0.80
  -1  -7  10    4.50    0.60
   0   7 -10    9.40    1.10
   0   7 -10   11.00    1.20
   0  -7  10    9.00    0.90
   0  -7  10    9.10    1.00
   0  -7  10   10.10    0.70
  -1   7 -10    0.40    0.60
  -1   7 -10    0.80    0.90
   1  -7  10    1.70    0.40
   1  -7  10    1.40    0.50
   1  -7  10    1.00    0.70
  -2   7 -10   29.90    1.60
   2  -7  10   31.40    1.80
   2  -7  10   31.30    1.30
   2  -7  10   31.30    1.30
  -3   7 -10    8.20    1.10
  -3   7 -10    7.40    1.00
   3  -7  10    8.70    1.00
   3  -7  10    9.50    0.90
  -4   7 -10   25.70    1.60
  -4   7 -10   26.00    1.80
   4  -7  10   22.90    1.40
   4  -7  10   25.40    1.30
  -5   7 -10    1.20    0.70
  -5   7 -10    2.20    0.80
   5  -7  10    1.50    0.60
   5  -7  10    1.30    0.70
  -6   7 -10    7.40    1.10
  -6   7 -10   10.00    1.40
   6  -7  10   10.40    1.10
   8   6 -10   13.30    1.50
  -8  -6  10   11.80    1.00
  -8  -6  10   10.60    1.20
   7   6 -10   17.00    1.50
  -7  -6  10   18.60    1.10
  -7  -6  10   18.20    1.70
   6   6 -10   27.70    1.70
  -6  -6  10   26.50    1.40
  -6  -6  10   27.10    1.60
   5   6 -10    3.10    0.80
  -5  -6  10    3.00    0.60
  -5  -6  10    2.60    0.60
   4   6 -10    3.50    0.70
  -4  -6  10    3.80    0.60
  -4  -6  10    3.30    0.70
   3   6 -10   -0.30    0.60
  -3  -6  10   -0.50    0.50
  -3  -6  10    1.00    0.50
   2   6 -10    4.80    0.80
  -2  -6  10    7.40    0.80
  -2  -6  10    5.50    1.20
   1   6 -10    6.50    0.80
   1   6 -10    7.60    0.90
  -1  -6  10    7.00    0.80
  -1  -6  10    6.90    1.00
   0   6 -10    1.60    0.80
   0   6 -10    0.90    0.50
   0  -6  10    1.50    0.70
   0  -6  10    0.60    0.40
   0  -6  10    1.40    0.40
  -1   6 -10    0.00    0.60
  -1   6 -10   -0.40    0.70
   1  -6  10    0.40    0.40
   1  -6  10    0.50    0.50
   1  -6  10    0.20    0.60
  -2   6 -10    0.40    0.70
  -2   6 -10    0.70    0.50
   2  -6  10    1.00    0.40
   2  -6  10    0.30    0.70
   2  -6  10    0.50    0.40
  -3   6 -10    9.00    1.10
  -3   6 -10   11.30    1.40
   3  -6  10    9.80    0.90
   3  -6  10   10.90    0.90
  -4   6 -10    0.10    0.70
  -4   6 -10   -0.30    0.60
  -4   6 -10   -0.20    0.60
   4  -6  10    0.50    0.50
  -5   6 -10    0.30    0.80
  -5   6 -10    1.60    0.70
  -5   6 -10    1.20    0.70
   5  -6  10    0.30    0.50
  -6   6 -10    1.20    0.80
  -6   6 -10    0.30    0.80
  -6   6 -10    0.90    0.70
   6  -6  10    0.40    0.60
   8   5 -10    6.80    1.10
  -8  -5  10    8.50    0.90
  -8  -5  10    7.20    1.10
   7   5 -10    8.00    1.00
  -7  -5  10    8.90    1.20
  -7  -5  10    9.20    1.10
   6   5 -10   20.70    1.50
  -6  -5  10   21.20    1.10
  -6  -5  10   19.80    1.30
   5   5 -10   38.00    1.70
  -5  -5  10   40.40    1.70
  -5  -5  10   40.10    1.60
   4   5 -10   12.80    1.10
  -4  -5  10   12.70    1.00
  -4  -5  10   12.40    1.00
   3   5 -10   41.70    1.70
  -3  -5  10   41.90    1.70
  -3  -5  10   40.60    1.60
   2   5 -10    7.10    1.00
   2   5 -10    8.80    1.50
  -2  -5  10    8.00    0.90
  -2  -5  10    7.60    1.00
   1   5 -10   42.60    1.70
   1   5 -10   40.00    1.90
  -1  -5  10   42.80    1.60
  -1  -5  10   41.80    1.70
   0   5 -10   25.30    1.50
   0   5 -10   23.00    1.30
   0  -5  10   28.00    1.60
   0  -5  10   23.90    0.90
  -1   5 -10    7.20    0.90
  -1   5 -10    6.40    0.90
   1  -5  10    6.70    1.00
  -2   5 -10   52.79    2.20
  -2   5 -10   53.99    1.90
  -2   5 -10   55.89    1.80
   2  -5  10   54.69    2.10
   2  -5  10   52.19    2.10
  -3   5 -10    3.60    0.60
  -3   5 -10    3.10    0.80
   3  -5  10    3.40    0.60
  -4   5 -10    0.60    0.70
  -4   5 -10    0.00    0.60
  -4   5 -10    0.40    0.50
   4  -5  10    1.90    0.50
  -5   5 -10   16.10    1.20
  -5   5 -10   16.10    1.30
  -5   5 -10   13.20    1.40
   5  -5  10   14.40    1.10
  -6   5 -10    1.90    0.70
  -6   5 -10    2.00    0.80
  -6   5 -10    3.20    0.80
   6  -5  10    1.30    0.70
   8   4 -10    9.80    1.40
  -8  -4  10   10.90    0.80
  -8  -4  10    9.90    0.80
  -8  -4  10    9.70    1.30
   7   4 -10    4.80    0.80
  -7  -4  10    4.80    0.70
  -7  -4  10    4.90    0.80
   6   4 -10   16.00    1.30
  -6  -4  10   14.30    1.10
  -6  -4  10   14.00    1.00
   5   4 -10   28.50    1.50
  -5  -4  10   27.10    1.30
  -5  -4  10   27.00    1.30
   4   4 -10   11.60    1.10
  -4  -4  10   10.90    1.00
  -4  -4  10   11.50    0.90
   3   4 -10    3.10    0.60
  -3  -4  10    3.20    0.60
   2   4 -10  267.27    6.80
  -2  -4  10  276.17    6.80
  -2  -4  10  261.97    6.90
   1   4 -10    1.20    0.60
   1   4 -10    1.40    0.60
  -1  -4  10    0.60    0.50
   0   4 -10   52.29    1.50
   0   4 -10   61.59    2.30
   0   4 -10   51.79    1.90
   0  -4  10   52.09    2.00
   0  -4  10   50.39    1.90
  -1   4 -10   36.60    1.40
  -1   4 -10   35.70    1.20
   1  -4  10   35.60    1.60
   1  -4  10   32.00    1.50
  -2   4 -10  355.66    9.00
  -2   4 -10  362.36    8.70
  -2   4 -10  362.06    8.80
   2  -4  10  366.16    9.00
  -3   4 -10   77.89    2.80
  -3   4 -10   75.69    2.30
  -3   4 -10   74.79    2.40
   3  -4  10   73.49    2.30
  -4   4 -10   48.50    1.80
  -4   4 -10   45.30    1.70
  -4   4 -10   46.60    2.00
   4  -4  10   46.90    1.70
  -5   4 -10  100.49    3.30
  -5   4 -10  105.59    3.20
   5  -4  10  105.39    3.10
  -6   4 -10    2.40    0.70
  -6   4 -10    2.00    0.80
  -6   4 -10    1.20    0.60
   6  -4  10    1.50    0.60
  -7   4 -10   -0.80    0.80
  -7   4 -10    0.60    1.00
   7  -4  10    0.90    0.70
   9   3 -10   24.20    1.90
  -9  -3  10   25.10    1.70
   8   3 -10   15.80    1.50
  -8  -3  10   12.10    1.30
  -8  -3  10   15.00    0.80
  -8  -3  10   15.50    0.90
   7   3 -10    1.90    0.80
  -7  -3  10    1.50    0.70
  -7  -3  10    0.40    0.60
  -7  -3  10    1.00    0.50
   6   3 -10    1.40    0.70
  -6  -3  10    0.10    0.50
  -6  -3  10    0.10    0.40
   5   3 -10   -0.20    0.60
  -5  -3  10    0.30    0.50
  -5  -3  10    0.50    0.40
   4   3 -10    1.50    0.60
  -4  -3  10    2.20    0.50
  -4  -3  10    1.70    0.50
   3   3 -10  124.49    3.50
  -3  -3  10  115.29    3.60
  -3  -3  10  127.99    3.50
   2   3 -10  207.88    5.20
   2   3 -10  197.78    5.30
  -2  -3  10  202.98    5.30
  -2  -3  10  208.58    5.50
   1   3 -10   53.49    1.80
   1   3 -10   54.69    1.50
  -1  -3  10   55.19    1.90
  -1  -3  10   55.39    1.80
   0   3 -10   96.89    3.00
   0   3 -10  100.89    2.80
   0   3 -10   95.69    2.50
   0  -3  10   98.99    2.80
   0  -3  10  100.39    3.00
  -1   3 -10    8.60    0.80
  -1   3 -10    6.00    0.70
  -1   3 -10    8.90    1.10
   1  -3  10    8.30    1.00
   1  -3  10    7.20    0.80
  -2   3 -10   21.80    1.10
  -2   3 -10   22.10    1.10
  -2   3 -10   22.90    1.30
   2  -3  10   21.30    1.30
  -3   3 -10    3.10    0.60
  -3   3 -10    2.70    0.60
   3  -3  10    2.50    0.60
  -4   3 -10   53.99    1.90
  -4   3 -10   56.49    1.80
  -4   3 -10   49.00    2.00
   4  -3  10   53.49    1.90
  -5   3 -10    9.10    0.90
  -5   3 -10    8.40    1.10
  -5   3 -10   10.10    1.10
   5  -3  10    6.20    0.80
  -6   3 -10   16.10    1.40
  -6   3 -10   19.80    1.50
   6  -3  10   17.50    1.20
  -7   3 -10    0.00    0.80
   7  -3  10    1.00    0.70
   9   2 -10    0.20    1.20
  -9  -2  10   -1.40    0.60
   8   2 -10    6.80    1.00
  -8  -2  10    5.70    0.70
  -8  -2  10    5.50    0.70
  -8  -2  10    6.00    0.80
   7   2 -10   13.70    1.30
  -7  -2  10   14.20    0.90
  -7  -2  10   15.40    0.90
  -7  -2  10   15.20    1.10
   6   2 -10    2.40    0.70
  -6  -2  10    1.30    0.50
  -6  -2  10    2.10    0.50
   5   2 -10   24.90    1.40
  -5  -2  10   27.00    1.20
  -5  -2  10   25.60    1.20
   4   2 -10   31.00    1.40
  -4  -2  10   28.00    1.30
   3   2 -10    1.50    0.60
   3   2 -10    1.60    0.60
  -3  -2  10    1.80    0.40
  -3  -2  10    0.90    0.50
   2   2 -10    0.10    0.50
   2   2 -10    0.40    0.50
  -2  -2  10   -0.10    0.40
  -2  -2  10    0.20    0.40
   1   2 -10    2.50    0.30
   1   2 -10    2.70    0.50
   1   2 -10    3.30    0.60
  -1  -2  10    2.20    0.50
  -1  -2  10    2.60    0.50
   0   2 -10   49.00    1.60
   0   2 -10   47.70    1.40
   0  -2  10   47.00    1.60
   0  -2  10   48.40    1.80
  -1   2 -10   10.60    0.80
  -1   2 -10    9.50    1.00
  -1   2 -10   10.80    0.80
   1  -2  10    9.50    0.80
   1  -2  10   10.20    1.00
  -2   2 -10   34.20    1.30
  -2   2 -10   33.60    1.60
  -2   2 -10   35.40    1.30
   2  -2  10   34.60    1.50
  -3   2 -10    8.50    1.10
  -3   2 -10    9.70    0.80
   3  -2  10    6.80    0.90
  -4   2 -10    4.30    0.70
  -4   2 -10    5.70    0.70
  -4   2 -10    7.00    0.80
   4  -2  10    5.60    0.70
  -5   2 -10    1.30    0.60
  -5   2 -10    1.20    0.80
  -5   2 -10    0.10    0.60
   5  -2  10    1.50    0.50
  -6   2 -10    0.30    0.70
  -6   2 -10    1.70    0.70
   6  -2  10    0.40    0.60
  -7   2 -10    2.40    0.90
   7  -2  10    2.10    0.70
   9   1 -10    4.00    0.90
  -9  -1  10    4.10    0.80
   8   1 -10   35.10    1.80
  -8  -1  10   34.80    1.60
  -8  -1  10   36.10    1.30
   7   1 -10    0.60    0.60
  -7  -1  10   -0.60    0.50
  -7  -1  10    0.20    0.40
  -7  -1  10   -0.70    0.50
   6   1 -10    0.30    0.50
  -6  -1  10    0.60    0.60
  -6  -1  10    0.90    0.40
  -6  -1  10    1.30    0.50
   5   1 -10    4.60    0.70
  -5  -1  10    5.60    0.80
  -5  -1  10    5.40    0.80
  -4  -1  10   23.10    1.70
   3   1 -10   22.50    0.70
   3   1 -10   21.90    1.30
   3   1 -10   22.00    1.20
  -3  -1  10   23.30    1.20
  -3  -1  10   23.00    1.10
   2   1 -10    0.90    0.60
   2   1 -10    0.40    0.40
   2   1 -10    0.60    0.30
  -2  -1  10    0.80    0.40
  -2  -1  10    0.50    0.50
   1   1 -10   32.90    1.30
   1   1 -10   31.50    1.50
   1   1 -10   34.00    1.10
  -1  -1  10   32.80    1.30
   0   1 -10   13.60    0.70
   0   1 -10   12.60    1.10
   0   1 -10   14.60    0.80
   0  -1  10   13.40    0.90
  -1   1 -10   10.60    0.70
  -1   1 -10   10.50    0.80
  -1   1 -10   10.40    1.10
   1  -1  10   10.60    1.00
   1  -1  10    9.70    0.90
  -2   1 -10    1.10    0.40
  -2   1 -10    0.90    0.50
  -2   1 -10    1.20    0.60
   2  -1  10    1.20    0.60
   2  -1  10    0.80    0.50
  -3   1 -10    3.30    0.40
   3  -1  10    2.60    0.60
  -4   1 -10    1.20    0.60
  -4   1 -10    0.30    0.50
  -4   1 -10    1.30    0.40
   4  -1  10    0.70    0.50
  -5   1 -10   10.30    1.20
  -5   1 -10    7.60    1.10
   5  -1  10    8.40    1.00
  -6   1 -10   13.20    1.40
  -6   1 -10   16.10    1.30
   6  -1  10   15.20    1.30
  -7   1 -10    1.60    0.80
  -7   1 -10    0.40    0.60
   7  -1  10    1.30    0.70
   9   0 -10    1.00    0.90
  -9   0  10    0.60    0.70
   8   0 -10   -0.10    0.70
  -8   0  10    0.20    0.50
  -8   0  10    1.30    0.60
  -8   0  10    1.10    0.40
   7   0 -10    0.30    0.60
  -7   0  10    0.20    0.50
  -7   0  10    0.30    0.40
  -7   0  10    1.30    0.60
   6   0 -10   48.50    1.90
   6   0 -10   48.50    1.60
  -6   0  10   49.40    1.70
  -6   0  10   46.50    1.70
   5   0 -10    2.20    0.60
   5   0 -10    2.10    0.30
  -5   0  10    3.00    0.50
   4   0 -10    8.90    1.10
   4   0 -10   12.00    0.60
  -4   0  10   10.60    0.80
  -4   0  10   10.00    1.00
   3   0 -10    8.60    1.00
   3   0 -10    8.40    0.60
   3   0 -10    8.60    0.80
  -3   0  10    9.10    0.90
  -3   0  10   10.00    0.80
   2   0 -10   70.19    1.90
   2   0 -10   66.19    2.50
   2   0 -10   71.59    2.10
  -2   0  10   72.39    2.30
  -2   0  10   72.49    2.20
   1   0 -10   68.89    1.90
   1   0 -10   72.39    2.10
   1   0 -10   70.89    2.30
  -1   0  10   68.59    2.10
  -1   0  10   71.49    2.30
   0   0 -10   27.70    1.10
   0   0 -10   26.80    1.00
   0   0 -10   27.60    1.30
   0   0  10   27.10    1.30
   0   0  10   26.20    1.20
  -1   0 -10   60.79    2.20
  -1   0 -10   50.89    1.60
  -1   0 -10   50.79    1.70
   1   0  10   50.49    1.90
  -2   0 -10    4.40    0.60
  -2   0 -10    6.30    0.60
  -2   0 -10    6.50    0.90
   2   0  10    5.30    0.80
   2   0  10    7.70    0.80
  -3   0 -10    0.50    0.30
  -3   0 -10   -0.20    0.70
  -3   0 -10   -0.40    0.40
   3   0  10   -0.40    0.40
  -4   0 -10    8.30    1.10
  -4   0 -10    7.40    1.00
   4   0  10    9.50    1.00
  -5   0 -10   19.70    1.30
  -5   0 -10   20.70    1.30
   5   0  10   20.30    1.30
  -6   0 -10   52.89    2.20
  -6   0 -10   49.00    2.20
   6   0  10   49.99    2.10
  -7   0 -10   25.80    1.90
  -7   0 -10   20.50    1.90
   7   0  10   22.40    1.60
  -9   1  10    8.30    1.10
  -9   1  10    5.90    1.30
  -8   1  10   12.30    1.10
  -8   1  10   14.50    0.90
  -8   1  10   13.70    0.90
  -8   1  10   14.50    1.40
   7  -1 -10    0.40    0.40
  -7   1  10   -0.50    0.60
  -7   1  10   -0.50    0.40
  -7   1  10    0.40    0.50
   6  -1 -10   78.29    2.10
  -6   1  10   78.49    2.40
  -6   1  10   77.59    2.60
  -6   1  10   74.19    2.60
   5  -1 -10   31.90    1.10
  -5   1  10   32.50    1.40
  -5   1  10   32.50    1.40
  -5   1  10   32.20    1.50
   4  -1 -10   62.19    1.70
   4  -1 -10   61.69    2.10
  -4   1  10   64.29    2.00
  -4   1  10   62.49    2.30
   3  -1 -10    1.70    0.50
   3  -1 -10    2.40    0.60
   3  -1 -10    3.00    0.40
  -3   1  10    1.80    0.60
  -3   1  10    1.60    0.40
   2  -1 -10    0.30    0.60
   2  -1 -10    1.10    0.40
   2  -1 -10    0.90    0.40
  -2   1  10    1.40    0.50
  -2   1  10    0.40    0.40
   1  -1 -10    0.70    0.30
   1  -1 -10    0.40    0.50
   1  -1 -10    0.60    0.40
  -1   1  10    0.10    0.50
  -1   1  10    0.30    0.40
   0  -1 -10   24.70    1.30
   0  -1 -10   23.50    1.00
   0  -1 -10   23.60    1.00
   0   1  10   30.50    1.60
   0   1  10   23.60    1.10
  -1  -1 -10   73.79    2.40
  -1  -1 -10   74.39    2.20
  -1  -1 -10   75.99    2.00
   1   1  10   76.39    2.50
  -2  -1 -10   -0.20    0.30
  -2  -1 -10    0.70    0.50
  -2  -1 -10    0.30    0.50
   2   1  10   -0.40    0.50
   2   1  10    0.20    0.60
  -3  -1 -10    4.50    0.80
  -3  -1 -10    4.10    0.60
   3   1  10    6.50    0.90
  -4  -1 -10    1.50    0.60
  -4  -1 -10    1.10    0.50
   4   1  10    0.00    0.50
  -5  -1 -10   -0.30    0.60
  -5  -1 -10    0.10    0.60
   5   1  10    0.80    0.60
  -6  -1 -10   30.10    1.70
  -6  -1 -10   32.00    1.90
   6   1  10   32.80    1.70
  -7  -1 -10    7.10    1.40
  -7  -1 -10    6.30    0.90
   7   1  10    6.80    1.00
  -9   2  10   -0.50    0.60
  -9   2  10   -0.10    0.40
  -9   2  10    0.00    0.40
  -9   2  10    0.70    0.80
   8  -2 -10   -0.70    0.50
  -8   2  10   -0.90    0.50
  -8   2  10    0.40    0.70
  -8   2  10   -0.20    0.40
   7  -2 -10    6.30    0.80
  -7   2  10    6.40    0.80
  -7   2  10    7.10    0.90
  -7   2  10    6.20    0.90
   6  -2 -10    0.50    0.40
  -6   2  10    0.20    0.60
  -6   2  10    1.00    0.60
  -6   2  10    0.30    0.40
   5  -2 -10   28.40    1.10
  -5   2  10   27.20    1.20
  -5   2  10   26.70    1.40
  -5   2  10   27.10    1.30
   4  -2 -10   47.50    1.50
  -4   2  10   44.80    1.60
  -4   2  10   45.10    1.90
   3  -2 -10    1.10    0.60
   3  -2 -10   -0.20    0.40
  -3   2  10    0.90    0.40
  -3   2  10   -0.10    0.50
  -3   2  10    1.00    0.50
   2  -2 -10    1.00    0.40
   2  -2 -10    1.00    0.40
   2  -2 -10    1.50    0.70
  -2   2  10    2.20    0.60
  -2   2  10    1.30    0.40
   1  -2 -10    0.90    0.50
   1  -2 -10    0.50    0.40
   1  -2 -10    0.90    0.40
  -1   2  10    0.30    0.40
  -1   2  10   -0.20    0.50
   0  -2 -10    1.10    0.40
   0  -2 -10   -0.10    0.50
   0  -2 -10    0.90    0.40
   0   2  10    1.70    0.60
   0   2  10    1.40    0.60
  -1  -2 -10    3.40    0.40
  -1  -2 -10    3.30    0.70
  -1  -2 -10    2.50    0.50
   1   2  10    3.20    0.70
   1   2  10    2.20    0.50
  -2  -2 -10    3.30    0.70
  -2  -2 -10    4.30    0.60
   2   2  10    4.30    0.60
   2   2  10    4.70    0.80
  -3  -2 -10    4.40    0.60
  -3  -2 -10    3.60    0.70
   3   2  10    3.60    0.60
  -4  -2 -10    1.50    0.60
  -4  -2 -10    2.00    0.60
   4   2  10    1.90    0.60
  -5  -2 -10   -0.40    0.60
  -5  -2 -10    0.00    0.50
   5   2  10    0.40    0.60
  -6  -2 -10    4.00    0.90
  -6  -2 -10    4.80    1.00
   6   2  10    3.20    0.80
   9  -3 -10    1.10    0.70
  -9   3  10    2.70    0.50
  -9   3  10    2.00    0.90
  -9   3  10    2.50    0.70
   8  -3 -10    1.40    0.60
  -8   3  10    0.60    0.50
  -8   3  10    0.40    0.50
  -8   3  10    1.50    0.80
   7  -3 -10    3.20    0.60
  -7   3  10    3.50    0.60
  -7   3  10    1.80    0.70
   6  -3 -10   -0.90    0.40
  -6   3  10    0.40    0.60
  -6   3  10    0.10    0.50
  -6   3  10    0.20    0.50
   5  -3 -10    1.30    0.50
  -5   3  10    1.00    0.50
  -5   3  10    1.70    0.60
  -5   3  10    1.80    0.50
   4  -3 -10   73.39    2.10
  -4   3  10   72.89    2.20
  -4   3  10   73.49    2.40
   3  -3 -10   30.70    1.50
   3  -3 -10   33.00    1.20
  -3   3  10   32.30    1.40
  -3   3  10   31.90    1.30
  -3   3  10   30.90    1.50
   2  -3 -10   49.40    2.00
   2  -3 -10   49.30    1.60
  -2   3  10   50.89    1.70
  -2   3  10   59.69    2.20
  -2   3  10   50.39    1.70
   1  -3 -10   86.49    2.40
   1  -3 -10   80.29    2.30
   1  -3 -10   82.89    2.70
  -1   3  10   84.29    2.70
  -1   3  10   84.79    2.50
   0  -3 -10   81.19    2.20
   0  -3 -10   83.79    2.40
   0   3  10   81.79    2.60
   0   3  10   71.69    2.60
  -1  -3 -10    3.70    0.70
  -1  -3 -10    4.10    0.50
   1   3  10    3.40    0.70
   1   3  10    4.30    0.60
  -2  -3 -10    1.40    0.50
  -2  -3 -10    0.80    0.80
   2   3  10    2.20    0.80
   2   3  10    1.50    0.50
  -3  -3 -10    4.30    0.70
  -3  -3 -10    3.80    0.70
   3   3  10    2.70    0.60
  -4  -3 -10   49.10    2.00
  -4  -3 -10   51.49    2.00
   4   3  10   50.49    2.00
  -5  -3 -10    0.00    0.60
  -5  -3 -10   -0.70    0.60
   5   3  10    0.40    0.60
  -6  -3 -10    0.10    0.70
  -6  -3 -10    1.30    0.80
   6   3  10    0.30    0.80
   9  -4 -10    1.50    0.70
  -9   4  10    2.50    0.60
  -9   4  10    0.80    0.80
   8  -4 -10    1.80    0.70
  -8   4  10    3.00    0.60
  -8   4  10    0.70    0.80
   7  -4 -10   22.70    1.30
  -7   4  10   26.50    1.20
  -7   4  10   27.30    1.60
  -7   4  10   27.20    1.40
  -6   4  10   62.39    2.20
  -6   4  10   59.29    2.30
  -6   4  10   63.59    2.00
   5  -4 -10   35.80    1.40
  -5   4  10   34.60    1.60
  -5   4  10   36.60    1.40
  -5   4  10   35.40    1.60
   4  -4 -10    8.80    0.90
  -4   4  10    7.70    0.80
  -4   4  10    8.80    1.00
  -4   4  10    9.30    1.00
   3  -4 -10    1.70    0.80
   3  -4 -10    0.80    0.50
  -3   4  10    1.90    0.50
  -3   4  10    1.70    0.50
  -3   4  10    1.50    0.60
   2  -4 -10    1.40    0.50
   2  -4 -10    1.20    0.70
  -2   4  10    0.80    0.50
  -2   4  10    1.40    0.50
  -2   4  10    1.20    0.50
   1  -4 -10   11.50    0.90
   1  -4 -10   12.80    1.50
  -1   4  10    8.60    1.10
   0  -4 -10  507.15   12.50
   0  -4 -10  514.65   12.00
   0  -4 -10  510.95   12.30
   0   4  10  515.55   12.30
   0   4  10  514.95   12.50
  -1  -4 -10  134.39    3.90
  -1  -4 -10  134.39    3.70
   1   4  10  133.49    3.70
   1   4  10  133.49    3.90
  -2  -4 -10  286.67    7.40
  -2  -4 -10  282.37    7.20
   2   4  10  288.87    7.30
  -3  -4 -10   21.30    1.40
  -3  -4 -10   21.40    1.30
   3   4  10   19.00    1.30
  -4  -4 -10   41.70    1.90
  -4  -4 -10   42.50    1.90
   4   4  10   39.50    1.90
  -5  -4 -10   31.00    1.60
  -5  -4 -10   28.50    1.70
   5   4  10   28.10    1.70
  -6  -4 -10   52.09    2.30
  -6  -4 -10   48.60    2.10
   6   4  10   50.29    2.30
   8  -5 -10    1.50    0.70
  -8   5  10    0.20    0.80
  -8   5  10    2.00    0.70
   7  -5 -10   34.80    1.60
  -7   5  10   34.80    2.20
  -7   5  10   36.80    1.70
   6  -5 -10   16.70    1.10
  -6   5  10   18.20    1.30
  -6   5  10   15.10    1.00
  -6   5  10   17.20    1.40
   5  -5 -10    7.10    0.90
  -5   5  10    8.50    0.80
  -5   5  10    8.90    1.10
  -5   5  10    6.50    0.80
   4  -5 -10   12.00    1.00
  -4   5  10   13.30    0.90
  -4   5  10   12.70    1.10
  -4   5  10   13.40    1.20
   3  -5 -10    1.40    0.50
  -3   5  10    1.40    0.80
  -3   5  10    2.00    0.60
  -3   5  10    1.70    0.50
   2  -5 -10    1.70    0.70
   2  -5 -10    0.90    0.50
  -2   5  10    0.10    0.60
  -2   5  10    1.60    0.50
  -2   5  10    0.60    0.70
   1  -5 -10    9.60    0.90
   1  -5 -10   13.50    1.30
  -1   5  10   12.90    0.90
  -1   5  10   11.90    0.90
  -1   5  10   12.60    1.30
   0  -5 -10    2.60    0.40
   0  -5 -10    1.70    0.70
   0  -5 -10    1.50    0.50
   0   5  10    2.50    0.60
   0   5  10    2.40    0.80
  -1  -5 -10   18.30    1.50
  -1  -5 -10   17.20    1.20
   1   5  10   17.50    1.20
   1   5  10   18.70    1.50
  -2  -5 -10   88.89    2.70
  -2  -5 -10   86.39    2.90
   2   5  10   83.79    2.80
  -3  -5 -10   34.80    1.70
  -3  -5 -10   31.50    1.70
   3   5  10   32.50    1.70
  -4  -5 -10   21.50    1.60
  -4  -5 -10   24.70    1.60
   4   5  10   23.10    2.00
  -5  -5 -10   27.00    2.00
  -5  -5 -10   25.40    1.70
   5   5  10   26.50    1.70
   8  -6 -10    3.90    0.90
  -8   6  10    4.20    0.80
  -8   6  10    3.10    0.90
   7  -6 -10    1.30    0.70
  -7   6  10    1.10    0.80
  -7   6  10    2.40    0.80
   6  -6 -10   -0.10    0.60
  -6   6  10    0.40    0.60
  -6   6  10    0.20    0.70
   5  -6 -10   24.30    1.40
  -5   6  10   23.20    1.10
  -5   6  10   26.60    1.40
  -5   6  10   25.90    1.50
   4  -6 -10   23.10    1.30
  -4   6  10   24.30    1.20
  -4   6  10   25.90    1.30
  -4   6  10   24.40    1.50
   3  -6 -10    2.00    0.60
  -3   6  10    1.90    0.70
  -3   6  10    1.40    0.70
  -3   6  10    2.20    0.50
   2  -6 -10    3.90    0.80
   2  -6 -10    3.50    0.60
  -2   6  10    3.90    0.80
  -2   6  10    3.30    0.60
  -2   6  10    4.00    0.60
   1  -6 -10    6.80    0.70
   1  -6 -10    5.00    0.80
  -1   6  10    6.90    0.90
  -1   6  10    5.30    0.90
  -1   6  10    5.70    0.60
   0  -6 -10    3.90    0.80
   0  -6 -10    4.70    0.70
   0   6  10    3.50    0.70
   0   6  10    6.40    0.90
  -1  -6 -10   13.00    1.20
  -1  -6 -10   16.00    1.30
   1   6  10   16.30    1.20
  -2  -6 -10   -0.10    0.70
  -2  -6 -10   -0.30    0.50
   2   6  10   -0.10    0.60
  -3  -6 -10    2.80    0.70
  -3  -6 -10    1.50    0.80
   3   6  10    1.90    0.70
  -4  -6 -10   25.90    1.70
  -4  -6 -10   29.60    1.80
   4   6  10   27.90    1.70
   7  -7 -10   16.10    1.40
  -7   7  10   20.90    1.70
  -7   7  10   16.10    1.50
   6  -7 -10   35.00    1.80
  -6   7  10   37.90    1.90
  -6   7  10   36.80    1.90
   5  -7 -10   19.10    1.40
  -5   7  10   20.50    1.50
  -5   7  10   19.70    1.60
   4  -7 -10   12.10    1.20
  -4   7  10   13.30    1.00
  -4   7  10   13.10    1.40
  -4   7  10   14.30    1.20
   3  -7 -10    2.30    0.60
  -3   7  10    2.30    0.80
  -3   7  10    3.00    0.60
   2  -7 -10    0.40    0.50
   2  -7 -10   -0.80    0.80
  -2   7  10   -1.00    0.60
  -2   7  10   -0.70    0.50
  -2   7  10    0.80    0.70
   1  -7 -10    0.00    0.50
   1  -7 -10    1.60    0.80
  -1   7  10    0.80    0.50
  -1   7  10   -1.10    0.80
  -1   7  10    0.90    0.50
   0  -7 -10    1.00    0.90
   0  -7 -10   -0.50    0.50
   0   7  10    0.60    0.80
   0   7  10    0.50    0.60
  -1  -7 -10    4.10    1.00
  -1  -7 -10    4.30    0.80
   1   7  10    4.80    0.70
  -2  -7 -10    1.10    0.70
  -2  -7 -10    1.90    0.70
   2   7  10    0.70    0.70
  -3  -7 -10    0.20    0.80
  -3  -7 -10    1.00    0.80
   3   7  10   -0.40    0.70
  -4  -7 -10    3.80    0.90
  -4  -7 -10    2.90    0.80
   4   7  10    3.70    0.90
   6  -8 -10   -0.20    0.70
  -6   8  10   -0.60    0.80
  -6   8  10    0.00    0.80
   5  -8 -10    1.30    0.70
  -5   8  10    1.80    0.80
  -5   8  10    1.90    0.90
   4  -8 -10   96.99    3.10
  -4   8  10   94.89    3.00
  -4   8  10   92.59    3.30
   3  -8 -10   11.10    1.20
  -3   8  10    8.90    1.00
  -3   8  10   11.40    1.20
  -3   8  10   10.60    1.50
   2  -8 -10   69.59    2.40
  -2   8  10   65.69    2.20
  -2   8  10   68.49    2.20
  -2   8  10   68.59    2.70
   1  -8 -10   12.80    1.20
   1  -8 -10   13.30    1.80
  -1   8  10    8.50    1.60
  -1   8  10    8.50    1.10
   0  -8 -10   16.00    1.80
   0  -8 -10   11.70    1.40
   0   8  10   11.60    1.20
  -1  -8 -10   22.10    1.70
  -1  -8 -10   19.40    2.10
   1   8  10   23.00    1.50
  -2  -8 -10   -0.80    0.80
  -2  -8 -10    1.40    0.70
   2   8  10   -1.00    0.60
   3   8  10   30.40    1.80
   5  -9 -10    1.60    0.80
  -5   9  10    1.40    1.00
  -5   9  10    1.50    0.80
   4  -9 -10    0.00    0.80
  -4   9  10   -1.20    0.90
  -4   9  10    1.40    0.80
   3  -9 -10    7.10    0.90
  -3   9  10    4.40    1.10
  -3   9  10    4.80    0.90
   2  -9 -10   39.00    1.90
  -2   9  10   29.40    2.20
  -2   9  10   33.60    1.60
  -2   9  10   40.70    1.70
   1  -9 -10   17.30    1.80
   1  -9 -10   18.70    1.40
  -1   9  10   17.70    1.30
  -1   9  10   14.60    1.90
   0  -9 -10    4.90    0.90
   0  -9 -10    5.70    1.10
   0   9  10    4.40    0.80
  -1  -9 -10    1.00    0.90
  -1  -9 -10    0.90    1.10
   1   9  10    2.30    0.80
   2  10 -11   13.30    1.70
  -2 -10  11   13.20    1.70
  -2 -10  11   16.20    1.40
   1  10 -11    1.90    0.90
  -1 -10  11    1.00    0.70
  -1 -10  11    0.40    0.80
   0  10 -11   52.19    2.80
   0 -10  11   47.10    2.40
   0 -10  11   50.39    2.00
  -1  10 -11    2.60    1.10
   1 -10  11    3.30    0.70
   4   9 -11    3.20    1.10
  -4  -9  11    3.10    0.80
  -4  -9  11    3.80    0.90
   3   9 -11    8.90    1.30
  -3  -9  11    6.70    0.90
  -3  -9  11    8.30    1.10
   2   9 -11   -0.10    1.00
  -2  -9  11    0.80    0.60
  -2  -9  11    0.50    0.80
   1   9 -11    9.60    1.10
  -1  -9  11    9.90    1.40
  -1  -9  11    9.00    1.10
   0   9 -11    5.00    1.00
   0  -9  11    3.90    1.00
   0  -9  11    4.70    0.70
  -1   9 -11    0.20    0.80
  -1   9 -11   -0.70    1.00
   1  -9  11    0.10    0.80
   1  -9  11    0.20    0.60
  -2   9 -11   -0.80    1.10
  -2   9 -11   -0.10    0.80
   2  -9  11    0.90    0.60
  -3   9 -11    0.60    1.10
  -3   9 -11    2.10    0.90
   3  -9  11    2.80    0.60
   3  -9  11    2.00    0.70
   6   8 -11   14.00    1.80
  -6  -8  11   14.30    2.10
  -6  -8  11   19.40    1.60
   5   8 -11   24.90    1.80
  -5  -8  11   23.90    1.50
  -5  -8  11   24.30    1.60
   4   8 -11   38.70    2.00
  -4  -8  11   35.20    1.70
  -4  -8  11   36.20    1.80
   3   8 -11    6.30    1.80
  -3  -8  11    7.50    1.00
  -3  -8  11    8.10    1.00
   2   8 -11   24.90    1.60
  -2  -8  11   23.00    1.30
  -2  -8  11   22.50    1.60
   1   8 -11   20.30    1.70
  -1  -8  11   20.90    1.30
  -1  -8  11   19.00    1.50
   0   8 -11    0.10    1.00
   0   8 -11    0.60    0.70
   0  -8  11    0.60    0.70
   0  -8  11    0.70    0.50
  -1   8 -11   -0.20    0.70
   1  -8  11    0.50    1.20
  -2   8 -11    6.30    1.00
  -2   8 -11    7.70    1.20
   2  -8  11    8.50    1.00
   2  -8  11    6.00    0.80
  -3   8 -11    4.00    1.00
  -3   8 -11    1.00    0.70
   3  -8  11    1.70    0.60
   3  -8  11    3.40    0.60
  -4   8 -11    4.20    1.10
  -4   8 -11    5.10    0.90
   4  -8  11    8.40    1.00
   4  -8  11    5.90    0.80
   6   7 -11    6.70    1.10
  -6  -7  11    8.20    1.10
  -6  -7  11    9.70    1.30
   5   7 -11    4.70    0.90
  -5  -7  11    5.30    0.80
  -5  -7  11    6.60    0.90
   4   7 -11   33.50    1.80
  -4  -7  11   35.90    1.70
  -4  -7  11   34.70    1.70
   3   7 -11   31.80    1.70
  -3  -7  11   30.60    1.50
  -3  -7  11   31.90    1.70
   2   7 -11    9.90    1.30
  -2  -7  11    8.50    1.00
  -2  -7  11    7.30    1.00
   1   7 -11   14.40    1.30
  -1  -7  11   11.40    1.00
  -1  -7  11    9.70    1.30
   0   7 -11    0.10    0.60
   0   7 -11   -1.10    0.80
   0  -7  11    1.00    0.70
   0  -7  11    0.30    0.50
  -1   7 -11    9.70    1.20
  -1   7 -11    9.60    1.20
   1  -7  11    9.80    1.50
   1  -7  11    7.90    0.90
   1  -7  11   11.20    0.80
  -2   7 -11    3.40    1.00
  -2   7 -11    2.10    0.70
   2  -7  11    1.50    0.60
   2  -7  11    2.50    0.60
  -3   7 -11    1.40    0.90
  -3   7 -11    1.20    0.70
   3  -7  11    0.30    0.50
   3  -7  11    0.20    0.50
  -4   7 -11   18.60    1.50
  -4   7 -11   18.10    1.80
   4  -7  11   18.80    1.20
   4  -7  11   17.10    1.30
  -5   7 -11   17.00    1.50
  -5   7 -11   18.20    1.80
   5  -7  11   17.60    1.40
   5  -7  11   16.40    1.20
   7   6 -11    5.80    1.00
  -7  -6  11    6.00    0.80
  -7  -6  11    5.90    1.10
   6   6 -11   31.70    1.80
  -6  -6  11   30.10    1.50
  -6  -6  11   26.70    1.70
   5   6 -11   -0.30    0.70
  -5  -6  11   -0.30    0.50
  -5  -6  11    0.50    0.60
   4   6 -11   19.30    1.40
  -4  -6  11   20.60    1.40
  -4  -6  11   21.10    1.30
   3   6 -11    2.60    0.70
  -3  -6  11    2.50    0.60
  -3  -6  11    3.20    0.70
   2   6 -11   37.90    1.80
  -2  -6  11   37.60    1.60
  -2  -6  11   36.80    1.80
   1   6 -11   13.40    1.20
   1   6 -11   15.40    1.60
  -1  -6  11   13.20    1.00
  -1  -6  11    9.10    1.30
   0   6 -11    7.70    1.10
   0   6 -11    8.40    1.10
   0  -6  11    8.30    1.20
   0  -6  11    8.90    0.90
   0  -6  11    7.70    0.70
  -1   6 -11    0.20    0.60
  -1   6 -11    0.10    0.90
   1  -6  11    1.00    0.40
   1  -6  11   -0.10    0.60
   1  -6  11    0.60    0.50
  -2   6 -11    9.60    1.10
  -2   6 -11   10.70    1.50
   2  -6  11   10.40    0.90
   2  -6  11   11.10    1.00
   2  -6  11   10.20    1.40
  -3   6 -11    4.10    0.90
  -3   6 -11    5.30    0.80
   3  -6  11    4.50    0.70
   3  -6  11    4.00    0.70
  -4   6 -11   -0.50    0.60
  -4   6 -11    0.40    0.70
  -4   6 -11    0.90    0.80
   4  -6  11   -0.10    0.50
  -5   6 -11    1.90    0.70
  -5   6 -11    1.20    0.80
  -5   6 -11    1.00    0.80
   5  -6  11    2.20    0.60
   8   5 -11    3.70    1.10
  -8  -5  11    2.60    0.80
  -8  -5  11    2.30    0.60
   7   5 -11   12.00    1.50
  -7  -5  11   11.30    1.20
  -7  -5  11   10.40    1.30
   6   5 -11   27.90    1.60
  -6  -5  11   24.90    1.50
  -6  -5  11   22.20    1.30
   5   5 -11    9.00    1.20
  -5  -5  11    9.40    1.10
  -5  -5  11    7.90    1.00
   4   5 -11    0.90    0.70
  -4  -5  11    1.00    0.60
  -4  -5  11    0.40    0.50
   3   5 -11   20.60    1.40
  -3  -5  11   22.40    1.30
  -3  -5  11   21.90    1.20
   2   5 -11   17.10    1.30
  -2  -5  11   16.50    1.50
  -2  -5  11   18.10    1.10
   1   5 -11  112.29    3.40
   1   5 -11  107.89    3.20
  -1  -5  11  107.49    3.30
  -1  -5  11  104.99    3.10
   0   5 -11  105.29    3.20
   0   5 -11  109.39    3.40
   0  -5  11  106.69    2.70
   0  -5  11  107.69    3.10
  -1   5 -11    7.50    1.00
  -1   5 -11    7.60    1.30
   1  -5  11    5.40    0.70
   1  -5  11    8.20    1.10
  -2   5 -11   11.80    1.10
  -2   5 -11   11.00    1.70
  -2   5 -11   13.80    1.00
   2  -5  11   12.40    1.00
   2  -5  11   10.90    1.20
  -3   5 -11    0.60    0.80
  -3   5 -11    0.40    0.60
  -3   5 -11    1.60    0.60
   3  -5  11    0.40    0.50
  -4   5 -11   11.50    1.20
  -4   5 -11    9.60    1.40
  -4   5 -11   12.70    1.20
   4  -5  11   11.40    1.00
  -5   5 -11   12.10    1.40
  -5   5 -11    8.00    1.10
  -5   5 -11   10.80    1.20
   5  -5  11   13.20    1.10
  -6   5 -11    0.50    0.80
  -6   5 -11    1.20    0.70
  -6   5 -11    1.90    0.90
   6  -5  11    2.50    0.70
   8   4 -11    0.20    0.90
  -8  -4  11    0.70    0.50
  -8  -4  11    1.20    0.80
   7   4 -11    4.60    0.90
  -7  -4  11    3.90    0.70
  -7  -4  11    3.30    0.80
   6   4 -11   28.30    1.60
  -6  -4  11   26.30    1.50
  -6  -4  11   29.40    1.40
   5   4 -11   13.50    1.30
  -5  -4  11   13.60    1.10
  -5  -4  11   12.40    1.10
   4   4 -11    0.00    0.50
  -4  -4  11    0.10    0.40
  -4  -4  11    0.20    0.50
   3   4 -11   21.70    1.30
  -3  -4  11   22.30    1.20
  -3  -4  11   20.60    1.20
   2   4 -11    3.30    0.70
   2   4 -11    3.10    0.70
  -2  -4  11    2.90    0.60
  -2  -4  11    4.00    0.60
   1   4 -11   40.60    1.80
   1   4 -11   39.90    1.70
  -1  -4  11   42.40    1.20
  -1  -4  11   41.30    1.60
  -1  -4  11   44.40    1.80
   0   4 -11  215.58    6.60
   0   4 -11  234.58    5.50
   0  -4  11  234.38    5.90
   0  -4  11  232.68    6.00
  -1   4 -11    1.80    0.50
  -1   4 -11    2.80    1.30
   1  -4  11    1.40    0.60
   1  -4  11    2.80    0.50
  -2   4 -11  131.29    3.50
  -2   4 -11  133.99    3.90
   2  -4  11  130.19    3.70
   2  -4  11  132.69    3.90
  -3   4 -11   34.40    1.70
  -3   4 -11   32.80    1.50
   3  -4  11   33.30    1.40
  -4   4 -11   59.59    2.40
  -4   4 -11   59.69    2.10
  -4   4 -11   56.59    2.00
   4  -4  11   56.89    2.10
  -5   4 -11   64.09    2.50
  -5   4 -11   61.09    2.30
  -5   4 -11   59.99    2.10
   5  -4  11   60.19    2.20
  -6   4 -11   90.99    3.10
  -6   4 -11   97.19    3.70
   6  -4  11   87.29    2.90
   8   3 -11    4.20    0.90
  -8  -3  11    5.10    0.90
  -8  -3  11    4.60    0.60
   7   3 -11   17.80    1.50
  -7  -3  11   17.70    1.40
  -7  -3  11   15.90    1.30
   6   3 -11   -0.60    0.60
  -6  -3  11    0.20    0.50
  -6  -3  11    0.30    0.50
   5   3 -11    5.00    0.70
  -5  -3  11    6.50    0.80
  -5  -3  11    6.40    0.90
   4   3 -11    3.10    0.70
  -4  -3  11    2.30    0.50
  -4  -3  11    2.50    0.60
   3   3 -11   18.40    1.20
  -3  -3  11   19.10    1.10
  -3  -3  11   19.20    1.40
   2   3 -11   27.90    1.60
   2   3 -11   30.60    1.60
  -2  -3  11   29.70    1.40
  -2  -3  11   31.90    1.40
   1   3 -11    9.60    1.00
   1   3 -11   10.00    0.60
   1   3 -11   13.10    1.50
  -1  -3  11   10.40    1.00
  -1  -3  11    9.30    0.90
   0   3 -11   35.20    1.70
   0   3 -11   38.40    1.50
   0   3 -11   35.70    1.20
   0  -3  11   35.90    1.50
   0  -3  11   34.80    1.60
  -1   3 -11  159.08    4.40
  -1   3 -11  149.69    4.10
  -1   3 -11  154.78    3.90
   1  -3  11  154.68    4.20
   1  -3  11  157.58    4.30
  -2   3 -11  174.58    4.50
  -2   3 -11  170.68    4.80
  -2   3 -11  177.28    4.50
   2  -3  11  175.68    4.60
   2  -3  11  171.28    4.80
  -3   3 -11   74.79    2.30
  -3   3 -11   73.49    2.30
  -3   3 -11   72.29    2.60
   3  -3  11   73.69    2.40
  -4   3 -11   64.39    2.20
  -4   3 -11   65.49    2.10
  -4   3 -11   60.59    2.40
   4  -3  11   63.99    2.20
  -5   3 -11   10.00    1.20
  -5   3 -11   11.40    1.20
   5  -3  11    9.90    1.10
  -6   3 -11   16.50    1.60
  -6   3 -11   17.10    1.60
   6  -3  11   17.20    1.30
   9   2 -11    5.90    1.10
  -9  -2  11    6.40    1.00
   8   2 -11    1.20    1.20
  -8  -2  11    2.60    0.70
  -8  -2  11    2.80    0.50
   7   2 -11   -0.40    0.70
  -7  -2  11    0.40    0.50
  -7  -2  11    0.70    0.60
   6   2 -11    1.20    0.60
  -6  -2  11    1.10    0.50
  -6  -2  11    0.10    0.50
   5   2 -11    1.20    0.60
  -5  -2  11    1.30    0.50
  -5  -2  11    2.00    0.50
   4   2 -11    8.00    1.00
  -4  -2  11    7.20    0.80
  -4  -2  11    7.10    0.90
   3   2 -11   16.20    1.10
  -3  -2  11   17.70    1.40
  -3  -2  11   16.30    1.10
   2   2 -11    0.30    0.60
   2   2 -11    1.50    0.60
  -2  -2  11    0.90    0.50
  -2  -2  11    0.50    0.40
   1   2 -11    2.30    0.70
   1   2 -11    1.10    0.30
   1   2 -11    0.90    0.50
  -1  -2  11    1.70    0.70
  -1  -2  11    1.30    0.40
   0   2 -11    0.00    0.60
   0   2 -11    0.50    0.40
   0   2 -11   -0.20    0.50
   0  -2  11   -0.30    0.40
   0  -2  11    0.20    0.50
  -1   2 -11    1.50    0.60
  -1   2 -11    2.50    0.50
  -1   2 -11    2.60    0.50
   1  -2  11    4.20    1.00
   1  -2  11    2.40    0.60
  -2   2 -11   88.49    2.80
  -2   2 -11   86.59    2.50
  -2   2 -11   83.99    2.40
   2  -2  11   82.69    2.60
   2  -2  11   85.89    2.80
  -3   2 -11    4.80    0.60
  -3   2 -11    3.90    0.80
  -3   2 -11    5.00    0.60
   3  -2  11    4.20    0.70
  -4   2 -11    3.80    0.80
  -4   2 -11    4.50    0.60
  -4   2 -11    3.60    0.70
   4  -2  11    3.70    0.70
  -5   2 -11    3.10    0.80
  -5   2 -11    4.00    0.80
   5  -2  11    3.50    0.70
  -6   2 -11    0.30    0.80
  -6   2 -11    0.20    0.70
   6  -2  11   -1.00    0.70
   9   1 -11    4.30    1.10
  -9  -1  11    3.80    0.90
   8   1 -11    6.20    1.00
  -8  -1  11    5.90    0.80
  -8  -1  11    5.70    0.70
   7   1 -11   26.30    1.60
  -7  -1  11   28.80    1.40
  -7  -1  11   26.10    1.30
   6   1 -11    5.40    0.80
  -6  -1  11    6.20    0.70
  -6  -1  11    6.50    0.90
   5   1 -11    9.70    1.10
  -5  -1  11   10.30    1.00
  -5  -1  11   10.00    0.90
   4   1 -11   19.80    1.20
  -4  -1  11   22.00    1.20
  -4  -1  11   22.00    1.10
   3   1 -11   20.60    1.80
  -3  -1  11   21.70    1.20
  -3  -1  11   21.80    1.10
   2   1 -11    0.70    0.30
   2   1 -11    0.00    0.50
   2   1 -11   -0.30    0.70
  -2  -1  11    0.00    0.40
  -2  -1  11    0.30    0.50
   1   1 -11   21.60    0.90
   1   1 -11   21.70    1.40
   1   1 -11   22.70    1.10
  -1  -1  11   23.30    1.20
  -1  -1  11   21.00    1.10
   0   1 -11   12.50    0.80
   0   1 -11   12.40    1.20
   0   1 -11   12.50    0.90
   0  -1  11   10.60    0.90
   0  -1  11   13.50    1.10
  -1   1 -11   21.00    1.00
  -1   1 -11   23.40    1.40
  -1   1 -11   20.40    1.00
   1  -1  11   19.50    1.10
  -2   1 -11    3.90    0.70
  -2   1 -11    4.80    0.60
  -2   1 -11    4.40    0.50
   2  -1  11    4.30    0.80
   2  -1  11    4.50    0.60
  -3   1 -11    1.40    0.50
  -3   1 -11    2.10    0.50
  -3   1 -11    1.60    0.60
   3  -1  11    2.10    0.60
  -4   1 -11    3.50    0.70
  -4   1 -11    3.20    0.70
   4  -1  11    3.60    0.70
  -5   1 -11   -1.30    0.60
  -5   1 -11    0.80    0.60
   5  -1  11    0.20    0.50
  -6   1 -11   -1.80    1.10
  -6   1 -11    1.70    0.80
   6  -1  11   -0.70    0.60
   9   0 -11    2.10    0.90
  -9   0  11   -0.70    0.70
   8   0 -11   41.20    2.10
  -8   0  11   35.60    1.70
  -8   0  11   37.10    1.40
   7   0 -11    4.90    0.80
  -7   0  11    4.90    0.70
  -7   0  11    5.90    0.90
   6   0 -11    5.00    0.70
  -6   0  11    4.00    0.60
  -6   0  11    4.30    0.60
   5   0 -11   -0.40    0.50
  -5   0  11    0.40    0.50
  -5   0  11   -0.40    0.40
   4   0 -11  148.19    4.10
   4   0 -11  150.88    3.60
  -4   0  11  147.69    4.10
  -4   0  11  154.68    4.10
   3   0 -11    2.30    0.60
   3   0 -11    2.50    0.70
   3   0 -11    1.40    0.30
  -3   0  11    1.80    0.50
  -3   0  11    2.40    0.60
   2   0 -11    0.90    0.50
   2   0 -11    0.80    0.60
   2   0 -11    1.30    0.30
  -2   0  11    0.50    0.60
  -2   0  11    0.90    0.50
   1   0 -11    7.10    0.90
   1   0 -11    5.20    0.70
   1   0 -11    6.80    0.80
  -1   0  11   10.00    1.30
  -1   0  11    7.40    0.80
   0   0 -11   45.00    1.50
   0   0 -11   43.60    1.50
   0   0 -11   43.80    1.80
   0   0  11   43.10    1.60
  -1   0 -11   19.30    0.90
  -1   0 -11   18.90    1.00
  -1   0 -11   17.20    1.20
   1   0  11   16.60    1.30
   1   0  11   18.00    1.10
  -2   0 -11   22.20    1.00
  -2   0 -11   20.30    1.30
   2   0  11   21.70    1.40
   2   0  11   20.70    1.20
  -3   0 -11   48.40    2.00
  -3   0 -11   50.19    1.80
   3   0  11   48.10    1.90
  -4   0 -11    1.60    0.60
  -4   0 -11    1.40    0.70
   4   0  11    0.30    0.50
  -5   0 -11    1.70    0.70
  -5   0 -11    2.40    0.70
   5   0  11    2.30    0.70
  -6   0 -11    1.30    0.80
  -6   0 -11    1.10    1.00
   6   0  11    1.80    0.70
   9  -1 -11    8.70    1.10
  -9   1  11    7.80    0.80
  -9   1  11    8.50    0.80
  -9   1  11    9.20    1.20
   8  -1 -11    0.90    0.80
  -8   1  11    2.80    0.60
  -8   1  11    2.50    0.50
   7  -1 -11    8.70    1.20
  -7   1  11    8.80    1.10
  -7   1  11    7.60    1.00
   6  -1 -11    0.30    0.60
   6  -1 -11    0.20    0.40
  -6   1  11    0.70    0.50
  -6   1  11    0.10    0.50
   5  -1 -11   52.99    2.00
   5  -1 -11   50.49    1.50
  -5   1  11   52.59    1.90
  -5   1  11   48.30    1.80
   4  -1 -11   21.10    1.20
   4  -1 -11   22.50    0.90
  -4   1  11   22.30    1.30
  -4   1  11   22.00    1.20
   3  -1 -11   46.60    1.90
   3  -1 -11   45.60    1.60
   3  -1 -11   46.10    1.40
  -3   1  11   45.30    1.80
  -3   1  11   43.40    2.20
   2  -1 -11  260.17    6.20
   2  -1 -11  255.97    6.60
   2  -1 -11  263.77    6.40
  -2   1  11  264.37    6.60
  -2   1  11  244.58    6.70
   1  -1 -11   -0.20    0.50
   1  -1 -11    0.20    0.40
   1  -1 -11   -0.10    0.40
  -1   1  11   -0.60    0.40
  -1   1  11    0.80    0.60
   0  -1 -11   17.80    0.90
   0  -1 -11   17.80    0.90
   0  -1 -11   18.20    1.30
   0   1  11   17.20    1.10
   0   1  11   17.90    1.30
  -1  -1 -11   13.90    1.50
  -1  -1 -11   11.00    1.00
  -1  -1 -11   11.20    0.80
   1   1  11   14.90    1.20
   1   1  11   12.00    1.00
  -2  -1 -11    0.80    0.60
  -2  -1 -11    0.20    0.40
  -2  -1 -11    0.00    0.40
   2   1  11    0.10    0.60
   2   1  11    0.20    0.50
  -3  -1 -11   26.10    1.50
  -3  -1 -11   26.80    1.40
   3   1  11   26.70    1.40
  -4  -1 -11   11.10    1.20
  -4  -1 -11    9.80    1.00
   4   1  11   11.30    1.10
  -5  -1 -11    0.00    0.70
  -5  -1 -11   -0.80    0.80
   5   1  11    0.40    0.70
  -6  -1 -11    0.70    0.70
  -6  -1 -11   -0.20    0.80
   6   1  11   -0.90    0.70
  -9   2  11   -0.50    0.70
  -9   2  11   -0.90    1.00
  -9   2  11   -0.30    0.50
  -8   2  11   -0.40    0.80
  -8   2  11    0.70    0.60
  -8   2  11   -0.20    0.50
   7  -2 -11    1.90    0.50
  -7   2  11    1.80    0.60
  -7   2  11    1.60    0.70
  -7   2  11    2.10    0.50
   6  -2 -11   34.20    1.30
  -6   2  11   35.90    1.70
  -6   2  11   37.00    1.50
  -6   2  11   36.70    1.60
   5  -2 -11    2.30    0.50
  -5   2  11    3.20    0.70
  -5   2  11    2.40    0.60
  -5   2  11    3.40    0.60
   4  -2 -11   20.40    0.90
  -4   2  11   20.20    1.30
  -4   2  11   21.30    1.30
  -4   2  11   20.80    1.20
   3  -2 -11   14.20    1.60
   3  -2 -11   14.30    0.90
   3  -2 -11   13.10    1.00
  -3   2  11   13.50    1.20
   2  -2 -11    2.80    0.50
   2  -2 -11    3.40    0.80
   2  -2 -11    2.50    0.50
  -2   2  11    3.00    0.60
  -2   2  11    3.20    0.60
   1  -2 -11    0.70    0.40
   1  -2 -11    0.50    0.60
   1  -2 -11    0.30    0.40
  -1   2  11    0.70    0.80
  -1   2  11    0.50    0.50
   0  -2 -11   33.60    1.20
   0  -2 -11   32.40    1.60
   0  -2 -11   33.40    1.30
   0   2  11   32.80    1.50
  -1  -2 -11   12.50    0.70
  -1  -2 -11   11.50    1.20
   1   2  11   12.70    1.30
   1   2  11   13.80    1.00
  -2  -2 -11   11.70    1.40
  -2  -2 -11   11.70    1.00
   2   2  11   11.90    1.10
  -3  -2 -11    2.00    0.70
  -3  -2 -11    3.00    0.60
   3   2  11    2.30    0.60
  -4  -2 -11    7.30    0.80
  -4  -2 -11    6.10    0.80
   4   2  11    6.40    0.80
  -5  -2 -11    0.20    0.70
  -5  -2 -11    0.40    0.70
   5   2  11    0.50    0.70
  -6  -2 -11    0.70    0.80
  -6  -2 -11   -0.20    0.70
   6   2  11    1.70    0.70
  -9   3  11   30.10    1.40
   8  -3 -11   10.60    1.20
  -8   3  11   13.80    1.10
  -8   3  11   11.70    1.00
  -8   3  11   10.10    1.20
   7  -3 -11    1.40    0.70
  -7   3  11    3.40    0.80
  -7   3  11    2.70    0.70
  -7   3  11    3.00    0.60
   6  -3 -11    2.70    0.60
  -6   3  11    3.10    0.70
  -6   3  11    2.50    0.70
  -6   3  11    3.50    0.60
   5  -3 -11   65.29    2.00
  -5   3  11   63.39    2.10
  -5   3  11   65.49    2.30
  -5   3  11   65.79    2.30
   4  -3 -11    1.50    0.50
  -4   3  11    1.10    0.60
  -4   3  11    1.30    0.50
   3  -3 -11   34.50    1.30
  -3   3  11   30.80    1.50
  -3   3  11   35.70    1.50
   2  -3 -11    1.90    0.50
   2  -3 -11    0.90    0.70
   2  -3 -11    1.70    0.50
  -2   3  11    1.20    0.60
  -2   3  11    2.30    0.50
   1  -3 -11    0.70    0.50
   1  -3 -11    0.70    0.80
   1  -3 -11    0.60    0.40
  -1   3  11    0.30    0.60
  -1   3  11    1.00    0.50
   0  -3 -11   26.30    1.60
   0  -3 -11   27.60    1.10
   0   3  11   26.60    1.30
   0   3  11   26.10    1.50
  -1  -3 -11  164.48    4.60
  -1  -3 -11  128.79    3.90
   1   3  11  167.08    4.60
   1   3  11  124.59    4.00
  -2  -3 -11  213.58    5.80
  -2  -3 -11  218.08    5.60
   2   3  11  220.68    5.70
  -3  -3 -11   -0.60    0.60
  -3  -3 -11   -0.10    0.60
   3   3  11   -0.30    0.50
  -4  -3 -11   12.60    1.30
  -4  -3 -11   12.50    1.30
   4   3  11   13.90    1.30
  -5  -3 -11    1.90    0.80
  -5  -3 -11    1.80    1.00
   5   3  11    1.80    0.70
   8  -4 -11   56.49    2.00
  -8   4  11   56.39    2.60
  -8   4  11   57.09    2.10
   7  -4 -11    3.70    0.70
  -7   4  11    5.00    0.90
  -7   4  11    4.80    0.80
  -7   4  11    5.30    0.60
   6  -4 -11   30.70    1.40
  -6   4  11   32.10    1.70
  -6   4  11   31.70    1.40
  -6   4  11   33.20    1.60
  -5   4  11    2.50    0.70
  -5   4  11    0.50    0.60
   4  -4 -11   47.90    1.90
  -4   4  11   50.69    1.90
  -4   4  11   52.89    2.00
  -4   4  11   45.90    2.00
   3  -4 -11    6.00    1.00
  -3   4  11    8.20    0.80
  -3   4  11    5.70    0.80
  -3   4  11    6.20    1.10
   2  -4 -11   29.10    1.70
  -2   4  11   31.10    1.60
  -2   4  11   31.40    1.40
  -2   4  11   30.90    1.40
   1  -4 -11    7.50    0.70
   1  -4 -11    9.90    1.30
   1  -4 -11    6.80    0.70
  -1   4  11    9.40    1.20
  -1   4  11    6.60    0.70
   0  -4 -11   22.20    1.00
   0  -4 -11   23.00    1.20
   0   4  11   24.70    1.50
   0   4  11   22.00    1.30
  -1  -4 -11    8.50    1.00
  -1  -4 -11    6.40    1.30
   1   4  11    8.40    1.20
   1   4  11    6.60    0.80
  -2  -4 -11   81.59    2.60
  -2  -4 -11   80.09    2.80
   2   4  11   78.89    2.70
  -3  -4 -11    1.10    0.60
  -3  -4 -11    0.80    0.70
   3   4  11    1.90    0.70
  -4  -4 -11  335.27    8.70
  -4  -4 -11  336.87    8.60
   4   4  11  337.97    8.60
  -5  -4 -11    0.90    0.80
  -5  -4 -11    0.80    0.80
   5   4  11   -0.20    0.80
   8  -5 -11    3.50    0.80
  -8   5  11    4.40    1.00
  -8   5  11    3.50    0.80
   7  -5 -11    0.30    0.60
  -7   5  11    1.40    0.80
  -7   5  11    3.00    1.10
   6  -5 -11    5.80    0.70
  -6   5  11    5.40    0.80
  -6   5  11    5.40    0.90
   5  -5 -11   18.40    1.20
  -5   5  11   17.90    1.40
  -5   5  11   20.10    1.30
   4  -5 -11    0.80    0.50
  -4   5  11    2.10    0.60
  -4   5  11    1.00    0.60
  -4   5  11    1.60    0.70
   3  -5 -11    7.00    0.90
  -3   5  11    4.60    0.70
  -3   5  11    4.60    0.60
  -3   5  11    3.70    0.80
   2  -5 -11    1.30    0.50
   2  -5 -11    2.50    0.80
  -2   5  11    0.20    1.00
  -2   5  11    1.20    0.50
  -2   5  11    1.50    0.60
   1  -5 -11   28.00    1.10
   1  -5 -11   25.20    1.60
   1  -5 -11   25.00    1.30
  -1   5  11   26.30    1.70
  -1   5  11   27.20    1.30
   0  -5 -11   27.30    1.40
   0   5  11   29.30    1.80
   0   5  11   27.10    1.40
  -1  -5 -11    1.70    0.60
  -1  -5 -11    0.60    0.70
   1   5  11    1.70    0.60
  -2  -5 -11   30.70    1.80
  -2  -5 -11   31.60    1.60
   2   5  11   31.20    1.60
  -3  -5 -11    0.30    0.80
  -3  -5 -11   -0.20    0.60
   3   5  11    0.30    0.70
  -4  -5 -11    2.10    0.90
  -4  -5 -11    2.90    0.80
   7  -6 -11   -0.70    0.70
  -7   6  11   -0.20    0.70
  -7   6  11   -0.40    0.80
   6  -6 -11   -0.90    0.60
  -6   6  11   -0.30    0.70
  -6   6  11   -0.60    0.70
   5  -6 -11   -1.10    0.60
  -5   6  11   -0.30    0.70
  -5   6  11    1.10    0.70
   4  -6 -11    1.30    0.60
  -4   6  11    1.30    0.50
  -4   6  11    2.20    0.80
  -4   6  11    1.50    0.60
   3  -6 -11    9.20    1.10
  -3   6  11    6.20    0.90
  -3   6  11    5.20    0.70
  -3   6  11    7.30    1.00
   2  -6 -11   -0.10    1.20
   2  -6 -11    0.70    0.50
  -2   6  11    0.20    0.80
  -2   6  11    0.40    0.50
  -2   6  11    0.60    0.60
   1  -6 -11    0.80    0.70
   1  -6 -11   -0.10    0.50
  -1   6  11    1.70    0.50
  -1   6  11    0.30    0.50
  -1   6  11    0.00    0.80
   0  -6 -11    6.90    0.80
   0   6  11    7.50    1.10
   0   6  11    6.00    0.80
  -1  -6 -11    0.50    0.60
  -1  -6 -11    1.40    0.80
   1   6  11    0.80    0.60
  -2  -6 -11   13.40    1.50
  -2  -6 -11   14.40    1.40
   2   6  11   15.20    1.40
  -3  -6 -11    2.00    0.90
  -3  -6 -11    3.80    0.80
   3   6  11    2.80    0.80
  -4  -6 -11    1.20    0.90
  -4  -6 -11    2.90    0.80
   4   6  11    0.60    0.80
   6  -7 -11    4.70    0.80
  -6   7  11    5.00    1.00
  -6   7  11    4.50    0.90
   5  -7 -11    9.50    1.00
  -5   7  11   11.10    1.40
  -5   7  11    9.00    1.10
   4  -7 -11    9.00    1.20
  -4   7  11    8.00    0.90
  -4   7  11   10.10    1.20
  -4   7  11    7.30    1.00
   3  -7 -11   49.90    2.00
  -3   7  11   47.90    2.20
  -3   7  11   45.40    1.80
  -3   7  11   47.90    1.90
   2  -7 -11   13.60    1.20
  -2   7  11   13.40    1.10
  -2   7  11   14.10    1.50
   1  -7 -11    1.70    0.60
   1  -7 -11    1.60    0.90
  -1   7  11    1.50    0.60
  -1   7  11    1.40    1.10
   0  -7 -11   25.70    1.80
   0  -7 -11   27.30    1.80
   0   7  11   24.00    1.50
  -1  -7 -11    0.00    0.80
  -1  -7 -11   -0.60    0.60
   1   7  11   -1.30    0.60
  -2  -7 -11    3.10    0.80
  -2  -7 -11    2.10    0.90
   2   7  11    4.40    0.80
  -3  -7 -11    5.10    1.10
  -3  -7 -11    6.10    1.10
   3   7  11    4.80    0.90
   5  -8 -11    4.60    0.90
  -5   8  11    6.70    1.20
  -5   8  11    5.20    0.90
   4  -8 -11   10.20    1.30
  -4   8  11   11.00    1.40
  -4   8  11   10.80    1.60
   3  -8 -11    9.00    1.00
  -3   8  11    9.20    1.10
  -3   8  11   10.10    1.20
  -3   8  11    9.00    1.30
   2  -8 -11   51.19    2.20
  -2   8  11   52.79    1.90
  -2   8  11   53.79    2.50
  -2   8  11   53.89    2.00
   1  -8 -11    1.70    0.70
   1  -8 -11    1.50    0.80
  -1   8  11    1.20    0.90
  -1   8  11    2.30    0.70
   0  -8 -11   54.79    2.50
   0  -8 -11   51.59    2.70
   0   8  11   53.59    2.20
  -1  -8 -11   11.70    1.60
  -1  -8 -11    7.80    1.30
   1   8  11    8.30    1.00
   3  -9 -11   10.80    1.40
  -3   9  11   10.90    1.40
  -3   9  11    9.30    1.30
   2  -9 -11   21.10    1.60
  -2   9  11   16.90    2.00
  -2   9  11   20.40    1.30
   1  -9 -11   -0.20    0.70
  -1   9  11    0.80    0.70
   3   9 -12    0.00    0.80
  -3  -9  12   -0.40    0.60
  -3  -9  12    0.10    0.80
   2   9 -12    9.60    1.20
  -2  -9  12   13.90    1.50
  -2  -9  12   10.80    1.20
   1   9 -12    6.70    1.10
  -1  -9  12    7.30    1.10
  -1  -9  12    6.60    0.80
   0   9 -12    1.90    0.90
   0  -9  12    2.50    0.70
   0  -9  12    0.60    0.70
  -1   9 -12    0.10    0.80
   1  -9  12   -1.00    0.60
  -2   9 -12   11.20    1.20
  -2   9 -12    7.20    1.30
   2  -9  12   13.40    1.20
   5   8 -12   14.10    2.00
  -5  -8  12   13.50    1.60
  -5  -8  12   12.80    1.50
   4   8 -12    3.70    0.90
  -4  -8  12    4.90    0.80
  -4  -8  12    4.10    0.80
   3   8 -12    9.00    1.20
  -3  -8  12   10.20    1.10
  -3  -8  12    8.80    1.10
   2   8 -12    1.70    0.80
  -2  -8  12    0.40    0.60
  -2  -8  12   -0.80    0.70
   1   8 -12   23.20    1.70
  -1  -8  12   23.80    1.80
  -1  -8  12   21.10    1.40
   0   8 -12    2.20    0.80
   0  -8  12    2.50    0.90
   0  -8  12    2.40    0.70
  -1   8 -12    8.40    1.10
  -1   8 -12    7.80    1.20
   1  -8  12   10.20    1.30
   1  -8  12    9.10    1.00
  -2   8 -12   11.00    1.50
  -2   8 -12    9.80    1.30
   2  -8  12   13.00    1.10
  -3   8 -12    3.80    1.10
  -3   8 -12    2.90    0.80
   3  -8  12    3.20    0.70
   3  -8  12    2.40    0.70
   6   7 -12    2.30    1.30
  -6  -7  12    2.40    0.80
  -6  -7  12    2.10    1.00
   5   7 -12   11.80    1.30
  -5  -7  12   13.10    1.30
  -5  -7  12   12.40    1.30
   4   7 -12   21.50    1.80
  -4  -7  12   24.10    1.50
  -4  -7  12   20.50    1.50
   3   7 -12    4.10    0.90
  -3  -7  12    2.40    0.60
  -3  -7  12    1.80    0.80
   2   7 -12   44.30    2.10
  -2  -7  12   41.00    1.80
  -2  -7  12   44.90    2.10
   1   7 -12    0.80    0.70
  -1  -7  12    0.30    0.70
  -1  -7  12   -0.20    0.50
   0   7 -12    7.30    1.00
   0   7 -12    7.90    1.10
   0  -7  12    7.10    0.80
   0  -7  12    8.50    1.10
  -1   7 -12    5.80    1.50
  -1   7 -12    5.20    0.80
   1  -7  12    4.80    0.70
   1  -7  12    3.70    0.90
  -2   7 -12   11.30    1.30
  -2   7 -12   11.60    1.70
   2  -7  12   12.30    1.20
   2  -7  12   10.20    1.10
  -3   7 -12    4.30    1.00
  -3   7 -12    4.60    0.80
   3  -7  12    4.10    0.70
   3  -7  12    3.70    0.70
  -4   7 -12    3.10    0.80
  -4   7 -12    1.90    1.10
   4  -7  12    2.00    0.70
   4  -7  12    3.50    0.70
   6   6 -12   27.20    1.90
  -6  -6  12   28.40    1.90
  -6  -6  12   29.90    2.10
   5   6 -12    9.10    1.10
  -5  -6  12    8.20    1.10
  -5  -6  12    8.90    1.20
   4   6 -12    1.40    0.70
  -4  -6  12    3.00    0.70
  -4  -6  12    1.60    0.70
   3   6 -12    0.00    0.70
  -3  -6  12    0.80    0.50
  -3  -6  12    1.70    0.70
   2   6 -12   55.99    2.20
  -2  -6  12   58.29    2.30
  -2  -6  12   56.49    2.10
   1   6 -12    1.90    0.70
  -1  -6  12    2.20    0.60
  -1  -6  12    1.30    0.70
   0   6 -12   99.89    3.50
   0   6 -12   98.59    3.10
   0  -6  12   96.69    3.00
   0  -6  12  102.09    3.30
  -1   6 -12   -0.10    0.60
  -1   6 -12    0.10    1.00
   1  -6  12    0.80    0.80
   1  -6  12    1.30    0.50
   1  -6  12    1.20    0.50
  -2   6 -12    1.70    0.70
  -2   6 -12    5.70    1.40
   2  -6  12    2.60    0.60
  -3   6 -12    1.90    1.00
  -3   6 -12    0.60    0.70
   3  -6  12   -0.20    0.60
   3  -6  12    1.00    0.50
  -4   6 -12   -1.70    0.70
  -4   6 -12   -1.00    1.00
  -4   6 -12   -0.30    0.70
   4  -6  12   -0.70    0.60
  -5   6 -12    2.20    1.00
   7   5 -12    6.80    1.10
  -7  -5  12    6.70    1.00
  -7  -5  12    6.60    0.90
   6   5 -12   -0.60    0.70
  -6  -5  12    0.80    0.60
  -6  -5  12    0.80    0.70
   5   5 -12    0.40    0.70
  -5  -5  12    0.30    0.60
  -5  -5  12   -0.20    0.50
   4   5 -12    1.70    0.70
  -4  -5  12    0.80    0.60
  -4  -5  12    1.50    0.70
   3   5 -12    6.90    0.90
  -3  -5  12    7.30    0.90
  -3  -5  12    8.50    1.10
   2   5 -12    2.20    0.70
  -2  -5  12    4.10    0.70
  -2  -5  12    3.40    0.80
   1   5 -12   23.80    1.40
   1   5 -12   21.80    1.80
  -1  -5  12   21.90    1.30
   0   5 -12   14.00    1.60
   0   5 -12   16.10    1.30
   0  -5  12   15.70    1.30
   0  -5  12   14.80    1.10
  -1   5 -12   10.30    1.10
  -1   5 -12   10.70    1.50
   1  -5  12    8.20    1.20
   1  -5  12    8.50    1.00
  -2   5 -12   37.60    1.70
  -2   5 -12   40.50    1.60
  -2   5 -12   36.90    2.00
   2  -5  12   37.60    1.60
  -3   5 -12    3.30    0.70
  -3   5 -12    4.00    0.70
  -3   5 -12    2.20    0.90
   3  -5  12    4.20    0.70
  -4   5 -12   14.10    1.70
  -4   5 -12   14.40    1.30
  -4   5 -12   11.70    1.30
   4  -5  12   14.10    1.20
  -5   5 -12   14.10    1.80
  -5   5 -12   16.50    1.50
  -5   5 -12   15.20    1.40
   5  -5  12   21.20    1.40
   8   4 -12   63.89    3.10
  -8  -4  12   65.89    2.60
  -8  -4  12   64.29    2.10
   7   4 -12    7.10    1.20
  -7  -4  12    8.00    1.00
  -7  -4  12    7.80    1.20
   6   4 -12    8.90    1.10
  -6  -4  12    9.30    1.00
  -6  -4  12    9.10    1.10
   5   4 -12    0.70    0.80
  -5  -4  12    0.00    0.50
  -5  -4  12    0.50    0.60
   4   4 -12   13.40    1.20
  -4  -4  12   13.00    1.10
  -4  -4  12   12.80    1.10
   3   4 -12   23.70    1.40
  -3  -4  12   24.40    1.30
  -3  -4  12   22.90    1.40
   2   4 -12    1.70    0.60
  -2  -4  12    2.00    0.60
  -2  -4  12    2.00    0.60
   1   4 -12    0.90    0.60
   1   4 -12    1.40    0.80
  -1  -4  12    2.00    0.70
  -1  -4  12    1.10    0.50
   0   4 -12    7.50    0.80
   0   4 -12    7.30    1.00
   0   4 -12   11.20    1.60
   0  -4  12    7.90    1.20
   0  -4  12    6.20    0.70
  -1   4 -12   -0.20    0.50
  -1   4 -12    0.20    0.50
  -1   4 -12   -0.50    0.70
   1  -4  12    0.70    0.50
   1  -4  12   -0.10    0.70
  -2   4 -12   59.39    2.00
  -2   4 -12   58.59    2.40
  -2   4 -12   60.29    2.00
   2  -4  12   56.99    2.10
  -3   4 -12    1.20    0.60
  -3   4 -12    1.80    0.70
  -3   4 -12    0.20    0.60
   3  -4  12    1.50    0.60
  -4   4 -12  160.18    4.30
  -4   4 -12  164.38    4.80
  -4   4 -12  158.98    4.40
   4  -4  12  157.28    4.40
  -5   4 -12    0.00    0.70
  -5   4 -12    1.60    0.90
   5  -4  12   -0.10    0.70
   8   3 -12    1.50    0.90
  -8  -3  12    1.00    0.50
  -8  -3  12    2.20    0.80
   7   3 -12    1.50    1.10
  -7  -3  12   -0.30    0.50
  -7  -3  12   -0.30    0.60
   6   3 -12    6.70    1.10
  -6  -3  12    4.00    0.70
  -6  -3  12    6.60    1.00
   5   3 -12    5.70    0.80
  -5  -3  12    6.00    0.80
  -5  -3  12    6.20    1.00
   4   3 -12   16.20    1.30
  -4  -3  12   12.60    1.10
  -4  -3  12   13.30    1.10
   3   3 -12   35.30    1.60
  -3  -3  12   37.40    1.60
  -3  -3  12   35.30    1.70
   2   3 -12   34.80    1.60
   2   3 -12   32.30    2.10
  -2  -3  12   35.60    1.50
   1   3 -12    9.90    1.30
   1   3 -12    7.50    0.60
   1   3 -12    7.60    1.00
  -1  -3  12    7.20    0.80
  -1  -3  12    7.00    1.10
   0   3 -12    0.20    0.90
   0   3 -12    0.20    0.40
   0  -3  12    1.30    0.50
   0  -3  12    1.00    0.60
  -1   3 -12    3.10    0.80
  -1   3 -12    2.90    0.60
  -1   3 -12    2.40    0.90
   1  -3  12    3.70    0.80
   1  -3  12    3.20    0.60
  -2   3 -12    4.80    0.70
  -2   3 -12    5.00    0.90
  -2   3 -12    5.20    0.70
   2  -3  12    7.30    0.90
   2  -3  12    7.40    1.20
  -3   3 -12   89.69    2.70
  -3   3 -12   94.39    3.10
  -3   3 -12   92.09    2.80
   3  -3  12   91.39    2.90
  -4   3 -12  136.09    3.70
  -4   3 -12  133.99    4.10
  -4   3 -12  133.99    3.80
   4  -3  12  134.79    3.90
  -5   3 -12   60.39    2.50
  -5   3 -12   60.79    2.40
   5  -3  12   59.99    2.30
   8   2 -12    2.20    0.90
  -8  -2  12    2.30    0.60
  -8  -2  12    2.40    0.80
   7   2 -12    0.60    0.70
  -7  -2  12    1.20    0.60
  -7  -2  12    0.80    0.60
   6   2 -12   -1.00    0.60
  -6  -2  12   -0.30    0.50
  -6  -2  12    0.40    0.50
   5   2 -12   13.00    1.30
  -5  -2  12   13.00    1.10
  -5  -2  12   11.70    1.10
   4   2 -12   39.30    1.70
  -4  -2  12   37.10    1.60
  -4  -2  12   38.00    1.70
   3   2 -12    5.40    0.70
  -3  -2  12    4.60    0.60
  -3  -2  12    4.80    0.70
   2   2 -12    1.50    0.50
   2   2 -12    1.90    0.70
  -2  -2  12    1.10    0.50
  -2  -2  12    1.70    0.60
   1   2 -12    6.00    0.70
   1   2 -12    5.10    0.80
  -1  -2  12    6.60    0.90
  -1  -2  12   10.90    1.50
   0   2 -12   11.30    1.30
   0   2 -12   11.80    1.00
   0   2 -12   11.80    0.80
   0  -2  12   12.70    1.00
   0  -2  12   13.80    1.20
  -1   2 -12    1.50    0.50
  -1   2 -12    0.40    0.70
  -1   2 -12    1.30    0.50
   1  -2  12    0.80    0.60
   1  -2  12    1.00    0.50
  -2   2 -12   -0.60    0.70
  -2   2 -12    0.60    0.50
   2  -2  12   -0.30    0.70
   2  -2  12    0.90    0.50
  -3   2 -12    1.30    0.80
  -3   2 -12    2.00    0.60
  -3   2 -12    0.20    0.60
   3  -2  12    2.50    0.70
  -4   2 -12    0.40    0.60
  -4   2 -12    0.50    0.70
   4  -2  12    2.40    0.60
  -5   2 -12    0.20    0.70
  -5   2 -12    1.00    0.80
   5  -2  12   -0.10    0.70
   8   1 -12    4.10    1.00
  -8  -1  12    3.70    0.80
  -8  -1  12    4.30    0.60
   7   1 -12    8.00    1.10
  -7  -1  12    8.80    1.00
  -7  -1  12    7.70    1.00
   6   1 -12    0.00    0.70
  -6  -1  12    0.60    0.50
  -6  -1  12    0.70    0.50
   5   1 -12   11.90    1.20
  -5  -1  12   13.00    1.10
  -5  -1  12   11.90    1.00
   4   1 -12    0.50    0.60
  -4  -1  12    1.00    0.50
  -4  -1  12    0.90    0.60
   3   1 -12   16.50    1.10
  -3  -1  12   15.70    1.20
  -3  -1  12   15.10    1.10
   2   1 -12  111.49    2.80
   2   1 -12  114.79    3.40
  -2  -1  12  110.09    3.20
  -2  -1  12  114.09    3.40
   1   1 -12   13.80    1.40
   1   1 -12   13.40    0.80
   1   1 -12   14.80    1.00
  -1  -1  12   13.30    1.20
  -1  -1  12   14.10    1.00
   0   1 -12    4.70    0.50
   0   1 -12    6.10    0.80
   0   1 -12    3.90    0.80
   0  -1  12    3.90    0.60
   0  -1  12    3.60    0.70
  -1   1 -12    0.90    0.50
  -1   1 -12    3.00    1.20
  -1   1 -12    0.80    0.50
   1  -1  12    0.40    0.70
   1  -1  12    0.60    0.50
  -2   1 -12   10.50    1.00
  -2   1 -12    8.70    1.30
  -2   1 -12    8.10    0.90
   2  -1  12    8.50    1.00
  -3   1 -12   -0.30    0.60
  -3   1 -12    0.10    0.70
  -3   1 -12    0.40    0.60
   3  -1  12   -0.20    0.50
  -4   1 -12   12.10    1.30
  -4   1 -12   14.10    1.40
   4  -1  12   14.80    1.20
   5  -1  12   -0.30    0.60
   8   0 -12    0.00    0.90
  -8   0  12    0.90    0.70
  -8   0  12    0.10    0.60
   7   0 -12    0.50    0.70
  -7   0  12    0.00    0.50
  -7   0  12   -0.60    0.60
   6   0 -12   12.50    1.20
  -6   0  12   12.20    1.00
  -6   0  12   13.70    1.10
   5   0 -12    0.50    0.60
  -5   0  12    0.50    0.50
  -5   0  12    0.20    0.50
   4   0 -12   13.40    1.20
  -4   0  12   15.70    1.10
  -4   0  12   13.90    1.10
   3   0 -12    6.90    0.90
   3   0 -12    6.50    0.60
  -3   0  12    6.30    0.80
  -3   0  12    6.80    0.90
   2   0 -12   13.10    0.80
   2   0 -12   16.00    1.30
   2   0 -12   15.40    1.10
  -2   0  12   13.70    1.20
  -2   0  12   14.50    1.00
   1   0 -12    8.90    0.80
   1   0 -12    6.70    0.90
   1   0 -12    8.40    1.20
  -1   0  12    7.30    1.10
  -1   0  12    8.20    0.90
   0   0 -12   56.59    2.20
   0   0 -12   55.39    1.80
   0   0 -12   55.79    1.80
   0   0  12   51.09    2.10
   0   0  12   55.89    2.00
  -1   0 -12   15.60    0.90
  -1   0 -12   16.40    1.10
  -1   0 -12   15.70    1.30
   1   0  12   15.30    1.10
   1   0  12   16.60    1.30
  -2   0 -12    0.60    0.50
  -2   0 -12    0.30    0.40
  -2   0 -12   -0.30    0.70
   2   0  12   -0.90    0.50
  -3   0 -12    0.60    0.70
  -3   0 -12    0.40    0.60
   3   0  12    1.30    0.60
  -4   0 -12    8.80    1.20
   4   0  12    8.20    1.10
  -5   0 -12   11.80    1.40
  -5   0 -12   12.50    1.40
   5   0  12   12.90    1.70
   8  -1 -12   -0.20    0.80
  -8   1  12    0.60    0.90
  -8   1  12   -0.20    0.60
   7  -1 -12    8.50    1.00
  -7   1  12    9.60    1.00
  -7   1  12    6.80    1.40
   6  -1 -12   11.90    1.30
  -6   1  12   11.30    1.00
  -6   1  12   10.90    1.10
   5  -1 -12   37.10    1.40
   5  -1 -12   36.70    1.60
  -5   1  12   35.40    1.60
  -5   1  12   35.30    1.50
   4  -1 -12   19.60    1.20
   4  -1 -12   20.60    0.90
  -4   1  12   18.60    1.30
  -4   1  12   19.60    1.20
   3  -1 -12   18.10    0.90
   3  -1 -12   17.30    1.10
  -3   1  12   18.70    1.10
  -3   1  12   18.50    1.30
   2  -1 -12    4.60    0.50
   2  -1 -12    4.70    0.60
   2  -1 -12    4.90    0.80
  -2   1  12    4.50    0.60
  -2   1  12    4.70    0.80
   1  -1 -12   16.20    1.40
   1  -1 -12   16.40    1.00
   1  -1 -12   16.90    1.00
  -1   1  12   15.70    1.10
  -1   1  12   17.80    1.30
   0  -1 -12   82.29    2.40
   0  -1 -12   82.39    2.80
   0  -1 -12   84.99    2.50
   0   1  12   82.69    2.60
   0   1  12   85.29    2.80
  -1  -1 -12   36.20    1.30
  -1  -1 -12   37.70    1.80
  -1  -1 -12   37.90    1.60
   1   1  12   34.50    1.80
   1   1  12   36.60    1.60
  -2  -1 -12   22.10    1.30
  -2  -1 -12   22.00    1.50
   2   1  12   21.10    1.30
  -3  -1 -12    0.90    0.60
  -3  -1 -12    0.70    0.70
   3   1  12    0.40    0.50
  -4  -1 -12    3.20    0.70
  -4  -1 -12    3.30    0.90
   4   1  12    2.20    0.70
  -5  -1 -12    1.80    1.00
  -5  -1 -12    0.20    0.80
   5   1  12    0.20    0.70
  -8   2  12    4.50    0.80
  -8   2  12    4.10    0.70
  -8   2  12    3.60    0.90
  -7   2  12    0.70    0.60
  -7   2  12   -0.40    0.80
  -7   2  12    0.60    0.60
   6  -2 -12    2.30    0.50
  -6   2  12    1.20    0.60
  -6   2  12    3.00    0.60
   5  -2 -12    9.90    1.10
   5  -2 -12    9.60    0.80
  -5   2  12   10.80    1.10
  -5   2  12    9.60    0.90
   4  -2 -12   60.69    2.10
   4  -2 -12   62.79    1.90
  -4   2  12   62.19    2.30
  -4   2  12   59.29    2.00
   3  -2 -12   13.70    1.00
   3  -2 -12   14.50    0.90
  -3   2  12   13.80    1.00
  -3   2  12   13.80    1.30
   2  -2 -12    0.10    0.40
   2  -2 -12    0.60    0.60
   2  -2 -12   -0.30    0.60
  -2   2  12    0.30    0.60
  -2   2  12    0.90    0.50
   1  -2 -12   10.70    0.90
   1  -2 -12   13.10    1.00
   1  -2 -12   14.00    1.50
  -1   2  12   12.70    1.00
  -1   2  12   13.90    1.30
   0  -2 -12    1.40    0.70
   0  -2 -12    2.00    0.40
   0   2  12    1.40    0.50
   0   2  12    1.00    0.70
  -1  -2 -12   26.00    1.20
  -1  -2 -12   26.20    1.30
  -1  -2 -12   24.60    1.60
   1   2  12   26.10    1.40
   1   2  12   22.90    1.60
  -2  -2 -12   36.40    1.60
  -2  -2 -12   36.90    1.80
   2   2  12   37.60    1.70
  -3  -2 -12    1.60    0.70
  -3  -2 -12    1.50    0.80
   3   2  12    1.60    0.70
  -4  -2 -12    1.30    0.70
  -4  -2 -12   -0.10    0.70
   4   2  12    0.80    0.70
  -5  -2 -12    1.40    0.80
  -5  -2 -12    2.10    0.80
   5   2  12    2.00    0.90
  -8   3  12   25.80    1.40
  -8   3  12   23.80    1.40
  -8   3  12   25.70    2.00
  -7   3  12   25.40    1.70
  -7   3  12   23.70    1.50
  -7   3  12   21.10    1.30
   6  -3 -12   28.90    1.30
  -6   3  12   29.00    1.70
  -6   3  12   26.80    1.50
  -6   3  12   25.60    1.30
   5  -3 -12    0.00    0.50
  -5   3  12    0.60    0.50
  -5   3  12    0.30    0.60
  -5   3  12   -0.10    0.60
   4  -3 -12    2.60    0.60
  -4   3  12    1.80    0.60
  -4   3  12    3.40    0.80
   3  -3 -12   -0.30    0.40
   3  -3 -12   -0.50    0.40
  -3   3  12   -0.20    0.40
  -3   3  12   -0.20    0.60
   2  -3 -12    2.90    0.60
   2  -3 -12    2.50    0.50
   2  -3 -12    2.70    0.70
  -2   3  12    2.70    1.10
  -2   3  12    2.80    0.60
   1  -3 -12    8.70    1.00
   1  -3 -12   10.70    0.90
   1  -3 -12   10.50    0.90
  -1   3  12    9.90    1.00
  -1   3  12   10.10    1.30
   0  -3 -12    0.40    0.70
   0  -3 -12   -0.10    0.40
   0  -3 -12    0.40    0.50
   0   3  12    0.00    0.70
   0   3  12   -0.20    0.50
  -1  -3 -12    2.10    0.90
  -1  -3 -12    3.60    0.60
   1   3  12    3.90    0.90
   1   3  12    4.60    0.70
  -2  -3 -12    8.80    1.10
  -2  -3 -12    8.80    1.30
   2   3  12    6.10    0.80
  -3  -3 -12    6.80    0.90
  -3  -3 -12    8.50    1.30
   3   3  12    9.40    1.20
  -4  -3 -12   39.40    1.90
  -4  -3 -12   35.60    2.00
   4   3  12   41.30    2.60
  -5  -3 -12    2.60    0.80
  -5  -3 -12    4.30    0.90
   5   3  12    3.40    1.00
  -8   4  12   10.70    1.40
  -8   4  12   12.20    1.70
   7  -4 -12   11.60    1.10
  -7   4  12   10.90    1.50
  -7   4  12   13.50    1.60
  -7   4  12   10.60    1.10
   6  -4 -12   83.59    2.60
  -6   4  12   82.19    2.90
  -6   4  12   82.39    2.60
  -6   4  12   87.99    2.90
   5  -4 -12    4.40    0.70
  -5   4  12    5.60    0.70
  -5   4  12    5.10    0.80
  -5   4  12    5.40    0.90
   4  -4 -12   45.20    1.70
  -4   4  12   46.10    1.70
  -4   4  12   46.80    2.00
  -4   4  12   47.60    1.90
   3  -4 -12    0.10    0.50
  -3   4  12   -0.90    0.50
  -3   4  12    2.00    0.70
  -3   4  12    1.20    0.50
   2  -4 -12   -0.90    0.80
   2  -4 -12    0.70    0.50
   2  -4 -12    0.50    0.50
  -2   4  12    0.70    0.50
  -2   4  12    1.40    0.70
   1  -4 -12   58.79    2.00
   1  -4 -12   59.79    1.90
   1  -4 -12   57.69    2.40
  -1   4  12   59.19    2.10
   0  -4 -12    5.70    0.90
   0  -4 -12    7.90    1.00
   0   4  12    6.50    1.00
   0   4  12    6.70    0.80
  -1  -4 -12    0.00    0.50
  -1  -4 -12    0.20    0.80
   1   4  12    0.70    0.60
  -2  -4 -12    5.20    0.90
  -2  -4 -12    4.80    0.80
   2   4  12    5.20    0.80
  -3  -4 -12    5.10    0.90
  -3  -4 -12    4.60    0.80
   3   4  12    6.00    0.90
  -4  -4 -12    1.30    0.70
  -4  -4 -12    1.80    0.90
   4   4  12    2.30    0.80
   7  -5 -12    5.00    0.80
  -7   5  12    5.90    0.90
  -7   5  12    4.70    0.90
   6  -5 -12    7.90    0.90
  -6   5  12   12.40    1.30
  -6   5  12   11.80    1.40
  -6   5  12   10.00    1.00
   5  -5 -12    0.60    0.60
  -5   5  12    1.80    0.70
  -5   5  12    1.20    0.60
  -5   5  12    1.30    0.70
   4  -5 -12    1.80    0.60
  -4   5  12    0.50    0.50
  -4   5  12   -0.50    0.60
  -4   5  12    1.50    0.80
   3  -5 -12   -0.20    0.50
  -3   5  12    0.30    0.60
  -3   5  12    1.00    0.50
  -3   5  12    1.00    0.70
   2  -5 -12   33.30    1.40
   2  -5 -12   32.70    1.50
  -2   5  12   36.50    1.60
  -2   5  12   34.70    1.90
   1  -5 -12    3.70    0.50
   1  -5 -12    3.30    0.70
   1  -5 -12    3.50    1.10
  -1   5  12    3.20    0.70
  -1   5  12    4.40    1.00
   0  -5 -12    3.80    0.70
   0   5  12    3.60    0.90
   0   5  12    4.60    0.70
  -1  -5 -12   15.10    1.30
  -1  -5 -12   12.50    1.50
   1   5  12   10.60    1.20
  -2  -5 -12    6.50    0.90
  -2  -5 -12    6.10    1.00
   2   5  12   11.40    1.60
  -3  -5 -12    8.10    1.10
  -3  -5 -12   12.30    1.50
   3   5  12    8.80    1.00
   6  -6 -12   16.80    1.40
  -6   6  12   19.80    1.60
  -6   6  12   20.80    1.60
   5  -6 -12    6.30    0.80
  -5   6  12    3.90    1.00
  -5   6  12    7.90    0.90
  -5   6  12    4.60    0.90
   4  -6 -12   12.20    1.20
  -4   6  12    9.60    1.20
  -4   6  12   10.30    1.50
  -4   6  12   11.50    1.00
   3  -6 -12    1.00    0.70
  -3   6  12   -0.50    0.60
  -3   6  12    0.20    0.80
  -3   6  12    1.50    0.60
   2  -6 -12    1.80    0.70
  -2   6  12    4.20    0.90
  -2   6  12    3.40    0.70
   1  -6 -12   -0.50    0.90
   1  -6 -12   -0.50    0.60
  -1   6  12   -2.50    1.00
  -1   6  12   -0.30    0.60
   0  -6 -12    0.90    0.90
   0  -6 -12    0.00    0.60
   0   6  12   -0.50    0.50
  -1  -6 -12   21.30    1.70
  -1  -6 -12   19.10    1.50
   1   6  12   18.60    1.40
  -2  -6 -12   19.10    1.80
  -2  -6 -12   23.70    1.70
   2   6  12   20.60    1.60
  -3  -6 -12    4.40    0.90
  -3  -6 -12    2.40    1.00
   3   6  12    2.90    0.90
   5  -7 -12    4.70    0.80
  -5   7  12    3.30    0.90
  -5   7  12    5.20    0.90
   4  -7 -12    1.50    0.80
  -4   7  12   -0.20    0.70
  -4   7  12    1.80    0.90
  -4   7  12    2.10    0.60
   3  -7 -12    3.00    0.80
  -3   7  12    5.50    0.80
  -3   7  12    3.40    0.70
  -3   7  12    4.40    1.00
   2  -7 -12    0.00    0.70
  -2   7  12    2.60    0.90
  -2   7  12    0.40    0.70
  -2   7  12    1.10    0.60
   1  -7 -12   29.00    1.80
   1  -7 -12   34.10    2.30
  -1   7  12   33.00    1.70
  -1   7  12   37.20    2.10
   0  -7 -12   32.20    2.20
   0  -7 -12   27.90    1.90
   0   7  12   31.00    1.60
  -1  -7 -12    4.90    1.30
  -1  -7 -12    3.40    1.00
   1   7  12    4.10    0.90
   4  -8 -12    2.20    0.90
  -4   8  12    1.30    1.10
  -4   8  12    0.80    0.80
   3  -8 -12    3.20    0.90
  -3   8  12    3.50    1.10
  -3   8  12    3.50    0.80
  -3   8  12    3.40    0.70
   2  -8 -12   16.10    1.50
  -2   8  12   17.90    1.30
  -2   8  12   15.60    2.00
   1  -8 -12    3.10    0.90
  -1   8  12    3.60    0.80
   0  -8 -12    6.40    1.00
   0   8  12    6.50    0.90
   4   8 -13   20.40    2.20
  -4  -8  13   16.60    1.50
  -4  -8  13   19.50    1.60
   3   8 -13   25.70    2.40
  -3  -8  13   21.40    1.50
  -3  -8  13   20.50    1.60
   2   8 -13    4.20    0.90
  -2  -8  13    1.00    0.90
  -2  -8  13    2.80    0.70
   1   8 -13    1.80    0.90
  -1  -8  13    0.00    0.60
  -1  -8  13    2.30    0.90
   0   8 -13   29.30    1.90
   0  -8  13   28.20    1.60
   0  -8  13   34.30    2.10
  -1   8 -13    7.40    1.50
  -1   8 -13    4.50    1.00
   1  -8  13    7.10    0.90
  -2   8 -13    3.20    1.00
  -2   8 -13    3.10    1.20
   2  -8  13    4.70    0.80
   5   7 -13   -1.10    0.90
  -5  -7  13   -0.80    0.70
  -5  -7  13    1.10    0.70
   4   7 -13    0.00    0.90
  -4  -7  13    1.60    0.80
  -4  -7  13    0.40    0.70
   3   7 -13    7.00    1.00
  -3  -7  13    8.10    1.10
  -3  -7  13    4.60    1.00
   2   7 -13   -0.10    0.80
  -2  -7  13    0.20    0.80
  -2  -7  13    0.60    0.60
   1   7 -13   60.19    2.40
  -1  -7  13   59.69    2.20
  -1  -7  13   62.99    2.60
   0   7 -13   11.60    1.40
   0  -7  13    9.90    1.10
   0  -7  13   12.20    1.60
  -1   7 -13    0.60    1.00
  -1   7 -13    0.10    0.70
   1  -7  13    1.10    0.60
   1  -7  13   -0.50    1.00
  -2   7 -13   28.90    2.20
  -2   7 -13   25.00    1.70
   2  -7  13   25.10    1.50
  -3   7 -13   18.80    1.60
  -3   7 -13   19.70    2.10
   3  -7  13   22.70    1.40
   3  -7  13   18.00    1.40
   6   6 -13    6.50    1.10
  -6  -6  13    5.30    1.30
   5   6 -13    2.40    1.00
  -5  -6  13    4.40    0.90
  -5  -6  13    4.50    0.90
   4   6 -13    1.60    1.00
  -4  -6  13    1.90    0.60
  -4  -6  13    2.60    0.70
   3   6 -13   10.20    1.40
  -3  -6  13    8.80    1.40
  -3  -6  13    9.60    1.10
   2   6 -13    8.40    1.00
  -2  -6  13    6.10    0.80
  -2  -6  13    7.60    1.10
   1   6 -13    5.40    0.90
  -1  -6  13    5.50    0.90
  -1  -6  13    7.60    1.10
   0   6 -13   21.70    1.60
   0   6 -13   26.40    2.10
   0  -6  13   23.20    1.40
   0  -6  13   21.20    1.70
  -1   6 -13    0.80    1.00
  -1   6 -13    1.20    0.70
   1  -6  13    2.10    0.90
   1  -6  13    2.40    0.70
  -2   6 -13   22.80    2.00
  -2   6 -13   18.90    1.40
   2  -6  13   20.40    1.40
   2  -6  13   16.50    1.10
  -3   6 -13    0.10    0.70
  -3   6 -13    1.30    1.00
   3  -6  13   -1.30    0.50
   3  -6  13   -1.30    0.60
  -4   6 -13   19.90    2.10
   4  -6  13   16.30    1.40
   6   5 -13   24.00    2.30
  -6  -5  13   20.60    1.50
  -6  -5  13   17.10    1.50
   5   5 -13   16.40    1.50
  -5  -5  13   19.20    1.40
  -5  -5  13   16.90    1.40
   4   5 -13   16.10    1.50
  -4  -5  13   13.00    1.30
  -4  -5  13   16.50    1.40
   3   5 -13    1.10    0.70
  -3  -5  13    1.20    0.70
  -3  -5  13    0.80    0.60
   2   5 -13    0.90    0.80
  -2  -5  13    1.80    0.70
  -2  -5  13    1.90    0.60
   1   5 -13    2.00    0.70
  -1  -5  13    2.40    0.70
  -1  -5  13    4.40    0.90
   0   5 -13   10.30    1.20
   0   5 -13    7.70    1.20
   0  -5  13    7.60    1.00
  -1   5 -13    9.20    1.20
   1  -5  13    9.30    1.40
   1  -5  13   10.00    1.10
  -2   5 -13   -0.70    0.60
  -2   5 -13   -0.80    0.90
   2  -5  13   -0.80    0.50
  -3   5 -13    1.50    0.70
  -3   5 -13    0.10    0.70
  -3   5 -13    0.10    0.90
   3  -5  13    1.60    0.70
  -4   5 -13   24.20    1.60
  -4   5 -13   24.90    1.60
  -4   5 -13   26.90    2.00
   4  -5  13   23.30    1.50
   7   4 -13    4.00    1.00
  -7  -4  13    3.10    0.70
  -7  -4  13    2.50    1.00
   6   4 -13   10.70    1.40
  -6  -4  13    7.60    1.10
  -6  -4  13    8.20    1.00
   5   4 -13    2.10    0.70
  -5  -4  13    1.40    0.70
  -5  -4  13    2.30    0.70
   4   4 -13   25.80    1.60
  -4  -4  13   27.30    1.60
  -4  -4  13   24.70    1.50
   3   4 -13    0.10    0.60
  -3  -4  13    0.60    0.60
  -3  -4  13    0.60    0.50
   2   4 -13   15.20    1.30
  -2  -4  13   14.50    1.10
  -2  -4  13   13.90    1.30
   1   4 -13    0.30    0.90
   1   4 -13   -1.00    0.60
  -1  -4  13   -0.20    0.70
  -1  -4  13    0.00    0.50
   0   4 -13   29.40    1.90
   0   4 -13   24.20    1.40
   0  -4  13   25.40    1.40
   0  -4  13   27.60    1.70
  -1   4 -13    3.60    0.70
  -1   4 -13    4.10    1.70
  -1   4 -13    4.20    0.60
   1  -4  13    4.50    0.70
   1  -4  13    3.60    0.90
  -2   4 -13    2.00    0.90
  -2   4 -13    1.60    0.60
  -2   4 -13    2.00    0.60
   2  -4  13    1.70    0.60
  -3   4 -13   15.30    1.60
  -3   4 -13   11.20    1.20
  -3   4 -13   13.90    1.20
   3  -4  13   12.80    1.20
  -4   4 -13    7.80    1.20
  -4   4 -13   12.30    1.30
  -4   4 -13    7.20    0.90
   4  -4  13   10.10    1.20
   7   3 -13    3.30    0.90
  -7  -3  13    2.40    0.90
  -7  -3  13    2.40    0.80
   6   3 -13   -0.10    0.90
  -6  -3  13   -0.30    0.60
  -6  -3  13    0.40    0.60
   5   3 -13   12.80    1.30
  -5  -3  13    9.50    1.10
  -5  -3  13    9.50    1.10
   4   3 -13   30.00    1.70
  -4  -3  13   30.10    1.60
  -4  -3  13   30.40    1.50
   3   3 -13    0.00    0.60
  -3  -3  13    0.80    0.50
  -3  -3  13    0.30    0.60
   2   3 -13    3.20    0.70
  -2  -3  13    1.40    0.70
  -2  -3  13    3.10    0.60
   1   3 -13   34.50    1.90
   1   3 -13   34.80    1.60
  -1  -3  13   33.80    1.60
   0   3 -13    2.10    0.70
   0   3 -13    0.00    0.50
   0   3 -13    0.50    0.50
   0  -3  13    0.70    0.70
   0  -3  13    0.70    0.50
  -1   3 -13    0.40    0.50
  -1   3 -13    0.20    0.80
  -1   3 -13   -0.30    0.50
   1  -3  13    0.80    0.70
   1  -3  13    0.30    0.60
  -2   3 -13   13.80    1.50
  -2   3 -13   10.20    1.10
  -2   3 -13   13.80    1.10
   2  -3  13   11.30    1.10
  -3   3 -13   14.80    1.10
  -3   3 -13   19.20    1.30
  -3   3 -13   18.00    1.60
   3  -3  13   14.50    1.30
  -4   3 -13    4.00    1.00
  -4   3 -13    6.20    0.80
   4  -3  13    4.80    0.80
  -5   3 -13    4.10    1.00
  -5   3 -13    6.00    1.00
   5  -3  13    4.20    0.90
   8   2 -13   61.89    2.70
  -8  -2  13   58.99    2.10
   7   2 -13    2.10    1.20
  -7  -2  13    1.30    0.60
  -7  -2  13    1.60    0.70
   6   2 -13    1.10    0.80
  -6  -2  13    1.30    0.60
  -6  -2  13    0.70    0.70
   5   2 -13    6.10    0.90
  -5  -2  13    4.70    0.80
  -5  -2  13    6.20    0.80
   4   2 -13    0.40    0.60
  -4  -2  13   -1.00    0.50
  -4  -2  13   -0.40    0.60
   3   2 -13   22.90    1.40
  -3  -2  13   21.50    1.30
  -3  -2  13   21.90    1.40
   2   2 -13   35.10    1.60
  -2  -2  13   37.80    1.60
  -2  -2  13   39.10    1.80
   1   2 -13   -0.20    0.50
   1   2 -13    0.50    0.80
   1   2 -13    0.10    0.40
  -1  -2  13    0.00    0.50
  -1  -2  13    0.30    0.70
   0   2 -13    1.90    0.50
   0   2 -13    2.00    0.60
   0   2 -13    0.50    0.80
   0  -2  13    1.60    0.60
   0  -2  13    2.10    0.70
  -1   2 -13   18.60    1.30
  -1   2 -13   19.40    1.10
  -1   2 -13   18.70    1.60
   1  -2  13   19.00    1.60
   1  -2  13   17.90    1.20
  -2   2 -13    2.00    0.80
  -2   2 -13    2.50    0.60
  -2   2 -13    0.80    0.60
   2  -2  13    1.60    0.70
  -3   2 -13   -1.50    0.60
  -3   2 -13   -0.70    0.70
  -3   2 -13    0.40    0.70
   3  -2  13    1.30    0.60
  -4   2 -13    0.60    0.70
  -4   2 -13    1.30    0.80
   4  -2  13    2.40    0.70
  -5   2 -13    6.60    1.10
  -5   2 -13    6.10    1.00
   5  -2  13    7.50    1.00
   8   1 -13    3.40    1.30
  -8  -1  13    4.40    0.80
  -8  -1  13    3.40    0.70
   7   1 -13    5.20    1.20
  -7  -1  13    5.50    0.90
  -7  -1  13    6.30    0.80
   6   1 -13    1.30    0.70
  -6  -1  13    1.20    0.60
  -6  -1  13    0.90    0.60
   5   1 -13   17.20    1.40
  -5  -1  13   19.10    1.30
  -5  -1  13   17.80    1.20
   4   1 -13    5.50    0.80
  -4  -1  13    4.60    0.80
  -4  -1  13    5.50    0.80
   3   1 -13    1.40    0.60
  -3  -1  13    2.00    0.70
  -3  -1  13    2.20    0.60
   2   1 -13    5.40    0.70
   2   1 -13    5.70    0.50
  -2  -1  13    5.60    0.80
  -2  -1  13    4.50    0.70
   1   1 -13   11.80    0.80
   1   1 -13   11.50    1.50
   1   1 -13   11.20    1.10
  -1  -1  13   11.50    1.30
  -1  -1  13    9.20    1.00
   0   1 -13   48.60    1.70
   0   1 -13   47.30    1.60
   0   1 -13   48.60    2.20
   0  -1  13   46.60    1.80
   0  -1  13   45.90    2.10
  -1   1 -13    1.90    0.70
  -1   1 -13    0.70    0.80
  -1   1 -13    2.90    0.60
   1  -1  13    1.70    0.60
   1  -1  13    1.70    0.80
  -2   1 -13    7.20    1.00
  -2   1 -13    8.70    1.00
  -2   1 -13   10.40    1.00
   2  -1  13    8.70    1.10
  -3   1 -13    2.60    0.70
  -3   1 -13    3.00    0.90
   3  -1  13    2.30    0.70
  -4   1 -13    6.00    0.90
  -4   1 -13    6.20    1.00
   4  -1  13    5.40    0.90
  -5   1 -13   -1.40    0.70
  -5   1 -13   -0.30    0.80
   5  -1  13   -1.50    0.70
   8   0 -13   24.50    1.90
  -8   0  13   24.90    1.60
  -8   0  13   27.30    1.60
   7   0 -13    6.00    1.00
  -7   0  13    6.00    0.80
  -7   0  13    9.10    1.20
   6   0 -13    4.80    0.90
  -6   0  13    3.90    0.70
  -6   0  13    4.00    0.70
   5   0 -13   16.80    1.40
  -5   0  13   18.30    1.30
  -5   0  13   17.00    1.20
   4   0 -13    2.60    0.70
  -4   0  13    1.80    0.60
  -4   0  13    2.90    0.70
   3   0 -13    0.50    0.60
   3   0 -13    0.90    0.50
  -3   0  13    0.90    0.50
  -3   0  13    0.20    0.60
   2   0 -13   64.49    1.90
   2   0 -13   66.19    2.10
  -2   0  13   63.49    2.20
  -2   0  13   65.29    2.40
   1   0 -13    6.20    0.80
   1   0 -13    6.00    0.80
   1   0 -13    8.70    0.90
  -1   0  13    6.20    0.80
  -1   0  13    8.80    1.00
   0   0 -13    6.10    0.70
   0   0 -13    5.00    0.90
   0   0 -13    7.60    0.90
   0   0  13    6.20    0.90
   0   0  13    7.30    1.00
  -1   0 -13    1.90    0.60
  -1   0 -13    1.70    0.60
   1   0  13    1.70    0.70
   1   0  13    1.90    0.60
  -2   0 -13   73.19    2.40
  -2   0 -13   74.99    2.80
   2   0  13   75.89    2.60
  -3   0 -13    1.50    0.80
  -3   0 -13   -0.30    0.60
   3   0  13    0.10    0.60
  -4   0 -13    0.60    0.80
  -4   0 -13    0.30    0.70
   4   0  13    1.90    0.70
  -5   0 -13    2.10    0.90
  -5   0 -13    1.60    0.80
   5   0  13    2.90    0.80
   8  -1 -13   13.90    1.60
  -8   1  13   13.10    1.30
  -8   1  13   11.70    1.30
   7  -1 -13   15.40    1.50
  -7   1  13   14.60    1.50
  -7   1  13   15.70    1.30
   6  -1 -13   26.50    1.70
  -6   1  13   25.30    1.40
  -6   1  13   26.70    1.50
   5  -1 -13   43.20    1.90
  -5   1  13   44.10    1.90
  -5   1  13   43.70    1.70
   4  -1 -13   34.60    1.60
   4  -1 -13   35.60    1.50
  -4   1  13   35.00    1.80
  -4   1  13   34.90    1.60
   3  -1 -13    1.60    0.50
   3  -1 -13    2.10    0.60
  -3   1  13    1.40    0.50
  -3   1  13    1.50    0.70
   2  -1 -13    3.00    0.70
   2  -1 -13    2.20    0.50
  -2   1  13    2.60    0.70
  -2   1  13    2.30    0.60
   1  -1 -13    0.30    0.80
   1  -1 -13   -0.60    0.50
   1  -1 -13   -0.40    0.50
  -1   1  13   -0.30    0.60
  -1   1  13    0.70    0.50
   0  -1 -13   48.30    2.20
   0  -1 -13   47.70    1.60
   0   1  13   45.10    2.10
   0   1  13   46.60    1.90
  -1  -1 -13   23.70    2.00
  -1  -1 -13   21.30    1.10
  -1  -1 -13   23.40    1.30
   1   1  13   22.60    1.70
   1   1  13   23.50    1.40
  -2  -1 -13    0.30    0.60
  -2  -1 -13    0.80    0.70
   2   1  13   -0.40    0.60
  -3  -1 -13    5.70    1.00
  -3  -1 -13    4.40    0.90
   3   1  13    5.20    0.80
  -4  -1 -13   40.30    2.20
  -4  -1 -13   39.10    1.90
   4   1  13   40.60    2.00
   8  -2 -13    3.60    1.00
  -8   2  13    3.20    1.20
   7  -2 -13   10.20    1.50
  -7   2  13    9.60    1.20
  -7   2  13    7.70    0.90
   6  -2 -13    6.10    0.90
  -6   2  13    5.90    0.90
  -6   2  13    7.70    1.10
   5  -2 -13   17.60    1.20
   5  -2 -13   14.60    1.20
  -5   2  13   11.30    1.10
  -5   2  13   13.60    1.30
   4  -2 -13    4.20    0.70
   4  -2 -13    4.00    0.60
  -4   2  13    3.30    0.60
  -4   2  13    4.20    0.90
   3  -2 -13    0.80    0.60
   3  -2 -13    0.80    0.50
  -3   2  13    1.10    0.60
  -3   2  13    1.30    0.50
   2  -2 -13   -0.20    0.50
  -2   2  13    0.90    0.50
  -2   2  13    0.50    0.90
   1  -2 -13    0.10    0.70
   1  -2 -13    0.60    0.50
  -1   2  13    0.30    0.50
  -1   2  13   -0.40    0.70
   0  -2 -13   -0.30    0.50
   0  -2 -13    0.80    0.50
   0  -2 -13    0.00    0.80
   0   2  13    1.80    0.80
   0   2  13    1.10    0.60
  -1  -2 -13   39.90    1.70
  -1  -2 -13   38.70    2.00
   1   2  13   36.50    1.70
  -2  -2 -13   -0.30    0.70
  -2  -2 -13    0.10    0.60
   2   2  13   -0.20    0.60
  -3  -2 -13    4.60    0.80
  -3  -2 -13    5.70    1.00
   3   2  13    5.70    1.50
  -4  -2 -13    0.30    0.80
  -4  -2 -13   -0.20    0.80
   4   2  13   -0.10    0.70
  -7   3  13   10.60    1.60
  -7   3  13   10.60    1.10
  -7   3  13    7.70    1.10
  -6   3  13    1.80    0.60
  -6   3  13    0.90    0.70
   5  -3 -13    0.30    0.50
   5  -3 -13   -0.20    0.60
  -5   3  13    1.20    0.60
  -5   3  13    0.20    0.70
   4  -3 -13   41.70    1.70
   4  -3 -13   40.10    1.70
  -4   3  13   41.90    2.00
  -4   3  13   38.50    1.70
   3  -3 -13   71.09    2.30
  -3   3  13   70.09    2.40
  -3   3  13   73.69    2.60
   2  -3 -13    3.10    0.60
  -2   3  13    3.70    0.80
  -2   3  13    3.00    0.60
   1  -3 -13   28.00    1.80
   1  -3 -13   28.10    1.30
   1  -3 -13   30.70    1.40
  -1   3  13   30.10    2.00
  -1   3  13   30.90    1.50
   0  -3 -13    1.60    0.60
   0  -3 -13    0.10    0.80
   0   3  13    0.80    0.60
   0   3  13    1.30    0.80
  -1  -3 -13    9.70    1.10
  -1  -3 -13    9.10    1.40
   1   3  13    9.40    1.20
  -2  -3 -13    1.60    0.70
  -2  -3 -13    1.70    0.70
   2   3  13    2.30    0.80
  -3  -3 -13   10.30    1.30
  -3  -3 -13   12.00    1.40
   3   3  13   12.60    1.70
  -4  -3 -13    2.00    1.00
  -4  -3 -13    3.20    0.90
   4   3  13    1.90    0.90
  -7   4  13    0.80    0.60
  -7   4  13    0.40    0.80
  -7   4  13    1.30    0.90
   6  -4 -13   16.90    1.20
  -6   4  13   16.70    1.50
  -6   4  13   18.20    1.60
  -6   4  13   15.50    1.20
   5  -4 -13    2.20    0.60
  -5   4  13    1.20    0.80
  -5   4  13    2.10    0.60
  -5   4  13    3.10    0.80
   4  -4 -13    0.00    0.60
   4  -4 -13   -0.20    0.50
  -4   4  13    0.50    0.60
  -4   4  13    0.10    0.70
   3  -4 -13    7.20    1.00
   3  -4 -13    4.60    0.70
  -3   4  13    5.00    0.70
  -3   4  13    5.70    0.90
   2  -4 -13   29.10    1.50
  -2   4  13   32.00    1.90
  -2   4  13   31.50    1.50
   1  -4 -13    0.60    0.60
   1  -4 -13    0.90    0.90
   1  -4 -13   -0.10    0.60
  -1   4  13    1.10    0.60
  -1   4  13    0.00    0.90
   0  -4 -13   64.29    2.90
   0  -4 -13   67.79    2.30
   0   4  13   64.49    2.40
   0   4  13   66.69    2.60
  -1  -4 -13   13.30    1.30
  -1  -4 -13   13.20    1.50
   1   4  13   14.10    1.40
  -2  -4 -13    6.80    1.00
  -2  -4 -13    8.40    1.00
   2   4  13    9.60    1.30
  -3  -4 -13    7.00    1.00
  -3  -4 -13    7.00    1.10
   3   4  13    5.40    1.00
   6  -5 -13    1.30    0.70
  -6   5  13   -0.60    0.60
  -6   5  13    2.50    0.90
  -6   5  13    0.60    0.80
   5  -5 -13   34.40    1.60
  -5   5  13   32.60    1.60
  -5   5  13   33.60    1.90
  -5   5  13   36.00    1.90
   4  -5 -13   18.30    1.30
  -4   5  13   25.90    1.80
  -4   5  13   20.00    1.30
  -4   5  13   21.10    1.50
   3  -5 -13    0.40    0.60
   3  -5 -13    0.80    0.60
  -3   5  13    1.20    0.80
  -3   5  13    1.10    0.60
   2  -5 -13    1.90    0.50
   2  -5 -13   -0.50    0.60
  -2   5  13    1.60    0.60
  -2   5  13    2.90    0.80
   1  -5 -13    7.50    0.90
   1  -5 -13    8.00    1.20
  -1   5  13    7.90    0.90
   0  -5 -13    7.30    1.00
   0   5  13    6.80    0.90
  -1  -5 -13    5.90    0.80
  -1  -5 -13    5.10    1.10
   1   5  13    5.30    0.90
  -2  -5 -13    0.60    0.70
  -2  -5 -13    0.60    0.90
   2   5  13    0.50    0.90
   5  -6 -13    0.60    0.80
  -5   6  13    0.80    0.90
  -5   6  13   -0.70    0.80
  -5   6  13    0.80    0.60
   4  -6 -13   12.70    1.30
  -4   6  13   11.10    1.40
  -4   6  13   14.20    1.20
  -4   6  13   13.60    1.70
   3  -6 -13    7.50    0.90
  -3   6  13    8.50    1.20
  -3   6  13    6.50    0.80
  -3   6  13    7.20    0.90
   2  -6 -13    8.10    0.90
   2  -6 -13   11.20    1.00
  -2   6  13   10.70    1.60
  -2   6  13    9.50    1.20
   1  -6 -13    0.70    0.70
  -1   6  13    0.60    1.00
  -1   6  13    0.00    0.60
   0  -6 -13    7.70    0.90
   0  -6 -13    5.10    1.10
   0   6  13   10.10    1.30
  -1  -6 -13    1.30    0.80
  -1  -6 -13    0.90    1.00
   1   6  13   -0.10    0.70
   4  -7 -13   -1.00    0.70
  -4   7  13   -1.90    0.80
  -4   7  13    1.00    0.60
  -4   7  13   -0.30    1.00
   3  -7 -13    8.10    1.00
  -3   7  13   10.20    1.40
  -3   7  13   10.50    1.30
  -3   7  13   12.20    1.20
   2  -7 -13   12.10    1.50
  -2   7  13    9.80    1.40
  -2   7  13   15.20    1.30
   1  -7 -13   14.10    1.60
  -1   7  13   18.30    1.40
   4   7 -14    9.30    1.70
  -4  -7  14   11.10    1.70
  -4  -7  14   10.00    1.20
   3   7 -14    0.40    1.00
  -3  -7  14   -0.70    0.80
  -3  -7  14    0.00    0.60
   2   7 -14   28.30    1.90
  -2  -7  14   27.00    1.60
  -2  -7  14   28.70    2.00
   1   7 -14   11.60    1.50
  -1  -7  14   15.00    1.70
  -1  -7  14   13.10    1.30
   0   7 -14   16.20    1.60
   0  -7  14   20.40    1.90
   0  -7  14   17.50    1.40
  -1   7 -14   16.60    1.60
  -1   7 -14   14.70    2.20
   1  -7  14   16.70    1.40
   5   6 -14   -0.30    0.90
  -5  -6  14    1.20    0.80
  -5  -6  14    1.50    0.80
   4   6 -14    1.80    1.00
  -4  -6  14    0.60    0.80
  -4  -6  14    1.40    0.70
   3   6 -14    0.00    0.80
  -3  -6  14    0.60    0.60
  -3  -6  14    0.50    0.80
   2   6 -14    2.70    0.90
  -2  -6  14    3.60    0.70
  -2  -6  14    3.10    1.00
   1   6 -14    4.50    1.00
  -1  -6  14    5.40    0.90
  -1  -6  14    3.40    1.00
   0   6 -14    1.20    0.80
   0  -6  14   -0.30    0.90
   0  -6  14    2.00    0.70
  -1   6 -14    0.80    1.10
  -1   6 -14   -0.40    0.70
   1  -6  14    1.30    0.70
  -2   6 -14    3.60    1.20
  -2   6 -14    2.40    0.80
   2  -6  14    3.30    0.80
   5   5 -14   -0.50    0.90
  -5  -5  14    1.10    0.70
  -5  -5  14    0.90    0.90
   4   5 -14    6.60    1.10
  -4  -5  14    8.30    1.10
  -4  -5  14   10.90    1.40
   3   5 -14   42.60    2.10
  -3  -5  14   41.90    2.10
  -3  -5  14   43.70    1.90
   2   5 -14    0.50    0.80
  -2  -5  14    1.40    0.70
  -2  -5  14    1.40    0.70
   1   5 -14    0.70    0.70
  -1  -5  14   -0.40    0.60
  -1  -5  14    0.90    0.80
   0   5 -14    3.10    0.70
   0   5 -14    3.50    1.30
   0  -5  14    2.40    0.70
   0  -5  14    4.40    0.90
  -1   5 -14    4.30    0.90
  -1   5 -14    8.30    1.20
   1  -5  14    7.10    0.90
  -2   5 -14    2.20    0.70
  -2   5 -14   -0.80    0.90
  -2   5 -14    1.00    1.10
   2  -5  14    0.10    0.70
  -3   5 -14   22.20    1.50
  -3   5 -14   22.20    2.10
  -3   5 -14   21.10    1.50
   3  -5  14   23.70    1.50
   6   4 -14   33.60    1.90
  -6  -4  14   37.80    2.20
  -6  -4  14   35.30    2.00
   5   4 -14    0.20    0.70
  -5  -4  14   -1.40    0.90
  -5  -4  14    0.40    0.60
   4   4 -14   14.90    1.50
  -4  -4  14   12.90    1.30
  -4  -4  14   15.70    1.50
   3   4 -14    0.00    0.70
  -3  -4  14   -0.80    0.70
  -3  -4  14    0.40    0.70
   2   4 -14   48.50    2.10
  -2  -4  14   50.89    2.00
  -2  -4  14   48.40    2.20
   1   4 -14    4.00    0.80
  -1  -4  14    3.40    0.70
  -1  -4  14    3.40    0.90
   0   4 -14   13.10    1.40
   0   4 -14   16.80    1.80
   0  -4  14   14.10    1.20
  -1   4 -14    1.00    0.60
  -1   4 -14   -0.20    0.80
   1  -4  14    0.90    0.90
   1  -4  14    1.00    0.60
  -2   4 -14   17.90    1.80
  -2   4 -14   18.10    1.30
  -2   4 -14   15.60    1.30
   2  -4  14   19.80    1.30
  -3   4 -14   13.70    1.80
  -3   4 -14    9.00    0.90
  -3   4 -14    9.70    1.30
   3  -4  14    9.30    1.30
   6   3 -14   28.60    1.90
  -6  -3  14   26.70    1.60
  -6  -3  14   29.80    1.70
   5   3 -14   13.50    1.50
  -5  -3  14   12.90    1.50
  -5  -3  14   13.00    1.30
   4   3 -14   -1.10    0.60
  -4  -3  14    0.70    0.70
  -4  -3  14    0.60    0.60
   3   3 -14   18.10    1.40
  -3  -3  14   20.20    1.40
  -3  -3  14   17.90    1.50
   2   3 -14    4.90    0.80
  -2  -3  14    5.20    0.90
  -2  -3  14    8.20    1.10
   1   3 -14   -0.30    0.60
  -1  -3  14   -1.20    0.50
  -1  -3  14    0.50    0.70
   0   3 -14    4.70    1.20
   0   3 -14    4.10    0.70
   0  -3  14    3.60    0.70
  -1   3 -14    4.60    0.80
  -1   3 -14    4.40    0.70
  -1   3 -14    5.00    1.00
   1  -3  14    9.00    1.40
   1  -3  14    5.90    0.80
  -2   3 -14   23.50    1.40
  -2   3 -14   28.00    1.40
  -2   3 -14   28.00    1.90
   2  -3  14   25.30    1.50
  -3   3 -14    0.40    0.90
  -3   3 -14   -1.50    1.00
   3  -3  14    0.60    0.60
  -4   3 -14    1.60    1.00
  -4   3 -14    2.80    0.80
   4  -3  14    1.10    0.70
   7   2 -14    0.10    0.90
  -7  -2  14   -0.30    0.70
  -7  -2  14    1.50    0.70
   6   2 -14   20.80    1.60
  -6  -2  14   18.00    1.50
  -6  -2  14   18.70    1.50
   5   2 -14    2.00    0.80
  -5  -2  14    0.70    0.60
  -5  -2  14    1.60    0.70
   4   2 -14    5.20    0.80
  -4  -2  14    4.20    0.80
  -4  -2  14    5.20    0.90
   3   2 -14    1.40    0.60
  -3  -2  14    2.50    0.70
  -3  -2  14    2.10    0.60
   2   2 -14    2.90    0.70
  -2  -2  14    2.70    0.80
  -2  -2  14    3.40    1.00
   1   2 -14   -0.70    0.60
   1   2 -14    1.20    1.20
  -1  -2  14    0.10    0.80
  -1  -2  14   -0.10    0.50
   0   2 -14   -0.10    0.80
   0   2 -14   -0.50    0.50
   0   2 -14    1.80    0.60
   0  -2  14   -0.20    0.70
   0  -2  14   -0.10    0.50
  -1   2 -14    1.80    0.90
  -1   2 -14    1.40    0.60
   1  -2  14    1.60    0.80
   1  -2  14    2.00    0.60
  -2   2 -14   -1.30    0.90
  -2   2 -14   -0.30    0.60
  -2   2 -14    1.00    0.70
   2  -2  14    0.90    0.60
  -3   2 -14    2.40    0.80
  -3   2 -14    1.30    0.90
   3  -2  14    2.10    0.80
  -4   2 -14    0.30    0.80
  -4   2 -14    1.50    0.90
   4  -2  14    0.40    0.80
   7   1 -14   -0.30    0.80
  -7  -1  14    0.70    0.70
  -7  -1  14    0.40    0.60
   6   1 -14    0.30    0.80
  -6  -1  14    0.50    0.70
  -6  -1  14    0.90    0.60
   5   1 -14    0.00    0.70
  -5  -1  14   -0.10    0.60
  -5  -1  14    0.70    0.70
   4   1 -14    0.70    0.60
  -4  -1  14    1.00    0.60
  -4  -1  14    0.60    0.60
   3   1 -14    0.60    0.70
  -3  -1  14    0.70    0.60
  -3  -1  14    0.60    0.70
   2   1 -14    9.20    1.00
  -2  -1  14    7.90    1.10
  -2  -1  14   11.30    1.40
   1   1 -14   30.30    2.00
   1   1 -14   31.90    1.30
   1   1 -14   28.60    1.40
  -1  -1  14   29.70    1.90
  -1  -1  14   30.30    1.90
   0   1 -14    1.00    0.60
   0   1 -14    1.70    0.60
   0   1 -14    0.80    0.90
   0  -1  14    2.00    0.80
   0  -1  14    1.00    0.60
  -1   1 -14   -0.70    0.50
  -1   1 -14   -0.10    0.80
  -1   1 -14   -0.70    0.60
   1  -1  14    0.40    0.60
   1  -1  14    1.20    1.40
  -2   1 -14    0.00    0.80
  -2   1 -14   -0.50    0.60
   2  -1  14    0.20    0.60
  -3   1 -14    2.00    0.80
  -3   1 -14    1.30    0.80
   3  -1  14    2.70    0.80
  -4   1 -14   34.60    2.20
  -4   1 -14   41.30    2.00
   4  -1  14   41.30    2.00
   7   0 -14    1.10    0.90
  -7   0  14    0.10    0.70
  -7   0  14    0.30    0.70
   6   0 -14    6.60    1.00
  -6   0  14    5.70    0.80
  -6   0  14    6.60    0.90
   5   0 -14    1.30    0.70
  -5   0  14    0.30    0.70
  -5   0  14    0.80    0.60
   4   0 -14    5.60    0.80
  -4   0  14    6.30    0.80
  -4   0  14    5.20    0.90
   3   0 -14    1.10    0.60
  -3   0  14    0.10    0.70
  -3   0  14    1.00    0.60
   2   0 -14    2.40    0.50
   2   0 -14    1.80    0.60
  -2   0  14    3.30    0.70
  -2   0  14    1.30    0.70
   1   0 -14   -1.50    0.90
   1   0 -14    0.70    0.50
   1   0 -14    0.60    0.50
  -1   0  14   -0.80    0.70
  -1   0  14   -0.20    0.50
   0   0 -14    7.60    1.20
   0   0 -14    9.50    1.00
   0   0  14    9.50    1.20
   0   0  14    7.60    1.00
  -1   0 -14    5.50    0.80
  -1   0 -14    5.50    1.00
  -1   0 -14    5.50    0.70
   1   0  14    5.50    0.80
  -2   0 -14   23.20    1.40
  -2   0 -14   24.90    1.80
   2   0  14   21.70    1.50
  -3   0 -14    0.90    0.80
  -3   0 -14    2.00    0.70
   3   0  14    0.30    0.70
  -4   0 -14    0.70    0.80
  -4   0 -14    2.00    0.90
   4   0  14    0.90    0.80
   7  -1 -14   19.30    1.60
  -7   1  14   18.50    1.50
  -7   1  14   17.10    1.50
   6  -1 -14   20.40    1.60
  -6   1  14   18.40    1.30
  -6   1  14   17.80    1.50
   5  -1 -14   12.80    1.40
  -5   1  14   13.00    1.30
  -5   1  14   14.50    1.20
   4  -1 -14   40.90    1.80
  -4   1  14   38.40    1.70
  -4   1  14   40.40    1.90
   3  -1 -14    8.40    0.90
   3  -1 -14   10.90    1.10
  -3   1  14    8.90    1.10
  -3   1  14   10.00    1.40
   2  -1 -14    6.90    1.00
   2  -1 -14    6.10    0.70
  -2   1  14    5.40    0.90
  -2   1  14    6.40    0.80
   1  -1 -14    2.00    0.90
  -1   1  14    0.20    0.80
  -1   1  14    1.10    0.60
   0  -1 -14   24.60    1.30
   0  -1 -14   24.10    1.30
   0  -1 -14   28.10    2.20
   0   1  14   24.40    1.80
   0   1  14   23.00    1.50
  -1  -1 -14    2.80    0.60
  -1  -1 -14    2.90    0.90
   1   1  14    3.70    0.90
  -2  -1 -14   84.39    3.10
  -2  -1 -14   85.09    2.70
  -3  -1 -14    0.10    0.80
  -3  -1 -14    1.50    0.70
   3   1  14   -1.20    0.70
   7  -2 -14    4.60    1.00
  -7   2  14    4.10    1.00
  -7   2  14    5.00    0.80
   6  -2 -14    4.90    0.90
  -6   2  14    3.90    0.90
  -6   2  14    5.20    0.80
   5  -2 -14    3.30    0.80
  -5   2  14    3.40    0.90
  -5   2  14    3.60    0.70
   4  -2 -14    0.40    0.60
   4  -2 -14    0.30    0.70
  -4   2  14    0.30    0.80
  -4   2  14    0.50    0.60
   3  -2 -14    9.00    1.10
   3  -2 -14    9.60    1.00
  -3   2  14   10.00    1.10
  -3   2  14    7.90    1.00
   2  -2 -14    2.80    0.60
   2  -2 -14    1.40    0.60
  -2   2  14    2.80    0.90
  -2   2  14    1.30    0.60
   1  -2 -14    5.00    0.80
   1  -2 -14    4.50    0.70
   1  -2 -14    3.00    1.00
  -1   2  14    3.90    0.70
  -1   2  14    3.20    0.90
   0  -2 -14    0.20    0.60
   0   2  14   -0.10    0.80
   0   2  14    0.30    0.60
  -1  -2 -14   23.40    1.70
  -1  -2 -14   28.00    1.50
   1   2  14   24.90    1.70
  -2  -2 -14    0.50    0.90
  -2  -2 -14    2.00    0.80
   2   2  14    1.60    1.20
  -3  -2 -14    1.00    0.80
  -3  -2 -14    2.20    0.90
   3   2  14    2.80    0.90
   6  -3 -14   70.89    2.70
  -6   3  14   70.79    2.90
  -6   3  14   70.59    2.50
  -5   3  14    1.00    0.70
  -5   3  14    1.30    0.70
   4  -3 -14   10.40    1.10
   4  -3 -14   11.20    1.20
  -4   3  14    9.90    1.10
  -4   3  14   14.30    1.60
   3  -3 -14    1.20    0.70
   3  -3 -14    1.90    0.60
  -3   3  14    1.90    0.90
  -3   3  14    0.80    0.60
   2  -3 -14    9.90    1.10
   2  -3 -14   10.50    1.10
  -2   3  14   13.10    1.60
  -2   3  14    8.70    1.10
   1  -3 -14   88.79    2.70
   1  -3 -14   86.19    2.60
   1  -3 -14   93.19    3.60
  -1   3  14   90.89    3.20
  -1   3  14   86.59    2.90
   0  -3 -14    0.90    0.60
   0  -3 -14    1.30    0.80
   0   3  14    2.40    1.50
   0   3  14    1.20    0.70
  -1  -3 -14   15.20    1.40
  -1  -3 -14   13.40    1.60
   1   3  14   15.40    1.40
  -2  -3 -14    5.10    1.20
  -2  -3 -14    7.80    1.00
   2   3  14    6.00    1.00
   6  -4 -14    0.60    0.80
  -6   4  14   -0.40    0.70
  -6   4  14    1.30    0.90
   5  -4 -14   -0.50    0.70
   5  -4 -14   -1.30    0.60
  -5   4  14    0.70    0.90
  -5   4  14    1.20    0.70
   4  -4 -14   37.20    1.70
   4  -4 -14   43.60    1.80
  -4   4  14   41.10    1.80
  -4   4  14   43.20    2.20
   3  -4 -14    2.60    0.70
   3  -4 -14    1.50    0.60
  -3   4  14    2.10    0.90
  -3   4  14    1.90    0.70
   2  -4 -14   68.39    2.20
   2  -4 -14   66.29    2.30
  -2   4  14   66.59    2.80
  -2   4  14   70.29    2.40
   1  -4 -14    1.30    0.60
  -1   4  14    0.90    0.90
  -1   4  14    0.40    0.60
   0  -4 -14   28.90    1.90
   0  -4 -14   28.20    1.60
   0   4  14   23.60    1.60
  -1  -4 -14    0.20    0.70
  -1  -4 -14    1.80    1.00
   1   4  14    0.80    0.80
  -2  -4 -14   38.20    2.00
  -2  -4 -14   40.90    2.20
   2   4  14   38.60    2.20
   5  -5 -14    1.80    0.70
  -5   5  14    0.50    0.70
  -5   5  14    2.30    0.90
   4  -5 -14   -0.40    0.60
   4  -5 -14   -0.10    0.70
  -4   5  14    0.60    0.90
  -4   5  14    0.10    0.60
   3  -5 -14   14.50    1.40
   3  -5 -14   19.00    1.20
  -3   5  14   22.00    1.80
  -3   5  14   18.40    1.40
   2  -5 -14    4.20    0.90
   2  -5 -14    3.60    0.70
  -2   5  14    2.90    0.80
  -2   5  14    2.60    1.00
   1  -5 -14    2.00    0.70
  -1   5  14    0.00    0.60
  -1   5  14    2.20    1.00
   0  -5 -14   -1.00    0.90
   0  -5 -14    0.00    0.70
   0   5  14    0.80    0.70
  -1  -5 -14    0.80    0.70
  -1  -5 -14   -0.90    0.90
   1   5  14   -0.10    0.70
   3  -6 -14    2.00    0.80
   3  -6 -14    3.60    0.70
  -3   6  14    3.50    0.80
  -3   6  14    5.00    1.10
   2  -6 -14    3.30    0.80
  -2   6  14    5.80    1.10
  -2   6  14    3.40    0.80
   1  -6 -14    3.40    0.90
  -1   6  14    3.00    0.80
  -1   6  14    4.80    1.60
   3   6 -15    3.10    1.10
  -3  -6  15    4.50    1.10
  -3  -6  15    5.30    1.40
   2   6 -15    0.70    0.90
  -2  -6  15    0.30    0.60
  -2  -6  15   -0.30    0.90
   1   6 -15   18.00    1.60
  -1  -6  15   18.80    1.50
  -1  -6  15   13.10    1.40
   0   6 -15    0.40    0.80
   0  -6  15   -1.00    1.00
   0  -6  15    1.40    0.70
   4   5 -15   -0.20    0.90
  -4  -5  15   -1.30    0.70
  -4  -5  15    1.20    0.70
   3   5 -15   -1.20    0.80
  -3  -5  15   -0.80    0.80
  -3  -5  15    0.70    0.70
   2   5 -15    5.10    1.00
  -2  -5  15    4.70    1.00
  -2  -5  15    5.50    1.10
   1   5 -15    6.50    1.00
  -1  -5  15    9.20    1.40
  -1  -5  15    8.80    1.10
   0   5 -15    3.90    0.90
   0  -5  15    5.30    1.10
   0  -5  15    5.30    0.90
  -1   5 -15   14.80    2.30
  -1   5 -15   16.90    1.50
   1  -5  15   17.00    1.40
   5   4 -15    5.70    1.10
  -5  -4  15    6.70    1.00
  -5  -4  15    6.80    1.00
   4   4 -15   83.19    3.00
  -4  -4  15   84.89    3.00
  -4  -4  15   81.29    2.90
   3   4 -15    3.60    0.90
  -3  -4  15    4.30    1.40
  -3  -4  15    4.10    0.90
   2   4 -15   24.50    1.70
  -2  -4  15   27.00    1.80
  -2  -4  15   28.20    1.70
   1   4 -15    1.40    0.80
  -1  -4  15    2.20    0.70
  -1  -4  15    0.70    0.90
   0   4 -15    2.00    0.70
   0  -4  15    1.30    0.70
   0  -4  15   -0.10    0.90
  -1   4 -15    5.20    0.90
  -1   4 -15    4.90    1.10
   1  -4  15    5.40    0.90
  -2   4 -15    2.80    0.80
  -2   4 -15    2.60    1.00
   2  -4  15    3.60    0.80
   5   3 -15    2.00    0.90
  -5  -3  15    3.90    0.90
  -5  -3  15    3.40    0.80
   4   3 -15    5.80    0.90
  -4  -3  15    6.70    1.30
  -4  -3  15    9.40    1.40
   3   3 -15    6.40    1.00
  -3  -3  15    9.20    1.20
  -3  -3  15    4.80    1.00
   2   3 -15    1.00    0.70
  -2  -3  15    1.40    0.80
  -2  -3  15    2.40    0.80
   1   3 -15    0.60    0.70
  -1  -3  15    1.70    0.80
  -1  -3  15    0.90    0.60
   0   3 -15    3.90    0.80
   0  -3  15    4.10    0.80
   0  -3  15    4.80    0.80
  -1   3 -15    1.80    1.00
  -1   3 -15    1.40    0.70
   1  -3  15    1.50    0.70
  -2   3 -15    3.20    0.80
  -2   3 -15    6.20    0.80
  -2   3 -15    5.30    1.10
   2  -3  15    3.70    0.90
   6   2 -15    1.70    0.90
  -6  -2  15    1.60    0.80
  -6  -2  15    1.10    0.70
   5   2 -15    2.20    0.90
  -5  -2  15    2.70    0.80
  -5  -2  15    1.90    0.80
   4   2 -15    1.50    0.70
  -4  -2  15   -1.50    1.00
  -4  -2  15    0.50    0.70
   3   2 -15    0.40    0.70
  -3  -2  15    2.10    0.80
  -3  -2  15    0.40    0.60
   2   2 -15   39.00    1.80
  -2  -2  15   42.60    2.10
  -2  -2  15   41.60    2.10
   1   2 -15   -0.80    0.60
  -1  -2  15    0.70    0.80
  -1  -2  15    0.50    0.60
   0   2 -15    0.50    1.60
   0   2 -15    1.20    0.70
   0  -2  15    1.80    0.80
   0  -2  15    0.10    0.60
  -1   2 -15    1.60    1.00
  -1   2 -15    1.10    0.70
  -1   2 -15    2.30    0.70
   1  -2  15    3.50    0.80
  -2   2 -15    2.90    1.00
  -2   2 -15    4.30    0.80
   2  -2  15    5.20    0.80
   6   1 -15    3.70    1.00
  -6  -1  15    3.00    0.80
  -6  -1  15    2.20    0.80
   5   1 -15   39.30    2.00
  -5  -1  15   39.60    1.90
  -5  -1  15   39.30    2.00
   4   1 -15    3.20    0.80
  -4  -1  15    3.50    0.80
  -4  -1  15    3.20    0.90
   3   1 -15    1.70    0.60
  -3  -1  15    1.10    0.80
  -3  -1  15    1.00    0.60
   2   1 -15    5.20    0.80
  -2  -1  15    3.40    1.10
  -2  -1  15    5.80    1.00
   1   1 -15   -0.40    0.60
  -1  -1  15    1.20    0.70
  -1  -1  15   -1.10    0.70
   0   1 -15    4.20    1.30
   0   1 -15    6.10    1.10
   0   1 -15    7.00    0.80
   0  -1  15    6.30    1.00
   0  -1  15    3.20    1.00
  -1   1 -15   51.69    2.60
  -1   1 -15   55.49    2.00
  -1   1 -15   55.09    2.00
   1  -1  15   53.69    2.20
  -2   1 -15    2.60    0.80
  -2   1 -15    3.20    1.00
   2  -1  15    2.90    0.90
   6   0 -15  127.39    4.00
  -6   0  15  128.29    3.90
  -6   0  15  125.59    3.90
   5   0 -15   35.30    1.90
  -5   0  15   31.90    1.70
  -5   0  15   35.00    1.90
   4   0 -15    1.50    0.70
  -4   0  15    0.20    0.80
  -4   0  15    1.20    0.70
   3   0 -15   18.70    1.40
  -3   0  15   19.10    1.40
  -3   0  15   16.70    1.60
   2   0 -15    4.00    0.70
  -2   0  15    4.30    0.80
  -2   0  15    4.60    0.90
   1   0 -15   11.50    1.10
   1   0 -15    7.40    1.00
  -1   0  15    9.80    1.40
   0   0 -15   16.20    1.10
   0   0 -15   21.30    2.00
   0   0 -15   15.20    1.20
   0   0  15   18.90    1.80
   0   0  15   20.70    1.40
  -1   0 -15   16.10    2.00
  -1   0 -15   15.70    1.30
  -2   0 -15    2.80    1.00
  -2   0 -15    3.80    0.80
   2   0  15    1.80    0.80
   6  -1 -15   48.40    2.30
  -6   1  15   50.29    2.10
  -6   1  15   50.59    2.30
   5  -1 -15    1.50    0.80
  -5   1  15    1.20    0.70
  -5   1  15    2.00    0.70
   4  -1 -15    1.10    0.70
  -4   1  15   -0.10    0.60
   3  -1 -15   21.40    1.40
  -3   1  15   17.70    1.60
  -3   1  15   20.20    1.50
   2  -1 -15    2.90    0.70
   2  -1 -15    3.30    0.80
  -2   1  15    3.90    0.80
  -2   1  15    3.30    0.90
   1  -1 -15    9.80    1.00
   1  -1 -15    7.00    1.00
  -1   1  15    6.00    0.90
  -1   1  15    5.10    1.00
   0  -1 -15   20.10    1.30
   0  -1 -15   26.30    1.90
   0   1  15   19.90    1.90
   0   1  15   23.10    1.50
  -1  -1 -15   25.70    1.60
  -1  -1 -15   28.80    2.10
   1   1  15   24.10    1.70
  -2  -1 -15   13.80    1.50
  -2  -1 -15   14.70    1.90
   2   1  15   19.30    1.70
   6  -2 -15   11.50    1.50
  -6   2  15   10.80    1.50
   5  -2 -15    1.00    0.80
  -5   2  15    0.80    0.90
  -5   2  15    0.10    0.70
   4  -2 -15   13.80    1.30
  -4   2  15   14.60    1.30
  -4   2  15   12.00    1.60
   3  -2 -15    1.90    0.70
  -3   2  15    2.00    0.70
  -3   2  15    0.40    0.80
   2  -2 -15    4.20    0.70
   2  -2 -15    5.50    0.70
  -2   2  15    4.70    1.00
  -2   2  15    4.20    0.80
   1  -2 -15   17.80    1.30
   1  -2 -15   16.90    1.10
  -1   2  15   19.50    1.40
  -1   2  15   15.30    1.80
   0  -2 -15    0.20    1.00
   0  -2 -15    0.20    0.70
   0   2  15    1.10    0.70
  -1  -2 -15   11.80    1.70
  -1  -2 -15   11.40    1.30
   1   2  15   13.60    1.60
  -2  -2 -15    0.90    0.90
  -2  -2 -15    0.90    0.80
   2   2  15    2.30    1.60
   5  -3 -15    1.10    0.80
  -5   3  15    2.50    1.00
  -5   3  15    2.80    0.80
   4  -3 -15    8.40    1.00
  -4   3  15   10.50    1.60
  -4   3  15    7.10    0.90
   3  -3 -15   -0.60    0.60
  -3   3  15    1.00    0.70
  -3   3  15    0.90    0.90
   2  -3 -15   22.60    1.30
   2  -3 -15   22.50    1.40
  -2   3  15   18.70    1.90
  -2   3  15   21.30    1.50
   1  -3 -15    4.00    0.70
  -1   3  15    2.30    0.80
  -1   3  15    3.40    1.20
   0  -3 -15   16.20    1.40
   0  -3 -15   14.30    1.80
   0   3  15   14.50    1.50
  -1  -3 -15   15.50    1.50
   1   3  15   14.00    1.90
   4  -4 -15    8.60    0.90
   4  -4 -15   11.50    1.30
  -4   4  15    7.30    1.00
  -4   4  15   10.30    1.40
   3  -4 -15   -0.40    0.70
   3  -4 -15    0.20    0.70
  -3   4  15    0.50    0.90
  -3   4  15    0.30    0.60
   2  -4 -15   32.80    1.70
  -2   4  15   34.00    2.20
  -2   4  15   31.20    1.80
   1  -4 -15    6.20    0.80
  -1   4  15    9.10    1.30
  -1   4  15    6.00    1.00
   0  -4 -15   49.00    2.10
   0  -4 -15   49.40    2.60
   0   4  15   49.40    2.20
   3   4 -16   11.30    1.20
  -3  -4  16   16.10    1.50
  -3  -4  16   14.10    1.60
   2   4 -16   26.80    1.80
  -2  -4  16   31.00    2.40
  -2  -4  16   29.90    2.00
   1   4 -16    1.20    0.90
  -1  -4  16    1.70    1.00
  -1  -4  16    2.40    1.00
   0  -4  16   33.10    1.90
   4   3 -16    1.50    0.90
  -4  -3  16    2.00    0.80
  -4  -3  16    0.90    0.90
   3   3 -16    1.40    0.90
  -3  -3  16    1.50    0.80
  -3  -3  16    1.30    0.90
   2   3 -16   10.10    1.40
  -2  -3  16   11.50    1.80
  -2  -3  16   11.80    1.50
   1   3 -16    4.10    0.80
  -1  -3  16    3.90    1.10
  -1  -3  16    5.30    1.10
   0   3 -16    6.30    0.90
   0  -3  16    7.30    1.20
   0  -3  16    9.50    1.50
   4   2 -16   15.80    1.50
  -4  -2  16   15.60    1.90
  -4  -2  16   13.40    1.70
   3   2 -16   20.30    1.60
  -3  -2  16   21.00    1.90
  -3  -2  16   20.70    1.70
   2   2 -16    0.20    0.70
  -2  -2  16    2.10    0.90
  -2  -2  16    2.50    0.80
   1   2 -16    0.70    0.70
  -1  -2  16    0.80    0.90
  -1  -2  16   -0.20    0.80
   0   2 -16   12.10    1.30
   0  -2  16   13.70    2.10
   0  -2  16   16.60    2.10
   1  -2  16    0.60    1.60
   4   1 -16   -0.70    0.70
  -4  -1  16    0.20    0.90
  -4  -1  16    1.60    0.80
   3   1 -16    4.10    0.90
  -3  -1  16    6.70    1.10
  -3  -1  16    6.40    0.90
   2   1 -16   -0.40    0.70
  -2  -1  16   -0.50    0.70
  -2  -1  16   -0.60    1.00
   1   1 -16   -0.40    0.70
  -1  -1  16    1.10    0.70
  -1  -1  16    1.10    1.00
   0   1 -16   -0.90    0.70
   0  -1  16   -0.30    0.70
  -1   1 -16    4.70    0.90
   1  -1  16    5.10    1.50
   4   0 -16  239.68    6.50
  -4   0  16  246.68    6.60
  -4   0  16  254.57    6.90
   3   0 -16   18.90    1.40
  -3   0  16   15.50    1.80
  -3   0  16   19.30    1.50
   2   0 -16    9.50    1.20
  -2   0  16   11.10    1.30
  -2   0  16    9.70    1.30
   1   0 -16   -0.70    0.70
  -1   0  16   -0.10    0.70
  -1   0  16    1.50    1.00
   0   0 -16    0.70    0.80
   0   0  16    0.20    0.70
   4  -1 -16   57.39    2.30
  -4   1  16   58.09    2.60
  -4   1  16   57.79    2.40
   3  -1 -16    7.20    0.90
  -3   1  16    5.60    1.00
  -3   1  16    6.20    1.20
   2  -1 -16   26.00    1.50
  -2   1  16   30.20    1.80
  -2   1  16   28.10    2.00
   1  -1 -16   29.10    1.50
  -1   1  16   35.30    2.10
  -1   1  16   30.00    2.10
   0  -1 -16    1.10    0.80
   0   1  16    2.10    0.80
   3  -2 -16    2.70    0.80
  -3   2  16    3.50    1.10
  -3   2  16    1.50    0.80
   2  -2 -16    4.60    0.70
  -2   2  16    3.20    1.10
  -2   2  16    3.30    0.90
   1  -2 -16    4.10    0.80
  -1   2  16    4.50    1.20
  -1   2  16    4.20    0.90
   0   0   0    0.00    0.00

_computing_structure_solution     'SHELXT 2014/5 (Sheldrick, 2014)'
;
_shelx_hkl_checksum              63563
loop_
_space_group_symop_operation_xyz
'x, y, z'
'-x, -y, -z'
loop_
_atom_site_label
_atom_site_type_symbol
_atom_site_fract_x
_atom_site_fract_y
_atom_site_fract_z
_atom_site_U_iso_or_equiv
_atom_site_adp_type
_atom_site_occupancy
_atom_site_site_symmetry_order
_atom_site_calc_flag
_atom_site_refinement_flags_posn
_atom_site_refinement_flags_adp
_atom_site_refinement_flags_occupancy
_atom_site_disorder_assembly
_atom_site_disorder_group
C1 C 0.16457(13) 0.45433(10) 0.48966(8) 0.01163(18) Uani 1 1 d . . . . .
H1 H 0.2777 0.4234 0.4828 0.014 Uiso 1 1 calc R U . . .
C2 C 0.15694(12) 0.58695(10) 0.55187(8) 0.01087(18) Uani 1 1 d . . . . .
C3 C 0.00983(13) 0.36512(10) 0.43678(8) 0.01122(18) Uani 1 1 d . . . . .
C21 C 0.33367(13) 0.66860(10) 0.60442(8) 0.01216(18) Uani 1 1 d . . . . .
O21 O 0.47208(10) 0.61184(8) 0.61855(7) 0.01835(17) Uani 1 1 d . . . . .
C22 C 0.48905(13) 0.88999(11) 0.69134(9) 0.01559(19) Uani 1 1 d . . . . .
H22A H 0.5699 0.9024 0.6354 0.019 Uiso 1 1 calc R U . . .
H22B H 0.5488 0.8375 0.7554 0.019 Uiso 1 1 calc R U . . .
O22 O 0.32184(9) 0.80821(8) 0.63439(7) 0.01505(16) Uani 1 1 d . . . . .
C23 C 0.44645(13) 1.03496(10) 0.73754(9) 0.01339(19) Uani 1 1 d . . . . .
C24 C 0.39159(14) 1.05269(11) 0.84311(9) 0.01549(19) Uani 1 1 d . . . . .
F24 F 0.36480(10) 0.93595(8) 0.90069(6) 0.02389(16) Uani 1 1 d . . . . .
C25 C 0.36421(15) 1.18713(13) 0.89254(10) 0.0197(2) Uani 1 1 d . . . . .
F25 F 0.31422(11) 1.19942(9) 0.99569(7) 0.03133(19) Uani 1 1 d . . . . .
C26 C 0.38935(16) 1.30801(12) 0.83348(11) 0.0223(2) Uani 1 1 d . . . . .
F26 F 0.36048(12) 1.43773(8) 0.88134(8) 0.0364(2) Uani 1 1 d . . . . .
C27 C 0.44087(16) 1.29738(12) 0.72757(11) 0.0215(2) Uani 1 1 d . . . . .
H27 H 0.4575 1.3808 0.6870 0.026 Uiso 1 1 calc R U . . .
C28 C 0.46754(14) 1.16076(12) 0.68251(9) 0.0169(2) Uani 1 1 d . . . . .
F28 F 0.51934(11) 1.14933(8) 0.57912(6) 0.02644(17) Uani 1 1 d . . . . .
C31 C 0.03107(13) 0.23129(11) 0.37412(9) 0.01302(18) Uani 1 1 d . . . . .
C32 C 0.05071(13) 0.11798(11) 0.32349(9) 0.01393(19) Uani 1 1 d . . . . .
C33 C 0.06848(13) -0.02003(10) 0.26557(9) 0.01273(18) Uani 1 1 d . . . . .
C34 C 0.10702(14) -0.03106(11) 0.15341(9) 0.01426(19) Uani 1 1 d . . . . .
H34 H 0.1185 0.0541 0.1141 0.017 Uiso 1 1 calc R U . . .
C35 C 0.12847(14) -0.16432(11) 0.09961(9) 0.01502(19) Uani 1 1 d . . . . .
H35 H 0.1546 -0.1704 0.0237 0.018 Uiso 1 1 calc R U . . .
C36 C 0.11172(14) -0.29041(11) 0.15676(9) 0.01396(19) Uani 1 1 d . . . . .
O36 O 0.14091(12) -0.41501(8) 0.09773(7) 0.01948(17) Uani 1 1 d . . . . .
C37 C 0.06880(15) -0.28181(11) 0.26678(9) 0.0161(2) Uani 1 1 d . . . . .
H37 H 0.0534 -0.3676 0.3048 0.019 Uiso 1 1 calc R U . . .
C38 C 0.04853(15) -0.14702(11) 0.32088(9) 0.0159(2) Uani 1 1 d . . . . .
H38 H 0.0208 -0.1413 0.3964 0.019 Uiso 1 1 calc R U . . .
C39 C 0.12079(18) -0.54717(12) 0.15135(11) 0.0239(2) Uani 1 1 d . . . . .
H39A H -0.0011 -0.5628 0.1656 0.036 Uiso 1 1 calc R U . . .
H39B H 0.2055 -0.5407 0.2251 0.036 Uiso 1 1 calc R U . . .
H39C H 0.1442 -0.6288 0.1001 0.036 Uiso 1 1 calc R U . . .
loop_
_atom_site_aniso_label
_atom_site_aniso_U_11
_atom_site_aniso_U_22
_atom_site_aniso_U_33
_atom_site_aniso_U_23
_atom_site_aniso_U_13
_atom_site_aniso_U_12
C1 0.0116(4) 0.0098(4) 0.0137(4) -0.0006(3) 0.0035(3) 0.0016(3)
C2 0.0109(4) 0.0090(4) 0.0126(4) 0.0004(3) 0.0024(3) 0.0003(3)
C3 0.0122(4) 0.0096(4) 0.0120(4) 0.0008(3) 0.0029(3) 0.0010(3)
C21 0.0125(4) 0.0107(4) 0.0130(4) -0.0009(3) 0.0032(3) -0.0002(3)
O21 0.0130(3) 0.0136(3) 0.0272(4) -0.0020(3) 0.0020(3) 0.0019(3)
C22 0.0110(4) 0.0125(4) 0.0211(5) -0.0054(4) 0.0013(3) -0.0008(3)
O22 0.0107(3) 0.0097(3) 0.0228(4) -0.0041(3) 0.0010(3) -0.0003(2)
C23 0.0122(4) 0.0115(4) 0.0151(4) -0.0020(3) 0.0012(3) -0.0007(3)
C24 0.0146(4) 0.0152(4) 0.0162(5) 0.0006(4) 0.0026(3) 0.0002(3)
F24 0.0275(4) 0.0228(3) 0.0231(3) 0.0074(3) 0.0084(3) -0.0006(3)
C25 0.0174(5) 0.0238(5) 0.0170(5) -0.0057(4) 0.0029(4) 0.0043(4)
F25 0.0318(4) 0.0412(5) 0.0223(4) -0.0084(3) 0.0114(3) 0.0071(3)
C26 0.0204(5) 0.0140(5) 0.0292(6) -0.0080(4) -0.0015(4) 0.0046(4)
F26 0.0383(5) 0.0183(4) 0.0484(5) -0.0142(3) 0.0003(4) 0.0107(3)
C27 0.0227(5) 0.0125(5) 0.0263(6) 0.0026(4) -0.0025(4) -0.0003(4)
C28 0.0171(5) 0.0171(5) 0.0148(5) -0.0001(4) 0.0009(4) -0.0021(4)
F28 0.0340(4) 0.0285(4) 0.0167(3) 0.0027(3) 0.0076(3) -0.0043(3)
C31 0.0113(4) 0.0121(4) 0.0157(4) 0.0003(3) 0.0031(3) 0.0007(3)
C32 0.0117(4) 0.0126(4) 0.0172(4) -0.0004(3) 0.0028(3) 0.0007(3)
C33 0.0111(4) 0.0106(4) 0.0159(4) -0.0019(3) 0.0022(3) 0.0014(3)
C34 0.0157(4) 0.0116(4) 0.0153(4) 0.0009(3) 0.0028(3) 0.0008(3)
C35 0.0169(5) 0.0150(4) 0.0131(4) -0.0017(3) 0.0040(3) 0.0014(3)
C36 0.0159(4) 0.0109(4) 0.0142(4) -0.0031(3) 0.0016(3) 0.0030(3)
O36 0.0297(4) 0.0114(3) 0.0175(4) -0.0042(3) 0.0057(3) 0.0053(3)
C37 0.0233(5) 0.0107(4) 0.0148(4) 0.0010(3) 0.0044(4) 0.0029(4)
C38 0.0212(5) 0.0127(4) 0.0143(4) -0.0012(3) 0.0058(4) 0.0025(4)
C39 0.0369(6) 0.0114(5) 0.0231(5) -0.0017(4) 0.0039(5) 0.0071(4)
loop_
_atom_type_symbol
_atom_type_description
_atom_type_scat_dispersion_real
_atom_type_scat_dispersion_imag
_atom_type_scat_source
C C 0.0033 0.0016 'International Tables Vol C Tables 4.2.6.8 and 6.1.1.4'
H H 0.0000 0.0000 'International Tables Vol C Tables 4.2.6.8 and 6.1.1.4'
F F 0.0171 0.0103 'International Tables Vol C Tables 4.2.6.8 and 6.1.1.4'
O O 0.0106 0.0060 'International Tables Vol C Tables 4.2.6.8 and 6.1.1.4'
loop_
_geom_angle_atom_site_label_1
_geom_angle_atom_site_label_2
_geom_angle_atom_site_label_3
_geom_angle
_geom_angle_site_symmetry_1
_geom_angle_site_symmetry_3
_geom_angle_publ_flag
C2 C1 C3 121.90(9) . . ?
C2 C1 H1 119.1 . . ?
C3 C1 H1 119.1 . . ?
C1 C2 C3 119.96(8) . 2_566 ?
C1 C2 C21 115.51(8) . . ?
C3 C2 C21 124.52(8) 2_566 . ?
C1 C3 C2 118.14(8) . 2_566 ?
C1 C3 C31 117.85(8) . . ?
C2 C3 C31 124.01(9) 2_566 . ?
O21 C21 O22 123.96(9) . . ?
O21 C21 C2 122.98(9) . . ?
O22 C21 C2 113.06(8) . . ?
O22 C22 C23 107.65(8) . . ?
O22 C22 H22A 110.2 . . ?
C23 C22 H22A 110.2 . . ?
O22 C22 H22B 110.2 . . ?
C23 C22 H22B 110.2 . . ?
H22A C22 H22B 108.5 . . ?
C21 O22 C22 114.92(8) . . ?
C24 C23 C28 115.65(9) . . ?
C24 C23 C22 121.06(9) . . ?
C28 C23 C22 123.20(9) . . ?
F24 C24 C25 118.14(10) . . ?
F24 C24 C23 119.31(9) . . ?
C25 C24 C23 122.55(10) . . ?
F25 C25 C26 120.80(10) . . ?
F25 C25 C24 120.50(11) . . ?
C26 C25 C24 118.70(10) . . ?
F26 C26 C27 120.09(11) . . ?
F26 C26 C25 118.35(11) . . ?
C27 C26 C25 121.56(10) . . ?
C26 C27 C28 117.37(10) . . ?
C26 C27 H27 121.3 . . ?
C28 C27 H27 121.3 . . ?
F28 C28 C27 117.83(10) . . ?
F28 C28 C23 118.02(9) . . ?
C27 C28 C23 124.14(10) . . ?
C32 C31 C3 178.70(11) . . ?
C31 C32 C33 177.53(11) . . ?
C38 C33 C34 118.72(9) . . ?
C38 C33 C32 120.04(9) . . ?
C34 C33 C32 121.24(9) . . ?
C35 C34 C33 120.72(9) . . ?
C35 C34 H34 119.6 . . ?
C33 C34 H34 119.6 . . ?
C34 C35 C36 120.06(9) . . ?
C34 C35 H35 120.0 . . ?
C36 C35 H35 120.0 . . ?
O36 C36 C37 124.75(9) . . ?
O36 C36 C35 115.33(9) . . ?
C37 C36 C35 119.91(9) . . ?
C36 O36 C39 117.36(9) . . ?
C38 C37 C36 119.73(9) . . ?
C38 C37 H37 120.1 . . ?
C36 C37 H37 120.1 . . ?
C37 C38 C33 120.83(9) . . ?
C37 C38 H38 119.6 . . ?
C33 C38 H38 119.6 . . ?
O36 C39 H39A 109.5 . . ?
O36 C39 H39B 109.5 . . ?
H39A C39 H39B 109.5 . . ?
O36 C39 H39C 109.5 . . ?
H39A C39 H39C 109.5 . . ?
H39B C39 H39C 109.5 . . ?
loop_
_geom_bond_atom_site_label_1
_geom_bond_atom_site_label_2
_geom_bond_distance
_geom_bond_site_symmetry_2
_geom_bond_publ_flag
C1 C2 1.3931(13) . ?
C1 C3 1.4039(13) . ?
C1 H1 0.9500 . ?
C2 C3 1.4114(13) 2_566 ?
C2 C21 1.4989(13) . ?
C3 C2 1.4114(13) 2_566 ?
C3 C31 1.4305(13) . ?
C21 O21 1.2113(12) . ?
C21 O22 1.3290(11) . ?
C22 O22 1.4554(12) . ?
C22 C23 1.4936(13) . ?
C22 H22A 0.9900 . ?
C22 H22B 0.9900 . ?
C23 C24 1.3862(14) . ?
C23 C28 1.3870(14) . ?
C24 F24 1.3398(12) . ?
C24 C25 1.3824(15) . ?
C25 F25 1.3387(13) . ?
C25 C26 1.3800(17) . ?
C26 F26 1.3403(12) . ?
C26 C27 1.3747(18) . ?
C27 C28 1.3800(15) . ?
C27 H27 0.9500 . ?
C28 F28 1.3475(13) . ?
C31 C32 1.2017(14) . ?
C32 C33 1.4312(13) . ?
C33 C38 1.3972(14) . ?
C33 C34 1.4038(14) . ?
C34 C35 1.3801(14) . ?
C34 H34 0.9500 . ?
C35 C36 1.3991(14) . ?
C35 H35 0.9500 . ?
C36 O36 1.3576(12) . ?
C36 C37 1.3923(14) . ?
O36 C39 1.4285(14) . ?
C37 C38 1.3915(14) . ?
C37 H37 0.9500 . ?
C38 H38 0.9500 . ?
C39 H39A 0.9800 . ?
C39 H39B 0.9800 . ?
C39 H39C 0.9800 . ?
loop_
_publcif_info_cif.paper_type
?
