#------------------------------------------------------------------------------
#$Date: 2019-11-22 23:20:33 +0200 (Fri, 22 Nov 2019) $
#$Revision: 231550 $
#$URL: file:///home/coder/svn-repositories/cod/cif/4/00/33/4003376.cif $
#------------------------------------------------------------------------------
#
# This file is available in the Crystallography Open Database (COD),
# http://www.crystallography.net/
#
# All data on this site have been placed in the public domain by the
# contributors.
#
data_4003376
loop_
_publ_author_name
'Fateev, Sergey A.'
'Petrov, Andrey A.'
'Khrustalev, Victor N.'
'Dorovatovskii, Pavel V.'
'Zubavichus, Yan V.'
'Goodilin, Eugene A.'
'Tarasov, Alexey B.'
_publ_section_title
;
 Solution Processing of Methylammonium Lead Iodide Perovskite from
 \g-Butyrolactone: Crystallization Mediated by Solvation Equilibrium
;
_journal_issue                   15
_journal_name_full               'Chemistry of Materials'
_journal_page_first              5237
_journal_paper_doi               10.1021/acs.chemmater.8b01906
_journal_volume                  30
_journal_year                    2018
_chemical_formula_moiety         'I8 Pb3, C4 H6 O2, 2(C H6 N)'
_chemical_formula_sum            'C6 H18 I8 N2 O2 Pb3'
_chemical_formula_weight         1787.02
_space_group_crystal_system      monoclinic
_space_group_IT_number           12
_space_group_name_Hall           '-C 2y'
_space_group_name_H-M_alt        'C 1 2/m 1'
_atom_sites_solution_hydrogens   difmap
_atom_sites_solution_primary     difmap
_atom_sites_solution_secondary   difmap
_audit_creation_method           SHELXL-2014/6
_cell_angle_alpha                90
_cell_angle_beta                 101.80(3)
_cell_angle_gamma                90
_cell_formula_units_Z            2
_cell_length_a                   21.822(4)
_cell_length_b                   4.5979(9)
_cell_length_c                   16.653(3)
_cell_measurement_reflns_used    600
_cell_measurement_temperature    100(2)
_cell_measurement_theta_max      32.0
_cell_measurement_theta_min      2.0
_cell_volume                     1635.6(6)
_computing_cell_refinement       'iMosflm (Battye et al., 2011)'
_computing_data_collection       'Marccd (Doyle, 2011)'
_computing_data_reduction        iMosflm
_computing_molecular_graphics    'SHELXTL (Sheldrick, 2015)'
_computing_publication_material  SHELXTL
_computing_structure_refinement  'SHELXL (Sheldrick, 2015)'
_computing_structure_solution    'SHELXT (Sheldrick, 2015)'
_diffrn_ambient_temperature      100(2)
_diffrn_measured_fraction_theta_full 0.980
_diffrn_measured_fraction_theta_max 0.951
_diffrn_measurement_device_type  'Rayonix SX165 CCD'
_diffrn_measurement_method       '/f scan'
_diffrn_radiation_type           synchrotron
_diffrn_radiation_wavelength     0.96990
_diffrn_reflns_av_R_equivalents  0.0886
_diffrn_reflns_av_unetI/netI     0.1958
_diffrn_reflns_Laue_measured_fraction_full 0.980
_diffrn_reflns_Laue_measured_fraction_max 0.951
_diffrn_reflns_limit_h_max       27
_diffrn_reflns_limit_h_min       -27
_diffrn_reflns_limit_k_max       5
_diffrn_reflns_limit_k_min       -5
_diffrn_reflns_limit_l_max       20
_diffrn_reflns_limit_l_min       -21
_diffrn_reflns_number            7812
_diffrn_reflns_point_group_measured_fraction_full 0.980
_diffrn_reflns_point_group_measured_fraction_max 0.951
_diffrn_reflns_theta_full        35.587
_diffrn_reflns_theta_max         38.348
_diffrn_reflns_theta_min         1.705
_exptl_absorpt_coefficient_mu    25.955
_exptl_absorpt_correction_T_max  0.770
_exptl_absorpt_correction_T_min  0.070
_exptl_absorpt_correction_type   multi-scan
_exptl_absorpt_process_details   'Scala (Evans, 2006)'
_exptl_crystal_colour            colourless
_exptl_crystal_density_diffrn    3.629
_exptl_crystal_description       needle
_exptl_crystal_F_000             1508
_exptl_crystal_size_max          0.21
_exptl_crystal_size_mid          0.02
_exptl_crystal_size_min          0.01
_refine_diff_density_max         4.890
_refine_diff_density_min         -3.734
_refine_diff_density_rms         0.559
_refine_ls_extinction_coef       0.00026(2)
_refine_ls_extinction_expression Fc^*^=kFc[1+0.001xFc^2^\l^3^/sin(2\q)]^-1/4^
_refine_ls_extinction_method     SHELXL
_refine_ls_goodness_of_fit_ref   0.887
_refine_ls_hydrogen_treatment    constr
_refine_ls_matrix_type           full
_refine_ls_number_parameters     68
_refine_ls_number_reflns         1923
_refine_ls_number_restraints     16
_refine_ls_restrained_S_all      0.885
_refine_ls_R_factor_all          0.1100
_refine_ls_R_factor_gt           0.0862
_refine_ls_shift/su_max          0.002
_refine_ls_shift/su_mean         0.000
_refine_ls_structure_factor_coef Fsqd
_refine_ls_weighting_details
'w=1/[\s^2^(Fo^2^)+100P] where P=(Fo^2^+2Fc^2^)/3'
_refine_ls_weighting_scheme      calc
_refine_ls_wR_factor_gt          0.1989
_refine_ls_wR_factor_ref         0.2224
_reflns_Friedel_coverage         0.000
_reflns_number_gt                1273
_reflns_number_total             1923
_reflns_threshold_expression     'I > 2\s(I)'
_cod_data_source_file            cm8b01906_si_002.cif
_cod_data_source_block           igla1
_cod_original_sg_symbol_H-M      'C 2/m'
_cod_database_code               4003376
_shelx_space_group_comment
;
The symmetry employed for this shelxl refinement is uniquely defined
by the following loop, which should always be used as a source of
symmetry information in preference to the above space-group names.
They are only intended as comments.
;
_shelx_estimated_absorpt_t_min   0.072
_shelx_estimated_absorpt_t_max   0.779
_shelxl_version_number           2014/6
_shelx_res_file
;
TITL igla1 in C2/m
CELL 0.96990  21.8216   4.5979  16.6531  90.000 101.799  90.000
ZERR    2.00   0.0044   0.0009   0.0033   0.000   0.030   0.000
LATT 7
SYMM -X, +Y, -Z
SFAC C H N O I Pb
DISP C 0.007 0.003 25.571
DISP H -0 0 0.636
DISP N 0.013 0.007 47.42
DISP O 0.021 0.012 81.964
DISP I -0.034 3.136 18629.286
DISP Pb -9.900 4.074 21889.318
UNIT 12 36 4 4 16 6
TEMP -173.0
SIZE 0.01 0.02 0.21

OMIT     7   3  12
OMIT   -10   0  20
OMIT   -25   1   2
OMIT    -2   0   1
OMIT    13   5   2
OMIT   -24   0   9
OMIT     9   5   7
OMIT    -6   0   4
OMIT    14   4   8
OMIT    -8   4  15
OMIT    14   4   7
OMIT    -7   1  18
OMIT   -24   0  13
OMIT    -6   0   3
OMIT   -18   0  18
OMIT   -12   0  20
OMIT    -6   4  15
OMIT     9   3  14
OMIT    -5   1   1
OMIT    -9   5   9
OMIT    -2   0   3
OMIT    13   5   1
OMIT    11   5   3
OMIT   -16   0  18
OMIT   -16   4  10
OMIT     6   0   1
OMIT    -6   2   4
OMIT   -20   4   2
OMIT    11   5   2
OMIT   -16   0  19
OMIT   -13   5   2
OMIT   -24   0  12
OMIT    18   4   3
OMIT   -26   0   4
OMIT   -14   4  13
OMIT    22   0   9
OMIT    -2   0   6
OMIT    11   3  11
OMIT     5   1   7
OMIT    10   4  10
OMIT     2   2   3
OMIT   -15   1   7
OMIT    -7   5   8
OMIT    -8   2   4
OMIT   -15   3   2
OMIT   -11   1   4
OMIT     3   1   0
OMIT   -11   1   2
OMIT    -6   0   8
OMIT   -21   1   7
OMIT    -3   1   2
OMIT   -11   1   8
OMIT   -11   1   5
OMIT     6   4  10
OMIT    -1   5  11
OMIT     4   0   4
OMIT    -8   0   5
OMIT   -13   5   3
L.S. 124
BOND $H
ACTA
CONF
FLAT 0.001 O1 O2 C2 C3 C5
DFIX 1.210 0.001 C2 O2
DFIX 1.360 0.001 O1 C2
DFIX 1.440 0.001 O1 C5
DFIX 1.500 0.001 C2 C3
DFIX 1.520 0.001 C3 C4 C4 C5
DFIX 2.220 0.001 O1 O2
DFIX 2.460 0.001 O2 C3
DFIX 2.360 0.001 O1 C4
DFIX 2.370 0.001 C2 C4
DFIX 2.300 0.001 C2 C5
DFIX 2.345 0.001 O1 C3
DFIX 2.375 0.001 C3 C5
DFIX 1.475 0.001 N1 C1
EADP N1 C1
EADP O1 O2 C2 C3 C4 C5

WGHT    0.000000  100.000000
EXTI    0.000259
FVAR       0.10563
PB1   6    0.586558    0.500000    0.749392    10.50000    0.03803    0.03085 =
         0.02880    0.00000    0.00162    0.00000
PB2   6    0.500000    1.000000    0.500000    10.25000    0.02669    0.02775 =
         0.02595    0.00000   -0.00005    0.00000
I1    5    0.688378    0.000000    0.798549    10.50000    0.03211    0.03557 =
         0.05440    0.00000   -0.00778    0.00000
I2    5    0.544681    0.500000    0.912369    10.50000    0.08357    0.05443 =
         0.03340    0.00000    0.01460    0.00000
I3    5    0.478030    1.000000    0.686191    10.50000    0.02602    0.03701 =
         0.02588    0.00000    0.00199    0.00000
I4    5    0.394069    0.500000    0.453975    10.50000    0.02513    0.03174 =
         0.03288    0.00000    0.00070    0.00000
PART   1
N1    3    0.892338    0.500000    0.907541    10.50000    0.06641    0.04111 =
         0.25164    0.00000   -0.07276    0.00000
AFIX   3
H1A   2    0.924748    0.500000    0.951671    10.50000   -1.50000
H1B   2    0.894738    0.339730    0.876271    11.00000   -1.50000
AFIX   0
C1    1    0.832302    0.500000    0.935220    10.50000    0.06641    0.04111 =
         0.25164    0.00000   -0.07276    0.00000
AFIX   3
H1C   2    0.797142    0.500000    0.887980    10.50000   -1.50000
H1D   2    0.829912    0.672580    0.968980    11.00000   -1.50000
AFIX   0
PART   2
O1    4    0.824932    0.559095    0.735379    10.25000    0.03705    0.09182 =
         0.07877   -0.02903    0.01977   -0.02597
O2    4    0.863624    0.958785    0.801821    10.25000    0.03705    0.09182 =
         0.07877   -0.02903    0.01977   -0.02597
C2    1    0.841032    0.845068    0.737115    10.25000    0.03705    0.09182 =
         0.07877   -0.02903    0.01977   -0.02597
C3    1    0.826299    0.968933    0.652039    10.25000    0.03705    0.09182 =
         0.07877   -0.02903    0.01977   -0.02597
AFIX   3
H3A   2    0.864549    1.000253    0.629359    10.25000   -1.20000
H3B   2    0.805029    1.159443    0.651159    10.25000   -1.20000
AFIX   0
C4    1    0.781485    0.747288    0.604197    10.25000    0.03705    0.09182 =
         0.07877   -0.02903    0.01977   -0.02597
AFIX   3
H4A   2    0.788045    0.729068    0.547317    10.25000   -1.20000
H4B   2    0.737055    0.795448    0.602727    10.25000   -1.20000
AFIX   0
C5    1    0.799048    0.468791    0.652578    10.25000    0.03705    0.09182 =
         0.07877   -0.02903    0.01977   -0.02597
AFIX   3
H5A   2    0.762399    0.340341    0.650948    10.25000   -1.20000
H5B   2    0.831029    0.361631    0.629908    10.25000   -1.20000
PART   0

AFIX   0
HKLF 4

REM  igla1 in C2/m
REM R1 =  0.0862 for    1273 Fo > 4sig(Fo)  and  0.1100 for all    1923 data
REM     68 parameters refined using     16 restraints

END

WGHT      0.0560      0.0000

REM Highest difference peak  4.890,  deepest hole -3.734,  1-sigma level  0.559
Q1    1   0.5810  0.5000  0.9279  10.50000  0.05    4.19
Q2    1   0.5069  1.0000  0.6418  10.50000  0.05    2.47
Q3    1   0.5514  0.5000  0.7871  10.50000  0.05    2.39
Q4    1   0.7271  0.0000  0.7682  10.50000  0.05    2.33
Q5    1   0.6203  0.6298  0.7235  11.00000  0.05    2.15
Q6    1   0.5395  0.9214  0.4686  11.00000  0.05    2.13
Q7    1   0.5476  1.0000  0.4725  10.50000  0.05    2.12
Q8    1   0.4728  0.5000  0.6955  10.50000  0.05    2.10
Q9    1   0.7112  1.0000  0.6096  10.50000  0.05    2.03
Q10   1   0.8352  0.5000  0.8313  10.50000  0.05    1.86
Q11   1   0.8377  0.5000  1.0189  10.50000  0.05    1.86
Q12   1   0.6188  0.5000  0.7009  10.50000  0.05    1.78
Q13   1   0.4420  1.0000  0.7298  10.50000  0.05    1.73
Q14   1   0.5000  0.5000  0.5000  10.25000  0.05    1.72
Q15   1   0.5206  0.5000  0.8285  10.50000  0.05    1.65
Q16   1   0.7602  1.0000  0.5962  10.50000  0.05    1.65
Q17   1   0.5600  0.7321  0.7105  11.00000  0.05    1.63
Q18   1   0.4376  0.4067  0.4310  11.00000  0.05    1.63
Q19   1   0.4176  0.5000  0.3968  10.50000  0.05    1.61
Q20   1   0.3601  0.5000  0.4878  10.50000  0.05    1.61
;
_shelx_res_checksum              42093
_shelx_hkl_file
;
  27   1  -1    0.37    7.76
  27   1  -2    7.38    9.13
  27   1  -3  116.02   39.05
  27   1  -4  101.71   34.74
  27   1  -5   47.70   19.30
  27   1  -6   21.57   12.07
 -27  -1   6    0.23   13.61
  27   1  -7  272.34   76.14
 -27  -1   7    8.28   85.41
  26   0  -1    2.95   20.36
  26   0  -1    5.67    5.30
  26   0  -2    9.11   25.60
  26   0  -2    1.37    4.77
  26   0  -3    3.95   22.51
  26   0  -3   -1.81    4.67
 -26   0   4    2.09   22.04
  26   0  -4   20.54   22.11
  26   0  -4    0.44    5.53
  26   0  -5   10.74   24.27
  26   0  -5   -0.22    5.19
 -26   0   6    2.83   22.13
  26   0  -6    8.42   19.06
  26   0  -6    0.47    5.28
 -26   0   7   11.30   22.70
  26   0  -7    2.41   16.16
  26   0  -7    1.62    7.58
 -26   0   8    0.23   23.63
  26   0  -8    1.32    7.62
 -26   0   9   -6.83   26.68
  26   0  -9   10.05   17.80
  26   0  -9   -0.58    7.71
 -26   0  10   -3.34   24.78
  26   0 -10   -6.21   19.22
 -26   0  11    1.74   25.12
  26   0 -11   -0.41   19.15
  26   2  -2   12.69    9.34
  26   2  -3    5.29    7.98
  26   2  -4   33.34   14.47
  26   2  -5    7.93    9.58
 -26  -2   5    0.42   14.06
  26   2  -6    8.55    8.40
 -26  -2   6    1.85   29.17
  25  -1  -1   -3.04   14.08
  25  -1  -1    1.65    4.24
  25   1  -1    2.66    4.43
 -25  -1   1   -3.28   15.08
 -25   1   2   11.41   53.88
  25  -1  -2    4.31   56.24
  25  -1  -2   -1.14   45.78
 -25  -1   2    1.51   50.49
  25  -1  -3  381.85   76.46
  25  -1  -3   -1.15   59.66
  25   1  -3  367.70   60.64
 -25  -1   3    4.04   67.68
  25  -1  -4   11.86   22.55
  25  -1  -4    1.46    5.40
  25   1  -4    8.23    6.69
 -25  -1   4    2.95   13.62
  25  -1  -5   12.88   27.30
  25  -1  -5    1.36    6.30
  25   1  -5   12.33    6.46
 -25  -1   5    2.49   13.76
  25  -1  -6  266.18   50.26
  25  -1  -6   -0.35   38.57
  25   1  -6  195.83   39.22
 -25   1   7   -1.38   22.55
  25  -1  -7  110.98   26.69
  25  -1  -7   -2.30   19.22
  25   1  -7  108.27   20.48
 -25  -1   7   38.47   26.14
 -25   1   8   -0.54   23.68
  25  -1  -8   41.20   27.60
  25  -1  -8    0.02    9.19
  25   1  -8   24.84    8.02
 -25  -1   8   -7.42   24.45
 -25   1   9    0.48   38.36
  25  -1  -9   18.74   22.63
  25  -1  -9    1.68    8.67
  25   1  -9    6.12    5.88
 -25  -1   9   -8.56   26.55
  25  -1 -10    0.00   19.34
  25   1 -10   11.61    9.80
 -25  -1  10   -3.84   26.39
  25  -1 -11    8.72   21.91
  25   1 -11    0.30   19.84
 -25  -1  11    0.00   28.24
  25  -1 -12    0.86   23.16
  25   1 -12    0.16   21.74
 -25  -1  12    0.72   30.58
 -24   0   1    7.97   27.58
  24   0  -1    2.03   17.28
  24   0  -1    9.02    5.44
 -24   0   2   -8.19   26.30
  24   0  -2   12.91   17.10
  24   0  -2   11.14    6.76
 -24   0   3   -8.78   22.47
  24   0  -3    5.90   17.94
  24   0  -3    1.85    5.26
 -24   0   4    1.48   22.40
  24   0  -4    2.08    4.43
 -24   0   5    2.27   18.55
  24   0  -5   31.46   17.28
  24   0  -5   32.64   11.85
 -24   0   6    5.01   25.72
  24   0  -6  160.84   37.08
  24   0  -6   81.80   29.36
 -24   0   7    7.13    8.07
  24   0  -7   18.52   17.58
  24   0  -7   17.65    9.86
 -24   0   8    2.05  149.73
  24   0  -8  472.52  154.96
  24   0  -8  432.17  122.22
 -24   0   9   -9.76   13.86
  24   0  -9    0.60   13.01
 -24   0  10   -4.22   15.01
  24   0 -10    5.32   12.37
  24   0 -10    0.75    6.35
 -24   0  11   11.65   25.34
  24   0 -11    7.95   16.81
  24   0 -11   -1.01    7.20
 -24   0  12    1.42   34.15
  24   0 -12  104.68   20.46
  24   0 -12    2.30   11.18
 -24   0  13   -8.21   30.46
  24   0 -13   24.40   19.13
  24   0 -13   -1.66    7.21
 -24   0  14    2.05   35.03
  24   0 -14   -5.47   21.36
  24   2  -1    6.36    5.38
 -24  -2   1    1.54   13.12
  24  -2  -2   -1.03   15.67
  24  -2  -2    1.10    6.46
  24   2  -2   10.31    5.35
 -24  -2   2    4.42   16.66
  24  -2  -3    8.60   24.24
  24  -2  -3   -0.05    6.74
  24   2  -3    1.42    4.79
  24  -2  -4    5.52   27.22
  24   2  -4    2.49    5.22
 -24  -2   4   -4.62   22.62
  24   2  -5   28.77   10.52
 -24  -2   5   -0.80   27.41
  24  -2  -6   56.42   27.92
  24   2  -6   58.57   18.74
 -24  -2   6    6.21   31.09
  24  -2  -7   10.26   25.25
  24   2  -7   12.46    7.19
 -24  -2   7    1.25   29.53
  24  -2  -8  260.79   97.28
  24   2  -8  296.58   79.16
 -24  -2   8   -9.47   97.17
  24  -2  -9  108.30   49.62
  24   2  -9  151.12   41.76
 -24  -2   9    5.41   43.10
  24   2 -10    0.78    8.57
 -24  -2  10    0.05   19.51
  24  -2 -11    5.47   22.23
  24   2 -11   -2.27    8.06
 -24  -2  11    6.28   20.60
 -23   1   1   -3.06   43.67
  23  -1  -1  129.95   47.75
  23  -1  -1   -0.18   38.43
  23   1  -1  281.85   39.37
 -23  -1   1    1.88   42.33
  23  -1  -2  288.97   93.59
  23   1  -2  277.42   75.76
 -23  -1   2   12.33   91.18
  23  -1  -3   86.48   24.91
  23  -1  -3    0.02   13.74
  23   1  -3   69.54   15.07
 -23  -1   3    4.23   26.45
  23  -1  -4   14.82   18.91
  23  -1  -4    0.68    5.28
  23   1  -4    6.10    6.32
 -23  -1   4    3.27   26.24
  23  -1  -5   14.66   18.48
  23  -1  -5    1.65    5.65
  23   1  -5    8.56    5.79
 -23  -1   5    5.35   22.99
 -23   1   6  -12.71   25.48
  23  -1  -6    5.98   19.44
  23  -1  -6    1.87    5.45
  23   1  -6    0.91    5.78
 -23  -1   6   -1.37   20.12
  23  -1  -7    7.76   14.69
  23  -1  -7    0.94    5.61
  23   1  -7   -2.69    5.69
 -23  -1   7   -6.45   21.16
  23  -1  -8   17.12   13.32
  23  -1  -8   -1.80    8.32
  23   1  -8   18.99    6.84
 -23  -1   8   10.71   20.47
 -23   1   9    2.66   33.28
  23  -1  -9    2.00   14.82
  23  -1  -9    0.51    7.05
  23   1  -9    0.01    6.06
 -23  -1   9    1.84   23.52
 -23   1  10  -24.33   42.68
  23  -1 -10    6.46   13.91
  23  -1 -10    3.68    7.51
  23   1 -10   12.10    7.20
 -23  -1  10   15.77   24.19
  23  -1 -11   -0.02   21.81
  23  -1 -11   -1.55    7.07
  23   1 -11    4.56    6.49
 -23  -1  11    2.21   26.18
  23  -1 -12   36.20   24.78
  23   1 -12   16.25   24.23
  23   1 -12   71.62   20.45
 -23  -1  12   35.07   28.15
  23  -1 -13    4.32   20.00
  23   1 -13   -1.20   18.74
  23   1 -13   22.02    9.47
 -23  -1  13   12.65   26.61
  23  -1 -14   24.08   26.63
  23   1 -14   10.04   25.28
  23   1 -14   90.73   23.29
 -23  -1  14   -7.18   31.04
  23   3  -1  155.18   41.04
 -23  -3   1   -0.74   43.19
  23   3  -2  164.32   44.18
 -23  -3   2   19.25   48.59
  23   3  -3   31.03   12.37
 -23  -3   3    3.54   15.23
  23   3  -4    6.38    8.12
 -23  -3   4    7.31   17.23
  23   3  -5    7.00    9.64
 -23  -3   5    5.03   21.65
  23   3  -6    1.63    7.35
 -23  -3   6   -0.86   23.36
  23   3  -7    0.93    9.02
 -23  -3   7   -2.35   24.14
  23   3  -8    1.12    7.44
 -23  -3   8   -1.25   24.87
 -22   0   1   10.65   22.51
  22   0  -1   15.05    7.74
 -22   0   2   10.26   19.07
  22   0  -2    2.45    5.54
 -22   0   3  141.65  125.21
  22   0  -3  355.69  100.43
 -22   0   4  202.41  194.00
  22   0  -4  544.93  151.85
 -22   0   5   -3.67   21.54
  22   0  -5   -0.55    5.45
 -22   0   6   14.48   22.89
  22   0  -6   57.51   20.00
  22   0  -6   49.60   17.28
 -22   0   7  496.59  255.79
  22   0  -7  756.85  257.45
  22   0  -7  620.84  197.61
 -22   0   8  131.91  178.65
  22   0  -8  518.57  182.21
  22   0  -8  495.50  142.00
 -22   0   9   -2.85   10.80
  22   0  -9   55.26   19.97
  22   0  -9   46.19   15.96
 -22   0  10    3.96    9.90
  22   0 -10   11.55   15.09
  22   0 -10   12.86    7.22
 -22   0  11    1.44   10.56
  22   0 -11    9.75   13.63
  22   0 -11   13.32    7.89
 -22   0  12   79.70   23.19
  22   0 -12   74.94   15.79
  22   0 -12   -1.94   10.96
 -22   0  13    9.95   25.94
  22   0 -13    1.54   16.55
  22   0 -13   -0.43    5.67
 -22   0  14    9.26   26.92
  22   0 -14   16.34   16.75
  22   0 -14   -0.54    6.33
 -22   0  15   15.55   38.83
  22   0 -15   -6.66   19.71
  22   0 -15   -0.36    6.24
 -22   0  16    3.44   52.29
  22   0 -16    1.24   20.44
  22  -2  -1    9.12   16.99
  22  -2  -1   -0.45    6.10
  22   2  -1   13.07    6.33
 -22  -2   1    7.27   14.55
  22  -2  -2   -2.41   26.55
  22  -2  -2    2.76    5.67
  22   2  -2    1.58    4.98
 -22  -2   2   -2.70   18.09
  22  -2  -3  227.06   93.48
  22   2  -3  285.00   75.73
 -22  -2   3   70.25   91.34
  22  -2  -4  302.55   83.09
  22  -2  -4    3.36   66.81
  22   2  -4  403.05   67.57
 -22  -2   4  167.23   80.58
  22  -2  -5   -2.55   22.74
  22  -2  -5    3.73    5.28
  22   2  -5    1.17    5.11
 -22  -2   5    2.90   14.09
  22  -2  -6   54.42   27.80
  22  -2  -6   -0.19    9.58
  22   2  -6   33.19    9.82
  22  -2  -7  681.36  208.67
  22   2  -7  493.01  161.30
 -22  -2   7  428.47  208.40
  22  -2  -8  432.53  107.98
  22  -2  -8    1.07   86.10
  22   2  -8  382.09   86.43
 -22  -2   8  730.83  112.84
  22  -2  -9   25.48   15.56
  22  -2  -9   -1.77   10.84
  22   2  -9   35.99    9.93
 -22  -2   9   13.53   28.70
  22  -2 -10    2.72   20.99
  22   2 -10    8.64    7.06
 -22  -2  10   -4.54   25.77
  22  -2 -11   12.07   17.40
  22   2 -11    6.38    7.17
 -22  -2  11   -1.39   27.80
  22  -2 -12   38.44   21.96
  22   2 -12   61.17   19.79
 -22  -2  12   16.62   18.82
  22  -2 -13  -10.36   21.50
  22   2 -13    1.90    6.00
 -22  -2  13   -4.50   27.34
  22  -2 -14    0.82   20.05
  22   2 -14    7.91    7.36
  21  -1  -1   12.44    7.17
  21   1  -1   16.84    7.74
  21  -1  -2   -1.82   15.24
  21  -1  -2    0.25    2.98
  21   1  -2    0.60    4.34
 -21  -1   2    1.57   18.88
  21  -1  -3   38.19   16.07
  21  -1  -3   34.51   14.72
  21   1  -3   39.13   15.27
 -21  -1   3   68.56   25.23
  21  -1  -4   17.37   15.29
  21  -1  -4   11.53    7.22
  21   1  -4   11.10    7.25
 -21  -1   4   28.24   23.70
 -21   1   5   28.82   20.06
  21  -1  -5   52.01   18.05
  21  -1  -5   50.55   18.78
  21   1  -5   54.50   18.57
 -21  -1   5   59.06   28.15
 -21   1   6    5.63   19.60
  21  -1  -6   -0.23   12.73
  21  -1  -6   -0.68    6.08
  21   1  -6    1.59    5.48
 -21   1   7   46.69   31.38
  21  -1  -7   78.91   26.73
  21  -1  -7   66.68   25.85
  21   1  -7   78.52   25.71
 -21  -1   7  109.46   33.10
  21  -1  -8    3.79   12.49
  21  -1  -8    5.19    6.02
 -21  -1   8   -6.28   19.92
 -21   1   9  141.74   64.18
  21  -1  -9  187.29   61.41
  21  -1  -9  141.37   52.52
  21   1  -9  177.77   52.38
 -21   1  10   24.42   30.97
  21  -1 -10   51.61   14.68
  21  -1 -10   -0.54   14.97
  21   1 -10   68.59   14.88
 -21  -1  10   67.82   22.34
 -21   1  11   14.99   31.43
  21  -1 -11   50.95   13.23
  21  -1 -11   -2.90   12.13
  21   1 -11   44.56   11.45
 -21  -1  11   43.38   22.26
  21  -1 -12   16.86   16.52
  21  -1 -12    1.12    9.09
  21   1 -12   15.51    7.43
 -21  -1  12   17.09   23.70
  21  -1 -13  641.61  130.09
  21  -1 -13    1.35  102.85
  21   1 -13  551.16  130.13
  21   1 -13  512.93  103.32
 -21  -1  13  284.50  126.52
  21  -1 -14  203.61   67.37
  21   1 -14  155.43   67.03
  21   1 -14  192.38   56.46
 -21  -1  14   39.30   60.61
  21  -1 -15    1.94   20.93
  21   1 -15    5.76   18.74
  21   1 -15    4.56    7.72
 -21  -1  15    2.31   36.63
  21  -1 -16    1.60   21.88
  21   1 -16   -1.42   17.15
  21   1 -16    5.04    6.71
  21   3  -1    9.83    8.10
 -21  -3   1   36.36   11.76
  21  -3  -2   -4.35   21.23
  21   3  -2    4.43    6.08
 -21  -3   2   -1.80   12.61
  21  -3  -3   13.37   19.49
  21   3  -3   17.03    9.29
  21  -3  -4    2.96   21.85
  21   3  -4   11.98    7.79
 -21  -3   4    7.22   14.34
  21  -3  -5   11.68   17.27
  21   3  -5   27.37   11.38
 -21  -3   5   24.01   14.28
  21  -3  -6   -9.31   20.27
  21   3  -6    0.45    5.97
 -21  -3   6  -10.13   21.33
  21  -3  -7    8.21   17.18
  21   3  -7   29.98   10.18
 -21  -3   7    2.16   11.58
  21  -3  -8   -5.30   19.86
  21   3  -8    2.44    6.44
 -21  -3   8   -0.11   15.00
  21  -3  -9    8.05   27.85
  21   3  -9   84.18   23.01
 -21  -3   9   31.58   28.16
  21  -3 -10   11.05   21.85
  21   3 -10   32.68   11.16
 -21  -3  10  -13.51   25.83
  21  -3 -11   11.27   18.64
  21   3 -11   19.67    9.12
 -21  -3  11  -11.04   27.49
  20   0  -1  164.61   53.04
  20   0  -2  724.29  226.36
 -20   0   3 1036.59  503.03
  20   0  -3 1267.58  380.45
 -20   0   4  168.77   65.32
 -20   0   5   14.93   17.95
  20   0  -5   13.85    7.78
 -20   0   6   28.89   20.81
  20   0  -6   44.12   15.11
 -20   0   7  321.86  147.37
  20   0  -7  379.33  116.23
 -20   0   8   17.68   20.13
  20   0  -8   21.61   14.68
  20   0  -8   18.71    9.20
 -20   0   9    9.60    9.25
  20   0  -9   45.17   16.94
  20   0  -9   37.36   13.75
  20   0 -10   -6.90   17.36
  20   0 -10   -0.44    4.58
 -20   0  11   19.59    8.57
  20   0 -11   27.51   14.57
  20   0 -11   27.03   11.76
 -20   0  12   -1.56   18.32
  20   0 -12    4.79   15.04
  20   0 -12   -2.17    6.48
 -20   0  13   43.61   21.14
  20   0 -13   40.53   15.59
  20   0 -13   37.12   14.51
 -20   0  14   31.88   24.07
  20   0 -14   22.25   15.30
  20   0 -14    0.15    6.44
  20   0 -15   15.58   19.72
  20   0 -15    1.80    5.63
 -20   0  16    3.51   39.54
  20   0 -16   -0.72   17.03
  20   0 -16    0.84    5.70
  20   0 -17   -3.39   22.62
  20  -2  -1  118.70   41.86
  20  -2  -1   78.86   36.11
  20   2  -1  111.21   36.22
 -20  -2   1  196.60   41.59
  20  -2  -2  467.60  194.92
  20  -2  -2  358.06  151.42
  20   2  -2  515.00  151.56
 -20  -2   2  794.67  195.62
  20  -2  -3  859.84  347.42
  20  -2  -3  664.40  264.36
  20   2  -3  956.22  264.43
 -20  -2   3 1078.95  347.12
  20  -2  -4   90.00   46.10
  20   2  -4  108.60   37.35
 -20  -2   4  150.08   42.53
  20  -2  -5    5.14   19.16
  20  -2  -5    4.25    5.69
  20   2  -5   13.24    6.96
 -20  -2   5    8.49   13.27
  20  -2  -6   26.99   17.18
  20   2  -6   27.93   11.48
 -20  -2   6   22.27   12.60
  20  -2  -7  211.80   80.57
  20  -2  -7  155.77   66.55
  20   2  -7  246.03   66.18
 -20  -2   7  228.24   79.77
  20  -2  -8   10.82   14.25
  20  -2  -8    7.87    9.14
  20   2  -8   10.83    6.35
 -20  -2   8    2.21    8.23
  20  -2  -9   26.10   14.08
  20  -2  -9   -2.46   10.12
  20   2  -9   32.35    9.99
 -20  -2   9   51.98   26.29
  20  -2 -10   -0.31   16.48
  20  -2 -10    0.88    7.95
  20   2 -10    0.60    5.37
 -20  -2  10   -3.75   35.11
  20  -2 -11   22.13   15.44
  20  -2 -11    1.78   10.16
  20   2 -11   18.56    7.47
 -20  -2  11   -1.90   24.91
  20  -2 -12    5.25   16.54
  20  -2 -12    5.01   10.04
  20   2 -12    4.77    7.32
 -20  -2  12   -0.04   22.14
  20  -2 -13   11.92   15.40
  20   2 -13   25.42   10.17
 -20  -2  13    4.69   21.84
  20  -2 -14    7.50   18.46
  20   2 -14   13.33    9.07
 -20  -2  14   10.36   25.22
  20  -2 -15   -1.59   18.61
  20   2 -15   14.14    8.75
 -20  -2  15   -1.21   27.31
 -20  -4   1   14.74   16.47
 -20  -4   2   31.24   19.38
 -20  -4   3  201.51   79.49
 -20  -4   4   22.59   17.80
 -20  -4   5    5.37   17.15
 -20  -4   6    4.56   16.91
 -19   1   1    0.70   19.89
  19  -1  -1   -1.78    9.47
  19  -1  -1    1.33    3.75
  19   1  -1   -0.28    4.07
 -19  -1   1   -2.80   11.59
 -19   1   2    3.11   19.74
  19  -1  -2   10.61    6.80
  19  -1  -2    3.12    4.82
  19   1  -2    4.60    4.80
 -19  -1   2    2.11   11.00
 -19   1   3   -5.84   17.61
  19  -1  -3    6.67    5.33
  19  -1  -3    2.35    5.47
  19   1  -3    6.53    5.46
 -19  -1   3   38.32   11.98
 -19   1   4   10.71   13.26
  19  -1  -4   14.26    6.01
  19  -1  -4   32.00   11.20
  19   1  -4   27.22   10.63
 -19  -1   4   17.84   14.03
 -19   1   5  174.58   57.11
  19  -1  -5  104.94   55.91
  19  -1  -5  153.02   48.02
  19   1  -5  146.11   47.96
 -19  -1   5  174.32   58.21
  19  -1  -6    8.32   10.24
  19  -1  -6    8.54    7.24
  19   1  -6   10.13    6.97
 -19  -1   6   22.60   24.03
  19  -1  -7  106.81   39.21
  19  -1  -7   81.15   35.15
  19   1  -7   94.65   34.88
 -19  -1   7  242.23   49.09
 -19   1   8 1124.71  351.00
  19  -1  -8  918.70  352.49
  19  -1  -8  764.27  268.00
 -19  -1   8  939.09  352.10
 -19   1   9  778.50  312.28
  19  -1  -9  699.91  314.02
  19  -1  -9  685.31  239.73
  19   1  -9  759.99  239.64
 -19  -1   9 1201.22  313.87
 -19   1  10    3.06   27.72
  19  -1 -10   10.11   10.94
  19  -1 -10   12.90    8.33
  19   1 -10   12.54    7.23
 -19  -1  10   12.06   18.92
 -19   1  11    8.22   29.51
  19  -1 -11   13.08   12.45
  19  -1 -11    5.05    6.93
  19   1 -11    4.44    5.92
 -19  -1  11    1.31   21.44
  19  -1 -12  154.68   32.11
  19  -1 -12   -0.34   29.30
  19   1 -12  148.02   29.83
 -19  -1  12  117.42   35.43
  19  -1 -13  672.76  143.87
  19  -1 -13    1.55  112.75
  19   1 -13  573.23  143.76
  19   1 -13  517.68  113.32
 -19  -1  13  610.68  142.74
  19  -1 -14   34.25   19.08
  19  -1 -14    0.03    8.71
  19   1 -14   32.45   18.60
  19   1 -14   24.86    8.82
 -19  -1  14   10.38    9.61
  19  -1 -15   48.63   20.56
  19  -1 -15   -0.15    9.28
  19   1 -15   14.57   16.96
  19   1 -15   28.81    9.34
 -19  -1  15   13.98   10.71
  19  -1 -16   10.19   19.54
  19  -1 -16    2.70    8.07
  19   1 -16   13.27    7.41
 -19  -1  16   19.68   25.47
  19  -1 -17    4.91   21.30
  19   1 -17   -5.82   16.68
  19   1 -17    1.13    6.99
 -19  -1  17    8.77   27.05
 -19   3   1   -2.07    5.83
  19  -3  -1    0.27    5.75
 -19  -3   1    4.03   12.20
  19   3  -2    1.91    4.96
 -19  -3   2   -1.13   12.04
  19  -3  -3    4.40   18.80
 -19  -3   3   -1.73   12.34
  19  -3  -4   16.68   19.38
  19   3  -4   23.32   10.61
 -19  -3   4   24.55   10.98
  19  -3  -5   59.72   35.43
  19   3  -5   93.76   32.23
 -19  -3   5  135.37   35.54
  19  -3  -6    1.05   16.21
  19   3  -6    8.95    6.65
 -19  -3   6   19.79   14.10
  19  -3  -7   31.16   19.39
  19   3  -7   49.14   18.01
 -19  -3   7   59.77   19.18
  19  -3  -8  147.06  126.98
  19   3  -8  428.48  102.53
 -19  -3   8   94.42  127.16
  19  -3  -9   49.41  110.58
  19   3  -9  365.56   91.18
 -19  -3   9  198.58  111.82
  19  -3 -10    5.11   16.74
  19   3 -10    4.91    7.09
 -19  -3  10    0.81   14.60
  19  -3 -11    6.26   13.63
  19   3 -11    4.70    7.71
 -19  -3  11    3.04   28.83
  19  -3 -12   14.77   26.74
  19   3 -12   84.05   22.24
 -19  -3  12   -6.51   31.08
  19  -3 -13   18.65   50.22
  19   3 -13  191.79   45.57
 -19  -3  13  -11.92   51.96
 -18   0   1   25.27   12.79
  18   0  -1   10.79    6.33
  18   0  -1   17.69    8.59
 -18   0   2 1394.39  322.03
 -18   0   2  528.96  244.76
  18   0  -2  686.65  322.81
  18   0  -2  957.16  245.10
 -18   0   3   96.37   23.47
 -18   0   3   44.28   21.81
  18   0  -3   37.74   22.11
  18   0  -3   91.49   22.58
 -18   0   4   77.82   18.12
 -18   0   4   30.89   14.34
  18   0  -4   19.42   11.41
  18   0  -4   48.03   14.77
 -18   0   5    1.08   13.49
  18   0  -5    1.80    4.77
 -18   0   6   52.08   23.17
  18   0  -6   69.46   22.75
 -18   0   7   -3.51   19.08
  18   0  -7    3.23    4.51
 -18   0   8    8.85   18.52
  18   0  -8    9.64    6.35
 -18   0   9   23.22   20.03
  18   0  -9   43.25   16.27
  18   0  -9   35.08   13.71
 -18   0  10   -3.75   11.89
  18   0 -10   -1.15   15.38
  18   0 -10    0.74    4.54
 -18   0  11   14.82   10.07
  18   0 -11   17.26   15.14
  18   0 -11    4.39    7.02
 -18   0  12   38.41   17.13
  18   0 -12   70.63   21.48
  18   0 -12   59.27   20.92
 -18   0  13   46.20   20.86
  18   0 -13   58.64   18.81
  18   0 -13   33.06   15.30
 -18   0  14  762.76  225.27
  18   0 -14  583.50  227.15
  18   0 -14  523.11  175.78
 -18   0  15  138.60   39.65
  18   0 -15   98.08   33.63
  18   0 -15   86.24   31.39
 -18   0  16    2.28   36.44
  18   0 -16   13.15   15.47
  18   0 -16    0.21    5.43
  18   0 -17   -2.41   19.59
  18   0 -17   -0.79    6.50
  18   0 -18  -13.10   23.09
  18   0 -18    1.13    5.73
  18  -2  -1   17.19    7.92
  18   2  -1   12.67    8.68
 -18  -2   1   29.86    9.93
  18  -2  -2  460.47  209.97
  18   2  -2  673.55  210.04
 -18  -2   2 1295.07  275.35
  18  -2  -3   45.29   21.34
  18  -2  -3   45.01   19.86
  18   2  -3   57.73   20.00
 -18  -2   3  105.57   20.97
  18  -2  -4   16.06    8.06
  18  -2  -4   14.62   10.10
  18   2  -4   32.07   10.29
 -18  -2   4   41.87   13.68
  18  -2  -5    1.40   16.14
  18  -2  -5   -1.57    6.13
  18   2  -5    0.97    5.21
  18  -2  -6    1.49   11.57
  18  -2  -6   24.45   11.54
  18   2  -6   32.85   10.56
 -18  -2   6   14.47   13.66
  18  -2  -7    1.36   13.90
  18  -2  -7    4.59    6.28
  18   2  -7    0.73    5.49
 -18  -2   7    2.24   12.94
  18  -2  -8    5.80   12.78
  18  -2  -8    9.15    7.67
  18   2  -8   12.85    7.73
 -18  -2   8   13.38   15.72
  18  -2  -9   10.04   13.18
  18  -2  -9    5.39    7.24
  18   2  -9   12.22    6.60
 -18  -2   9   10.17   12.66
  18  -2 -10    5.47   15.46
  18  -2 -10    1.78    7.42
 -18  -2  10   -8.53   26.82
  18  -2 -11    2.26   15.63
  18  -2 -11    1.66    8.45
  18   2 -11    0.23    5.28
 -18  -2  11    3.80   27.89
  18  -2 -12   47.14   15.34
  18  -2 -12   -0.89   14.70
  18   2 -12   50.34   12.08
 -18  -2  12   30.43   19.66
  18  -2 -13   26.72   14.72
  18   2 -13   27.14   12.16
  18  -2 -14  378.48   78.74
  18  -2 -14   -0.55   65.04
  18   2 -14  362.95   64.80
 -18  -2  14  100.34   77.02
  18  -2 -15   58.60   27.11
  18   2 -15   77.64   23.50
 -18  -2  15    6.87   29.25
  18  -2 -16   -0.86   18.15
  18   2 -16    7.72   23.12
  18   2 -16   13.67    8.59
 -18  -2  16   18.00   37.03
  18  -2 -17   -2.90   20.84
  18   2 -17    1.91    5.82
  18   4  -1   10.65    7.99
 -18  -4   1    2.52   10.66
 -18  -4   2  101.62   37.58
  18   4  -3   24.77   11.69
 -18  -4   3    7.14   10.69
  18  -4  -4   -0.15   21.76
 -18  -4   4    0.88   12.76
  18  -4  -5   -0.53   14.88
  18   4  -5    3.06    7.83
 -18  -4   5    1.75   12.48
  18  -4  -6    8.18   17.41
  18   4  -6    5.90    8.62
 -18  -4   6   20.37   16.82
  18  -4  -7   -1.65   19.47
  18   4  -7   -1.81    7.41
 -18  -4   7   -1.55   18.24
  18  -4  -8    5.59   21.74
  18   4  -8   -1.70    6.99
 -18  -4   8    4.38   17.31
  18  -4  -9   -1.49   22.41
 -17   1   1   11.16   11.33
 -17   1   1   18.76    8.77
  17  -1  -1   13.47    3.05
  17  -1  -1   12.39    6.17
  17  -1  -1   26.10    8.51
  17   1  -1   10.33    4.11
  17   1  -1   28.23    9.03
 -17  -1   1   33.12    8.30
 -17  -1   1   11.53    7.93
 -17   1   2   63.73   62.73
 -17   1   2  146.67   53.55
  17  -1  -2  140.20   64.63
  17  -1  -2  193.58   53.84
  17   1  -2   60.60   63.06
  17   1  -2  234.62   53.84
 -17  -1   2  279.25   64.64
 -17  -1   2  137.61   53.53
 -17   1   3  515.05  249.89
 -17   1   3  539.88  192.03
  17  -1  -3  543.60  251.42
  17  -1  -3  445.65  250.84
  17  -1  -3  842.10  192.38
  17   1  -3  363.93  251.35
  17   1  -3  828.97  192.31
 -17  -1   3  821.39  250.96
 -17  -1   3  433.45  191.97
 -17   1   4  697.66  487.47
 -17   1   4 1017.48  368.56
  17  -1  -4 1045.17  489.23
  17  -1  -4  718.82  489.15
  17  -1  -4 1536.74  368.88
  17   1  -4  861.00  489.64
  17   1  -4 1503.92  368.83
 -17  -1   4 2428.94  489.44
 -17  -1   4  840.22  368.53
 -17   1   5   74.13   30.53
  17  -1  -5   78.03   33.51
  17  -1  -5   54.60   33.72
  17  -1  -5  104.52   30.85
  17   1  -5   40.73   33.31
  17   1  -5  125.70   31.04
 -17  -1   5  149.63   34.64
 -17   1   6  150.99   42.12
 -17   1   6   72.71   35.26
  17  -1  -6  105.24   39.98
  17  -1  -6   41.44   39.76
  17  -1  -6  136.46   35.66
  17   1  -6  134.67   35.62
 -17  -1   6  113.27   40.45
 -17   1   7  233.27   69.65
 -17   1   7  109.93   57.72
  17  -1  -7  161.75   70.10
  17  -1  -7  191.65   58.13
  17   1  -7  201.12   58.06
 -17  -1   7  357.58   73.24
 -17   1   8 1399.53  644.94
  17  -1  -8 1319.21  646.89
  17  -1  -8 1551.28  485.83
  17   1  -8 1669.99  485.77
 -17  -1   8 1624.80  646.17
 -17   1   9   94.46   33.37
  17  -1  -9   85.52   31.27
  17  -1  -9   62.74   28.18
  17   1  -9   72.34   27.98
 -17  -1   9  196.01   35.92
 -17   1  10   59.68   31.20
  17  -1 -10   18.69   11.53
  17  -1 -10   25.22   12.58
  17   1 -10   28.18   11.64
 -17  -1  10   39.95   17.95
 -17   1  11   44.24   26.70
  17  -1 -11   29.53   12.62
  17  -1 -11   29.20   13.51
  17   1 -11   32.03   12.51
 -17  -1  11   39.26   18.85
  17  -1 -12   12.88   17.30
  17  -1 -12    3.12    5.65
  17   1 -12    3.84    5.43
 -17  -1  12    3.82   20.74
  17  -1 -13   31.55   20.33
  17   1 -13   38.06   17.07
 -17  -1  13  107.21   24.93
  17  -1 -14   11.16   18.75
  17  -1 -14    1.50    6.28
  17   1 -14    6.17   16.86
  17   1 -14    1.71    5.21
 -17  -1  14   -1.16   12.45
  17  -1 -15   75.48   20.07
  17  -1 -15    1.25   13.59
  17   1 -15   57.14   18.44
  17   1 -15   47.72   13.38
 -17  -1  15   48.39   14.84
  17  -1 -16    3.93   16.73
  17  -1 -16    3.64    7.19
  17   1 -16    4.51   15.17
  17   1 -16    4.26    6.58
 -17  -1  16   -0.76   23.90
  17  -1 -17   13.48   16.30
  17   1 -17   31.75   12.70
 -17  -1  17   54.93   27.94
  17  -1 -18    3.05   19.03
  17   1 -18    4.59   17.21
  17   1 -18   18.77   10.15
 -17  -1  18   32.40   40.20
  17  -3  -1   20.78   18.44
  17   3  -1   17.73    9.34
 -17  -3   1   18.86    9.96
  17  -3  -2   97.33   42.57
 -17  -3   2  126.49   42.38
  17  -3  -3  438.93  152.45
  17   3  -3  345.15  119.71
 -17  -3   3  429.77  152.70
  17  -3  -4  818.79  349.73
  17   3  -4  823.84  266.59
 -17  -3   4  970.05  350.57
  17  -3  -5   75.20   30.56
  17   3  -5   71.00   26.27
 -17  -3   5   98.17   27.99
  17  -3  -6   52.56   33.00
  17   3  -6  102.52   30.71
 -17  -3   6   89.47   33.14
  17  -3  -7   88.39   49.73
  17   3  -7  123.70   44.28
 -17  -3   7  217.72   52.06
  17  -3  -8  484.09  294.93
  17   3  -8  738.07  226.64
 -17  -3   8  896.50  296.08
  17  -3  -9   30.11   12.57
  17   3  -9   46.93   14.97
 -17  -3   9    5.06   14.73
  17  -3 -10   -2.47   11.11
  17   3 -10   11.78    8.48
 -17  -3  10   22.06   16.50
  17  -3 -11    7.88   14.49
  17   3 -11   18.45    9.53
 -17  -3  11   11.09   12.91
  17  -3 -12    7.87   12.56
  17   3 -12    7.33    6.69
 -17  -3  12    2.61   28.33
  17  -3 -13   -0.15   12.40
  17   3 -13   10.83    8.38
  17  -3 -14    8.82   18.80
  17   3 -14    2.60    6.06
 -17  -3  14    3.28   20.26
  17  -3 -15    2.76   19.47
  17   3 -15   13.95    8.08
 -16   0   1   13.67    9.06
 -16   0   1    9.52    5.65
  16   0  -1    3.76    5.59
  16   0  -1   16.68    6.72
 -16   0   2   17.24   13.50
 -16   0   2    1.50    3.57
  16   0  -2    2.93    4.06
  16   0  -2    3.68    4.87
 -16   0   3   -3.40   11.62
 -16   0   3    2.00    2.74
  16   0  -3   -0.62    5.26
  16   0  -3    1.55    3.51
 -16   0   4   26.21   11.14
 -16   0   4   15.38    7.67
  16   0  -4    7.52    1.84
  16   0  -4   26.88    8.68
 -16   0   5   60.55   20.49
 -16   0   5   39.84   17.17
  16   0  -5   33.69   15.74
  16   0  -5   65.02   17.58
 -16   0   6   -0.31   13.11
 -16   0   6    1.61    2.53
  16   0  -6    2.31    6.42
  16   0  -6   -0.98    4.45
 -16   0   7   15.96   10.81
 -16   0   7    8.07    5.76
  16   0  -7    7.45    3.74
  16   0  -7   19.27    6.71
 -16   0   8  154.02   46.23
 -16   0   8   92.01   39.76
  16   0  -8   71.87   45.84
  16   0  -8  168.81   40.06
 -16   0   9  882.64  191.86
 -16   0   9  283.64  148.11
  16   0  -9  559.39  192.50
  16   0  -9  559.54  148.40
 -16   0  10  273.94  147.47
  16   0 -10  400.29  149.91
  16   0 -10  382.36  116.66
  16   0 -11   21.81   16.91
  16   0 -11   14.48    8.36
 -16   0  12   70.76   19.74
  16   0 -12   70.01   22.85
  16   0 -12   59.01   21.83
 -16   0  13  410.09  141.35
  16   0 -13  543.44  143.31
  16   0 -13  292.96  112.08
 -16   0  14 1544.10  444.86
  16   0 -14 1238.61  446.83
  16   0 -14  969.58  338.15
  16   0 -15    6.55   12.16
  16   0 -15    8.02    6.92
 -16   0  16   32.54   32.47
  16   0 -16   10.50   11.99
  16   0 -16   12.46    7.71
  16   0 -17   24.75   20.83
  16   0 -17    2.28    5.19
  16   0 -18    6.94   20.16
  16   0 -18    1.65    4.72
  16   0 -19   -0.11   22.85
  16   0 -19    0.10    7.00
 -16   2   1    5.59    5.84
  16  -2  -1    4.86    4.72
  16  -2  -1    8.09    4.95
  16   2  -1   10.72    6.19
 -16  -2   1    9.80    5.07
 -16   2   2    0.90    3.80
  16  -2  -2   -0.96    9.29
  16  -2  -2    1.98    3.71
  16   2  -2    1.64    4.93
 -16  -2   2    6.24    7.56
 -16   2   3    1.50    4.20
  16  -2  -3    4.22    8.48
  16  -2  -3    3.54    8.59
  16  -2  -3    1.28    3.00
  16   2  -3   -0.11    4.88
 -16  -2   3   -0.75    7.87
 -16   2   4    7.18    5.81
  16  -2  -4    2.27    6.36
  16  -2  -4   10.50    6.85
  16   2  -4   17.66    7.09
 -16  -2   4   23.55   10.21
 -16   2   5   28.91   16.58
  16  -2  -5   58.28   17.51
  16   2  -5   57.43   16.97
 -16  -2   5   56.49   17.72
 -16   2   6    0.19    3.62
  16  -2  -6   -5.05   12.07
  16  -2  -6    1.04    4.77
  16   2  -6   -0.48    5.32
 -16  -2   6   -4.79   14.68
 -16   2   7    5.09    6.37
  16  -2  -7    3.77   11.35
  16  -2  -7    6.49    5.30
  16   2  -7   13.39    6.32
 -16  -2   7   27.74   13.36
 -16   2   8   29.80   20.01
  16  -2  -8   45.20   21.21
  16  -2  -8   61.75   20.61
  16  -2  -8   32.90   20.03
  16   2  -8  113.16   20.53
 -16  -2   8   76.13   21.24
  16  -2  -9  356.11  165.87
  16  -2  -9  326.10  129.71
  16   2  -9  511.42  129.74
 -16  -2   9  394.12  165.71
  16  -2 -10  245.22  106.32
  16  -2 -10  220.49   85.74
  16   2 -10  315.17   85.50
 -16  -2  10  292.17  107.18
  16  -2 -11   14.60   13.35
  16  -2 -11    6.31    9.23
  16   2 -11    9.81    6.43
 -16  -2  11   11.87   31.81
  16  -2 -12   49.26   18.71
  16   2 -12   52.03   17.98
 -16  -2  12   33.85   25.56
  16  -2 -13  247.17   98.80
  16   2 -13  253.12   80.17
  16  -2 -14  851.58  174.79
  16  -2 -14   -0.89  136.18
  16   2 -14  738.96  136.44
 -16  -2  14  407.35  172.99
  16  -2 -15    2.08   19.32
  16  -2 -15    1.14    5.04
  16   2 -15    2.42    5.26
 -16  -2  15    4.10   25.15
  16  -2 -16    8.95   19.79
  16   2 -16   -1.22   21.99
  16   2 -16    7.22    6.06
 -16  -2  16   -1.99   29.78
  16  -2 -17   -0.07   17.55
  16   2 -17    2.22   22.65
  16   2 -17   41.92   13.46
 -16  -2  17   20.40   30.33
  16   2 -18   26.90   12.87
  16  -4  -1   -6.69   16.55
  16   4  -1    4.09    6.21
 -16  -4   1   -1.72   13.21
  16  -4  -2    4.09   18.59
  16   4  -2    1.98    7.78
 -16  -4   2    1.46   12.04
  16   4  -3   -1.96    7.42
 -16  -4   3   -5.63   12.84
  16  -4  -4   -1.46   19.10
  16   4  -4    2.11    6.01
 -16  -4   4    3.60   11.68
  16  -4  -5    7.43   18.12
  16   4  -5   14.92    9.21
 -16  -4   5   12.95   10.31
  16  -4  -6   -0.25   14.14
  16   4  -6    0.22    7.12
 -16  -4   6    2.33   15.49
  16  -4  -7   -3.01   13.58
  16   4  -7    6.05    8.61
 -16  -4   7    3.00   12.01
  16  -4  -8    7.44   15.77
  16   4  -8   28.84   12.52
 -16  -4   8   21.24   13.00
  16  -4  -9   41.28   37.15
  16   4  -9  126.99   35.16
 -16  -4   9   72.36   37.78
  16  -4 -10   10.37   19.40
 -16  -4  10    5.92   18.69
  16  -4 -11   -4.13   19.83
  16   4 -11    1.14   10.08
 -16  -4  11    1.79   33.24
 -15   1   1   53.93   66.49
 -15   1   1  186.13   55.86
  15  -1  -1   41.27   67.49
  15  -1  -1  139.83   67.50
  15  -1  -1  200.31   56.02
  15   1  -1  125.87   67.71
  15   1  -1  230.83   56.12
 -15  -1   1  305.69   67.81
 -15  -1   1  157.62   55.76
  15  -1  -2   13.52   49.98
  15  -1  -2   67.16   50.21
  15  -1  -2  200.38   43.52
  15   1  -2  102.67   50.75
  15   1  -2  212.66   43.50
 -15  -1   2  135.75   50.57
 -15  -1   2   75.07   42.98
 -15   1   3  876.16  964.55
 -15   1   3 2325.58  722.26
  15  -1  -3 1336.91  966.70
  15  -1  -3 1586.65  966.24
  15  -1  -3 2796.38  722.48
  15   1  -3 1770.52  966.99
  15   1  -3 2652.62  722.42
 -15  -1   3 4504.34  966.64
 -15  -1   3 2074.84  722.24
 -15   1   4   95.05   93.31
 -15   1   4  260.86   75.77
  15  -1  -4  148.57   94.87
  15  -1  -4  197.64   94.12
  15  -1  -4  281.51   75.95
  15   1  -4  168.29   94.77
  15   1  -4  319.08   76.01
 -15  -1   4  232.93   94.07
 -15  -1   4  213.00   75.69
 -15   1   5   12.04   13.16
 -15   1   5    6.26    4.60
  15  -1  -5    4.90    4.90
  15  -1  -5    3.75    5.35
  15  -1  -5    7.07    4.73
  15   1  -5    1.80    1.53
  15   1  -5    6.37    4.45
 -15  -1   5    8.44   10.83
 -15  -1   5    4.96    4.20
 -15   1   6    7.63   16.57
 -15   1   6    7.25    5.01
  15  -1  -6   11.56    4.55
  15  -1  -6   10.11    6.88
  15  -1  -6   11.02    5.83
  15   1  -6    5.20    1.55
  15   1  -6   11.52    5.25
 -15  -1   6    8.89   10.34
 -15  -1   6    8.23    4.62
 -15   1   7   96.11   23.98
 -15   1   7   55.69   21.54
  15  -1  -7   58.94   21.95
  15  -1  -7   41.69   21.44
  15  -1  -7   84.16   21.91
  15   1  -7   29.18   21.02
  15   1  -7   84.94   21.96
 -15  -1   7   84.87   23.34
 -15  -1   7   44.29   21.42
 -15   1   8   96.10   29.62
 -15   1   8   84.45   26.36
  15  -1  -8   81.78   28.15
  15  -1  -8   41.95   27.46
  15  -1  -8  104.90   26.54
  15  -1  -8   61.92   26.33
  15   1  -8   30.38   27.00
  15   1  -8  125.23   26.68
 -15  -1   8  101.56   29.19
 -15  -1   8   41.87   26.16
 -15   1   9    9.86   14.71
 -15   1   9   -1.27    4.05
  15  -1  -9   -0.06    7.44
  15  -1  -9    2.44    3.90
  15  -1  -9    0.47    3.22
  15   1  -9    2.39    5.35
 -15  -1   9    5.15   13.90
 -15   1  10  105.32   30.19
  15  -1 -10   99.98   24.90
  15  -1 -10   80.62   22.92
  15  -1 -10   25.77   22.10
  15   1 -10   69.61   22.33
 -15  -1  10   70.12   25.83
 -15   1  11   49.81   24.70
  15  -1 -11   40.71   14.15
  15  -1 -11   37.10   14.90
  15   1 -11   39.51   14.69
  15  -1 -12   27.97   13.62
  15  -1 -12   25.77   12.18
  15   1 -12   28.54   10.70
 -15  -1  12   21.26   18.95
  15  -1 -13   29.80   16.32
  15  -1 -13   19.58   10.26
  15   1 -13   22.75    9.88
 -15  -1  13   18.67   19.78
  15  -1 -14   20.14   16.72
  15  -1 -14   17.49    9.33
  15   1 -14   29.75   14.93
  15   1 -14   24.45    9.28
 -15  -1  14    7.43    7.80
  15  -1 -15  429.19   73.25
  15  -1 -15   -1.61   58.37
  15   1 -15  363.25   72.74
  15   1 -15  240.53   58.87
 -15  -1  15  298.57   68.09
  15  -1 -16    5.60   16.08
  15  -1 -16    4.10    5.16
  15   1 -16   -2.57   17.66
  15   1 -16   -1.89    5.87
  15  -1 -17   35.24   17.17
  15  -1 -17    0.92   14.72
  15   1 -17   -6.17   18.01
  15   1 -17   79.23   15.61
 -15  -1  17  100.76   28.60
  15  -1 -18   -2.33   19.43
  15  -1 -18   -0.54    4.98
  15   1 -18    5.39   19.22
  15   1 -18    4.55    5.43
  15  -1 -19    4.66   31.49
  15   1 -19   98.79   28.92
  15   3  -1  118.59   46.94
 -15  -3   1  219.14   55.79
  15  -3  -2   78.54   40.17
  15   3  -2  103.07   34.29
 -15  -3   2  124.19   38.92
  15   3  -3 1639.98  586.61
 -15  -3   3 2568.18  782.99
  15   3  -4  205.88   67.42
 -15  -3   4  224.98   82.60
  15  -3  -5    1.79   11.34
  15   3  -5    0.11    5.42
 -15  -3   5    2.23   11.84
  15  -3  -6    8.34   12.40
  15   3  -6    9.73    7.00
 -15  -3   6   25.88   10.67
  15  -3  -7   52.15   21.25
  15   3  -7   66.57   21.99
 -15  -3   7   61.91   22.60
  15  -3  -8   43.49   22.92
  15   3  -8   70.97   23.51
 -15  -3   8   80.87   25.47
  15  -3  -9    8.08   12.03
  15   3  -9    1.70    6.54
 -15  -3   9    0.96   14.69
  15  -3 -10   25.76   12.01
  15   3 -10   37.22   14.20
 -15  -3  10   36.41   14.92
  15  -3 -11    5.71   10.49
  15   3 -11   16.33    8.66
 -15  -3  11    8.32   12.18
  15  -3 -12   14.08   11.08
  15   3 -12   11.56    7.54
  15  -3 -13    4.28   11.28
  15   3 -13   13.35    8.35
 -15  -3  13    3.87   15.55
  15  -3 -14    5.38   15.81
  15   3 -14    9.49    6.92
 -15  -3  14    1.35   18.72
  15  -3 -15   42.59   28.20
  15   3 -15   91.56   28.74
  15  -3 -16   -4.54   22.37
  15   3 -16    1.09    7.09
 -14   0   1   13.66    7.92
 -14   0   1   11.69    5.69
  14   0  -1   10.55    1.74
  14   0  -1   12.96    6.50
 -14   0   2    7.66    8.64
 -14   0   2   14.88    6.44
  14   0  -2    8.44    1.70
  14   0  -2   21.07    7.27
 -14   0   3  168.42   42.45
 -14   0   3   92.11   36.00
  14   0  -3   97.30   41.58
  14   0  -3  121.24   36.27
 -14   0   4  281.31   97.13
 -14   0   4  206.46   77.63
  14   0  -4  231.63   97.29
  14   0  -4  284.66   77.85
 -14   0   5  408.51  128.06
 -14   0   5  277.96  100.50
  14   0  -5  305.37  127.66
  14   0  -5  344.12  100.67
 -14   0   6   39.28   14.97
  14   0  -6   32.40   12.97
  14   0  -6   51.18   15.15
 -14   0   7  141.99   66.59
 -14   0   7  151.18   54.92
  14   0  -7  172.66   66.34
  14   0  -7  204.38   55.16
 -14   0   8  345.64  105.82
 -14   0   8  234.32   84.37
  14   0  -8  261.39  106.00
  14   0  -8  285.46   84.52
 -14   0   9 2519.32  845.93
 -14   0   9 1832.47  633.50
  14   0  -9 2464.16  847.31
  14   0  -9 1836.62  846.95
  14   0  -9 2460.94  633.67
  14   0  -9 1620.49  633.62
 -14   0  10   41.76   12.37
 -14   0  10   31.24   14.36
  14   0 -10   44.14   12.91
  14   0 -10   34.31   13.82
  14   0 -10   52.14   14.61
  14   0 -10   39.97   14.64
 -14   0  11   -1.53   10.22
  14   0 -11    5.94    7.50
  14   0 -11   -0.21    4.26
 -14   0  12  110.14   27.82
  14   0 -12   74.46   27.21
  14   0 -12   67.74   25.15
 -14   0  13  521.42  142.16
  14   0 -13  373.26  143.31
  14   0 -13  322.09  112.30
 -14   0  14  324.51   79.84
  14   0 -14  245.48   80.43
  14   0 -14  176.20   65.79
 -14   0  15   -4.29   29.36
  14   0 -15    2.86   12.37
  14   0 -15    0.75    4.48
  14   0 -16  133.09   48.45
  14   0 -16  130.28   42.52
  14   0 -17   -0.70   18.89
  14   0 -17    2.66    4.23
  14   0 -18   -3.88   19.43
  14   0 -18    1.18    6.39
  14   0 -19    3.50   27.60
  14   0 -19   -1.64    5.40
 -14   2   1    7.89    5.75
  14  -2  -1    5.55    3.68
  14  -2  -1   10.15    4.75
  14   2  -1    4.09    1.58
  14   2  -1   13.16    5.99
 -14  -2   1    5.76    5.96
 -14  -2   1    6.48    5.10
 -14   2   2    5.31    3.98
  14  -2  -2    4.15    6.10
  14  -2  -2    2.61   11.10
  14   2  -2    4.98    1.96
  14   2  -2    6.25    4.64
 -14  -2   2    7.53    5.50
 -14  -2   2    4.86    3.90
 -14   2   3   72.11   24.66
  14  -2  -3   78.13   25.70
  14  -2  -3    6.53   28.18
  14  -2  -3   77.91   24.75
  14   2  -3   40.76   25.34
  14   2  -3  102.29   24.99
 -14  -2   3  115.91   25.80
 -14  -2   3   63.98   24.73
 -14   2   4  158.48   58.41
  14  -2  -4  153.98   71.10
  14  -2  -4   73.14   71.76
  14  -2  -4  209.22   58.81
  14   2  -4  102.68   71.09
  14   2  -4  224.13   58.84
 -14  -2   4  366.78   71.74
 -14  -2   4  160.81   58.50
 -14   2   5  223.05   80.04
  14  -2  -5  244.21   99.95
  14  -2  -5   42.54   99.52
  14   2  -5  194.21  100.34
  14   2  -5  353.23   80.39
 -14  -2   5  482.38  100.72
 -14  -2   5  205.41   80.08
 -14   2   6   26.64   10.63
  14  -2  -6   38.89   11.32
  14  -2  -6   10.44   13.88
  14  -2  -6   39.79   10.93
  14  -2  -6   19.08   10.46
  14   2  -6   14.73    5.04
  14   2  -6   39.65   10.86
 -14  -2   6   43.35    8.74
 -14  -2   6   19.07   10.33
 -14   2   7   99.90   44.59
  14  -2  -7  128.49   52.33
  14  -2  -7   45.48   52.07
  14  -2  -7  162.66   44.88
  14  -2  -7  106.84   44.64
  14   2  -7  186.69   44.99
 -14  -2   7  252.34   52.96
  14  -2  -8  139.71   72.21
  14  -2  -8  194.62   59.92
  14  -2  -8   90.64   59.58
  14   2  -8  232.00   59.94
 -14  -2   8  390.47   73.52
 -14   2   9 1037.07  429.72
  14  -2  -9 1409.15  571.34
  14  -2  -9 1731.56  430.04
  14  -2  -9  647.53  429.73
  14   2  -9 2044.95  430.01
 -14  -2   9 1721.95  571.18
 -14   2  10   23.72   14.42
  14  -2 -10   49.13   15.53
  14  -2 -10   43.39   15.02
  14  -2 -10   16.79   14.04
  14   2 -10   56.75   14.68
 -14  -2  10   79.21   18.28
  14  -2 -11   -5.30   14.16
  14  -2 -11    1.70    6.99
  14   2 -11    0.86    5.31
 -14  -2  11    5.72   24.69
  14  -2 -12   56.79   20.71
  14  -2 -12   39.40   19.78
  14   2 -12   60.06   18.55
 -14  -2  12   69.17   29.30
  14  -2 -13  316.37  108.63
  14  -2 -13  234.80   87.48
  14   2 -13  275.53   87.03
 -14  -2  13  398.22  108.51
  14  -2 -14  151.87   53.99
  14  -2 -14  106.40   46.83
  14   2 -14  179.06   45.96
 -14  -2  14   93.95   53.84
  14  -2 -15    4.68   18.79
  14  -2 -15   -2.66    8.01
  14   2 -15    5.14    5.96
 -14  -2  15    1.09   23.65
  14  -2 -16   86.03   26.48
  14   2 -16    8.71   31.60
  14   2 -16   89.20   24.59
 -14  -2  16   20.15   26.39
  14  -2 -17   -1.95   17.40
  14   2 -17    0.08   27.69
  14   2 -17    2.70    6.34
  14  -2 -18   -1.25   18.91
  14   2 -18    3.84    7.53
  14  -4  -1    1.26   14.42
  14   4  -1    2.61    7.54
 -14  -4   1    4.49   11.96
  14  -4  -2    4.08   18.87
  14   4  -2    3.00    7.49
 -14  -4   2    0.60   12.07
  14  -4  -3   24.62   16.67
  14   4  -3   33.83   13.05
 -14  -4   3   20.74   12.56
  14  -4  -4   82.82   30.41
  14   4  -4   69.05   27.09
 -14  -4   4   98.06   28.75
  14  -4  -5  156.69   53.50
  14   4  -5  164.50   46.12
 -14  -4   5   54.32   51.63
  14  -4  -6    9.18   10.96
  14   4  -6   14.35    9.95
 -14  -4   6   19.68   10.34
  14  -4  -7   59.90   25.99
  14   4  -7   74.40   25.37
 -14  -4   7   70.63   25.23
  14  -4  -8   78.95   37.91
  14   4  -8  105.77   33.45
 -14  -4   8   89.01   35.49
  14  -4  -9  513.30  277.91
  14   4  -9  748.37  214.22
 -14  -4   9  620.52  278.52
  14  -4 -10    7.69   14.14
  14   4 -10   24.30   11.48
 -14  -4  10   14.87   21.34
  14  -4 -11    8.03   16.44
 -14  -4  11   -4.03   22.70
  14  -4 -12    6.78   21.75
  14   4 -12   29.58   11.76
 -14  -4  12   -2.42   21.17
  14  -4 -13    8.57   19.10
 -13   1   1   43.03   14.98
  13  -1  -1   12.80   12.37
  13  -1  -1   32.04   11.91
  13  -1  -1   46.96   15.19
  13   1  -1   50.95   15.38
 -13  -1   1   78.72   13.38
 -13  -1   1   35.60   14.94
 -13   1   2  480.68  167.95
  13  -1  -2  488.91  218.66
  13  -1  -2  642.06  168.17
  13   1  -2  663.29  219.72
  13   1  -2  552.93  168.12
 -13  -1   2  505.93  218.74
 -13  -1   2  465.89  167.98
 -13   1   3   84.24  133.94
 -13   1   3  299.47  105.75
  13  -1  -3   79.64  135.53
  13  -1  -3  262.44  134.59
  13  -1  -3  399.17  106.01
  13   1  -3  297.84  135.60
  13   1  -3  409.76  106.00
 -13  -1   3  740.58  135.81
 -13  -1   3  322.66  105.78
 -13   1   4    5.57    3.75
  13  -1  -4    3.01    3.65
  13  -1  -4   -0.15    2.82
  13  -1  -4    9.76    4.42
  13   1  -4    4.59    1.37
  13   1  -4    9.09    4.75
 -13  -1   4    0.21    5.22
 -13  -1   4    6.37    3.70
 -13   1   5   56.63   27.47
 -13   1   5   55.02   23.63
  13  -1  -5   39.93   25.05
  13  -1  -5   78.21   23.93
  13   1  -5   51.83   24.07
  13   1  -5   93.50   23.87
 -13  -1   5  124.91   25.37
 -13  -1   5   69.03   23.70
 -13   1   6   59.82   31.89
 -13   1   6   81.20   28.42
  13  -1  -6   54.29   31.37
  13  -1  -6   52.54   30.16
  13  -1  -6   93.35   28.58
  13   1  -6   57.42   30.53
  13   1  -6  118.00   28.75
 -13  -1   6  177.94   33.55
 -13  -1   6   70.20   28.38
 -13   1   7   22.58   15.99
 -13   1   7   15.66    7.36
  13  -1  -7   20.23    6.87
  13  -1  -7    5.92    2.09
  13  -1  -7   22.62    7.67
  13   1  -7   12.50    3.85
  13   1  -7   26.16    7.94
 -13  -1   7   11.08    9.68
 -13  -1   7   14.30    7.52
 -13   1   8    4.80   16.43
 -13   1   8    2.59    3.85
  13  -1  -8    2.67    5.97
  13  -1  -8    2.92    5.24
  13  -1  -8    4.27    4.49
  13  -1  -8    0.78    3.24
  13   1  -8    2.12    4.26
  13   1  -8    7.23    4.75
 -13  -1   8   -0.14   12.48
 -13  -1   8    2.39    3.72
  13  -1  -9   29.47    8.49
  13  -1  -9   16.55    7.41
  13  -1  -9   26.45   11.12
  13   1  -9   12.73    6.07
  13   1  -9   45.89   11.41
  13   1  -9   24.79   11.20
 -13  -1   9   53.36   13.06
 -13  -1   9   23.59   10.89
 -13   1  10  189.41   45.40
 -13   1  10  120.09   39.93
  13  -1 -10  145.34   46.21
  13  -1 -10   38.69   45.25
  13  -1 -10  145.11   40.05
  13  -1 -10  111.54   40.01
  13   1 -10   72.28   46.02
  13   1 -10  175.11   40.00
  13   1 -10  106.97   39.95
 -13  -1  10  181.39   46.52
 -13  -1  10   88.43   39.76
 -13   1  11    0.88    3.77
  13  -1 -11    6.50   10.03
  13  -1 -11   -1.02    3.96
  13  -1 -11    0.37    3.12
  13   1 -11   -0.90    3.59
 -13  -1  11    5.30   14.16
  13  -1 -12   60.91   19.55
  13  -1 -12   28.86   12.34
  13   1 -12   30.23   11.98
 -13  -1  12   20.31   18.21
  13  -1 -13  137.62   40.90
  13  -1 -13  104.96   34.92
  13   1 -13  101.40   34.67
 -13  -1  13   93.79   40.93
  13  -1 -14  277.83   89.26
  13  -1 -14  211.88   71.92
  13   1 -14  307.04   89.30
  13   1 -14  207.09   71.83
 -13  -1  14  215.34   86.29
  13  -1 -15 1075.92  366.67
  13  -1 -15  829.74  278.74
  13   1 -15 1143.02  367.00
  13   1 -15  844.24  278.69
 -13  -1  15  928.18  364.33
  13  -1 -16   25.45   13.82
  13  -1 -16    0.99    8.54
  13   1 -16   24.15   15.71
  13   1 -16   23.28    7.53
 -13  -1  16   31.89   23.04
  13  -1 -17   -0.93   16.16
  13  -1 -17    0.37    5.30
  13   1 -17    0.94   20.84
  13   1 -17    0.80    4.82
 -13  -1  17    0.61   28.65
  13  -1 -18   29.24   21.16
  13  -1 -18   -0.49   12.11
  13   1 -18   60.19   12.46
  13  -1 -19   -0.77   30.05
  13  -1 -19    3.88   26.51
  13   1 -19   14.11   33.43
  13   1 -19  176.21   26.96
  13  -3  -1   25.38   12.51
  13  -3  -1    0.13    8.87
  13   3  -1   22.06    9.11
 -13  -3   1   17.02   10.19
  13  -3  -2  297.26  115.95
  13   3  -2  293.28   92.19
 -13  -3   2  281.10  116.55
  13   3  -3  219.65   78.26
 -13  -3   3  318.50   97.91
  13  -3  -4    0.10    7.50
  13   3  -4    1.29    4.46
 -13  -3   4   -0.73   11.43
  13  -3  -5   34.78    9.63
  13   3  -5   35.70   13.45
 -13  -3   5   36.77   13.82
  13  -3  -6   44.38   19.87
  13   3  -6   61.07   20.72
 -13  -3   6   64.35   20.80
  13  -3  -7   10.86   12.33
  13   3  -7   10.64    6.83
 -13  -3   7   14.71   10.04
  13  -3  -8   -4.06   11.71
  13   3  -8    1.15    4.97
 -13  -3   8    9.74   11.91
  13  -3  -9   18.78   10.11
  13   3  -9   25.33   10.54
 -13  -3   9   17.73   13.16
  13  -3 -10   75.61   31.70
  13   3 -10   93.13   30.18
  13  -3 -11   -0.75   17.50
  13   3 -11    2.00    6.18
 -13  -3  11   -0.72   13.49
  13  -3 -12   26.49   13.88
  13   3 -12   21.69   10.21
 -13  -3  12   27.67   18.38
  13  -3 -13   51.60   22.17
  13   3 -13   64.53   19.64
 -13  -3  13    6.17   19.68
  13  -3 -14  100.62   26.72
 -13  -3  14   22.04   24.41
  13  -3 -15  255.88  166.64
  13   3 -15  453.79  131.63
  13  -3 -16   -3.96   20.70
  13   3 -16    8.41    6.91
  13  -3 -17   -0.62   22.35
 -13  -5   1    3.74   10.69
 -13  -5   2    2.77   11.42
 -13  -5   3    0.83   12.01
 -13  -5   4   -1.51   14.03
 -13  -5   5    2.53   14.61
 -13  -5   6   -4.42   23.23
 -12   0   1  395.48  166.91
 -12   0   1  402.98  129.62
  12   0  -1  316.06  167.24
  12   0  -1  463.84  129.75
 -12   0   2  299.86  126.84
 -12   0   2  302.93   99.91
  12   0  -2  310.53  127.38
  12   0  -2  341.95  100.04
 -12   0   3   28.36   18.48
 -12   0   3   40.47   18.21
  12   0  -3   41.66   17.19
  12   0  -3   79.25   18.77
 -12   0   4 6906.28 2080.02
 -12   0   4 4410.10 1547.79
  12   0  -4 5047.65 1547.82
 -12   0   5  389.99  195.43
 -12   0   5  486.87  150.62
  12   0  -5  507.76  195.55
  12   0  -5  493.69  150.67
 -12   0   6   65.94   22.70
 -12   0   6   52.66   21.24
  12   0  -6   81.97   21.45
  12   0  -6   69.15   21.55
 -12   0   7    4.28   10.18
 -12   0   7    6.98    4.27
  12   0  -7    4.83    4.52
  12   0  -7    8.52    4.59
 -12   0   8 1488.42  497.02
 -12   0   8 1037.51  374.41
  12   0  -8 1253.80  497.30
  12   0  -8 1290.36  374.50
 -12   0   9  758.09  225.83
 -12   0   9  510.62  173.46
  12   0  -9  586.19  227.35
  12   0  -9  417.02  226.26
  12   0  -9  613.31  173.53
  12   0  -9  516.65  173.65
 -12   0  10   25.78    7.29
 -12   0  10   11.01    6.19
  12   0 -10   14.13    4.65
  12   0 -10   10.87    3.95
  12   0 -10   15.01    6.23
  12   0 -10    9.83    6.29
 -12   0  11  244.48   60.69
 -12   0  11  140.76   51.32
  12   0 -11  211.95   62.05
  12   0 -11  117.98   61.49
  12   0 -11  187.27   51.47
  12   0 -11  126.31   51.41
 -12   0  12    1.95   15.45
 -12   0  12    1.12    3.49
  12   0 -12    4.24    7.42
  12   0 -12    2.45    3.82
  12   0 -12    1.51    3.82
 -12   0  13    0.09   15.85
  12   0 -13    6.94    5.42
  12   0 -14   13.02   12.68
  12   0 -14    5.56    5.28
 -12   0  15   -5.88   28.23
  12   0 -15   -3.34   12.31
  12   0 -15    0.44    3.30
  12   0 -16  131.98   38.59
  12   0 -16   93.49   33.36
  12   0 -17   90.31   27.56
  12   0 -17   67.77   24.61
  12   0 -18    5.38   22.51
  12   0 -18   44.41   14.65
  12   0 -19    5.02   22.09
  12   0 -19   -2.50    5.14
  12   0 -20    3.31    6.97
 -12   2   1  315.78   93.24
  12  -2  -1  246.21  117.72
  12  -2  -1  121.18  118.27
  12  -2  -1  334.56   93.39
  12   2  -1  279.84  118.00
  12   2  -1  364.02   93.48
 -12  -2   1  300.76  118.42
 -12  -2   1  252.75   93.21
 -12   2   2  176.42   62.59
  12  -2  -2  171.97   76.77
  12  -2  -2  196.18   62.79
  12   2  -2  144.71   77.12
  12   2  -2  225.77   62.93
 -12  -2   2  370.43   77.61
 -12  -2   2  166.26   62.64
 -12   2   3   32.70   14.36
  12  -2  -3   31.88   12.54
  12  -2  -3   24.94   15.92
  12  -2  -3   34.91   14.44
  12   2  -3   30.77   11.76
  12   2  -3   81.23   15.35
 -12  -2   3   42.44   13.26
 -12  -2   3   28.52   14.37
 -12   2   4 2012.35  851.63
  12  -2  -4 2610.01 1141.36
  12  -2  -4 2217.04 1140.71
  12  -2  -4 3347.17  851.93
  12   2  -4 2557.39 1141.37
  12   2  -4 3260.53  851.89
 -12  -2   4 4520.31 1141.71
 -12  -2   4 2215.78  851.70
  12  -2  -5  398.57  124.58
  12  -2  -5  188.60  123.48
  12  -2  -5  341.13   97.80
  12   2  -5  258.03  124.43
  12   2  -5  344.38   97.80
 -12  -2   5  465.69  124.05
 -12  -2   5  233.37   97.62
 -12   2   6   22.64    9.60
  12  -2  -6   29.15    8.49
  12  -2  -6   26.33   10.02
  12  -2  -6   24.00    9.73
  12   2  -6   21.00    4.53
  12   2  -6   31.99   10.22
 -12  -2   6   32.48    7.41
 -12  -2   6   22.22    9.82
  12  -2  -7   14.87    7.01
  12  -2  -7   17.33    7.06
  12  -2  -7    6.95    6.08
  12   2  -7    6.77    1.28
  12   2  -7   21.13    7.43
 -12  -2   7   15.81    6.99
 -12  -2   7    9.18    5.88
 -12   2   8  689.04  214.81
  12  -2  -8  776.46  281.96
  12  -2  -8  173.09  280.79
  12  -2  -8  487.95  214.84
  12   2  -8  547.35  282.27
  12   2  -8  977.09  215.00
  12   2  -8  572.95  214.89
 -12  -2   8 1465.16  282.11
 -12  -2   8  640.77  214.78
 -12   2   9  338.55  117.30
  12  -2  -9  371.87  150.22
  12  -2  -9  431.50  117.46
  12  -2  -9  271.53  117.32
  12   2  -9  170.22  150.44
  12   2  -9  464.81  117.42
 -12  -2   9  583.14  150.16
 -12   2  10    3.48    5.18
  12  -2 -10    7.18   13.00
  12  -2 -10    8.02    6.71
  12  -2 -10    3.24    5.02
  12   2 -10    6.85    5.68
 -12  -2  10    7.89   11.44
 -12   2  11   67.09   35.21
  12  -2 -11  136.53   41.37
  12  -2 -11   59.12   35.31
  12   2 -11  182.53   35.49
  12  -2 -12    7.93   16.03
  12  -2 -12    0.50    5.85
  12   2 -12    0.88    4.00
  12  -2 -13    4.77   15.26
  12  -2 -13    0.74    7.50
  12   2 -13   31.68    7.61
 -12  -2  13    7.86   16.67
  12  -2 -14    1.08   16.81
  12  -2 -14    3.06    6.34
  12   2 -14    3.27    4.95
 -12  -2  14   14.19   23.88
  12  -2 -15   -6.92   15.45
  12   2 -15    1.10    3.95
 -12  -2  15   13.12   23.07
  12  -2 -16   59.74   13.33
  12  -2 -16    1.32   13.68
  12   2 -16   -2.10   19.37
  12   2 -16   69.47   13.99
 -12  -2  16   53.43   25.10
  12  -2 -17   19.66   10.99
  12  -2 -17   -4.60   10.34
  12   2 -17    0.78   17.85
  12   2 -17   43.23    9.22
 -12  -2  17   25.43   33.10
  12  -2 -18   11.39   13.22
  12   2 -18   -5.48   27.02
  12   2 -18   30.70   11.14
  12   2 -19    9.02    7.98
  12  -4  -1  144.36   50.50
  12   4  -1  136.40   43.66
 -12  -4   1  112.04   50.17
  12  -4  -2   81.43   25.60
 -12  -4   2   63.99   25.77
  12  -4  -3   33.61   20.39
  12   4  -3   40.06   14.02
 -12  -4   3   16.34   13.41
  12  -4  -4 1609.31  549.15
  12   4  -4 1269.70  413.80
 -12  -4   4 1245.61  549.36
  12  -4  -5  187.07   75.97
  12   4  -5  177.68   62.66
 -12  -4   5  245.65   76.08
  12  -4  -6   20.70   16.68
  12   4  -6   15.94   10.25
 -12  -4   6   19.69    9.88
  12  -4  -7   15.77   15.24
  12   4  -7   15.32    9.67
 -12  -4   7   10.09   10.15
  12  -4  -8  414.57  197.97
  12   4  -8  426.74  154.28
 -12  -4   8  755.44  199.28
  12  -4  -9  135.85   62.92
  12   4  -9  165.48   53.87
 -12  -4   9  191.15   63.66
  12  -4 -10    1.01   15.51
  12   4 -10    0.67    8.62
 -12  -4  10    7.25   21.28
  12  -4 -11   31.89   16.38
  12   4 -11   50.64   17.75
 -12  -4  11    6.97   23.53
  12  -4 -12   12.17   15.48
  12   4 -12    3.55   10.60
 -12  -4  12    3.90   21.25
  12  -4 -13    1.46   16.63
  12   4 -13    5.13   10.94
  12  -4 -14    6.71   20.47
 -11   1   1  132.08   94.19
 -11   1   1  250.97   75.55
  11  -1  -1  167.68   95.40
  11  -1  -1  281.48   75.67
  11   1  -1  182.23   94.60
  11   1  -1  254.72   75.65
 -11  -1   1  297.70   94.44
 -11   1   2   13.26    9.41
 -11   1   2   28.05    9.10
  11  -1  -2   14.19    6.47
  11  -1  -2    7.36    2.56
  11   1  -2   18.34    4.84
  11   1  -2   32.16    9.55
 -11  -1   2   37.89    5.98
 -11  -1   2   24.11    9.06
 -11   1   3    4.69    9.62
 -11   1   3    4.43    2.94
  11  -1  -3    5.41    3.61
  11  -1  -3   -0.56    5.46
  11  -1  -3    5.15    3.90
  11   1  -3    1.72    4.15
  11   1  -3    6.42    3.67
 -11  -1   3    4.51    6.13
 -11  -1   3    4.44    3.19
 -11   1   4    3.11    9.66
 -11   1   4   10.51    4.28
  11  -1  -4    6.51    4.56
  11  -1  -4    8.33    8.23
  11  -1  -4    8.54    4.91
  11   1  -4    4.85    1.41
  11   1  -4   10.47    5.07
 -11  -1   4   13.75    5.01
 -11  -1   4    7.97    4.46
 -11   1   5   11.72   14.44
 -11   1   5   35.86   13.76
  11  -1  -5   33.76   13.05
  11  -1  -5   33.27   12.21
  11  -1  -5   48.12   13.95
  11   1  -5   24.90   10.56
  11   1  -5   56.27   14.17
 -11  -1   5   36.96   12.78
 -11  -1   5   37.43   13.81
 -11   1   6   22.81   11.80
 -11   1   6   23.20    9.43
  11  -1  -6   19.45    6.61
  11  -1  -6   18.45    7.64
  11  -1  -6   31.34    9.76
  11   1  -6   32.28    9.93
 -11  -1   6   17.24    9.36
 -11  -1   6   21.54    9.34
 -11   1   7    9.01    5.12
  11  -1  -7    6.77    3.74
  11  -1  -7   10.35    6.28
  11  -1  -7   16.66    5.78
  11  -1  -7    8.96    5.51
  11   1  -7    3.58    1.80
  11   1  -7   13.50    5.88
 -11  -1   7   15.29    9.16
 -11  -1   7   10.18    5.43
 -11   1   8  241.56   74.73
  11  -1  -8  174.60   93.84
  11  -1  -8  174.34   92.89
  11  -1  -8  254.99   74.78
  11  -1  -8  226.03   74.89
  11   1  -8  162.81   93.25
  11   1  -8  280.25   74.77
  11   1  -8  254.65   74.89
 -11  -1   8  264.92   93.22
 -11  -1   8  217.18   74.69
 -11   1   9  177.25   45.47
 -11   1   9  123.45   39.74
  11  -1  -9  118.83   46.38
  11  -1  -9  158.97   46.69
  11  -1  -9  140.73   39.76
  11  -1  -9  116.68   39.85
  11   1  -9   82.61   45.81
  11   1  -9  122.81   39.73
  11   1  -9  106.96   39.83
 -11  -1   9  153.25   46.49
 -11  -1   9  110.80   39.67
 -11   1  10 1567.92  455.18
  11  -1 -10 1478.54  606.29
  11  -1 -10 1178.27  605.67
  11  -1 -10 1738.71  455.16
  11  -1 -10 1240.39  455.23
  11   1 -10 1071.71  606.20
  11   1 -10 1662.35  455.16
  11   1 -10 1333.75  455.23
 -11  -1  10 2122.53  605.37
 -11  -1  10 1250.88  455.07
 -11   1  11   -0.47    4.05
  11  -1 -11    6.40    8.22
  11  -1 -11    2.75   11.02
  11  -1 -11    4.90    3.96
  11  -1 -11    1.76    3.38
  11   1 -11   -4.31    4.73
  11   1 -11    1.47    3.70
  11   1 -11    2.43    3.56
 -11  -1  11    0.56    3.28
 -11   1  12   39.25   14.03
  11  -1 -12   37.03   11.65
  11  -1 -12   44.29   13.73
  11  -1 -12   20.19   13.67
  11   1 -12   18.11   14.05
  11   1 -12   46.36   13.89
 -11  -1  12   55.93   16.81
  11  -1 -13   83.71   30.57
  11  -1 -13   73.15   26.46
  11   1 -13   78.38   27.77
  11   1 -13   87.66   26.54
 -11  -1  13   67.53   28.96
  11  -1 -14 1040.15  408.64
  11  -1 -14  940.22  309.42
  11   1 -14 1159.41  409.17
  11   1 -14  946.21  309.38
 -11  -1  14 1204.91  407.11
  11  -1 -15  319.11  119.17
  11  -1 -15  256.70   94.98
  11   1 -15  338.01  119.71
  11   1 -15  315.16   94.88
 -11  -1  15  383.84  118.42
  11  -1 -16    9.15   12.92
  11  -1 -16   10.08    8.08
  11   1 -16    6.02    6.24
 -11  -1  16    7.50   21.93
  11  -1 -17  221.77   43.32
  11  -1 -17    1.13   36.95
  11   1 -17    4.83   40.17
  11   1 -17  223.17   37.23
  11  -1 -18   -5.32   19.92
  11  -1 -18   -2.24    8.54
  11   1 -18    1.59   17.76
  11   1 -18   16.85    6.32
  11  -1 -19    2.81   21.14
  11  -1 -19    0.35    8.67
  11   1 -19    8.39   26.05
  11   1 -19   29.33    8.74
  11   1 -20   11.70    8.48
  11  -3  -1   84.38   20.35
  11  -3  -1   13.99   23.98
  11   3  -1   80.51   21.20
 -11  -3   1   71.21   20.72
 -11  -3   1   45.87   20.86
  11  -3  -2    7.03    5.53
  11  -3  -2    2.05   18.59
  11   3  -2    6.79    5.84
 -11  -3   2    3.68    6.87
 -11  -3   2   10.91    5.49
  11  -3  -3   -1.70    6.93
  11  -3  -3   -0.89   17.35
  11   3  -3    2.48    5.01
 -11  -3   3    0.02    7.90
 -11  -3   3   -0.10    3.48
  11  -3  -4    9.59    5.18
  11  -3  -4    5.40   21.79
  11   3  -4    8.72    5.65
 -11  -3   4    5.84    7.63
 -11  -3   4    5.77    5.18
  11  -3  -5   23.25    5.73
  11   3  -5   23.72    9.89
 -11  -3   5   25.37    8.47
  11   3  -6    3.76    5.17
 -11  -3   6    4.54   10.03
  11  -3  -7   -5.70   14.60
  11   3  -7    5.53    5.10
 -11  -3   7   11.01   10.19
  11  -3  -8  177.18   67.63
  11   3  -8  172.98   55.75
 -11  -3   8  173.32   67.08
  11  -3  -9   89.56   32.03
  11   3  -9   74.51   28.09
 -11  -3   9  109.28   30.70
  11  -3 -10 1036.05  432.20
  11   3 -10 1003.71  327.13
 -11  -3  10 1235.54  432.34
  11  -3 -11    5.80   16.66
  11   3 -11    3.72    5.04
 -11  -3  11    2.63   12.34
  11  -3 -12   33.16   16.49
  11   3 -12   26.58   11.68
  11  -3 -13   67.60   21.03
  11   3 -13   53.03   17.84
 -11  -3  13   13.65   22.10
  11  -3 -14  482.27  206.97
  11   3 -14  556.72  160.88
 -11  -3  14  314.49  206.11
  11  -3 -15  104.12   44.57
  11   3 -15  140.78   39.06
 -11  -3  15    0.99   45.88
  11  -3 -16   -4.19   18.71
  11   3 -16   -0.31    4.65
  11  -3 -17   -7.29   24.00
  11   3 -17   76.81   22.05
  11  -5  -1   15.87   20.53
 -11  -5   1   -4.33   13.05
  11  -5  -2   -1.16   20.83
  11  -5  -3   12.39   21.10
  11  -5  -4    3.65   22.80
 -11  -5   4   -3.20   13.45
  11  -5  -5    0.67   22.98
 -11  -5   5   -1.72   13.97
  11  -5  -6   -1.47   25.54
 -11  -5   6    1.11   18.46
  11  -5  -7   -0.17   28.32
 -11  -5   7    5.63   18.98
  11  -5  -8   -3.90   23.19
 -10   0   1    0.19    7.70
 -10   0   1    6.05    3.24
  10   0  -1    1.17    4.24
  10   0  -1    4.69    3.96
 -10   0   2  108.95   36.60
  10   0  -2  117.98   36.73
 -10   0   3 3307.86 1133.56
 -10   0   3 2379.05  846.08
  10   0  -3 3219.94 1134.04
  10   0  -3 2795.08  846.25
 -10   0   4 2591.92  690.82
 -10   0   4 1483.84  517.38
  10   0  -4 1800.51  690.61
  10   0  -4 1520.69  517.53
 -10   0   5   22.54    9.49
 -10   0   5   18.67    8.14
  10   0  -5   41.34    5.32
  10   0  -5   18.29    8.66
 -10   0   6  208.25   76.47
 -10   0   6  195.88   62.13
  10   0  -6  182.13   76.37
  10   0  -6  196.69   62.13
 -10   0   7    8.38   10.60
 -10   0   7   -0.34    2.49
  10   0  -7    4.52    6.13
  10   0  -7    0.66    2.88
 -10   0   8   40.39   29.17
 -10   0   8   77.38   26.81
  10   0  -8   31.07   28.26
  10   0  -8  104.87   26.90
  10   0  -8   89.78   27.08
 -10   0   9    8.96    8.01
 -10   0   9    7.06    4.35
  10   0  -9    8.32    3.83
  10   0  -9    2.94    4.17
  10   0  -9    9.45    4.66
  10   0  -9    8.97    4.88
 -10   0  10    6.16    8.32
 -10   0  10    1.22    3.47
  10   0 -10    7.93    5.75
  10   0 -10    2.34    6.48
  10   0 -10    2.65    3.95
  10   0 -10    0.91    3.60
 -10   0  11   85.55   18.79
 -10   0  11   48.84   18.15
  10   0 -11   52.68   17.62
  10   0 -11   36.05   16.93
  10   0 -11   60.64   18.39
  10   0 -11   47.91   18.31
 -10   0  12  216.08   59.92
 -10   0  12  151.67   50.20
  10   0 -12  173.69   59.81
  10   0 -12  142.25   60.15
  10   0 -12  184.97   50.17
  10   0 -12  113.35   50.24
 -10   0  13   33.62   12.65
  10   0 -13   14.51    4.63
  10   0 -13   13.49    7.20
 -10   0  14  140.55   30.43
  10   0 -14   61.76   28.83
  10   0 -14   79.25   27.85
  10   0 -15  162.68   61.66
  10   0 -15  160.23   51.65
  10   0 -16  478.51  164.89
  10   0 -16  393.13  128.70
  10   0 -17  205.19   75.51
  10   0 -17  192.72   62.47
  10   0 -18    2.94   17.51
  10   0 -18   10.65    6.68
  10   0 -19    0.48   28.70
  10   0 -19   64.14   19.75
  10   0 -20    3.78    9.05
  10  -2  -1   12.67    3.23
  10  -2  -1    2.96    5.20
  10   2  -1    4.84    1.56
  10   2  -1   10.39    5.83
 -10  -2   1   14.24    4.12
 -10  -2   1    7.34    4.40
 -10   2   2   62.83   20.21
  10  -2  -2   50.75   19.59
  10  -2  -2   31.41   19.49
  10   2  -2   47.01   19.90
  10   2  -2   78.12   20.77
 -10  -2   2   57.16   20.26
  10  -2  -3 1728.25  698.86
  10  -2  -3 1210.78  698.15
  10   2  -3 1735.04  699.24
  10   2  -3 1900.00  523.81
 -10  -2   3 2109.24  699.17
 -10  -2   3 1455.04  523.65
  10  -2  -4 1061.99  551.97
  10  -2  -4 1643.41  551.71
  10  -2  -4 1433.53  414.93
  10   2  -4 1122.85  552.46
  10   2  -4 1439.08  414.91
 -10  -2   4 1969.55  552.26
 -10  -2   4 1046.47  414.76
  10  -2  -5   13.67    5.18
  10  -2  -5   21.41   10.05
  10  -2  -5   13.06    6.98
  10   2  -5   18.33    1.71
  10   2  -5   23.02    7.79
 -10  -2   5   25.32    4.79
 -10  -2   5   14.68    7.29
  10  -2  -6   89.61   31.98
  10  -2  -6   84.23   31.37
  10   2  -6   96.61   31.40
  10   2  -6   94.13   29.19
 -10  -2   6  110.66   31.86
 -10  -2   6   75.09   28.94
 -10   2   7    2.39    3.09
  10  -2  -7    2.55    7.79
  10  -2  -7    2.45    3.70
  10  -2  -7    1.39    2.77
  10   2  -7    2.49    3.55
  10   2  -7   -0.04    3.31
  10   2  -7    0.69    3.01
 -10  -2   7   -1.31    7.29
 -10  -2   7    1.31    2.57
 -10   2   8   55.27   16.61
  10  -2  -8   34.10   14.63
  10  -2  -8   84.45   16.91
  10  -2  -8   43.16   16.56
  10   2  -8   52.19   16.61
  10   2  -8   28.37   16.63
 -10  -2   8   55.72   17.21
 -10  -2   8   26.26   16.36
 -10   2   9    3.74    3.85
  10  -2  -9    4.87    6.76
  10  -2  -9   -0.31    4.02
  10   2  -9    4.88    3.65
  10   2  -9    6.78    4.13
  10   2  -9    2.52    3.34
 -10  -2   9    0.09    8.67
 -10  -2   9    2.42    3.16
 -10   2  10    3.51    4.16
  10  -2 -10    2.61    6.97
  10  -2 -10    0.67   10.02
  10  -2 -10    0.30    3.62
  10  -2 -10    1.20    4.52
  10   2 -10   -2.98    6.02
  10   2 -10    8.81    4.10
  10   2 -10    3.04    3.92
 -10  -2  10    8.59   13.54
 -10  -2  10    4.44    3.78
 -10   2  11   23.10   13.05
  10  -2 -11   28.67   16.28
  10   2 -11   47.79   12.89
 -10  -2  11   36.95   13.73
 -10   2  12   49.38   24.23
  10  -2 -12  113.95   27.98
  10  -2 -12   37.95   24.58
  10   2 -12  109.97   24.36
 -10  -2  12   77.45   26.34
  10  -2 -13    6.81   14.87
  10  -2 -13   11.19    7.42
  10   2 -13   13.22    6.63
 -10  -2  13   17.52   13.76
  10  -2 -14   52.62   16.81
  10  -2 -14   45.28   18.16
  10   2 -14   63.21   17.55
 -10  -2  14    0.12   21.14
  10  -2 -15  106.59   31.50
  10  -2 -15   68.12   30.11
  10   2 -15  137.09   34.75
  10   2 -15  104.03   29.86
 -10  -2  15   29.01   36.34
  10  -2 -16  177.73   49.13
  10  -2 -16   -0.94   43.19
  10   2 -16   -2.92   51.52
  10   2 -16  262.54   43.48
 -10  -2  16  286.64   53.08
  10  -2 -17   69.03   19.97
  10  -2 -17    4.93   19.37
  10   2 -17   -1.40   25.23
  10   2 -17  106.13   18.87
  10  -2 -18   -0.18   13.78
  10   2 -18    3.01   25.63
  10   2 -18    8.90    6.63
  10  -2 -19    0.15   18.78
  10   2 -19   36.47   12.57
  10  -4  -1    5.19   12.15
  10   4  -1    7.72    7.29
 -10  -4   1   11.82   12.14
  10  -4  -2   17.90    9.59
  10   4  -2   28.93   11.24
 -10  -4   2   16.88    9.74
  10  -4  -3  712.58  339.70
  10   4  -3  829.88  258.74
 -10  -4   3  919.20  340.56
  10  -4  -4  694.38  247.35
  10   4  -4  608.03  189.63
 -10  -4   4  522.99  247.27
  10  -4  -5   10.27   15.75
  10   4  -5    3.73    7.60
 -10  -4   5   10.54   11.38
  10  -4  -6   41.92   18.83
  10   4  -6   39.44   15.85
 -10  -4   6   40.28   15.48
  10  -4  -7    9.03   16.29
  10   4  -7    9.05    7.18
 -10  -4   7    9.40   10.49
  10  -4  -8   25.16   16.55
 -10  -4   8   27.89   10.82
  10  -4  -9   -0.15   17.53
  10   4  -9    3.67    9.82
 -10  -4   9    6.93   16.36
  10  -4 -10    3.35   17.40
  10   4 -10    8.07    9.86
 -10  -4  10   -3.65   18.60
  10  -4 -11   24.62   17.36
  10   4 -11   16.32   10.83
  10  -4 -12   27.71   17.76
  10   4 -12   27.06   13.79
 -10  -4  12   11.71   25.20
  10  -4 -13    6.70   17.20
  10   4 -13    5.78    8.19
 -10  -4  13   -0.79   25.30
  10  -4 -14    1.69   14.88
  10   4 -14    8.59    8.40
  -9   1   1  219.46   67.63
   9  -1  -1  170.02   84.90
   9  -1  -1  118.94   83.14
   9   1  -1  169.36   83.98
   9   1  -1  224.26   67.70
  -9  -1   1  377.65   84.16
  -9  -1   1  206.62   67.64
  -9   1   2  150.36   47.31
   9  -1  -2   86.39   57.22
   9  -1  -2  158.88   47.46
   9   1  -2  116.29   56.75
   9   1  -2  165.38   47.45
  -9  -1   2  243.00   56.73
  -9  -1   2  127.56   47.32
  -9   1   3  210.06   90.70
  -9   1   3  221.21   72.71
   9  -1  -3  141.07   91.52
   9  -1  -3  324.17   90.71
   9  -1  -3  250.38   72.79
   9   1  -3  190.78   90.84
   9   1  -3  247.43   72.85
  -9  -1   3  306.44   90.67
  -9  -1   3  212.37   72.68
  -9   1   4    0.97    9.52
  -9   1   4    9.01    4.89
   9  -1  -4    5.97    2.64
   9  -1  -4    1.84    8.86
   9  -1  -4   12.72    4.84
   9   1  -4    5.97    1.41
   9   1  -4   13.85    5.36
  -9  -1   4    8.09    4.52
  -9  -1   4   12.23    4.62
  -9   1   5 3112.40  982.94
  -9   1   5 2109.42  734.09
   9  -1  -5 1384.57  983.75
   9  -1  -5 2954.50  982.49
   9  -1  -5 2354.53  734.09
   9   1  -5 2109.83  982.95
   9   1  -5 2378.12  734.16
  -9  -1   5 4486.22  983.29
  -9  -1   5 2049.96  734.10
  -9   1   6  123.06   47.32
  -9   1   6  118.89   40.55
   9  -1  -6  111.23   48.58
   9  -1  -6  123.18   47.50
   9  -1  -6  141.14   40.83
   9   1  -6  120.07   47.43
   9   1  -6  130.34   40.62
  -9  -1   6  139.61   47.48
  -9  -1   6  124.32   40.56
  -9   1   7   91.76   25.40
  -9   1   7   72.65   24.10
   9  -1  -7   62.80   26.00
   9  -1  -7   99.28   26.06
   9  -1  -7   68.54   24.10
   9  -1  -7   73.04   24.36
   9   1  -7   51.78   25.04
   9   1  -7   78.40   24.19
  -9  -1   7  121.26   26.01
  -9  -1   7   59.88   24.06
  -9   1   8    2.87    8.12
   9  -1  -8    2.47    6.25
   9  -1  -8   -0.63   10.55
   9  -1  -8    0.19    2.86
   9  -1  -8   -0.14    2.90
   9   1  -8   -0.17    5.08
   9   1  -8    0.93    3.02
   9   1  -8    0.25    2.75
  -9  -1   8   -1.06   10.37
  -9  -1   8    0.04    2.18
  -9   1   9 2116.15  668.33
   9  -1  -9 2365.83  894.63
   9  -1  -9 1812.30  893.40
   9  -1  -9 2251.82  668.31
   9  -1  -9 2053.42  668.45
   9   1  -9 1085.31  893.91
   9   1  -9 2338.75  668.33
   9   1  -9 2287.53  668.48
  -9  -1   9 3099.73  893.29
  -9  -1   9 1992.32  668.29
  -9   1  10  979.59  273.60
   9  -1 -10  678.26  361.33
   9  -1 -10  650.94  360.80
   9  -1 -10  880.63  273.51
   9  -1 -10  776.72  273.66
   9   1 -10  929.26  273.53
   9   1 -10  947.43  273.73
  -9  -1  10  987.30  360.69
  -9  -1  10  848.40  273.51
  -9   1  11   75.07   21.66
   9  -1 -11   69.72   22.58
   9  -1 -11   33.10   21.84
   9  -1 -11   67.77   21.34
   9  -1 -11   50.60   21.52
   9   1 -11   35.47   20.42
   9   1 -11   80.95   21.53
   9   1 -11   47.86   21.49
  -9  -1  11   81.07   22.43
  -9  -1  11   64.49   21.45
  -9   1  12  180.81   56.30
   9  -1 -12  196.62   68.16
   9  -1 -12   39.35   67.36
   9  -1 -12  211.29   56.22
   9  -1 -12  157.18   56.34
   9   1 -12  225.81   56.28
   9   1 -12  133.96   56.28
  -9  -1  12  157.53   67.13
  -9  -1  12  169.49   56.21
  -9   1  13   75.29   30.51
   9  -1 -13   99.34   33.45
   9  -1 -13  113.73   30.55
   9  -1 -13   66.42   30.73
   9   1 -13   81.84   33.31
   9   1 -13   63.00   34.49
   9   1 -13  119.56   30.62
  -9  -1  13   97.57   32.53
   9  -1 -14  222.74   86.37
   9  -1 -14  201.67   70.15
   9   1 -14  282.26   86.76
   9   1 -14  222.21   70.22
   9  -1 -15   15.66   12.64
   9  -1 -15   15.45    9.62
   9   1 -15   19.34   15.96
   9   1 -15   17.17    8.06
  -9  -1  15   19.35   18.14
   9  -1 -16   38.49   19.27
   9  -1 -16   29.79   12.01
   9   1 -16   21.58   12.95
   9   1 -16   26.69   11.45
   9  -1 -17   81.62   29.20
   9  -1 -17   82.18   25.78
   9   1 -17    0.46   27.99
   9   1 -17   78.50   25.22
   9  -1 -18   -0.69   15.00
   9  -1 -18   -0.89   17.09
   9   1 -18   -1.21   19.25
   9   1 -18  113.04   17.28
   9  -1 -19   -5.43   16.20
   9   1 -19    3.85   29.00
   9   1 -19    0.92    6.47
   9  -1 -20    1.13    7.75
   9   1 -20   -1.17    9.01
  -9   3   1   62.26   26.59
   9  -3  -1   81.84   26.29
   9   3  -1   45.82   25.89
   9   3  -1  100.68   25.52
  -9  -3   1   81.67   26.70
  -9  -3   1   65.26   25.24
  -9   3   2   45.34   18.34
   9  -3  -2   66.32   18.05
   9  -3  -2    6.12   21.11
   9   3  -2   39.64   17.04
   9   3  -2   71.71   19.33
  -9  -3   2   82.00   19.19
  -9  -3   2   48.19   18.90
  -9   3   3   67.34   27.66
   9  -3  -3   92.60   27.64
   9  -3  -3   14.53   29.33
   9   3  -3   63.05   26.83
   9   3  -3   98.50   26.25
  -9  -3   3   95.73   27.76
  -9  -3   3   73.41   26.00
  -9   3   4    8.53    7.99
   9  -3  -4    3.23    5.27
   9   3  -4    2.69    2.19
   9   3  -4    7.48    4.90
  -9  -3   4    8.34    5.30
  -9  -3   4    3.79    4.33
   9  -3  -5 1042.83  415.81
   9   3  -5  723.52  415.90
   9   3  -5 1226.07  314.46
  -9  -3   5 1283.79  416.41
  -9  -3   5  813.23  314.22
   9  -3  -6   86.80   24.25
   9  -3  -6   -0.58   24.59
   9   3  -6   66.42   24.02
   9   3  -6  108.13   24.17
   9   3  -6   54.46   23.92
  -9  -3   6  128.73   25.51
  -9  -3   6   50.49   23.88
   9  -3  -7   45.76   15.07
   9   3  -7   48.57   17.64
  -9  -3   7   56.08   15.53
   9  -3  -8    2.36   16.03
   9   3  -8   -2.33    4.36
  -9  -3   8    0.15    9.79
   9  -3  -9 1576.77  589.94
   9   3  -9 1422.47  443.95
  -9  -3   9 1312.25  590.20
   9  -3 -10  572.37  223.49
   9   3 -10  534.22  171.98
  -9  -3  10  583.72  223.14
   9  -3 -11   34.66   17.00
   9   3 -11   35.30   13.26
  -9  -3  11   33.51   17.09
   9  -3 -12  111.85   61.48
  -9  -3  12  213.30   63.44
   9  -3 -13   68.74   25.43
   9   3 -13   75.73   22.19
  -9  -3  13    7.21   22.72
   9  -3 -14   99.60   32.77
   9   3 -14   86.75   29.32
  -9  -3  14   75.36   34.85
   9  -3 -15    0.58   14.90
   9   3 -15    7.72    5.95
  -9  -3  15    5.64   30.39
   9  -3 -16    4.63   15.06
   9   3 -16    0.81   18.34
   9   3 -16   10.26    6.52
   9   3 -17   26.05   11.90
   9  -5  -1    9.09   18.30
  -9  -5   1    6.68    9.55
   9  -5  -2   24.72   14.81
  -9  -5   2    6.59    9.10
   9  -5  -3   17.39   21.15
  -9  -5   3   25.01    9.77
   9  -5  -4   14.20   25.48
  -9  -5   4    1.56   11.48
   9  -5  -5  325.00  129.91
  -9  -5   5  321.33  130.35
   9  -5  -7    5.27   18.31
   9  -5  -8    5.99   20.24
  -9  -5   8    5.53   16.84
   9  -5  -9   76.68   31.64
  -8   0   1   -0.68    6.92
  -8   0   1    2.51    2.60
   8   0  -1    3.31    4.27
   8   0  -1    2.69    3.61
  -8   0   2   32.20    8.58
  -8   0   2   24.56    9.52
   8   0  -2   21.50    6.38
   8   0  -2   27.96    9.73
  -8   0   3  830.43  385.40
  -8   0   3  900.54  291.28
   8   0  -3 1291.79  385.61
   8   0  -3  897.06  291.32
  -8   0   4    1.82    9.43
  -8   0   4    2.65    2.82
   8   0  -4    3.75    5.49
   8   0  -4    5.41    3.28
  -8   0   5   -3.43    8.79
  -8   0   5   10.63    4.86
   8   0  -5   20.91    4.04
   8   0  -5   11.54    5.06
  -8   0   6   42.04   17.06
  -8   0   6   48.71   16.20
   8   0  -6   47.05   14.41
   8   0  -6   48.41   16.31
  -8   0   7  651.85  174.37
  -8   0   7  398.97  134.51
   8   0  -7  395.71  134.49
   8   0  -7  432.12  134.74
  -8   0   8    4.50    9.26
  -8   0   8    4.57    3.04
   8   0  -8    1.45    4.01
   8   0  -8    2.98    4.27
   8   0  -8    2.77    3.30
   8   0  -8    4.03    3.98
  -8   0   9  150.63   53.75
  -8   0   9  138.61   45.90
   8   0  -9  165.96   55.79
   8   0  -9  142.10   54.06
   8   0  -9  147.03   45.89
   8   0  -9  129.70   46.14
  -8   0  10   64.90   20.10
  -8   0  10   62.34   20.89
   8   0 -10   56.83   21.58
   8   0 -10   62.94   20.35
   8   0 -10   67.80   21.10
   8   0 -10   57.37   21.07
  -8   0  11  604.67  203.95
  -8   0  11  492.05  157.33
   8   0 -11  462.14  205.06
   8   0 -11  582.28  204.53
   8   0 -11  501.54  157.30
   8   0 -11  476.59  157.50
  -8   0  12  138.95   32.88
  -8   0  12   82.04   29.88
   8   0 -12  114.19   33.46
   8   0 -12   80.18   31.99
   8   0 -12   99.49   29.97
   8   0 -12   73.36   30.04
  -8   0  13   90.30   19.84
  -8   0  13   50.43   20.21
   8   0 -13   65.31   19.58
   8   0 -13   34.23   20.13
   8   0 -13   79.87   20.67
   8   0 -13   45.18   20.40
   8   0 -14   22.53    7.36
   8   0 -14   13.06    7.45
   8   0 -15 1217.39  547.74
   8   0 -15 1354.05  412.54
   8   0 -16  189.21   69.79
   8   0 -16  178.06   57.72
   8   0 -17  144.77   43.44
   8   0 -17  101.70   36.00
   8   0 -18   -2.00   50.95
   8   0 -18  164.17   44.25
   8   0 -19  100.92   33.45
   8   0 -20  126.69   41.71
   8  -2  -1    4.05    4.73
   8  -2  -1    1.28    7.87
   8   2  -1    0.91    4.23
   8   2  -1    0.40    3.82
  -8  -2   1    2.96    5.48
  -8  -2   1    1.88    2.35
   8  -2  -2   10.91    3.77
   8  -2  -2   10.83    8.22
   8   2  -2   13.24    1.51
   8   2  -2   15.19    5.79
  -8  -2   2   14.29    3.30
  -8  -2   2    8.23    5.26
   8  -2  -3  362.79  148.81
   8  -2  -3  318.75  148.66
   8   2  -3  451.03  149.40
   8   2  -3  410.47  115.94
  -8  -2   3  347.14  149.03
  -8  -2   3  327.33  115.76
  -8   2   4    3.93    3.78
   8  -2  -4    3.15    3.92
   8  -2  -4   13.96    8.01
   8   2  -4    6.87    2.11
   8   2  -4    3.88    4.51
  -8  -2   4   11.62    6.78
  -8  -2   4    6.77    3.85
  -8   2   5    0.62    5.74
   8  -2  -5   -3.09    6.12
   8  -2  -5    2.56   11.62
   8   2  -5    0.86    4.74
   8   2  -5   -0.05    2.79
  -8  -2   5   -0.10    2.73
  -8   2   6   30.61   10.98
   8  -2  -6   32.20   10.14
   8  -2  -6   10.18   11.36
   8   2  -6   34.04    9.13
   8   2  -6   39.12   12.95
   8   2  -6   47.07   12.96
  -8  -2   6   44.20   10.03
  -8  -2   6   30.79   12.63
  -8   2   7  253.64   89.82
   8  -2  -7  240.50   89.02
   8  -2  -7   97.98   88.64
   8  -2  -7  221.98   71.49
   8   2  -7  221.73   89.09
   8   2  -7  244.89   71.45
   8   2  -7  214.46   71.57
  -8  -2   7  316.78   88.92
  -8  -2   7  210.26   71.39
  -8   2   8    1.20    2.54
   8  -2  -8   -1.72    6.68
   8  -2  -8    5.18   10.77
   8  -2  -8    1.92    2.85
   8  -2  -8    1.72    2.86
   8   2  -8    2.45    3.98
   8   2  -8    1.68    3.43
  -8  -2   8    1.86    7.47
  -8  -2   8    0.00    2.85
  -8   2   9   92.06   26.96
   8  -2  -9   91.56   28.66
   8  -2  -9   28.19   28.90
   8  -2  -9   96.61   26.89
   8  -2  -9   83.25   27.02
   8   2  -9   88.28   28.83
   8   2  -9   99.82   26.91
   8   2  -9   60.20   27.03
  -8  -2   9   60.89   26.83
   8  -2 -10   30.92   12.83
   8  -2 -10   17.87   14.91
   8  -2 -10   60.77   15.31
   8   2 -10   49.95   15.14
   8   2 -10   27.61   15.16
  -8  -2  10   79.01   16.70
  -8  -2  10   31.94   15.17
   8  -2 -11  328.91  131.58
   8  -2 -11  381.48  103.64
   8  -2 -11  270.58  103.77
   8   2 -11  276.21  132.35
   8   2 -11  343.93  103.61
   8  -2 -12   60.83   24.28
   8  -2 -12   72.32   23.78
   8  -2 -12   40.00   23.79
   8   2 -12   85.79   23.83
  -8  -2  12  109.26   26.81
   8  -2 -13   62.13   25.60
   8  -2 -13   62.13   24.91
   8   2 -13   88.20   25.08
   8  -2 -14   24.62   12.41
   8  -2 -14   14.00    8.63
   8   2 -14   21.31    8.13
  -8  -2  14   -4.89    6.94
   8  -2 -15 1264.37  413.86
   8  -2 -15  865.10  313.58
   8   2 -15 1788.04  414.91
   8   2 -15  963.11  313.55
  -8  -2  15  578.22  411.73
   8  -2 -16    0.16   21.08
   8   2 -16    7.71   24.14
   8   2 -16  123.38   20.74
  -8  -2  16   95.35   32.71
   8  -2 -17    3.76   14.53
   8   2 -17    0.46   16.94
   8   2 -17   71.78   13.72
  -8  -2  17    7.21   36.08
   8  -2 -18    1.13   22.90
   8  -2 -18    3.91   23.07
   8   2 -18   -2.38   25.18
   8   2 -18  147.74   22.36
   8  -2 -19    3.46   27.94
   8   2 -19  104.83   30.45
   8  -4  -1    4.30   10.61
  -8  -4   1    0.68    9.94
   8  -4  -2   13.12    6.77
   8   4  -2   14.96    9.21
  -8  -4   2   19.72    8.82
   8  -4  -3  116.44   51.45
   8   4  -3  147.64   44.75
  -8  -4   3  128.08   52.25
   8  -4  -4    0.71    9.46
   8   4  -4   -0.14    6.43
  -8  -4   4    4.02   10.26
   8  -4  -5    1.25   13.91
   8   4  -5   -2.42    8.51
  -8  -4   5    3.36   11.35
   8  -4  -6   16.06   19.22
   8   4  -6   10.94   10.26
  -8  -4   6   14.55   13.47
   8  -4  -7   91.59   32.37
   8   4  -7   80.54   28.77
   8  -4  -8    3.14   16.90
   8   4  -8    2.01    8.74
  -8  -4   8    0.80   14.39
   8  -4  -9   52.20   22.69
   8   4  -9   49.55   20.78
  -8  -4   9   73.07   25.34
   8  -4 -10   26.07   16.55
   8   4 -10   19.65   12.00
  -8  -4  10   21.85   16.12
   8  -4 -11  147.42   60.72
   8   4 -11  162.02   51.28
  -8  -4  11  146.61   64.37
   8  -4 -12   15.75   16.91
   8   4 -12   22.78   11.12
  -8  -4  12    7.47   25.19
   8  -4 -13   13.48   17.33
   8   4 -13   30.75   13.26
   8  -4 -14    1.10   15.05
   8   4 -14    3.96    8.93
   8  -4 -15    4.53   21.73
  -7   1   1  641.74  193.88
   7  -1  -1  682.16  253.67
   7   1  -1  471.94  254.49
   7   1  -1  696.90  194.01
  -7  -1   1  531.67  254.26
  -7  -1   1  595.87  193.93
  -7   1   2    3.17    6.12
  -7   1   2    1.35    2.24
   7  -1  -2    3.50    3.70
   7  -1  -2    3.57    7.09
   7   1  -2   -2.30    4.50
   7   1  -2    2.88    3.38
  -7  -1   2    2.73    6.97
  -7  -1   2    2.70    2.38
  -7   1   3  326.86  121.37
  -7   1   3  279.05   95.41
   7  -1  -3  256.27  122.38
   7  -1  -3  332.87   95.57
   7   1  -3  271.31  121.65
   7   1  -3  292.08   95.53
  -7  -1   3  512.82  121.62
  -7  -1   3  273.15   95.47
  -7   1   4 4265.77 1600.16
   7  -1  -4 4306.31 1601.56
   7  -1  -4 2958.74 1599.90
   7   1  -4 3458.36 1600.49
   7   1  -4 3824.81 1191.79
  -7  -1   4 4028.31 1600.18
  -7   1   5 2887.16 1113.55
  -7   1   5 2472.44  831.07
   7  -1  -5 2147.86 1114.40
   7  -1  -5 2290.67 1113.34
   7  -1  -5 2769.49  831.05
   7  -1  -5 2409.00  831.20
   7   1  -5 2661.65 1113.79
   7   1  -5 2549.45  831.05
  -7  -1   5 4300.49 1113.57
  -7  -1   5 2914.19  831.07
  -7   1   6  133.45   41.39
   7  -1  -6  110.33   49.24
   7  -1  -6  134.74   41.36
   7  -1  -6  117.69   41.49
   7   1  -6  131.33   48.47
   7   1  -6  122.47   41.38
   7   1  -6  155.43   41.72
  -7  -1   6  148.70   48.37
  -7  -1   6  116.70   41.32
  -7   1   7   53.67   19.05
   7  -1  -7   52.46   19.45
   7  -1  -7   94.25   20.16
   7  -1  -7   55.28   19.03
   7  -1  -7   48.30   19.19
   7   1  -7   53.14   18.12
   7   1  -7   61.01   19.12
   7   1  -7   59.17   19.35
  -7  -1   7   75.28   19.15
  -7  -1   7   48.67   19.05
  -7   1   8  443.03  135.15
   7  -1  -8  383.96  175.36
   7  -1  -8  595.73  174.87
   7  -1  -8  416.38  135.08
   7  -1  -8  413.84  135.31
   7   1  -8  285.20  174.66
   7   1  -8  412.51  135.09
   7   1  -8  453.28  135.36
  -7  -1   8  466.74  135.12
  -7   1   9  983.61  274.95
   7  -1  -9  934.75  363.98
   7  -1  -9  744.99  362.69
   7  -1  -9  963.99  274.85
   7  -1  -9  828.11  275.04
   7   1  -9  365.19  363.14
   7   1  -9  838.25  274.83
   7   1  -9  877.15  275.07
  -7  -1   9 1124.53  362.75
  -7  -1   9  920.68  274.87
  -7   1  10    3.03    2.82
   7  -1 -10    5.67    8.58
   7  -1 -10    1.07   12.29
   7  -1 -10    1.81    4.05
   7  -1 -10    1.21    3.28
   7   1 -10    0.88    4.60
   7   1 -10    1.57    4.10
   7   1 -10    1.49    2.87
  -7  -1  10    2.27    2.50
  -7   1  11   35.48   10.97
   7  -1 -11   21.64    8.87
   7  -1 -11   13.04   11.32
   7  -1 -11   34.93   11.03
   7   1 -11    4.69    8.11
   7   1 -11   33.57   11.00
   7   1 -11   25.33   10.69
  -7  -1  11   35.33   12.56
  -7  -1  11   25.88   10.50
  -7   1  12  137.57   40.88
   7  -1 -12  137.51   47.47
   7  -1 -12   54.29   47.02
   7  -1 -12  152.25   40.82
   7  -1 -12  120.52   40.95
   7   1 -12  179.50   48.00
   7   1 -12   70.62   47.25
   7   1 -12  163.34   40.85
   7   1 -12   90.24   40.81
  -7  -1  12  138.32   46.63
  -7  -1  12   95.33   40.66
  -7   1  13  140.03   50.93
   7  -1 -13  180.75   60.66
   7  -1 -13  185.17   50.98
   7  -1 -13  120.96   51.10
   7   1 -13  118.90   61.30
   7   1 -13  186.47   50.94
   7  -1 -14    8.20    5.50
   7  -1 -14    7.25    5.84
   7   1 -14    0.97   10.49
   7   1 -14    5.76    4.86
  -7  -1  14    4.91   19.36
   7  -1 -15   17.04   13.59
   7  -1 -15   11.13    7.09
   7   1 -15   19.79   13.53
   7   1 -15    5.98    6.08
   7  -1 -16   87.43   27.43
   7  -1 -16   74.15   25.69
   7   1 -16   63.66   28.22
   7   1 -16   73.54   25.17
   7  -1 -17   20.96   11.30
   7  -1 -17   28.08   12.28
   7   1 -17   18.67   16.52
   7   1 -17   26.34   10.55
   7  -1 -18    1.08   29.59
   7  -1 -18    1.69   29.58
   7   1 -18   -2.93   35.29
   7  -1 -19    6.93   15.33
   7  -1 -19   -0.75    7.34
   7   1 -19   -8.06   27.45
   7   1 -19    9.41    6.27
   7  -1 -20    3.76   10.69
   7   1 -20   23.84    8.90
  -7   3   1  226.00  116.52
   7  -3  -1  289.42  116.41
   7   3  -1  229.74  116.46
   7   3  -1  376.85   92.22
  -7  -3   1  299.00  117.35
  -7  -3   1  258.78   91.95
  -7   3   2    2.12    5.97
   7  -3  -2    2.93    7.48
   7   3  -2    0.82    4.76
   7   3  -2    0.28    4.09
  -7  -3   2   -1.51    6.39
  -7  -3   2    0.79    3.43
  -7   3   3   88.78   35.92
   7  -3  -3   97.22   36.07
   7   3  -3   82.85   35.66
   7   3  -3  129.07   32.39
  -7  -3   3   97.50   36.11
  -7  -3   3   81.41   32.17
  -7   3   4 1744.25  694.19
   7  -3  -4 1933.02  693.87
   7   3  -4 1529.33  693.71
   7   3  -4 2080.24  520.27
   7   3  -4 1269.92  520.16
  -7  -3   4 1728.12  694.15
  -7  -3   4 1590.87  520.07
  -7   3   5 1415.04  517.93
   7  -3  -5 1741.05  517.21
   7  -3  -5  276.22  515.85
   7   3  -5 1141.44  517.32
   7   3  -5 1614.65  389.47
   7   3  -5 1081.02  389.40
  -7  -3   5 1128.31  389.28
  -7   3   6   35.85   16.21
   7  -3  -6   74.16   17.32
   7  -3  -6   14.24   19.72
   7   3  -6   49.80   15.72
   7   3  -6   67.28   17.83
   7   3  -6   37.54   17.54
  -7  -3   6   99.04   18.67
  -7  -3   6   39.12   17.62
  -7   3   7   13.11    4.42
   7  -3  -7   26.75    6.82
   7  -3  -7    5.37   12.61
   7   3  -7   29.02    8.62
   7   3  -7   28.05    8.12
   7   3  -7   10.68    7.47
  -7  -3   7   19.86    4.13
  -7  -3   7   12.12    7.60
   7  -3  -8  235.21   74.72
   7   3  -8  269.03   75.49
   7   3  -8  236.73   61.43
   7   3  -8  135.46   61.34
  -7  -3   8  275.35   74.58
  -7  -3   8  143.48   61.23
   7  -3  -9  454.64  188.61
  -7  -3   9  475.68  188.19
   7  -3 -10    2.14   14.52
   7   3 -10    2.47    4.35
  -7  -3  10    2.48    9.06
   7  -3 -11   20.96   12.64
   7   3 -11   19.25    7.79
  -7  -3  11    8.05   11.36
   7  -3 -12   70.45   24.79
   7   3 -12   66.69   22.86
  -7  -3  12   64.70   25.85
   7  -3 -13   75.47   27.49
   7   3 -13   74.45   25.14
   7  -3 -14    4.83   18.11
   7  -3 -14    1.38    6.33
   7   3 -14    0.80    4.58
   7  -3 -15    1.87   14.61
   7  -3 -15    2.25    7.84
   7   3 -15    5.36    5.07
  -7  -3  15   -6.31   31.00
   7  -3 -16   20.32   14.14
   7   3 -16   31.01   11.85
   7  -3 -17   -2.59   13.85
   7   3 -17   11.76    6.68
   7   3 -18   84.35   29.29
   7  -5  -1  138.45   42.40
  -7  -5   1   79.98   40.03
  -7  -5   2    1.41   13.25
   7  -5  -3   21.56   17.85
   7   5  -3    7.22   11.24
  -7  -5   3   17.40    9.59
   7  -5  -4  781.66  287.04
  -7  -5   4  626.82  286.91
   7  -5  -5  422.95  180.33
  -7  -5   5  467.82  181.65
   7  -5  -6   11.70   13.56
  -7  -5   6    3.25   25.97
   7  -5  -7   -1.54   14.70
  -7  -5   7    2.52   16.26
   7  -5  -8   34.07   14.22
  -7  -5   8   15.47   21.56
   7  -5 -10    3.50   19.93
  -6   0   1   28.01   12.91
  -6   0   1   45.97   15.13
   6   0  -1   49.90   12.87
   6   0  -1   45.23   15.27
  -6   0   2 1655.52  655.32
  -6   0   2 1631.87  491.34
   6   0  -2  991.96  655.32
   6   0  -2 1684.24  491.38
  -6   0   3   -1.40    7.56
  -6   0   3   19.38    6.44
   6   0  -3   19.75    1.69
   6   0  -3   16.61    6.52
  -6   0   4    7.49    8.56
  -6   0   4   21.77    7.94
   6   0  -4   21.90    3.62
   6   0  -4   22.75    7.99
  -6   0   5   29.02   10.37
   6   0  -5   21.91    6.42
   6   0  -5   30.70   10.45
  -6   0   6  338.20  114.34
  -6   0   6  280.49   90.28
   6   0  -6  295.53  114.17
   6   0  -6  273.54   90.27
   6   0  -6  291.98   90.53
  -6   0   7    2.71    8.10
  -6   0   7   11.14    4.62
   6   0  -7    6.55    2.33
   6   0  -7    9.12    5.26
   6   0  -7    9.89    4.98
  -6   0   8   37.06   13.86
  -6   0   8   49.16   16.00
   6   0  -8   42.85   15.19
   6   0  -8   49.72   16.17
   6   0  -8   45.74   16.19
  -6   0   9   77.52   22.52
  -6   0   9   66.50   21.91
   6   0  -9   34.25   22.78
   6   0  -9   51.98   21.51
   6   0  -9   79.42   21.97
   6   0  -9   64.41   22.09
  -6   0  10 3233.22  993.30
  -6   0  10 2591.61  742.46
   6   0 -10 1979.55  994.65
   6   0 -10 2019.11  993.49
   6   0 -10 2153.77  742.33
   6   0 -10 2522.85  742.60
  -6   0  11  746.03  251.08
  -6   0  11  627.79  192.52
   6   0 -11  713.30  252.79
   6   0 -11  460.80  251.33
   6   0 -11  602.24  192.41
   6   0 -11  589.65  192.65
  -6   0  12  251.66   76.86
   6   0 -12  227.82   95.70
   6   0 -12  259.99   76.80
   6   0 -12  216.13   76.97
  -6   0  13  128.63   41.93
   6   0 -13  139.61   48.71
   6   0 -13  138.89   49.41
   6   0 -13  140.73   41.86
   6   0 -13  111.52   42.09
   6   0 -14  570.44  173.92
   6   0 -14  255.74  173.64
   6   0 -14  437.61  134.73
   6   0 -15  967.93  287.10
   6   0 -15  632.48  218.82
   6   0 -16    1.39   12.52
   6   0 -16    0.04    4.72
   6   0 -17   70.55   28.69
   6   0 -17   75.10   25.19
   6   0 -18   -1.29   49.13
   6   0 -18  161.19   43.62
   6   0 -19    1.85   13.31
   6   0 -19   26.46    9.80
   6   0 -20   26.34   11.00
   6   0 -21    1.42    7.74
  -6   2   1   22.96    5.72
   6  -2  -1   27.62    5.22
   6   2  -1   23.69    5.97
   6   2  -1   31.65   10.08
  -6  -2   1   24.59    8.31
  -6  -2   1   26.43    9.86
   6  -2  -2  657.89  202.95
   6  -2  -2  538.26  202.11
   6   2  -2  485.82  202.66
   6   2  -2  565.41  155.61
  -6  -2   2  462.60  202.81
  -6  -2   2  373.48  155.56
  -6   2   3   26.06    8.15
   6  -2  -3   33.51    7.95
   6  -2  -3   26.06   11.52
   6   2  -3   31.84    6.94
  -6  -2   3   37.67    8.18
  -6   2   4   55.00   13.46
   6  -2  -4   53.64   13.09
   6  -2  -4   36.24   15.23
   6   2  -4   44.00   14.86
  -6  -2   4   46.49   12.73
  -6  -2   4   33.95   14.73
  -6   2   5    7.85    2.41
   6  -2  -5   10.69    4.31
   6  -2  -5   15.61   10.27
   6   2  -5    7.05    4.80
  -6  -2   5    8.30    5.53
  -6  -2   5    8.71    4.41
  -6   2   6  191.34   80.01
   6  -2  -6  249.88   79.83
   6  -2  -6  243.07   79.86
   6   2  -6  191.38   64.27
   6   2  -6  190.93   64.44
  -6  -2   6  338.42   79.80
  -6  -2   6  159.37   64.22
  -6   2   7    1.14    3.73
   6  -2  -7    4.21    7.58
   6  -2  -7    1.30    9.18
   6  -2  -7    6.55    2.85
   6   2  -7    5.99    3.30
   6   2  -7    2.95    3.49
   6   2  -7    2.71    4.20
  -6  -2   7    5.17    4.76
  -6  -2   7    3.07    3.58
  -6   2   8   45.97   13.12
   6  -2  -8   42.36   12.65
   6  -2  -8   29.54   13.62
   6  -2  -8   39.91   14.41
   6   2  -8   38.76   11.31
   6   2  -8   52.77   14.51
   6   2  -8   36.38   14.64
  -6  -2   8   47.07   11.79
  -6  -2   8   34.95   14.38
  -6   2   9   35.38   11.28
   6  -2  -9   52.18   12.53
   6  -2  -9   16.22   12.09
   6  -2  -9   38.61   13.18
   6  -2  -9   42.89   13.49
   6   2  -9   45.80   13.23
   6   2  -9   27.33   13.29
  -6  -2   9   30.43   13.11
  -6   2  10 1789.16  742.64
   6  -2 -10 1813.28  741.98
   6  -2 -10 1907.42  555.94
   6  -2 -10 1848.07  556.17
   6   2 -10 2003.13  742.61
   6   2 -10 1968.07  556.00
   6   2 -10 1299.54  556.08
  -6  -2  10 2491.82  741.89
  -6  -2  10 1599.74  555.99
   6  -2 -11  440.11  159.85
   6  -2 -11   44.88  158.77
   6  -2 -11  487.62  124.63
   6   2 -11  426.77  124.64
   6   2 -11  289.85  124.72
  -6  -2  11  708.29  160.37
  -6  -2  11  358.44  124.62
   6  -2 -12  172.49   65.52
   6  -2 -12  186.77   54.82
   6  -2 -12  116.21   54.95
   6   2 -12  122.23   66.06
   6   2 -12  198.76   54.93
  -6  -2  12  254.61   65.37
   6  -2 -13  125.31   38.93
   6   2 -13  120.15   34.24
  -6  -2  13   -1.53   35.34
   6  -2 -14  397.29  154.03
   6  -2 -14  353.41  120.44
   6   2 -14  488.08  154.36
   6   2 -14  426.30  120.49
  -6  -2  14  133.52  152.34
   6  -2 -15  482.29  209.86
   6  -2 -15  417.45  162.41
   6   2 -15  843.37  211.09
   6   2 -15  575.10  162.48
  -6  -2  15  359.46  208.52
   6  -2 -16    2.71   19.52
   6  -2 -16    2.40    8.23
   6   2 -16    3.93   18.86
   6   2 -16    8.61    5.30
   6  -2 -17   -3.37   12.45
   6  -2 -17   -0.27   11.55
   6   2 -17   -3.41   20.06
   6   2 -17   51.85   10.18
   6  -2 -18    1.79   13.53
   6  -2 -18    0.81   18.88
   6   2 -18  107.29   17.86
   6  -2 -19    1.31    8.72
   6   2 -19   24.94   10.91
   6   2 -20   16.67   10.20
   6  -4  -1    9.02    6.23
   6   4  -1    6.36    5.83
   6   4  -1   -0.19    5.18
  -6  -4   1    2.57    9.30
  -6  -4   1    1.55    5.78
   6  -4  -2  142.04   29.76
   6   4  -2  133.45   27.44
   6   4  -2   34.53   26.67
  -6  -4   2  102.47   29.53
  -6  -4   2   54.31   26.81
   6  -4  -3   13.34    7.79
   6   4  -3    8.18    7.31
  -6  -4   3   12.74    8.39
   6  -4  -4   25.05    8.68
   6   4  -4   22.91   12.12
  -6  -4   4   35.38   12.32
   6  -4  -5    1.44    8.51
   6   4  -5    9.80    8.67
  -6  -4   5   -2.51    9.22
   6  -4  -6  106.52   31.47
   6   4  -6   74.71   29.83
  -6  -4   6  108.61   32.79
   6  -4  -7   -0.10   10.13
   6   4  -7    2.55    4.79
  -6  -4   7   -2.86   18.67
   6  -4  -8   38.01   14.14
   6   4  -8   31.12   14.26
  -6  -4   8   32.12   14.97
   6  -4  -9    5.86   13.14
   6   4  -9    6.52    9.04
  -6  -4   9   12.44   18.47
   6  -4 -10  784.79  333.39
   6   4 -10  693.22  254.09
  -6  -4  10 1276.77  334.40
   6  -4 -11  199.00   65.41
   6   4 -11  161.31   55.04
   6  -4 -12   42.75   18.13
   6   4 -12   53.97   18.33
  -6  -4  12   21.20   27.63
   6  -4 -13   13.36    9.05
   6   4 -13   28.80   11.55
   6  -4 -14   22.18   33.17
   6   4 -14  108.64   31.14
   6  -4 -15   12.09   15.70
  -5   1   1   10.76    5.32
   5  -1  -1   24.51    1.67
   5  -1  -1   13.43    5.45
   5   1  -1   11.21    1.21
   5   1  -1    9.35    5.51
  -5  -1   1   22.88    2.59
  -5  -1   1    9.07    5.38
  -5   1   2   73.33   24.09
   5  -1  -2   72.57   26.60
   5  -1  -2   49.10   24.81
   5  -1  -2   88.47   24.22
   5   1  -2   65.55   25.39
   5   1  -2   76.66   24.21
  -5  -1   2   75.22   25.31
  -5  -1   2   68.23   24.10
  -5   1   3  613.30  275.44
  -5   1   3  602.75  208.63
   5  -1  -3  630.69  274.99
   5  -1  -3  662.85  208.59
   5   1  -3  739.26  274.34
   5   1  -3  658.18  208.57
  -5  -1   3  773.93  274.23
  -5  -1   3  728.71  208.58
  -5   1   4 3445.42 1376.31
   5  -1  -4 3541.03 1375.83
   5  -1  -4 4509.52 1374.78
   5  -1  -4 3262.22 1024.67
   5  -1  -4 3130.39 1025.00
   5   1  -4 3266.95 1375.10
   5   1  -4 2998.68 1024.63
  -5  -1   4 3731.19 1374.85
  -5  -1   4 3160.39 1024.64
  -5   1   5    2.81    4.27
  -5   1   5    3.60    2.49
   5  -1  -5    5.32    5.05
   5  -1  -5   -1.09    8.77
   5  -1  -5    3.49    3.02
   5  -1  -5    2.73    2.47
   5   1  -5    4.91    2.63
   5   1  -5    5.71    3.27
   5   1  -5    3.84    3.58
  -5  -1   5   -0.68    4.61
  -5  -1   5    4.12    2.99
  -5   1   6   16.98    3.53
  -5   1   6    9.21    4.56
   5  -1  -6   13.52    4.27
   5  -1  -6   15.66    8.19
   5  -1  -6    7.23    4.71
   5   1  -6    9.65    1.68
   5   1  -6    8.55    5.61
   5   1  -6    9.08    5.13
  -5  -1   6   10.60    6.47
  -5  -1   6    8.22    4.69
  -5   1   7  211.42   62.64
   5  -1  -7  186.84   77.72
   5  -1  -7  164.87   76.90
   5  -1  -7  179.64   62.49
   5  -1  -7  205.25   62.74
   5   1  -7  210.86   76.79
   5   1  -7  205.55   62.58
   5   1  -7  188.86   62.80
  -5  -1   7  217.60   76.51
  -5  -1   7  197.89   62.58
  -5   1   8  200.77   57.98
   5  -1  -8  171.92   70.94
   5  -1  -8  163.76   70.20
   5  -1  -8  167.08   57.73
   5  -1  -8  178.66   57.93
   5   1  -8  156.79   70.15
   5   1  -8  197.79   57.82
   5   1  -8  178.22   57.97
  -5  -1   8  189.35   70.10
  -5  -1   8  183.58   57.80
  -5   1   9   67.42   20.55
   5  -1  -9   62.07   21.05
   5  -1  -9   26.02   20.45
   5  -1  -9   56.76   20.42
   5  -1  -9   60.72   20.62
   5   1  -9   44.66   19.73
   5   1  -9   71.56   20.56
   5   1  -9   56.67   20.67
  -5  -1   9   83.08   20.40
  -5  -1   9   61.41   20.49
  -5   1  10   24.58    8.59
   5  -1 -10   25.22    6.76
   5  -1 -10   11.84    7.15
   5  -1 -10   22.73    8.60
   5  -1 -10   22.34    8.75
   5   1 -10    8.67    4.86
   5   1 -10   21.29    8.59
   5   1 -10   21.97    9.07
  -5  -1  10   25.09    6.86
  -5  -1  10   26.71    8.64
  -5   1  11   52.47   17.22
   5  -1 -11   44.91   16.03
   5  -1 -11   51.06   17.14
   5  -1 -11   48.26   17.30
   5   1 -11   54.30   15.88
   5   1 -11   14.29   15.76
   5   1 -11   56.28   17.26
   5   1 -11   48.48   17.52
  -5  -1  11   63.90   16.57
  -5  -1  11   51.07   17.25
  -5   1  12    7.37    4.81
   5  -1 -12    4.72    4.23
   5  -1 -12    1.21   10.13
   5  -1 -12    8.72    4.42
   5  -1 -12    6.71    5.39
   5   1 -12    4.17    2.40
   5   1 -12    5.56    8.87
   5   1 -12    7.30    4.25
   5   1 -12    4.65    4.41
  -5  -1  12    5.17    4.05
  -5   1  13  185.28   60.89
   5  -1 -13  223.77   73.43
   5  -1 -13   48.06   74.24
   5  -1 -13  222.99   60.70
   5  -1 -13  174.07   60.91
   5   1 -13  271.65   74.52
   5   1 -13  195.48   74.92
   5   1 -13  218.01   60.69
   5   1 -13  131.92   60.84
  -5  -1  13  261.49   73.31
  -5  -1  13  182.09   60.75
   5  -1 -14   23.51    4.11
   5  -1 -14   19.57    7.93
   5   1 -14   13.14   11.96
   5   1 -14   19.95    8.49
   5  -1 -15    8.25    8.73
   5  -1 -15    1.94    3.89
   5   1 -15    6.76   12.66
   5   1 -15    4.79    4.33
   5  -1 -16  664.45  227.28
   5   1 -16  793.23  227.36
   5  -1 -17    5.21    5.67
   5   1 -17    8.24   17.10
   5   1 -17   -0.18    4.68
   5  -1 -18   45.42   37.37
   5   1 -18  185.09   37.64
   5  -1 -19    3.10   16.45
   5  -1 -19   -0.59   15.81
   5   1 -19   90.11   15.35
   5  -1 -20    0.84   24.25
   5   1 -20  141.04   24.86
  -5   3   1    0.22    3.92
   5   3  -1    1.41    5.46
   5   3  -1    2.92    4.05
  -5  -3   1    1.29    6.39
  -5  -3   1   -0.43    3.16
  -5   3   2   24.94    4.99
   5  -3  -2   25.87    6.88
   5   3  -2   30.05    6.27
   5   3  -2   31.36   10.37
  -5  -3   2   29.01    8.57
  -5  -3   2   22.81   10.16
  -5   3   3  219.81  113.73
   5  -3  -3  290.40  113.42
   5   3  -3  274.06  113.58
   5   3  -3  364.91   89.98
   5   3  -3  242.22   89.91
  -5  -3   3  254.84  114.05
  -5   3   4  978.11  576.18
   5  -3  -4 1992.57  576.35
   5   3  -4 1340.77  576.17
   5   3  -4 1568.06  432.81
   5   3  -4 1256.59  432.83
  -5  -3   4 1417.30  576.47
  -5  -3   4 1301.29  432.71
  -5   3   5    2.64    5.14
   5  -3  -5   -3.06    8.23
   5  -3  -5   10.86   11.41
   5   3  -5    2.13    2.91
   5   3  -5    6.94    4.10
   5   3  -5    2.27    3.61
  -5  -3   5    4.18    5.01
  -5  -3   5    1.13    3.95
  -5   3   6    5.02    5.75
   5  -3  -6    8.66    8.42
   5  -3  -6    2.27   11.11
   5   3  -6    0.15    7.90
   5   3  -6    3.44    3.39
  -5  -3   6    0.73    6.78
  -5   3   7   82.07   28.38
   5  -3  -7   22.93   28.70
   5   3  -7   80.03   27.73
   5   3  -7   93.67   26.51
   5   3  -7   67.65   26.42
  -5  -3   7  122.99   28.50
  -5  -3   7   73.51   26.36
   5  -3  -8   53.46   15.42
   5   3  -8   47.25   13.62
   5   3  -8   55.48   16.12
   5   3  -8   36.38   16.21
  -5  -3   8   58.95   13.73
  -5  -3   8   38.35   16.16
   5  -3  -9   15.45   11.68
   5   3  -9   23.24    8.94
  -5  -3   9   17.38    3.88
   5  -3 -10   20.31   11.89
   5   3 -10   11.22    6.82
  -5  -3  10   20.58    8.76
   5  -3 -11   30.65   12.91
   5   3 -11   28.23   10.87
  -5  -3  11    7.76   10.85
   5  -3 -12    8.21   13.62
   5   3 -12    5.00    6.32
   5  -3 -13  139.68   38.88
   5  -3 -13   57.39   32.78
   5   3 -13  128.91   32.84
   5  -3 -14   24.39   16.28
   5  -3 -14   13.05   10.07
   5   3 -14   16.77    8.73
  -5  -3  14    6.52   11.82
   5  -3 -15    1.93   16.71
   5  -3 -15    1.37    7.19
   5   3 -15   11.15    7.15
  -5  -3  15    5.03   28.76
   5  -3 -16  302.24  142.35
   5   3 -16  366.85  111.90
   5  -3 -17    8.45   14.30
   5   3 -17    3.49    7.23
   5   3 -18   83.69   29.55
   5  -5  -1    4.09   12.10
  -5  -5   1    1.93   10.07
   5  -5  -2   14.38   12.37
  -5  -5   2    6.56    9.04
   5  -5  -3  127.26   46.73
  -5  -5   3  120.65   46.64
   5  -5  -4  395.68  202.73
  -5  -5   4  596.21  204.21
   5  -5  -5   -3.55   12.87
  -5  -5   5    3.23   16.91
   5  -5  -6   -0.37   13.65
   5  -5  -7   23.43   15.71
  -5  -5   7   20.79   21.66
   5  -5  -8    5.16   13.40
   5  -5  -9   -3.83   20.34
   5  -5 -10   -7.41   21.37
   5  -5 -11    0.65   20.12
  -4   0   1  223.77   80.48
  -4   0   1  217.69   65.08
   4   0  -1  129.70   80.43
   4   0  -1  213.09   65.11
  -4   0   2    7.13    6.09
  -4   0   2   27.41    8.61
   4   0  -2   19.41    3.83
   4   0  -2   25.65    8.61
  -4   0   3   11.80    7.31
  -4   0   3    4.86    3.33
   4   0  -3    5.66    3.60
   4   0  -3    3.94    3.27
  -4   0   4  755.13  271.39
  -4   0   4  649.97  206.66
   4   0  -4  593.69  271.25
   4   0  -4  660.82  206.64
   4   0  -4  673.18  206.98
  -4   0   5 3997.40 1682.02
   4   0  -5 5303.47 1682.35
   4   0  -5 3500.55 1252.84
  -4   0   6 2526.69  798.85
  -4   0   6 1895.91  597.59
   4   0  -6 1437.30  800.04
   4   0  -6 1938.46  798.34
   4   0  -6 1996.25  597.62
   4   0  -6 1917.73  597.88
  -4   0   7  282.17  112.10
  -4   0   7  305.01   89.03
   4   0  -7  287.30  114.05
   4   0  -7  297.56  112.17
   4   0  -7  270.42   88.85
   4   0  -7  264.23   89.18
  -4   0   8   11.29   11.51
  -4   0   8    2.87    2.80
  -4   0   8    3.46    2.86
   4   0  -8    4.83    4.47
   4   0  -8   -1.59    7.13
   4   0  -8    2.09    2.74
   4   0  -8    1.16    3.58
  -4   0   9 1227.29  358.33
  -4   0   9 1263.11  358.38
   4   0  -9  825.52  476.37
   4   0  -9 1211.72  475.18
   4   0  -9 1060.40  358.15
   4   0  -9 1206.68  358.47
  -4   0  10 4080.91 1191.61
  -4   0  10 2878.91  889.64
  -4   0  10 2796.18  889.71
   4   0 -10 2132.78 1192.79
   4   0 -10 3294.51 1191.88
   4   0 -10 2749.52  889.55
   4   0 -10 2881.51  889.74
  -4   0  11    5.00    3.35
  -4   0  11    5.58    3.78
   4   0 -11    3.37    4.06
   4   0 -11    4.17    3.51
   4   0 -11    4.78    3.55
   4   0 -11    5.18    3.69
  -4   0  12   25.19    9.69
  -4   0  12   32.47    9.79
   4   0 -12   34.11    7.62
   4   0 -12    8.42    7.99
   4   0 -12   25.26    9.80
   4   0 -12   21.97    9.84
  -4   0  13  357.38  113.45
   4   0 -13  479.85  145.34
   4   0 -13  407.68  145.20
   4   0 -13  357.57  113.34
   4   0 -13  308.90  113.52
   4   0 -14    3.45   11.59
   4   0 -15   99.82   38.14
   4   0 -15  104.45   33.91
   4   0 -16   -1.16    4.23
   4   0 -17   62.44   29.28
   4   0 -17   89.87   28.24
   4   0 -18    0.44   18.03
   4   0 -18    3.91    5.17
   4   0 -19    6.02   42.48
   4   0 -19  135.89   37.48
   4   0 -20    5.23    6.05
   4   0 -21    7.83    7.81
  -4   2   1   30.32    5.78
   4  -2  -1   36.94    8.13
   4   2  -1   21.40    3.69
   4   2  -1   30.23    9.37
  -4  -2   1   10.36    1.34
  -4  -2   1   19.42    9.16
  -4   2   2    2.95    2.94
   4  -2  -2    1.02    5.08
   4   2  -2    0.61    4.47
  -4  -2   2    6.47    6.79
  -4  -2   2    0.71    2.36
  -4   2   3    0.62    2.62
   4  -2  -3    3.08    5.00
   4   2  -3    1.87    4.77
   4   2  -3    2.45    2.92
  -4  -2   3    1.07    4.84
  -4  -2   3    2.52    2.45
  -4   2   4  228.38  113.36
   4  -2  -4  278.28  112.75
   4   2  -4  341.59  112.77
   4   2  -4  272.43   88.98
   4   2  -4  306.83   89.30
  -4  -2   4  389.60  113.28
  -4  -2   4  241.59   88.96
  -4   2   5 1892.17  912.07
   4  -2  -5 2177.48  911.42
   4  -2  -5 3038.73  910.87
   4   2  -5 2674.00  911.42
   4   2  -5 2221.85  681.11
   4   2  -5 2167.59  681.24
  -4  -2   5 2472.65  911.44
  -4  -2   5 1852.14  681.04
  -4   2   6 1158.99  604.03
   4  -2  -6 1902.37  603.00
   4   2  -6 1362.43  452.77
   4   2  -6 1638.02  453.03
  -4  -2   6 1395.89  452.83
  -4   2   7  171.76   63.26
   4  -2  -7  202.22   63.05
   4   2  -7  153.24   52.05
   4   2  -7  153.52   52.19
  -4  -2   7  198.94   62.33
  -4  -2   7  157.94   52.03
  -4   2   8    2.62    4.57
   4  -2  -8    3.79    6.90
   4  -2  -8   -2.04   14.70
   4  -2  -8    0.62    2.50
   4   2  -8    2.33    4.54
   4   2  -8    1.80    3.21
  -4  -2   8    7.54    5.41
  -4  -2   8    2.87    2.61
  -4   2   9  710.33  328.01
   4  -2  -9  668.34  327.57
   4  -2  -9  687.50  326.76
   4  -2  -9  737.42  248.47
   4  -2  -9  921.25  248.77
   4   2  -9 1026.26  327.87
   4   2  -9  802.20  248.55
   4   2  -9  664.13  248.71
  -4  -2   9 1180.57  327.49
  -4  -2   9  784.37  248.59
  -4   2  10 1438.99  719.90
   4  -2 -10 1677.82  718.98
   4  -2 -10  857.76  718.00
   4  -2 -10 1862.60  538.92
   4  -2 -10 1857.25  539.18
   4   2 -10 2456.07  719.88
   4   2 -10 1637.16  538.96
   4   2 -10 1534.94  539.12
  -4  -2  10 2550.79  718.91
  -4  -2  10 1632.94  539.00
  -4   2  11    8.57    7.64
   4  -2 -11    5.38    6.26
   4  -2 -11    2.86   11.76
   4  -2 -11    4.31    5.16
   4  -2 -11    2.97    4.69
   4   2 -11    6.04    6.39
   4   2 -11    6.44    5.62
   4   2 -11    0.43    4.54
  -4  -2  11   12.45   10.59
  -4  -2  11    2.51    4.08
   4  -2 -12   15.74    4.58
   4  -2 -12   20.60    9.03
   4   2 -12   19.99    6.75
   4   2 -12   27.17    9.14
  -4  -2  12    1.37    7.53
   4  -2 -13  252.45  114.88
   4  -2 -13  290.26   91.67
   4   2 -13  382.38  115.76
   4   2 -13  220.16  115.95
   4   2 -13  345.14   91.69
  -4  -2  13   42.26  113.51
   4  -2 -14   -3.67   13.59
   4  -2 -14    3.83    5.64
   4   2 -14    4.80   13.66
   4   2 -14    2.70    4.42
   4  -2 -15   77.70   26.39
   4  -2 -15   60.92   23.28
   4   2 -15   71.70   23.15
   4  -2 -16    0.30    5.59
   4   2 -16    4.65   16.42
   4   2 -16    2.88    4.58
   4  -2 -17   -2.52    9.11
   4  -2 -17    2.72   13.23
   4   2 -17   17.43   21.91
   4   2 -17   78.18   13.35
   4  -2 -18    7.48   18.78
   4  -2 -18    0.72    7.64
   4   2 -18    4.58    5.12
   4  -2 -19    1.80   26.65
   4   2 -19   92.15   25.93
   4  -4  -1    7.13    6.77
   4   4  -1    7.03    5.17
   4   4  -1   -0.60    4.45
  -4  -4   1    6.85    8.82
  -4  -4   1    4.34    4.68
   4  -4  -2    8.46    6.89
   4   4  -2    2.22    5.18
   4   4  -2    1.05    3.95
  -4  -4   2   -3.15    9.37
  -4  -4   2    0.28    4.16
   4   4  -3    1.17    5.80
   4   4  -3   -1.07    3.62
  -4  -4   3   -3.17   11.68
  -4  -4   3    2.77    4.32
   4  -4  -4  118.31   23.31
   4   4  -4   91.39   22.49
   4   4  -4   34.06   20.97
  -4  -4   4   88.73   22.01
  -4  -4   4   35.47   20.97
   4  -4  -5  865.09  296.86
   4   4  -5  679.63  226.47
   4  -4  -6  558.52  186.74
   4   4  -6  427.79  144.61
   4  -4  -7   56.83   20.77
   4   4  -7   50.84   21.53
  -4  -4   7   94.94   29.66
   4  -4  -8    2.32    9.87
  -4  -4   8    0.43   13.49
   4  -4  -9  360.14  159.61
   4   4  -9  319.49  125.09
  -4  -4   9  695.94  161.23
   4  -4 -10  591.99  263.67
   4   4 -10  514.73  202.24
  -4  -4  10 1193.19  265.11
   4  -4 -11   -3.78   12.77
   4   4 -11    3.12    6.40
   4  -4 -12    3.27    9.42
   4   4 -12    7.81    7.28
  -4  -4  12   -3.83   33.44
   4  -4 -13   35.89   23.64
   4   4 -13   80.10   24.86
   4  -4 -14    0.24   10.64
   4   4 -14    1.46    5.83
   4  -4 -15   -2.76   17.23
  -3   1   1   28.43   11.46
   3  -1  -1   43.56   11.04
   3   1  -1   33.92   10.62
   3   1  -1   47.20   13.52
  -3  -1   1   45.43   11.76
  -3  -1   1   32.99   13.42
  -3   1   2  131.50   65.85
   3  -1  -2  161.65   65.45
   3   1  -2  166.77   65.03
   3   1  -2  171.59   53.47
  -3  -1   2  183.60   65.02
  -3  -1   2  179.31   53.52
  -3   1   3   37.44   13.46
  -3   1   3   50.07   14.81
   3  -1  -3   40.11   13.53
   3  -1  -3   45.99   12.81
   3   1  -3   46.95   12.66
   3   1  -3   46.98   14.81
  -3  -1   3   47.48   12.25
  -3  -1   3   33.55   14.75
  -3   1   4  174.72   84.00
  -3   1   4  253.80   67.08
   3  -1  -4  193.90   83.64
   3  -1  -4  245.21   83.04
   3  -1  -4  190.81   66.90
   3  -1  -4  220.25   67.15
   3   1  -4  235.37   83.00
   3   1  -4  206.68   66.97
   3   1  -4  220.19   67.22
  -3  -1   4  266.15   82.78
  -3  -1   4  176.02   66.96
  -3   1   5  108.99   47.03
  -3   1   5  143.57   39.65
  -3   1   5  126.22   39.75
   3  -1  -5  114.75   46.67
   3  -1  -5  136.25   46.73
   3  -1  -5  109.71   39.47
   3  -1  -5  128.27   39.76
   3   1  -5  156.07   46.19
   3   1  -5   95.20   39.52
   3   1  -5  128.07   39.86
  -3  -1   5  161.15   45.44
  -3  -1   5  119.79   39.60
  -3   1   6  144.30   53.95
  -3   1   6  161.11   44.78
  -3   1   6  152.56   44.82
   3  -1  -6  125.66   53.35
   3  -1  -6  191.81   53.33
   3  -1  -6  134.59   44.61
   3  -1  -6  150.52   44.83
   3   1  -6  118.68   44.56
   3   1  -6  121.72   44.89
  -3  -1   6  131.20   44.68
  -3   1   7   30.81    8.27
  -3   1   7   34.65   10.62
  -3   1   7   29.52   10.63
   3  -1  -7   46.50   11.73
   3  -1  -7   26.00   10.50
   3  -1  -7   25.01   10.64
   3   1  -7   31.70    6.57
   3   1  -7   25.33   10.57
   3   1  -7   25.77   10.73
  -3  -1   7   33.20    8.98
  -3  -1   7   28.33   10.53
  -3   1   8  259.08  110.64
  -3   1   8  302.61   86.85
  -3   1   8  283.99   86.87
   3  -1  -8  239.07  109.74
   3  -1  -8  424.83  109.88
   3  -1  -8  259.40   86.71
   3   1  -8  271.66  109.01
   3   1  -8  244.62   86.69
   3   1  -8  235.57   86.91
  -3  -1   8  395.35  109.33
  -3  -1   8  264.18   86.78
  -3   1   9   -0.52    5.02
  -3   1   9    0.38    2.29
  -3   1   9    2.59    2.59
   3  -1  -9    0.45    5.27
   3  -1  -9   -2.75   10.99
   3  -1  -9    2.21    2.77
   3  -1  -9    1.34    2.54
   3   1  -9   -0.31    4.52
   3   1  -9    1.09    2.58
   3   1  -9    2.38    2.97
  -3  -1   9   -4.06    8.51
  -3  -1   9    1.43    2.48
  -3   1  10   83.24   24.39
   3  -1 -10   61.38   25.06
   3  -1 -10   65.69   25.32
   3  -1 -10   78.10   24.25
   3  -1 -10   71.49   24.39
   3   1 -10   78.56   25.94
   3   1 -10   63.44   24.23
   3   1 -10   74.49   24.48
  -3  -1  10   68.96   24.48
  -3  -1  10   74.56   24.30
  -3   1  11 1157.72  322.74
   3  -1 -11 1041.39  427.33
   3  -1 -11  601.52  426.58
   3  -1 -11 1055.80  322.55
   3  -1 -11 1004.81  322.75
   3   1 -11  981.98  427.70
   3   1 -11 1145.73  427.76
   3   1 -11 1009.94  322.56
   3   1 -11 1035.26  322.76
  -3  -1  11 1051.77  322.65
  -3   1  12   61.69   19.44
   3  -1 -12   58.88   18.26
   3  -1 -12   48.87   19.30
   3  -1 -12   54.27   19.90
   3   1 -12   68.92   19.25
   3   1 -12   61.10   20.40
   3   1 -12   58.90   19.39
   3   1 -12   51.08   19.71
  -3  -1  12   64.59   19.29
  -3  -1  12   61.29   19.51
  -3   1  13  335.16   90.28
   3  -1 -13  266.81  113.24
   3  -1 -13   44.75  112.50
   3  -1 -13  298.05   90.14
   3  -1 -13  253.37   90.44
   3   1 -13  556.91  114.43
   3   1 -13  283.59  114.32
   3   1 -13  319.17   90.19
   3   1 -13  210.64   90.32
  -3  -1  13  260.75   90.24
  -3   1  14   32.99   11.14
   3  -1 -14   41.07    8.74
   3  -1 -14   25.94   11.07
   3   1 -14   41.28   11.10
   3   1 -14   13.14   12.42
   3   1 -14   29.53   11.46
  -3   1  15  563.15  165.03
   3  -1 -15  536.52  213.89
   3  -1 -15  515.47  164.93
   3   1 -15  708.15  214.09
   3   1 -15   54.01  214.29
   3   1 -15  607.43  165.03
  -3   1  16  741.82  232.65
   3  -1 -16  734.26  304.79
   3  -1 -16  740.96  232.63
   3   1 -16  755.53  232.66
   3  -1 -17   16.33   12.26
   3  -1 -17   34.36   12.37
   3   1 -17   11.54   13.68
   3   1 -17   34.44   11.80
   3  -1 -18    1.93    9.36
   3  -1 -18   39.82   12.99
   3   1 -18    3.04   19.59
   3   1 -18   41.08   12.84
   3  -1 -19    0.15   54.62
   3   1 -19  176.87   47.15
   3  -1 -20    1.85    6.41
   3   1 -20   15.94    6.91
  -3   3   1   21.45    4.94
   3  -3  -1   28.21    5.99
   3   3  -1   26.00    4.42
   3   3  -1   25.08   10.03
  -3  -3   1   20.00    5.64
  -3  -3   1   30.53    9.99
  -3   3   2   63.07   27.40
   3  -3  -2   73.40   27.74
   3   3  -2   92.96   27.79
   3   3  -2   85.49   26.13
  -3  -3   2   69.14   27.83
  -3  -3   2   79.13   26.09
  -3   3   3    1.23    2.51
   3  -3  -3    8.59    7.06
   3   3  -3    4.05    4.18
   3   3  -3    3.30    4.29
   3   3  -3    3.04    3.33
  -3  -3   3    5.93    6.48
  -3  -3   3    4.40    3.62
  -3   3   4   43.88   15.61
   3  -3  -4   60.13   16.38
   3   3  -4   59.43   15.68
   3   3  -4   48.05   17.52
  -3  -3   4   48.03   15.98
  -3   3   5   25.77    8.90
   3  -3  -5   41.95   10.43
   3   3  -5   38.99   10.20
   3   3  -5   32.06   12.67
   3   3  -5   33.76   12.78
  -3  -3   5   47.08   10.63
  -3   3   6   25.06   10.58
   3  -3  -6   52.46   12.20
   3   3  -6   42.41   11.45
   3   3  -6   39.44   14.21
   3   3  -6   34.06   14.26
  -3  -3   6   46.99   11.00
  -3  -3   6   43.62   14.27
  -3   3   7    3.46    1.72
   3  -3  -7   11.96    5.66
   3   3  -7    9.43    4.19
   3   3  -7   10.90    5.57
   3   3  -7    7.20    5.53
  -3  -3   7   19.86    7.10
  -3  -3   7    9.11    5.47
  -3   3   8   50.00   23.96
   3  -3  -8   87.24   24.45
   3  -3  -8   48.21   24.59
   3   3  -8   82.95   23.77
   3   3  -8   59.64   23.84
  -3  -3   8   74.47   23.91
   3  -3  -9    0.70    7.63
   3   3  -9    1.41    4.28
   3   3  -9    0.56    4.94
  -3  -3   9    2.19    5.84
  -3  -3   9    4.24    4.18
   3  -3 -10   34.76   16.06
   3   3 -10   28.96   11.39
   3  -3 -11  891.54  221.33
   3  -3 -11  484.37  169.43
   3  -3 -11  479.64  169.74
   3   3 -11  615.98  169.56
  -3  -3  11  277.49  219.42
   3  -3 -12   51.59   16.55
   3  -3 -12   26.44   12.71
   3   3 -12   30.90   12.07
   3  -3 -13  194.15   51.86
   3  -3 -13  132.55   43.62
   3   3 -13  142.90   43.41
  -3  -3  13    2.74   47.95
   3  -3 -14   17.64   15.71
   3  -3 -14   11.40    8.22
   3   3 -14   27.72   21.14
   3   3 -14    8.13    7.69
  -3  -3  14    3.67   21.09
   3  -3 -15  305.87   63.30
   3  -3 -15    1.08   51.19
   3   3 -15  286.66   51.76
   3  -3 -16   -1.34  101.99
   3   3 -16  328.93   83.42
   3  -3 -17   -3.74   15.88
   3  -5  -1   13.23   10.45
  -3  -5   1   13.32    8.89
  -3  -5   2   27.78   13.02
  -3  -5   3    8.92   18.24
   3  -5  -4   12.37   10.28
  -3  -5   4   14.34   14.92
   3  -5  -5   14.18   10.42
  -3  -5   5   11.09   15.46
   3  -5  -6    5.27   11.57
   3  -5  -7   -0.16   12.24
  -3  -5   7    4.74   22.15
   3  -5  -8    9.48   11.14
  -3  -5   8   12.22   21.34
   3  -5  -9    7.01   19.97
   3  -5 -10    4.04   20.58
   3  -5 -11   48.38   25.97
   2   0  -1  415.12  168.19
  -2   0   2   11.99    2.44
  -2   0   2   18.87    6.49
   2   0  -2    6.88    1.50
   2   0  -2   20.07    6.64
  -2   0   3  152.39   54.02
  -2   0   3  150.32   45.40
  -2   0   3  149.94   45.61
   2   0  -3  101.81   53.86
   2   0  -3  128.46   45.35
   2   0  -3  154.81   45.60
  -2   0   4 1484.52  588.70
  -2   0   4 1548.23  442.17
   2   0  -4 1020.37  590.32
   2   0  -4 1623.57  588.59
   2   0  -4 1399.01  441.92
   2   0  -4 1499.05  442.11
  -2   0   6   30.48    6.42
  -2   0   6    6.96    5.31
   2   0  -6   15.11    1.95
   2   0  -6   28.35    5.57
   2   0  -6    6.31    5.24
   2   0  -6    4.26    5.40
  -2   0   7   51.10    7.21
  -2   0   7   27.95    9.93
  -2   0   7   27.46   10.14
   2   0  -7   22.24    6.93
   2   0  -7   18.36    6.84
   2   0  -7   24.33   10.02
   2   0  -7   25.20   10.07
  -2   0   8  821.31  246.60
  -2   0   8  820.41  246.70
   2   0  -8  827.82  326.07
   2   0  -8  734.81  246.49
   2   0  -8  777.80  246.68
  -2   0   9  196.97   61.14
  -2   0   9  199.45   61.23
   2   0  -9  181.10   75.63
   2   0  -9  182.24   74.90
   2   0  -9  189.42   61.09
  -2   0  10  242.82   71.33
  -2   0  10  240.37   71.37
   2   0 -10  235.33   88.37
   2   0 -10  202.32   71.17
   2   0 -10  214.16   71.36
  -2   0  11    5.32    3.88
  -2   0  11    6.61    4.24
   2   0 -11    9.41    3.71
   2   0 -11   15.22   13.21
   2   0 -11    8.18    4.34
   2   0 -11    3.36    4.35
  -2   0  12  262.01   78.61
   2   0 -12  287.86   98.31
   2   0 -12  216.21   98.46
   2   0 -12  250.52   78.48
   2   0 -12  226.40   78.65
  -2   0  13   38.94   12.50
   2   0 -13   47.51   13.30
   2   0 -13   26.01   12.17
   2   0 -13   33.31   12.45
   2   0 -13   28.22   12.81
  -2   0  14  178.67   54.00
   2   0 -14  180.09   64.45
   2   0 -14  111.73   64.92
   2   0 -14  171.89   53.90
  -2   0  15   11.35    5.84
   2   0 -15   13.94    8.42
   2   0 -15   -1.23   10.62
   2   0 -15   12.80    6.15
  -2   0  16    0.37    2.96
   2   0 -16    0.98    3.52
  -2   0  17  216.90   67.64
   2   0 -17  157.40   82.31
   2   0 -17  220.54   67.71
   2   0 -18   19.77   22.82
   2   0 -18   68.90   20.88
   2   0 -19  147.31   47.68
   2   0 -20   28.30   11.64
  -2   2   1 1641.09  721.34
   2  -2  -1 1606.14  721.07
   2   2  -1 1604.52  721.09
   2   2  -1 2164.44  539.91
  -2  -2   1 1700.89  721.33
  -2  -2   1 1433.79  539.91
  -2   2   2   10.53    1.60
   2  -2  -2   10.85    3.55
   2   2  -2    8.42    1.40
   2   2  -2   12.28    4.63
   2   2  -2    8.63    4.49
  -2  -2   2    5.84    1.39
  -2  -2   2    8.56    4.35
  -2   2   3  147.33   53.61
   2  -2  -3  152.58   53.55
   2   2  -3  167.66   52.81
   2   2  -3  116.24   44.79
   2   2  -3  136.25   44.99
  -2  -2   3  217.45   54.06
  -2  -2   3  122.02   44.82
  -2   2   4  720.58  321.86
   2  -2  -4  912.14  321.32
   2   2  -4 1017.22  321.58
   2   2  -4  745.17  243.80
  -2  -2   4  931.97  321.23
  -2  -2   4  661.47  243.60
  -2   2   5 4520.59 2133.20
   2  -2  -5 4077.49 2132.55
   2   2  -5 6449.03 2132.91
   2   2  -5 5268.40 1586.37
   2   2  -5 4940.08 1586.58
  -2  -2   5 5805.34 2132.30
  -2  -2   5 4987.66 1586.42
  -2   2   6    0.79    1.28
  -2   2   6    4.27    2.80
   2  -2  -6    2.13    6.48
   2  -2  -6    3.27    2.89
   2  -2  -6    5.42    2.98
   2   2  -6    1.27    1.23
   2   2  -6    8.73    4.52
   2   2  -6    1.83    3.56
  -2  -2   6    6.84    5.54
  -2  -2   6    2.05    2.95
  -2   2   7   14.35    2.92
  -2   2   7   17.66    7.13
   2  -2  -7   14.76    5.16
   2  -2  -7   17.99    7.14
   2  -2  -7   22.47    7.53
   2   2  -7   18.84    1.49
   2   2  -7   16.27    7.40
   2   2  -7   14.70    7.48
  -2  -2   7   30.77    1.88
  -2  -2   7   16.41    7.24
  -2   2   8  382.92  192.73
  -2   2   8  496.39  148.24
   2  -2  -8  401.94  192.31
   2  -2  -8  487.82  148.11
   2  -2  -8  537.21  148.33
   2   2  -8  522.03  192.01
   2   2  -8  406.73  148.12
   2   2  -8  441.04  148.34
  -2  -2   8  683.51  192.09
  -2  -2   8  460.55  148.23
  -2   2   9  105.64   54.78
  -2   2   9  171.36   46.01
   2  -2  -9  110.52   54.26
   2  -2  -9  149.31   54.34
   2  -2  -9  151.73   45.87
   2  -2  -9  170.74   46.13
   2   2  -9  201.84   54.42
   2   2  -9  120.57   45.85
   2   2  -9  124.80   46.09
  -2  -2   9  130.07   54.04
  -2  -2   9  132.89   45.96
  -2   2  10  125.65   54.84
  -2   2  10  171.85   46.21
   2  -2 -10  143.23   54.53
   2  -2 -10  135.60   55.48
   2  -2 -10  148.75   46.05
   2  -2 -10  166.87   46.36
   2   2 -10  169.54   54.70
   2   2 -10  132.27   46.10
   2   2 -10  120.77   46.27
  -2  -2  10  124.14   46.13
  -2   2  11    2.61    5.50
  -2   2  11    2.12    3.48
   2  -2 -11    4.12    8.91
   2  -2 -11    0.56   13.71
   2  -2 -11    3.65    4.38
   2   2 -11    4.45    4.52
   2   2 -11    1.48    3.33
   2   2 -11    1.54    4.14
  -2  -2  11   -1.28    8.45
  -2  -2  11    3.16    3.83
  -2   2  12  182.98   52.82
   2  -2 -12  168.65   62.85
   2  -2 -12  183.18   52.71
   2  -2 -12  134.42   52.91
   2   2 -12  261.37   63.76
   2   2 -12  142.66   63.18
   2   2 -12  159.56   52.63
  -2  -2  12   14.56   61.66
  -2   2  13   26.34   10.16
   2  -2 -13   23.91    7.79
   2  -2 -13   26.23   10.38
   2   2 -13   40.28   11.74
   2   2 -13    8.72    2.10
   2   2 -13   22.93   10.07
  -2   2  14  136.59   42.01
   2  -2 -14  136.73   48.76
   2  -2 -14  131.69   42.01
   2   2 -14   90.00   49.37
   2   2 -14  129.81   41.85
  -2   2  15    4.72    5.58
   2  -2 -15    9.71   13.88
   2   2 -15    2.94   13.98
   2   2 -15    2.92    5.21
  -2   2  16    0.17    5.43
   2  -2 -16   -0.80   16.38
   2  -2 -16    3.17    5.64
   2   2 -16   -0.64    4.81
   2  -2 -17   -0.56   51.87
   2   2 -17  174.64   45.67
   2  -2 -18    5.29   17.09
   2  -2 -18    2.39    9.68
   2   2 -18   41.12    9.26
   2   2 -19  110.06   36.43
   2  -4  -1  602.82  226.03
  -2  -4   1  538.78  226.24
  -2  -4   1  543.11  173.24
   2  -4  -2    2.85   10.84
   2   4  -2    0.94    4.91
   2   4  -2    1.38    4.02
  -2  -4   2    4.71    6.65
  -2  -4   2   -0.05    4.58
   2  -4  -3   58.43   16.88
   2   4  -3   62.35   16.80
   2   4  -3   29.67   16.11
  -2  -4   3   60.43   15.01
  -2  -4   3   34.74   16.32
   2  -4  -4  451.73  118.38
   2   4  -4  362.47   93.58
   2   4  -4  284.48   93.38
  -2  -4   4  282.16  118.00
  -2  -4   4  200.34   93.19
   2  -4  -5 1806.80  600.06
   2   4  -5 1378.17  450.97
   2   4  -5 1053.65  450.93
  -2  -4   5 2380.14  600.89
   2  -4  -6   -2.38   12.71
   2   4  -6    6.04    7.05
  -2  -4   6    7.35   13.71
   2  -4  -7    8.89   12.86
   2   4  -7    3.66    6.91
  -2  -4   7    5.86   13.81
   2  -4  -8  262.17   72.55
   2   4  -8  132.96   59.74
  -2  -4   8  283.28   73.84
   2  -4  -9   66.61   24.55
   2   4  -9   61.78   23.76
  -2  -4   9   94.90   25.94
   2  -4 -10   39.30   14.06
   2   4 -10   41.42   14.84
  -2  -4  10   24.12   12.63
   2  -4 -11   -4.02   14.66
   2   4 -11   -1.22    6.11
  -2  -4  11    2.55   19.52
   2  -4 -12   42.78   17.04
   2   4 -12   42.10   16.33
   2  -4 -13    2.19   13.95
   2   4 -13    5.03    8.12
   2   4 -14   21.90   11.03
   2  -4 -15   -4.08   24.92
  -1   1   1  136.87   53.74
   1  -1  -1  130.15   53.67
   1   1  -1  159.43   44.80
  -1  -1   1  140.78   53.49
  -1  -1   1  125.67   44.81
  -1   1   2  138.70   67.85
   1  -1  -2  186.96   67.57
   1   1  -2  213.68   67.50
   1   1  -2  192.40   55.23
   1   1  -2  153.03   55.45
  -1  -1   2  188.70   67.43
  -1  -1   2  160.74   55.22
  -1   1   3  458.40  236.62
  -1   1   3  754.23  180.50
   1  -1  -3  638.93  180.41
   1  -1  -3  633.16  180.44
   1   1  -3  419.43  180.26
   1   1  -3  588.96  180.47
  -1  -1   3  544.82  235.76
  -1  -1   3  553.56  180.28
  -1   1   4  124.58   51.78
  -1   1   4  164.56   43.47
   1  -1  -4  117.89   51.21
   1  -1  -4  147.80   43.36
   1  -1  -4  145.07   43.43
   1   1  -4  116.67   43.24
   1   1  -4  137.71   43.48
  -1  -1   4  121.93   43.30
  -1  -1   4  132.19   43.43
  -1   1   5  212.90  122.30
  -1   1   5  351.02   95.72
   1  -1  -5  239.66  121.66
   1  -1  -5  312.72   95.67
   1  -1  -5  310.46   95.77
   1   1  -5  404.78  121.61
   1   1  -5  260.76   95.58
   1   1  -5  301.69   95.85
  -1  -1   5  450.45  121.18
  -1  -1   5  305.89   95.68
  -1  -1   5  265.54   95.83
  -1   1   6  752.70  400.23
  -1   1   6  989.93  301.73
   1  -1  -6  812.60  399.48
   1  -1  -6 1232.01  398.97
   1  -1  -6  987.72  301.61
   1  -1  -6 1007.97  301.73
   1   1  -6 1176.05  399.36
   1   1  -6  882.39  301.57
   1   1  -6 1023.40  301.71
  -1  -1   6 1230.92  398.72
  -1  -1   6  928.93  301.67
  -1  -1   6  880.06  301.80
  -1   1   7  209.41  104.41
  -1   1   7  239.53   82.44
   1  -1  -7  299.57  104.14
   1  -1  -7  347.67  103.51
   1  -1  -7  244.38   82.33
   1  -1  -7  263.72   82.45
   1   1  -7  275.27  103.40
   1   1  -7  194.13   82.23
   1   1  -7  258.33   82.53
  -1  -1   7  598.03  103.54
  -1  -1   7  259.96   82.42
  -1  -1   7  239.42   82.45
  -1   1   8  164.71   76.55
  -1   1   8  197.84   61.78
   1  -1  -8  148.06   75.57
   1  -1  -8  263.51   75.68
   1  -1  -8  192.33   61.68
   1  -1  -8  201.96   61.91
   1   1  -8  175.60   61.66
   1   1  -8  168.88   61.83
  -1  -1   8  240.84   74.89
  -1  -1   8  225.56   61.77
  -1   1   9   25.43    7.45
  -1   1   9   32.78   10.62
   1  -1  -9   20.70    6.49
   1  -1  -9   18.51    8.50
   1  -1  -9   28.85   10.54
   1   1  -9   19.72    6.56
   1   1  -9   28.11   10.66
   1   1  -9   31.55   10.73
  -1  -1   9   21.00    3.36
  -1  -1   9   31.85   10.57
  -1  -1   9   34.55   10.81
  -1   1  10 1056.01  399.13
  -1   1  10 1000.65  300.82
   1  -1 -10  667.52  396.95
   1  -1 -10  891.57  300.91
   1   1 -10 1182.47  398.60
   1   1 -10  870.20  300.67
   1   1 -10  892.76  300.86
  -1  -1  10 2100.28  397.33
  -1  -1  10  880.03  300.76
  -1  -1  10  889.06  300.84
  -1   1  11 2922.78  818.29
   1  -1 -11 2663.17  818.11
   1  -1 -11 2934.88  818.35
   1   1 -11 2477.59  818.10
   1   1 -11 2647.35  818.32
  -1  -1  11 2217.01  818.20
  -1   1  12  102.19   30.47
   1  -1 -12   68.76   32.57
   1  -1 -12   31.17   33.19
   1  -1 -12   99.65   30.45
   1  -1 -12   89.37   30.69
   1   1 -12  164.31   34.06
   1   1 -12   72.87   33.53
   1   1 -12   96.12   30.40
   1   1 -12   80.13   30.62
  -1  -1  12   86.78   30.53
  -1  -1  12   97.99   30.51
  -1   1  13    0.74    3.03
   1  -1 -13   -0.19    5.50
   1  -1 -13    2.24    3.97
   1  -1 -13    2.29    3.69
   1   1 -13    2.18    8.98
   1   1 -13    0.14    2.94
  -1  -1  13    2.52    2.80
  -1   1  14  612.74  176.01
   1  -1 -14  758.42  229.24
   1  -1 -14   64.28  227.49
   1  -1 -14  591.24  175.92
   1   1 -14  130.73  229.13
   1   1 -14  605.26  175.93
  -1  -1  14  646.11  176.03
  -1   1  15  271.64   81.86
   1  -1 -15  213.27  101.49
   1  -1 -15  257.43   81.78
   1   1 -15  215.07  101.30
  -1  -1  15  269.55   81.89
  -1   1  16  139.26   42.12
   1  -1 -16   88.30   47.84
   1  -1 -16  119.80   42.08
   1   1 -16   89.04   48.43
   1   1 -16  148.25   42.23
  -1  -1  16  133.30   42.10
  -1   1  17    4.45    4.55
   1  -1 -17    5.63    4.49
  -1   1  18  191.18   52.75
   1  -1 -18   -1.33   62.42
   1  -1 -18  177.58   52.68
   1   1 -18  159.13   52.59
   1  -1 -19    0.80    6.08
   1   1 -19    3.46    5.21
   1  -1 -20    2.31    7.03
   1   1 -20   13.28    7.59
  -1   3   1   36.49    7.91
   1  -3  -1   40.72    8.80
   1   3  -1   32.14    7.52
   1   3  -1   32.04   11.72
  -1  -3   1   31.90    6.11
  -1  -3   1   30.12   11.67
  -1   3   2   55.41   19.21
   1  -3  -2   68.71   20.49
   1   3  -2   54.55   19.13
   1   3  -2   63.00   20.17
  -1  -3   2   51.20   19.71
  -1  -3   2   59.99   20.08
  -1   3   3  110.18   44.39
   1  -3  -3  110.92   44.39
   1   3  -3  128.06   43.95
   1   3  -3  115.57   38.48
   1   3  -3  119.46   38.60
  -1  -3   3  120.73   44.52
  -1  -3   3  125.67   38.55
  -1   3   4   14.21    3.33
   1  -3  -4   18.45    5.42
   1   3  -4   25.61    3.40
   1   3  -4   18.88    8.78
  -1  -3   4   26.29    5.89
  -1  -3   4   29.19    9.21
  -1   3   5   64.21   31.12
   1  -3  -5   89.92   31.34
   1   3  -5  109.18   31.61
   1   3  -5   72.67   28.77
   1   3  -5   91.30   28.95
  -1  -3   5   93.81   31.16
  -1  -3   5   99.58   28.98
  -1   3   6  301.69  154.43
   1  -3  -6  411.35  154.40
   1   3  -6  445.34  154.43
   1   3  -6  338.95  120.27
   1   3  -6  351.58  120.48
  -1  -3   6  449.37  154.67
  -1  -3   6  437.16  120.45
  -1   3   7   48.93   40.70
   1  -3  -7   97.92   41.31
   1   3  -7  127.34   41.17
   1   3  -7  115.82   36.39
   1   3  -7   90.42   36.64
  -1  -3   7  162.47   42.44
  -1  -3   7  131.90   36.62
  -1   3   8   39.32   28.91
   1  -3  -8   94.70   29.51
   1   3  -8  105.62   29.93
   1   3  -8   98.40   27.85
   1   3  -8   73.11   28.05
  -1  -3   8   82.28   27.98
  -1   3   9   18.13    7.17
   1  -3  -9   17.16    4.93
   1  -3  -9   16.44    7.37
   1  -3  -9   18.52    7.83
   1   3  -9   16.82    6.14
   1   3  -9   18.77    8.12
   1   3  -9   12.54    8.29
  -1  -3   9   16.67    3.47
  -1  -3   9   12.81    7.60
  -1   3  10  498.77  147.93
   1  -3 -10  518.36  191.43
   1  -3 -10  494.55  147.87
   1  -3 -10  486.02  148.15
   1   3 -10  526.68  191.33
  -1  -3  10  114.87  190.33
  -1   3  11 1302.38  372.74
   1  -3 -11 1198.86  494.38
   1  -3 -11 1254.00  372.68
   1   3 -11 1268.05  372.74
  -1  -3  11  137.42  492.60
  -1   3  12   32.19   12.72
   1  -3 -12   38.35   10.52
   1  -3 -12   32.00   13.02
   1   3 -12   38.46   12.45
  -1  -3  12    2.90   10.40
  -1   3  13    4.04    4.95
   1  -3 -13    4.31    9.74
   1  -3 -13   -0.72    6.60
   1   3 -13   -0.23    4.43
  -1   3  14  229.99   84.99
   1  -3 -14  221.49  105.51
   1  -3 -14  252.49   85.18
   1   3 -14  337.21   85.08
   1  -3 -15   82.95   24.95
   1  -3 -15    3.15   23.50
   1   3 -15  131.06   23.71
   1  -3 -16    1.23   15.73
   1   3 -16   55.52   16.52
   1  -3 -17   -4.07   16.35
   1   3 -17    2.26    6.34
   1  -5  -1    8.28   11.30
  -1  -5   1    5.02   10.51
   1  -5  -2    8.16   11.22
  -1  -5   2   13.81   13.16
   1  -5  -3   20.25   11.70
  -1  -5   3   22.94   14.87
   1  -5  -4    1.69   12.12
  -1  -5   4    4.92   19.45
   1  -5  -5   25.09   12.26
   1  -5  -6  142.23   48.79
  -1  -5   6  111.34   52.26
   1  -5  -7   36.26   12.62
  -1  -5   7   24.98   28.89
   1  -5  -8    6.30   11.74
   1  -5  -9    5.46   19.88
   1  -5 -10   62.69   29.16
   1  -5 -11  114.01   46.74
   0   0   1  266.50  116.84
   0   0   1  321.29  115.68
   0   0   2  443.04  197.31
   0   0   2  502.73  150.50
   0   0   2  490.40  150.56
   0   0  -2  500.38  197.07
   0   0  -2  473.09  150.47
   0   0  -2  472.66  150.55
   0   0   3  303.56  197.99
   0   0   3  501.16  151.17
   0   0   3  452.71  151.25
   0   0  -3  847.75  196.59
   0   0  -3  462.53  151.15
   0   0   4 1659.87  527.66
   0   0   4 1699.61  527.72
   0   0  -4 1709.04  705.25
   0   0  -4 2688.72  704.19
   0   0  -4 1514.70  527.59
   0   0  -4 1508.33  527.70
   0   0   5 1034.53  323.44
   0   0   5 1058.73  323.49
   0   0  -5 1093.53  429.47
   0   0  -5 1475.16  428.45
   0   0  -5  921.23  323.28
   0   0  -5  961.03  323.39
   0   0   6  231.09   70.14
   0   0   6  240.57   70.18
   0   0  -6  293.94   87.69
   0   0  -6   19.61   86.49
   0   0  -6  227.85   70.06
   0   0  -6  222.33   70.17
   0   0   7  625.76  188.45
   0   0   7  551.78  188.47
   0   0  -7  679.43  247.11
   0   0  -7  745.35  246.20
   0   0  -7  561.82  188.42
   0   0  -7  589.76  188.57
   0   0   8   90.50   27.63
   0   0   8   83.28   27.63
   0   0  -8   84.29   29.88
   0   0  -8   76.50   27.51
   0   0  -8   85.81   27.65
   0   0   9  186.53   57.87
   0   0   9  186.82   57.89
   0   0  -9  218.28   70.48
   0   0  -9  140.69   70.18
   0   0  -9  160.49   57.76
   0   0  -9  193.52   57.93
   0   0  10   48.25   16.15
   0   0 -10   58.40   13.54
   0   0 -10   43.92   16.08
   0   0 -10   43.78   16.23
   0   0  11   31.12   11.85
   0   0 -11   36.34    7.31
   0   0 -11   45.26   15.89
   0   0 -11   32.82   11.86
   0   0 -11   26.91   11.86
   0   0  12  310.71   93.95
   0   0 -12  388.83  118.73
   0   0 -12  377.79  119.40
   0   0 -12  286.58   93.85
   0   0 -12  237.27   93.98
   0   0  13   96.95   29.50
   0   0 -13  106.88   32.04
   0   0 -13   90.64   29.35
   0   0 -13   73.31   29.69
   0   0 -14  270.49   77.16
   0   0 -14  114.06   76.78
   0   0 -14  201.16   63.04
   0   0  15    1.90    3.09
   0   0 -15   -0.57    8.96
   0   0 -15   -1.08   11.42
   0   0 -15    1.53    3.49
   0   0  16  335.07  103.53
   0   0 -16  240.22  130.96
   0   0 -16  343.96  103.51
   0   0  17  418.03  126.07
   0   0 -17  185.07  161.58
   0   0 -17  437.28  126.09
   0   0  18  172.26   51.20
   0   0 -18  145.95   51.19
   0   0  19    5.05    4.64
   0   0 -19    5.79    4.82
   0   0 -20  237.51   75.74
   0   2   0 9999.00 3881.39
   0  -2   0 8508.40 3880.95
   0   2   1  140.02   51.55
   0  -2  -1  121.32   51.38
   0   2  -1  125.80   51.26
   0   2  -1  140.81   43.69
   0  -2   1  133.03   51.37
   0  -2   1  139.91   43.49
   0   2   2  144.50   69.79
   0  -2  -2  146.20   69.68
   0   2  -2  182.93   69.42
   0   2  -2  210.10   56.97
   0   2  -2  187.72   57.15
   0  -2   2  167.84   69.49
   0  -2   2  166.74   57.01
   0   2   3  277.02  162.81
   0   2   3  479.14  126.05
   0  -2  -3  413.59  163.09
   0   2  -3  420.00  162.83
   0   2  -3  432.77  126.13
   0  -2   3  339.18  162.43
   0  -2   3  366.45  125.98
   0   2   4  766.42  454.82
   0   2   4 1616.36  342.54
   0  -2  -4  818.16  454.55
   0  -2  -4 1182.47  342.57
   0  -2  -4 1240.28  342.42
   0   2  -4 1147.60  454.79
   0   2  -4  706.71  342.29
   0   2  -4 1119.82  342.59
   0  -2   4 1146.33  454.88
   0  -2   4 1058.83  342.47
   0   2   5  385.49  219.38
   0   2   5  554.74  168.15
   0  -2  -5  535.69  219.71
   0  -2  -5  546.43  168.16
   0  -2  -5  641.21  168.14
   0   2  -5  568.37  219.47
   0   2  -5  414.86  168.00
   0   2  -5  557.58  168.27
   0  -2   5  637.95  219.43
   0  -2   5  544.10  168.14
   0   2   6   83.30   43.26
   0   2   6  133.24   37.51
   0  -2  -6   86.73   42.93
   0  -2  -6  119.53   37.45
   0  -2  -6  137.22   37.59
   0   2  -6  133.16   43.00
   0   2  -6   83.08   37.34
   0   2  -6  124.75   37.60
   0  -2   6  167.28   43.08
   0  -2   6  105.70   37.46
   0   2   7  257.23  137.92
   0   2   7  373.35  107.57
   0  -2  -7  285.69  137.31
   0  -2  -7  400.58  107.61
   0   2  -7  422.61  137.26
   0   2  -7  265.77  107.43
   0   2  -7  345.18  107.63
   0  -2   7  509.41  137.13
   0  -2   7  310.81  107.53
   0   2   8   34.38   14.06
   0   2   8   49.26   16.14
   0  -2  -8   41.54   14.46
   0  -2  -8   49.39   16.08
   0  -2  -8   53.27   16.34
   0   2  -8   68.71   14.62
   0   2  -8   38.77   15.99
   0  -2   8   44.34   16.14
   0  -2   8   45.31   16.17
   0   2   9   93.02   43.42
   0   2   9  123.23   37.80
   0  -2  -9  160.01   43.92
   0  -2  -9  124.24   37.74
   0  -2  -9  158.54   38.05
   0   2  -9  106.85   37.71
   0   2  -9   93.05   37.90
   0  -2   9   78.35   42.66
   0  -2   9  110.36   37.82
   0  -2   9  109.55   37.87
   0   2  10   19.19    6.68
   0  -2 -10   16.00    4.02
   0  -2 -10   19.50    9.64
   0  -2 -10   18.22    6.73
   0  -2 -10   18.13    7.45
   0   2 -10   16.77    6.90
   0   2 -10   11.00    7.01
   0  -2  10   -0.25    2.42
   0  -2  10   12.94    6.83
   0  -2  10   18.13    6.97
   0   2  11   11.68    6.30
   0   2  11   15.18    6.26
   0  -2 -11    9.16    3.77
   0  -2 -11   11.32   17.67
   0  -2 -11   16.02    6.21
   0  -2 -11   11.69    7.09
   0   2 -11   22.09    4.21
   0   2 -11   13.98    6.18
   0   2 -11   12.45    6.85
   0  -2  11   13.17    6.21
   0   2  12  206.13   56.09
   0  -2 -12  177.70   67.23
   0  -2 -12  150.61   56.30
   0   2 -12  202.74   67.33
   0   2 -12  157.46   55.93
   0   2  13   61.52   18.96
   0  -2 -13   33.84   16.82
   0  -2 -13   59.34   19.05
   0   2 -13   49.06   18.74
   0   2  14  153.54   47.52
   0  -2 -14  109.99   55.80
   0  -2 -14  143.33   47.43
   0   2 -14  154.80   47.42
   0   2  15    1.63    5.41
   0  -2 -15   -3.37   14.83
   0  -2 -15    3.44    4.20
   0   2 -15    2.52    4.02
   0   2  16  268.38   51.92
   0  -2 -16    2.21   60.99
   0  -2 -16   -0.28   51.27
   0   2 -16  258.21   51.81
   0   2  17  260.10   58.34
   0  -2 -17   -0.59   57.81
   0   2 -17  288.08   58.31
   0   2  18   86.72   21.48
   0  -2 -18    2.36   22.45
   0  -2 -18   -1.88   21.36
   0   2 -18  113.62   21.49
   0   2 -19    2.29    6.79
   0  -4   0 2425.02 1008.31
   0  -4  -1   71.72   22.92
   0  -4   1   62.52   22.79
   0  -4  -2   79.51   29.12
   0  -4  -3  165.46   40.99
   0   4  -3  127.42   35.75
   0  -4   3  106.86   40.28
   0  -4   3   70.72   35.39
   0  -4  -4  399.94  125.80
   0   4  -4  220.30   99.02
   0  -4   4  507.40  126.66
   0  -4   4  298.74   98.95
   0  -4  -5  170.05   40.45
   0   4  -5  137.43   35.33
   0   4  -5   60.72   35.45
   0  -4   5  163.65   39.85
   0  -4   5   79.20   35.21
   0  -4  -6   29.81   11.93
   0   4  -6   22.98   10.79
   0  -4  -7  115.48   44.60
   0  -4   7  119.90   45.22
   0  -4  -8    7.18   12.59
   0   4  -8    5.93    7.38
   0  -4   8    6.31   14.44
   0  -4  -9   60.69   14.97
   0   4  -9   27.39   13.88
   0  -4 -10    1.60   13.06
   0   4 -10    5.53    7.96
   0  -4 -11    3.81   12.57
   0   4 -11    9.46    9.40
   0  -4 -12   56.82   25.01
   0   4 -12   64.80   23.26
   0  -4 -13   10.29   11.85
   0   4 -13   22.07   12.16
   0  -4 -14   11.38   13.45
   0   4 -14   40.68   16.01
   1   1   0  199.39   97.80
   1   1   0  283.42   77.63
  -1  -1   0  166.74   97.73
  -1  -1   0  262.58   77.58
   1  -1   0  223.92   97.99
   1   1   1  448.75  239.17
   1   1   1  774.19  182.47
  -1  -1  -1  408.20  239.20
  -1  -1  -1  672.34  182.43
  -1   1  -1  528.19  239.01
  -1   1  -1  474.33  182.38
  -1   1  -1  564.86  182.61
   1  -1   1  583.47  238.97
   1  -1   1  623.88  182.52
   1  -1   1  545.43  182.62
   1   1   2   95.71   48.16
   1   1   2  161.37   41.01
  -1  -1  -2   91.37   48.16
  -1  -1  -2  161.63   40.95
  -1   1  -2  110.27   40.93
  -1   1  -2  102.91   41.10
   1  -1   2  139.53   47.92
   1  -1   2  123.23   41.03
   1  -1   2  127.13   41.13
   1   1   3    5.57    1.37
   1   1   3    7.87    3.83
  -1  -1  -3    5.53    2.59
  -1  -1  -3    6.99    3.82
  -1   1  -3    9.45    1.00
  -1   1  -3    9.67    3.98
  -1   1  -3    5.24    3.87
   1  -1   3   10.85    1.24
   1  -1   3    7.60    3.93
   1  -1   3    7.44    4.00
   1   1   4  244.52  146.39
   1   1   4  510.65  113.82
  -1  -1  -4  288.57  146.10
  -1  -1  -4  381.33  113.83
  -1   1  -4  497.75  145.91
  -1   1  -4  315.66  113.70
  -1   1  -4  295.17  113.84
   1  -1   4  377.04  113.80
   1  -1   4  320.30  113.87
   1   1   5  784.41  415.19
   1   1   5 1086.16  313.06
  -1  -1  -5  837.49  414.61
  -1  -1  -5 1064.25  313.07
  -1  -1  -5 1063.71  313.06
  -1   1  -5  978.78  313.00
  -1   1  -5 1021.63  313.06
   1  -1   5 1042.41  313.01
   1  -1   5  940.50  313.17
   1   1   6 6346.78 2889.90
  -1  -1  -6 7671.75 2889.30
  -1  -1  -6 6904.21 2147.40
   1   1   7   15.84    5.15
   1   1   7   29.82   10.09
  -1  -1  -7   16.98    6.39
  -1  -1  -7   29.57   10.06
  -1  -1  -7   31.83   10.20
  -1   1  -7   24.59    4.56
  -1   1  -7   21.92    3.07
  -1   1  -7   26.81   10.09
  -1   1  -7   27.42   10.13
   1  -1   7   27.77   10.03
   1  -1   7   28.62   10.16
   1   1   8   70.99   39.88
   1   1   8  107.63   34.99
  -1  -1  -8   78.29   39.26
  -1  -1  -8  226.38   39.55
  -1  -1  -8  102.41   34.92
  -1  -1  -8  111.11   35.10
  -1   1  -8  104.28   39.16
  -1   1  -8  103.73   35.04
   1  -1   8   99.37   38.72
   1  -1   8  109.54   34.96
   1  -1   8  106.84   35.03
   1   1   9  652.35  404.72
   1   1   9  955.07  305.33
  -1  -1  -9 1193.48  404.36
  -1  -1  -9 1949.95  404.12
  -1  -1  -9  926.19  305.23
  -1  -1  -9  938.21  305.39
  -1   1  -9 1453.05  404.42
  -1   1  -9  821.50  305.19
  -1   1  -9  902.39  305.39
   1  -1   9  999.94  305.37
   1  -1   9  907.79  305.36
   1   1  10 1599.88  667.37
   1   1  10 1619.39  499.83
  -1  -1 -10 1997.24  666.59
  -1  -1 -10 1324.16  665.30
  -1  -1 -10 1565.56  499.73
  -1  -1 -10 1576.01  499.94
  -1   1 -10 3117.38  666.82
  -1   1 -10 1382.52  499.74
  -1   1 -10 1502.61  499.89
   1  -1  10 1509.09  499.83
   1  -1  10 1447.03  499.88
   1   1  11  412.26  140.27
   1   1  11  367.37  109.08
  -1  -1 -11  274.33  138.85
  -1  -1 -11  205.66  138.27
  -1  -1 -11  348.27  108.98
  -1  -1 -11  364.85  109.21
  -1   1 -11  347.78  108.97
  -1   1 -11  311.30  109.12
   1  -1  11  369.66  109.12
   1   1  12   27.58    9.40
  -1  -1 -12   21.42    5.44
  -1  -1 -12    4.23   10.77
  -1  -1 -12   23.41    9.41
  -1  -1 -12   19.79   10.01
  -1   1 -12   33.96    3.02
  -1   1 -12   28.84    9.90
  -1   1 -12   26.27    9.89
   1   1  13  433.55  130.30
  -1  -1 -13  582.54  167.92
  -1  -1 -13   75.95  166.54
  -1  -1 -13  441.91  130.21
  -1  -1 -13  374.10  130.50
  -1   1 -13  399.92  130.20
   1  -1  13  446.66  130.33
   1   1  14    3.94    3.30
  -1  -1 -14    0.93   10.34
  -1  -1 -14    1.56    3.57
  -1   1 -14    1.22    3.60
   1  -1  14    1.08    3.19
   1   1  15   17.19    6.37
  -1  -1 -15   13.98   12.83
  -1  -1 -15    9.52    6.57
  -1   1 -15   10.91    6.72
   1  -1  15   12.09    6.34
   1   1  16   74.82   23.02
  -1  -1 -16   26.00   22.79
  -1  -1 -16   63.59   23.13
  -1   1 -16   73.17   23.20
   1  -1  16   72.88   23.09
   1   1  17   11.87    5.55
  -1  -1 -17    3.01    8.86
  -1  -1 -17    6.56    5.93
  -1   1 -17   10.01    5.48
   1  -1  17    8.12    4.98
  -1  -1 -18   40.40   13.23
  -1   1 -18   31.60   12.42
   1  -1  18   26.81   12.11
   1   1  19  118.17   25.53
  -1  -1 -19   -0.72   24.88
  -1   1 -19  104.12   25.25
  -1   1 -20   24.87   10.82
   1   3   0   67.71   18.91
   1   3   0   49.00   19.82
  -1  -3   0   59.94   19.54
  -1   3   0   67.00   19.01
   1  -3   0   69.23   19.48
   1   3   1  148.06   57.58
  -1  -3  -1  150.36   57.65
  -1   3  -1  161.20   57.50
   1  -3   1  144.80   57.82
   1   3   2   45.12   17.67
  -1  -3  -2   48.98   18.03
  -1   3  -2   48.15   17.19
  -1   3  -2   64.71   19.09
   1  -3   2   49.62   18.26
   1  -3   2   59.72   19.02
   1   3   3   -0.24    4.53
  -1  -3  -3    0.06    6.68
  -1   3  -3   -0.34    2.62
  -1   3  -3   -1.05    3.72
   1  -3   3    2.59    4.74
   1  -3   3    1.80    3.31
   1   3   4   94.57   37.70
  -1  -3  -4   94.95   38.17
  -1   3  -4  133.75   38.65
  -1   3  -4   81.15   33.84
  -1   3  -4  104.69   34.09
   1  -3   4  131.56   38.83
   1  -3   4  115.35   34.10
   1   3   5  257.39  164.78
  -1  -3  -5  360.79  164.96
  -1   3  -5  525.46  165.29
  -1   3  -5  302.55  128.03
  -1   3  -5  469.22  128.31
   1  -3   5  424.94  165.61
   1  -3   5  489.25  128.27
   1   3   6 1932.31 1144.13
   1   3   6 3723.75  854.25
  -1  -3  -6 2266.58 1143.85
  -1  -3  -6 2611.07  854.12
  -1   3  -6 2460.64  854.29
   1  -3   6 2638.76  854.26
   1   3   7    2.58    4.31
  -1  -3  -7    4.62    6.48
  -1  -3  -7    4.49    3.49
  -1  -3  -7    4.25    5.14
  -1   3  -7    3.14    4.89
  -1   3  -7    3.32    5.20
   1  -3   7    5.84   11.00
   1  -3   7    3.04    5.00
   1   3   8   14.11    9.99
   1   3   8   43.88   14.54
  -1  -3  -8   40.30   11.68
  -1  -3  -8   41.24   14.20
  -1  -3  -8   49.83   15.16
  -1   3  -8   51.30   12.35
  -1   3  -8   30.28   14.63
  -1   3  -8   39.71   15.01
   1  -3   8   43.06   14.88
   1   3   9  430.40  123.26
  -1  -3  -9  406.92  157.90
  -1  -3  -9  445.69  123.18
  -1  -3  -9  432.03  123.39
  -1   3  -9  382.01  123.19
  -1   3  -9  335.53  123.41
   1  -3   9  386.09  157.67
   1  -3   9  319.21  123.31
   1   3  10  773.31  231.52
  -1  -3 -10  744.78  303.81
  -1  -3 -10  758.01  231.42
  -1  -3 -10  726.19  231.69
  -1   3 -10  759.65  303.45
  -1   3 -10  703.32  231.44
   1   3  11  131.36   40.51
  -1  -3 -11  200.02   47.71
  -1   3 -11  109.99   45.56
  -1   3 -11  101.77   40.32
   1   3  12    7.57    5.66
  -1  -3 -12    9.47   10.31
  -1  -3 -12    4.41    6.53
  -1   3 -12    6.79    4.87
   1   3  13  188.21   66.84
  -1  -3 -13  215.06   81.88
  -1  -3 -13  204.05   66.99
  -1   3 -13  235.14   66.91
   1   3  14    1.31    6.87
  -1  -3 -14    7.71   13.35
  -1  -3 -14    3.14    5.95
  -1   3 -14    5.11    4.77
   1   3  15    4.44    7.42
  -1  -3 -15    2.56    6.94
  -1   3 -15    2.84    7.17
  -1  -3 -16   -4.83   12.93
  -1   3 -16   23.22   10.31
  -1   3 -17    8.23    9.13
  -1  -5   0    9.12   10.75
   1  -5   0   14.89   10.60
   1  -5   1   31.62   12.93
  -1  -5  -2   30.00   12.05
   1  -5   2   12.16   10.71
  -1  -5  -3    3.90   12.27
   1  -5   3   -1.55   11.90
  -1  -5  -4   25.80   11.93
   1  -5   4   26.36   16.15
  -1  -5  -5  118.62   48.10
   1  -5   5  134.93   51.49
  -1  -5  -6  701.83  274.93
   1  -5   6  642.03  275.82
  -1  -5  -7    1.85   13.31
   1  -5   7   -1.51   18.83
  -1  -5  -8    1.92   13.06
  -1  -5  -9   85.76   36.22
  -1  -5 -10   94.68   39.74
   2   0   1  504.23  182.51
   2   0   1  409.11  140.40
  -2   0  -1  463.69  140.38
   2   0   2  487.42  148.08
  -2   0  -2  514.93  192.58
  -2   0  -2  440.93  148.08
   2   0   3    4.34    3.13
  -2   0  -3    4.33    0.86
  -2   0  -3    2.38    2.66
   2   0   4  283.60  108.97
   2   0   4  275.29   85.88
  -2   0  -4  289.42  108.06
  -2   0  -4  255.15   85.89
  -2   0  -4  271.52   85.88
   2   0   5  146.66   58.95
   2   0   5  123.79   48.81
  -2   0  -5  150.63   57.76
  -2   0  -5  362.74   58.04
  -2   0  -5  125.67   48.74
  -2   0  -5  130.93   48.74
   2   0   6   47.91   20.89
   2   0   6   57.27   20.74
  -2   0  -6  132.12   19.61
  -2   0  -6   50.67   20.74
  -2   0  -6   60.71   20.82
   2   0   7  217.59   75.41
  -2   0  -7  493.00   93.32
  -2   0  -7  190.95   75.33
  -2   0  -7  222.79   75.43
   2   0   8  269.02   87.31
  -2   0  -8  387.87  109.19
  -2   0  -8  258.84   87.22
  -2   0  -8  267.61   87.28
   2   0   9  127.54   41.93
  -2   0  -9  130.49   48.21
  -2   0  -9  159.53   47.92
  -2   0  -9  122.63   41.95
   2   0  10   18.93    7.64
  -2   0 -10   17.03    1.61
  -2   0 -10   19.18    7.66
  -2   0 -10   17.58    7.62
   2   0  11  393.65  118.91
  -2   0 -11  384.08  118.83
  -2   0 -11  355.32  119.02
   2   0  12 1272.39  404.46
  -2   0 -12 1728.72  537.61
  -2   0 -12 1194.05  537.08
  -2   0 -12 1296.47  404.37
  -2   0 -12 1208.67  404.58
   2   0  13  279.73   87.63
  -2   0 -13  275.17   87.56
   2   0  14    8.58    4.39
  -2   0 -14    7.71    8.16
  -2   0 -14   -2.43    9.74
  -2   0 -14    6.82    4.62
   2   0  15  608.91  166.82
  -2   0 -15  376.15  216.38
  -2   0 -15   85.34  216.00
  -2   0 -15  625.25  166.77
  -2   0 -16  633.44  198.01
   2   0  17   68.69   23.54
  -2   0 -17   71.34   23.62
   2   0  18    3.17    4.10
  -2   0 -18    2.64    4.16
   2   0  19  199.16   65.34
  -2   0 -19  211.17   65.50
   2   0  20   11.29    5.92
  -2   0 -20    7.95    6.91
   2   2   0 1171.69  523.95
  -2  -2   0 1259.30  524.04
  -2  -2   0 1283.69  393.72
  -2   2   0 1215.09  523.96
   2  -2   0 1371.33  523.91
   2   2   1  265.10  119.63
   2   2   1  398.03   94.16
  -2  -2  -1  218.16  119.59
  -2  -2  -1  282.72   94.00
  -2   2  -1  254.18  119.50
  -2   2  -1  291.73   94.20
   2  -2   1  283.43   94.20
   2   2   2  122.08   69.37
   2   2   2  238.35   57.01
  -2  -2  -2  149.44   69.47
  -2   2  -2  124.21   56.79
  -2   2  -2  209.06   57.03
   2  -2   2  155.61   69.05
   2  -2   2  199.41   57.00
   2   2   3    4.37    3.10
   2   2   3    4.71    2.83
  -2  -2  -3    3.38    6.12
  -2   2  -3    6.90    1.14
  -2   2  -3    3.31    2.78
  -2   2  -3    4.83    2.94
   2  -2   3    3.04    2.70
   2  -2   3    2.88    2.77
   2   2   4   79.23   37.08
   2   2   4  133.43   33.16
  -2  -2  -4   89.37   37.19
  -2  -2  -4  125.50   33.10
  -2   2  -4  122.26   36.89
  -2   2  -4   79.20   32.98
  -2   2  -4  101.88   33.20
   2  -2   4  114.03   37.17
   2  -2   4   87.37   33.15
   2  -2   4   86.64   33.14
   2   2   5   26.86   10.77
   2   2   5   46.72   13.81
  -2  -2  -5   29.22   11.31
  -2  -2  -5   50.12   13.82
  -2   2  -5   28.63   13.68
  -2   2  -5   41.83   13.87
   2  -2   5   39.90   13.82
   2  -2   5   39.41   13.88
   2   2   6   24.75    6.85
   2   2   6   41.51   10.89
  -2  -2  -6   28.41    7.41
  -2  -2  -6   30.60   10.72
  -2  -2  -6   32.34   10.81
  -2   2  -6   27.96   10.67
  -2   2  -6   28.51   10.86
   2  -2   6   23.39   10.76
   2  -2   6   24.93   10.82
   2   2   7   87.03   44.50
   2   2   7  123.96   38.62
  -2  -2  -7   98.88   44.48
  -2  -2  -7  132.79   38.62
  -2  -2  -7  125.66   38.61
  -2   2  -7  186.52   44.23
  -2   2  -7   90.94   38.46
  -2   2  -7  120.57   38.68
   2  -2   7  135.38   38.69
   2  -2   7  108.30   38.64
   2   2   8  116.37   43.47
  -2  -2  -8   88.94   42.81
  -2  -2  -8  127.72   37.60
  -2  -2  -8  117.64   37.66
  -2   2  -8  186.18   42.88
  -2   2  -8  100.18   37.53
  -2   2  -8  111.53   37.72
   2  -2   8  107.55   37.66
   2  -2   8  117.78   37.70
   2   2   9   47.51   22.21
   2   2   9   80.38   22.57
  -2  -2  -9   53.11   22.16
  -2  -2  -9   74.24   22.41
  -2  -2  -9   67.59   22.49
  -2   2  -9   64.35   22.39
  -2   2  -9   54.69   22.49
   2  -2   9   71.49   22.53
   2   2  10   11.85    6.02
   2   2  10   13.95    5.63
  -2  -2 -10    7.65    2.35
  -2  -2 -10   11.53    5.40
  -2   2 -10   11.76    5.46
  -2   2 -10    7.93    5.55
   2  -2  10    8.16    5.40
   2   2  11  282.20   81.94
  -2  -2 -11  284.47  102.59
  -2  -2 -11  288.47   81.84
  -2  -2 -11  238.42   82.06
  -2   2 -11  219.48   81.75
  -2   2 -11  230.91   82.06
   2  -2  11  282.34   81.92
   2   2  12  843.11  259.51
  -2  -2 -12  768.14  341.83
  -2  -2 -12  887.70  259.42
  -2   2 -12  831.34  259.40
   2  -2  12  780.91  259.48
   2   2  13  224.31   65.39
  -2  -2 -13  132.81   79.38
  -2  -2 -13  204.69   65.23
  -2   2 -13  204.90   65.27
   2  -2  13  207.54   65.32
   2   2  14   10.90    6.48
  -2  -2 -14    5.50   10.37
  -2   2 -14    8.58    6.04
   2  -2  14   10.46    5.63
   2   2  15  443.98  123.35
  -2  -2 -15  291.39  157.54
  -2  -2 -15  381.18  123.21
  -2   2 -15  401.22  123.23
   2  -2  15  368.93  123.20
   2   2  16  481.90   94.98
  -2  -2 -16    3.65   94.27
  -2   2 -16  425.00   94.81
   2   2  17   44.98   12.59
  -2  -2 -17    0.06   11.54
  -2   2 -17   46.50   11.90
   2   2  18    0.64    6.25
  -2  -2 -18    5.94    6.75
  -2   2 -18    2.63    5.42
  -2   2 -19  124.78   41.16
  -2  -4   0  398.18  163.69
   2  -4   0  409.31  163.27
  -2  -4  -1   86.84   32.42
  -2  -4  -2   49.57   15.95
   2  -4   2   34.85   12.65
  -2  -4  -3   -4.52   12.61
   2  -4   3   -1.28    9.92
  -2  -4  -4   35.87   15.94
  -2  -4  -5    8.93   10.87
  -2   4  -5    2.98    6.20
   2  -4   5    5.63    8.61
  -2  -4  -6   14.16   10.86
  -2   4  -6    2.20    6.27
   2  -4   6    9.46   13.26
  -2  -4  -7   44.48   12.76
  -2   4  -7   21.48   12.80
   2  -4   7   48.44   17.00
  -2  -4  -8   36.74   11.92
  -2   4  -8   24.71   12.57
   2  -4   8   28.89   13.15
  -2  -4  -9   36.17   11.49
  -2   4  -9   24.34   11.56
   2  -4   9    0.61    7.51
  -2  -4 -10    9.27   11.13
   2  -4  10    2.63   27.30
  -2  -4 -11  100.37   39.47
  -2   4 -11  108.32   36.00
  -2  -4 -12  182.92   86.34
  -2   4 -12  231.73   71.06
  -2  -4 -13    7.61   13.33
  -2   4 -13   46.58   16.76
  -2  -4 -14    4.01   23.76
   3   1   0   79.75   34.18
   3   1   0  111.08   30.77
  -3  -1   0   65.37   34.37
  -3  -1   0   82.96   30.70
  -3   1   0   88.49   35.03
  -3   1   0  101.19   30.92
  -3   1   0  103.96   30.77
   3  -1   0  100.94   34.63
   3   1   2   77.11   51.91
   3   1   2  162.95   43.99
  -3  -1  -2   83.44   51.87
  -3  -1  -2  160.92   43.92
  -3   1  -2  141.48   52.26
  -3   1  -2  136.50   44.03
   3  -1   2  143.26   51.84
   3  -1   2  126.89   44.05
   3   1   3  139.56   83.26
   3   1   3  231.07   67.22
  -3  -1  -3  137.11   83.08
  -3  -1  -3  268.70   67.19
  -3   1  -3  341.15   83.41
  -3   1  -3  199.20   67.22
  -3   1  -3  183.65   67.23
   3  -1   3  170.88   67.27
   3   1   4  241.00  136.56
   3   1   4  369.58  106.81
  -3  -1  -4  249.66  136.29
  -3  -1  -4  384.97  106.76
  -3   1  -4  345.87  106.87
  -3   1  -4  320.97  106.82
   3  -1   4  347.39  106.87
   3   1   5 3209.43 1843.54
  -3  -1  -5 4555.71 1843.82
  -3   1  -5 4911.62 1372.29
   3   1   6 1756.33  522.27
  -3  -1  -6 1676.39  697.32
  -3  -1  -6 1708.99  522.31
  -3   1  -6 1582.16  522.21
  -3   1  -6 1696.77  522.40
   3  -1   6 1668.13  522.32
   3   1   7  327.81  174.69
   3   1   7  454.72  135.02
  -3  -1  -7  399.51  174.79
  -3  -1  -7  449.41  135.01
  -3  -1  -7  468.45  135.14
  -3   1  -7  407.29  134.94
  -3   1  -7  424.67  135.06
   3  -1   7  438.74  135.05
   3   1   8  544.97  280.23
   3   1   8  739.04  213.33
  -3  -1  -8  475.09  279.67
  -3  -1  -8  702.03  213.30
  -3  -1  -8  730.45  213.32
  -3   1  -8  635.02  213.17
  -3   1  -8  745.54  213.33
   3  -1   8  686.60  213.29
   3   1   9  108.15   32.78
  -3  -1  -9   64.30   35.89
  -3  -1  -9  100.56   32.76
  -3  -1  -9  115.15   32.93
  -3   1  -9   95.55   32.70
  -3   1  -9   97.96   32.85
   3  -1   9   99.44   32.78
   3   1  10    3.03    6.50
   3   1  10    3.32    3.81
  -3  -1 -10   -1.76    4.69
  -3  -1 -10   15.90   15.83
  -3  -1 -10    4.01    3.64
  -3  -1 -10    2.19    3.96
  -3   1 -10    1.47    3.54
  -3   1 -10    2.94    3.46
   3  -1  10    2.34    3.15
   3   1  11   73.29   21.41
   3   1  11   69.83   20.73
  -3  -1 -11   54.24   19.96
  -3  -1 -11   55.40   20.62
  -3  -1 -11   62.45   20.96
  -3   1 -11   58.84   20.64
  -3   1 -11   59.23   20.97
   3  -1  11   58.87   20.67
   3   1  12   14.27    8.14
   3   1  12   15.10    6.24
  -3  -1 -12   13.12   16.58
  -3  -1 -12   14.34    6.06
  -3  -1 -12   11.58    6.44
  -3   1 -12   16.68    6.64
  -3   1 -12    4.88    6.36
   3  -1  12   14.74    6.42
   3   1  13   61.31   21.30
  -3  -1 -13    7.75   23.92
  -3  -1 -13   57.06   21.24
  -3   1 -13   72.96   21.50
   3  -1  13   73.13   21.49
   3   1  14  279.91   88.49
  -3  -1 -14  265.51  111.15
  -3  -1 -14  276.86   88.44
  -3   1 -14  274.40   88.46
   3  -1  14  293.47   88.52
   3   1  15   31.18   11.97
  -3  -1 -15   29.55   16.81
  -3  -1 -15   30.53   12.35
  -3   1 -15   32.98   12.32
   3  -1  15   35.76   12.18
   3   1  16    6.95    5.48
  -3  -1 -16    7.41   17.03
  -3  -1 -16   10.80    5.91
  -3   1 -16    9.55    5.97
   3  -1  16    8.54    5.41
   3   1  17   72.63   23.81
  -3  -1 -17   -0.53   25.49
  -3  -1 -17   72.51   23.77
  -3   1 -17   77.45   23.95
   3  -1  17   77.92   23.79
   3   1  18   32.53   13.68
  -3  -1 -18   35.39   14.09
  -3   1 -18   44.47   14.21
   3  -1  18   38.72   13.65
   3   1  19  159.18   40.09
  -3  -1 -19   -0.38   39.60
  -3   1 -19  154.59   40.09
   3  -1  19  171.81   39.85
   3   3   0   49.96   12.41
  -3  -3   0   40.04   13.64
  -3  -3   0   40.18   15.34
  -3   3   0   41.61   12.74
   3  -3   0   59.44   14.16
   3   3   1 2798.27 1411.91
   3   3   1 4500.39 1052.68
  -3  -3  -1 2533.94 1412.32
  -3  -3  -1 3092.81 1052.45
  -3   3  -1 2951.39 1412.27
   3  -3   1 3207.59 1412.38
   3   3   2   73.42   27.22
  -3  -3  -2   90.78   28.40
  -3  -3  -2   72.52   25.94
  -3   3  -2   83.96   27.23
   3  -3   2   85.84   27.48
   3   3   3   65.29   39.63
  -3  -3  -3   78.01   39.98
  -3  -3  -3  124.32   35.22
  -3   3  -3  124.71   39.97
  -3   3  -3  111.70   35.27
   3   3   4  124.75   60.26
  -3  -3  -4  134.14   60.73
  -3  -3  -4  162.64   50.37
  -3   3  -4  199.27   60.71
   3   3   5 1447.70  909.17
   3   3   5 3715.48  680.17
  -3  -3  -5 1728.59  909.57
  -3   3  -5 2552.39  909.41
  -3   3  -5 1071.23  679.77
   3  -3   5 2535.75  909.90
   3   3   6  408.66  293.10
   3   3   6 1059.62  223.48
  -3  -3  -6  486.03  293.33
  -3  -3  -6  928.30  223.40
  -3  -3  -6  726.57  223.32
  -3   3  -6  424.57  223.14
  -3   3  -6  562.12  223.38
   3  -3   6  987.17  293.85
   3   3   7   64.72   51.91
  -3  -3  -7  129.10   52.52
  -3  -3  -7  185.35   44.85
  -3  -3  -7  179.77   45.05
  -3   3  -7  115.46   44.62
  -3   3  -7  102.10   44.86
   3   3   8  345.47   86.92
  -3  -3  -8  184.51  108.51
  -3  -3  -8  326.29   86.79
  -3  -3  -8  308.10   87.09
  -3   3  -8  370.58  108.76
  -3   3  -8  212.50   86.61
  -3   3  -8  180.32   86.82
   3   3   9   78.16   22.64
  -3  -3  -9   63.90   23.84
  -3  -3  -9   71.38   22.20
  -3   3  -9   50.28   22.16
   3   3  10    2.11    5.64
  -3  -3 -10    3.27   12.39
  -3  -3 -10    2.36    3.83
  -3   3 -10    1.35    3.90
   3   3  11   19.64    9.31
  -3  -3 -11   24.98   11.12
  -3  -3 -11   22.00    9.37
  -3   3 -11   21.83    9.70
   3   3  12    6.86    6.48
  -3  -3 -12   13.27   11.06
  -3  -3 -12   10.50    6.04
  -3   3 -12    8.34    6.85
   3   3  13   21.32    8.19
  -3  -3 -13   25.10   11.68
  -3  -3 -13    0.20    7.30
  -3   3 -13   21.75    8.48
   3   3  14  100.47   23.12
  -3  -3 -14    3.48   22.62
  -3  -3 -14    0.74   22.27
  -3   3 -14  114.81   22.83
   3   3  15   13.23    7.72
  -3  -3 -15    1.10   15.23
  -3  -3 -15   -0.37    6.28
  -3   3 -15   16.89    6.82
  -3  -3 -16    6.46   13.91
  -3   3 -16    2.71    5.67
  -3  -5   0   17.92    9.64
   3  -5   0   27.99   14.53
  -3  -5  -1  775.25  300.62
   3  -5   1  689.70  300.80
  -3  -5  -2   28.09   12.12
   3  -5   2   23.50   12.17
  -3  -5  -3   21.23   11.48
   3  -5   3   22.94   11.71
  -3  -5  -4   47.80   18.01
   3  -5   4   49.16   24.60
  -3  -5  -5  460.22  194.54
   3  -5   5  498.61  195.92
  -3  -5  -6   90.49   34.96
   3  -5   6   97.29   42.99
  -3  -5  -7   19.92   11.58
  -3  -5  -8   37.72   18.77
  -3  -5  -9    1.46   17.35
  -3  -5 -10    4.21   16.82
   4   0   0    0.48    2.28
  -4   0   0   -0.60    3.75
   4   0   1  105.46   35.55
   4   0   1   83.93   31.85
  -4   0  -1  126.75   35.40
  -4   0  -1   99.03   31.82
   4   0   2   77.14   28.24
   4   0   2   83.60   26.70
  -4   0  -2   83.41   28.08
  -4   0  -2   79.96   26.65
   4   0   3  985.09  436.59
   4   0   3 1037.09  329.23
  -4   0  -3 1104.04  436.70
  -4   0  -3 1089.71  329.29
   4   0   4    6.24    0.81
   4   0   4    4.70    3.29
  -4   0  -4    5.21    3.38
   4   0   5  170.79   38.89
   4   0   5   92.75   34.38
  -4   0  -5  102.25   37.90
  -4   0  -5  101.15   34.43
  -4   0  -5   93.80   34.39
   4   0   6  220.52   68.93
  -4   0  -6  292.33   85.01
  -4   0  -6  179.55   68.93
  -4   0  -6  220.48   68.96
   4   0   7 3368.38 1126.07
   4   0   7 2605.35  839.89
  -4   0  -7 2534.51 1124.64
  -4   0  -7 2543.45  839.87
  -4   0  -7 2689.91  839.95
   4   0   8  126.58   44.07
  -4   0  -8  165.16   51.40
  -4   0  -8   21.44   50.42
  -4   0  -8  144.40   44.09
  -4   0  -8  167.55   44.24
   4   0   9  148.32   44.86
  -4   0  -9   35.93   51.75
  -4   0  -9  148.61   44.84
  -4   0  -9  155.72   44.97
   4   0  10  573.09  175.20
  -4   0 -10  559.45  175.12
  -4   0 -10  546.54  175.28
   4   0  11 2625.59  815.79
  -4   0 -11 4334.28 1092.75
  -4   0 -11 2463.30  815.69
  -4   0 -11 2134.97  815.86
   4   0  12  298.10   87.10
  -4   0 -12  382.47  109.63
  -4   0 -12   50.91  108.38
  -4   0 -12  303.01   87.01
  -4   0 -12  246.96   87.25
   4   0  13  169.96   54.22
  -4   0 -13  168.87   54.18
   4   0  14  553.34  169.45
  -4   0 -14  529.94  169.39
   4   0  15  237.72   73.41
  -4   0 -15  224.89   73.34
   4   0  16   38.47   13.56
  -4   0 -16   36.52   13.66
   4   0  17   72.28   24.75
  -4   0 -17   74.85   24.87
   4   0  18   46.03   16.15
  -4   0 -18   45.69   16.30
   4   0  19   25.14   10.81
  -4   0 -19   25.78   11.48
   4   2   0    4.01    3.52
   4   2   0    2.20    3.14
  -4  -2   0    3.46    4.35
  -4  -2   0    2.36    2.53
  -4   2   0    0.44    2.28
   4  -2   0    3.85    4.92
   4   2   1   17.16    4.55
   4   2   1   34.15    8.98
  -4  -2  -1   23.16    5.50
  -4  -2  -1   22.45    8.71
  -4   2  -1   21.85    4.13
   4  -2   1   20.73    2.82
   4  -2   1   16.49    8.69
   4   2   2   59.59   23.66
  -4  -2  -2   48.62   23.96
  -4  -2  -2   92.05   23.29
  -4   2  -2   67.60   24.23
  -4   2  -2   60.30   23.17
  -4   2  -2   68.71   23.30
   4  -2   2   71.32   22.92
   4  -2   2   72.53   23.35
   4   2   3  335.38  181.27
   4   2   3  586.42  140.27
  -4  -2  -3  316.64  181.41
  -4  -2  -3  506.90  140.11
  -4   2  -3  462.58  181.69
  -4   2  -3  350.55  140.05
  -4   2  -3  471.95  140.23
   4  -2   3  455.05  181.84
   4  -2   3  411.22  140.17
   4   2   4   -1.36    4.44
   4   2   4    0.49    2.36
  -4  -2  -4    1.10    4.94
  -4  -2  -4    2.04    2.63
  -4   2  -4   -0.84    2.54
  -4   2  -4    1.32    2.50
   4  -2   4    3.46    2.49
   4   2   5   43.12   13.19
   4   2   5   49.43   15.29
  -4  -2  -5   28.49   12.94
  -4  -2  -5   50.56   15.29
  -4   2  -5   56.35   12.73
  -4   2  -5   37.58   15.16
  -4   2  -5   44.62   15.32
   4  -2   5   38.39   15.24
   4   2   6  133.58   49.85
   4   2   6  155.91   42.48
  -4  -2  -6  112.06   49.62
  -4  -2  -6  134.95   42.42
  -4   2  -6  230.67   49.75
  -4   2  -6  104.46   42.33
  -4   2  -6  120.29   42.49
   4  -2   6  110.94   42.51
   4   2   7 1178.10  604.74
   4   2   7 1646.80  453.99
  -4  -2  -7 1135.35  604.59
  -4  -2  -7 1551.66  453.98
  -4  -2  -7 1489.47  453.94
  -4   2  -7 1421.31  453.82
  -4   2  -7 1393.92  454.00
   4  -2   7 1488.53  453.98
   4   2   8   96.41   30.88
  -4  -2  -8   95.20   30.78
  -4  -2  -8   94.29   30.99
  -4   2  -8   97.12   30.79
  -4   2  -8   90.71   30.94
   4  -2   8   89.49   30.87
   4   2   9   84.78   38.31
   4   2   9  109.87   34.04
  -4  -2  -9   76.52   37.72
  -4  -2  -9  110.48   34.00
  -4   2  -9  107.18   34.00
  -4   2  -9  103.87   34.12
   4  -2   9  105.38   34.09
   4   2  10  299.92  132.07
   4   2  10  362.01  103.72
  -4  -2 -10  387.07  103.66
  -4  -2 -10  297.37  103.75
  -4   2 -10  323.36  103.59
  -4   2 -10  245.45  103.74
   4  -2  10  358.07  103.73
   4   2  11  981.02  674.71
   4   2  11 1841.02  506.55
  -4  -2 -11 1136.09  674.86
  -4  -2 -11 1850.14  506.45
  -4  -2 -11 1346.57  506.59
  -4   2 -11 1702.69  506.40
   4  -2  11 1717.10  506.51
   4   2  12  227.99   62.74
  -4  -2 -12  205.46   62.59
  -4   2 -12  178.75   62.57
   4  -2  12  175.08   62.63
   4   2  13  109.19   32.00
  -4  -2 -13   74.14   36.36
  -4  -2 -13   98.32   31.80
  -4   2 -13   88.95   31.67
   4  -2  13   96.96   31.70
   4   2  14  435.33  124.10
  -4  -2 -14  389.79  159.30
  -4   2 -14  379.95  123.97
   4  -2  14  371.06  123.98
   4   2  15  179.53   48.32
  -4  -2 -15    2.12   56.13
  -4  -2 -15  152.39   48.04
  -4   2 -15  164.48   48.15
   4  -2  15  141.84   47.99
   4   2  16   23.69    8.72
  -4  -2 -16    0.65   11.41
  -4  -2 -16   -1.28    7.15
  -4   2 -16   24.37    7.68
   4  -2  16   22.88    7.30
   4   2  17   39.03   11.43
  -4  -2 -17    4.19   21.26
  -4  -2 -17    1.19   10.29
  -4   2 -17   41.78   10.55
   4  -2  17   27.65   10.06
  -4   2 -18   31.43   13.16
   4   4   0   -0.19    3.60
  -4  -4   0    2.35   11.25
  -4  -4   0    0.25    3.88
   4  -4   0    2.51    7.12
   4   4   1    3.12    4.89
   4   4   1    6.25    4.53
  -4  -4  -1    1.53   10.73
  -4  -4  -1    1.69    5.09
   4  -4   1    3.57    4.65
  -4  -4  -2   20.41   10.85
   4  -4   2   18.76    9.77
  -4  -4  -3   82.91   31.05
  -4  -4  -4   -0.04   12.49
   4  -4   4   -1.90   12.12
  -4  -4  -5   16.95   11.09
  -4   4  -5   11.69    6.83
  -4   4  -5    2.25    6.53
   4  -4   5   14.26    9.09
  -4  -4  -6   49.18   17.46
  -4  -4  -6   50.98   16.26
  -4   4  -6   33.00   17.15
   4  -4   6   63.95   18.54
  -4  -4  -7  640.72  176.32
  -4   4  -7  354.03  136.30
   4  -4   7  474.65  176.41
   4   4   8   13.84    9.52
  -4  -4  -8   21.41   11.22
  -4  -4  -8   12.80    8.53
  -4   4  -8   28.02   11.44
   4   4   9   16.74   11.93
  -4  -4  -9   43.32   12.84
  -4   4  -9   36.11   13.61
   4   4  10   68.12   28.28
  -4  -4 -10  147.82   31.47
  -4  -4 -10   62.25   28.19
  -4   4 -10  102.02   28.88
  -4  -4 -11  521.48  211.73
  -4   4 -11  520.93  163.74
  -4   4 -12   39.30   16.44
  -4  -4 -13    0.36   15.42
   5   1   0 5273.61 2159.71
  -5  -1   0 5185.38 2159.72
  -5   1   0 5103.23 2160.58
   5   1   1 3270.51 1633.49
   5   1   1 4507.97 1216.50
  -5  -1  -1 3379.52 1633.69
  -5   1  -1 3902.51 1634.74
   5  -1   1 4462.32 1633.89
   5  -1   1 2944.23 1633.02
   5   1   2  999.04  411.57
   5   1   2 1072.66  310.52
  -5  -1  -2  616.86  411.39
  -5  -1  -2  982.53  310.45
  -5   1  -2 1023.68  310.47
   5  -1   2 1177.50  411.43
   5  -1   2  989.71  310.53
   5   1   3  290.08  112.15
   5   1   3  287.15   88.48
  -5  -1  -3  176.96  111.73
  -5  -1  -3  287.21   88.30
  -5   1  -3  312.77   88.47
  -5   1  -3  276.08   88.39
   5  -1   3  276.99   88.44
   5   1   4  780.08  249.53
  -5  -1  -4  707.52  329.51
  -5   1  -4  746.37  249.67
  -5   1  -4  957.13  249.69
   5  -1   4  764.08  249.67
   5   1   5  179.34   66.67
   5   1   5  162.52   54.76
  -5  -1  -5  181.12   66.67
  -5  -1  -5  177.76   54.73
  -5   1  -5  180.61   54.87
   5  -1   5  158.02   54.87
   5   1   6   10.62    1.20
   5   1   6   14.53    6.01
  -5  -1  -6   10.62    1.52
  -5  -1  -6   12.02    6.13
  -5   1  -6   14.63    6.16
  -5   1  -6   12.27    6.28
   5  -1   6   17.86    6.03
   5   1   7   13.75    1.43
   5   1   7   15.67    6.69
  -5  -1  -7    5.12    1.43
  -5  -1  -7   15.80    6.52
  -5  -1  -7   19.68    6.85
  -5   1  -7   14.43    6.63
  -5   1  -7   15.86    6.75
   5  -1   7   15.68    6.73
   5   1   8  128.61   41.06
  -5  -1  -8  121.13   41.04
  -5  -1  -8  133.42   41.16
  -5   1  -8  126.10   40.98
  -5   1  -8  129.08   41.15
   5  -1   8  124.71   41.07
   5   1   9  586.17  211.16
   5   1   9  525.20  161.99
  -5  -1  -9  307.43  210.13
  -5  -1  -9  510.62  161.88
  -5  -1  -9  539.33  162.01
  -5   1  -9  502.32  161.83
  -5   1  -9  550.22  162.02
   5  -1   9  523.71  161.92
   5   1  10    7.00    5.82
   5   1  10    5.94    4.39
  -5  -1 -10    6.29    2.06
  -5  -1 -10    7.16    4.29
  -5  -1 -10    6.52    5.52
  -5   1 -10    8.79    4.29
  -5   1 -10    4.39    5.11
   5  -1  10    9.05    4.29
   5   1  11    4.28    3.38
  -5  -1 -11    5.45   10.47
  -5  -1 -11    0.46   16.54
  -5  -1 -11    3.62    3.41
  -5  -1 -11    3.41    3.99
  -5   1 -11    1.66    3.73
  -5   1 -11    2.15    3.74
   5  -1  11    4.56    3.38
   5   1  12   37.35   13.39
  -5  -1 -12   33.91   11.77
  -5   1 -12   35.54   13.03
   5  -1  12   36.96   13.01
   5   1  13  126.57   40.50
  -5  -1 -13  130.21   47.03
  -5  -1 -13   -5.99   47.10
  -5  -1 -13  133.09   40.47
  -5   1 -13  135.37   40.43
   5  -1  13  127.57   40.49
   5   1  14  321.67  101.19
  -5  -1 -14  330.16  101.16
  -5   1 -14  315.61  101.15
   5  -1  14  315.44  101.18
   5   1  15   11.83    6.40
  -5  -1 -15   14.13    7.25
  -5   1 -15   14.88    6.65
   5  -1  15   13.35    6.39
   5   1  16  223.30   67.39
  -5  -1 -16   52.32   82.92
  -5  -1 -16  238.49   67.44
  -5   1 -16  211.27   67.35
   5  -1  16  220.61   67.35
   5   1  17  332.82  108.08
  -5  -1 -17  362.44  108.13
  -5   1 -17  337.70  108.12
   5  -1  17  338.08  108.08
   5   1  18    1.96    4.59
  -5  -1 -18    0.53    5.26
  -5   1 -18   14.20    4.82
   5  -1  18    2.03    3.90
   5   1  19   19.84    8.35
  -5  -1 -19    1.07    8.53
   5  -1  19   25.54    7.64
   5   3   0 1944.07 1011.11
   5   3   0 2963.45  755.58
  -5  -3   0 1974.55 1011.93
   5  -3   0 1965.47 1011.47
   5   3   1 1067.92  618.59
   5   3   1 2188.09  464.66
  -5  -3  -1 1093.24  619.25
  -5  -3  -1 1182.59  464.35
  -5   3  -1 1465.41  618.98
   5   3   2  178.23  108.64
   5   3   2  328.10   86.68
  -5  -3  -2  246.31  109.36
  -5  -3  -2  246.90   86.41
  -5   3  -2  277.97  108.90
   5  -3   2  332.75  109.29
   5   3   3   86.34   35.26
   5   3   3  131.89   32.24
  -5  -3  -3   83.41   35.79
  -5  -3  -3  109.61   32.00
  -5   3  -3  104.59   35.28
  -5   3  -3   57.08   31.83
  -5   3  -3  104.65   32.13
   5  -3   3  108.79   35.74
   5   3   4  199.66  143.62
   5   3   4  565.79  112.75
  -5  -3  -4  244.83  144.24
  -5  -3  -4  412.70  112.52
  -5   3  -4  374.91  144.05
  -5   3  -4  194.64  112.28
  -5   3  -4  367.83  112.61
   5  -3   4  400.29  144.47
   5   3   5   41.63   32.76
   5   3   5  147.98   31.23
  -5  -3  -5   91.06   34.52
  -5  -3  -5  118.13   31.16
  -5   3  -5   58.63   33.39
  -5   3  -5   50.97   30.64
  -5   3  -5   98.21   31.09
   5   3   6    2.67    2.71
   5   3   6    6.70    5.07
  -5  -3  -6    0.39    4.60
  -5  -3  -6    5.73    5.87
  -5   3  -6    1.79    3.90
   5  -3   6    6.89    7.27
   5   3   7   13.40    6.83
  -5  -3  -7    1.63    2.53
  -5  -3  -7   13.75    6.44
  -5  -3  -7   11.60    7.50
  -5   3  -7    7.67    5.74
  -5   3  -7    9.56    5.60
  -5   3  -7    6.61    6.14
   5  -3   7    5.67    5.00
  -5  -3  -8   36.40   12.55
  -5  -3  -8   59.15   15.96
  -5   3  -8   47.17   15.54
  -5   3  -8   23.99   15.69
   5   3   9  281.74   69.48
  -5  -3  -9  205.02   85.53
  -5  -3  -9  245.68   69.26
  -5   3  -9  192.81   69.07
   5  -3   9  160.79   69.12
   5   3  10   14.74    7.39
  -5  -3 -10   12.46    9.32
  -5  -3 -10    7.32    6.36
  -5   3 -10    8.43    6.56
   5  -3  10   12.73    5.77
   5   3  11    1.40    5.55
  -5  -3 -11    2.27   10.82
  -5   3 -11    1.91    5.94
   5  -3  11   -1.38    3.72
   5   3  12   30.60   11.77
  -5  -3 -12   23.60   10.95
  -5   3 -12   26.51   11.55
   5   3  13   52.01   13.85
  -5  -3 -13    7.04   16.03
  -5  -3 -13   -0.63   12.90
  -5   3 -13   62.53   14.09
   5   3  14  121.70   24.87
  -5  -3 -14   -1.91   26.03
  -5  -3 -14   -0.49   23.88
  -5   3 -14  116.57   24.82
   5   3  15    6.52    6.81
  -5  -3 -15    1.92    5.74
  -5   3 -15    6.53    6.96
  -5   3 -16   76.01   26.67
  -5  -5   0  773.64  296.83
   5  -5   0  670.74  296.52
  -5  -5  -1  298.56  131.69
   5  -5   1  358.97  132.48
  -5  -5  -2   21.32   10.76
   5  -5   2   33.00   16.07
  -5  -5  -3   10.89   10.17
   5  -5   3   10.23   14.89
  -5  -5  -4   36.77   17.60
   5  -5   4   57.32   24.30
  -5  -5  -5   -0.63   12.70
   5  -5   5    4.92   18.72
  -5  -5  -6    6.81   11.58
  -5  -5  -7    3.76   14.71
  -5  -5  -8    2.86   14.92
  -5  -5  -9   -1.57   16.28
   6   0   0    7.61    2.71
   6   0   0    7.35    4.24
  -6   0   0    9.19    4.34
  -6   0   0    5.13    3.63
   6   0   1   15.92    1.07
   6   0   1   16.06    8.75
  -6   0  -1   17.05    1.41
  -6   0  -1   31.87    8.41
  -6   0  -2 2989.25 1010.66
  -6   0  -2 2236.16  754.93
   6   0   3   18.00    0.96
   6   0   3   13.83    6.41
  -6   0  -3   20.48    1.43
  -6   0  -3   13.46    6.30
   6   0   4  158.76   45.51
   6   0   4  103.76   39.57
  -6   0  -4  122.69   45.29
  -6   0  -4  125.97   39.62
   6   0   5  123.31   42.86
  -6   0  -5  153.28   49.85
  -6   0  -5  136.34   42.99
   6   0   6 7767.87 2426.85
  -6   0  -6 4838.47 1804.76
  -6   0  -6 5897.05 1804.71
   6   0   7 1400.96  427.17
  -6   0  -7 1460.67  568.81
  -6   0  -7 1382.91  427.24
  -6   0  -7 1293.95  427.26
   6   0   8  714.14  222.22
  -6   0  -8  703.49  222.20
  -6   0  -8  718.74  222.31
   6   0   9  705.53  197.44
  -6   0  -9   59.55  257.26
  -6   0  -9  706.42  197.38
  -6   0  -9  656.94  197.48
   6   0  10  930.68  286.09
  -6   0 -10  936.34  286.03
  -6   0 -10  882.58  286.18
   6   0  11  311.75   88.16
  -6   0 -11  286.06   88.07
  -6   0 -11  233.49   88.29
   6   0  12   35.10   11.93
  -6   0 -12   29.32   11.79
   6   0  13  114.56   36.89
  -6   0 -13  112.13   36.85
   6   0  14  124.58   41.00
  -6   0 -14  128.32   41.00
   6   0  15  148.69   50.37
  -6   0 -15  164.35   50.39
   6   0  16    7.33    5.23
  -6   0 -16    7.94    5.99
   6   0  17   35.40   13.58
  -6   0 -17   38.29   13.80
   6   0  18    7.61    4.45
  -6   0 -18    4.44    4.90
   6   0  19    5.20    5.66
  -6   0 -19    2.51    5.99
   6   2   0    0.51    3.74
   6   2   0    4.20    3.61
  -6  -2   0    5.53    7.11
  -6  -2   0    2.74    2.51
  -6   2   0    0.66    2.94
   6  -2   0    2.45    3.20
   6   2   1    4.22    2.15
   6   2   1    2.67    3.67
  -6  -2  -1    2.94    2.68
  -6  -2  -1    3.99    3.06
  -6   2  -1    4.07    1.38
  -6   2  -1    5.10    2.80
  -6   2  -1    5.22    3.12
   6  -2   1    6.11    4.43
   6  -2   1    4.73    2.93
   6   2   2  998.46  524.91
   6   2   2 1605.23  394.83
  -6  -2  -2  885.39  525.13
  -6  -2  -2 1311.03  394.56
  -6   2  -2 1373.21  525.50
  -6   2  -2 1186.94  394.57
  -6   2  -2 1379.85  394.65
   6  -2   2 1290.83  524.83
   6  -2   2 1084.58  394.67
   6   2   3   -0.07    4.03
   6   2   3    1.28    2.99
  -6  -2  -3   -0.32    5.15
  -6  -2  -3    2.00    2.59
  -6   2  -3    0.75    2.49
  -6   2  -3    2.15    2.69
   6  -2   3    2.71    2.32
   6  -2   3    3.02    5.10
   6  -2   3    3.14    2.60
   6   2   4   56.88   28.83
   6   2   4  114.73   27.41
  -6  -2  -4   59.71   29.43
  -6  -2  -4   86.09   27.24
  -6   2  -4   76.15   27.16
  -6   2  -4   88.50   27.30
   6  -2   4   92.98   28.77
   6  -2   4   64.26   27.28
   6   2   5   61.09   24.51
   6   2   5   83.85   24.15
  -6  -2  -5   56.10   24.94
  -6   2  -5   65.44   23.93
  -6   2  -5   75.06   24.13
   6  -2   5   77.22   24.06
   6   2   6 2419.05 1460.07
   6   2   6 4238.43 1088.33
  -6  -2  -6 3408.97 1460.64
  -6  -2  -6 3779.57 1088.25
  -6   2  -6 3239.41 1088.13
  -6   2  -6 3725.72 1088.31
   6  -2   6 3012.53 1088.25
   6   2   7  597.49  339.62
   6   2   7  921.98  257.87
  -6  -2  -7  904.65  257.80
  -6   2  -7  713.32  257.65
  -6   2  -7  821.10  257.85
   6  -2   7  869.44  257.83
   6   2   8  436.06  154.38
  -6  -2  -8  232.85  154.24
  -6  -2  -8  412.20  120.17
  -6  -2  -8  435.33  120.28
  -6   2  -8  344.79  120.04
  -6   2  -8  420.97  120.30
   6  -2   8  344.12  120.15
   6   2   9  468.84  167.96
   6   2   9  494.01  130.34
  -6  -2  -9  253.84  167.55
  -6  -2  -9  443.69  130.21
  -6  -2  -9  437.92  130.39
  -6   2  -9  382.95  130.11
  -6   2  -9  391.42  130.37
   6  -2   9  381.59  130.22
   6   2  10  700.38  276.57
  -6  -2 -10  362.27  276.41
  -6  -2 -10  715.66  210.94
  -6  -2 -10  665.44  211.16
  -6   2 -10  711.10  210.88
   6  -2  10  705.33  210.98
   6   2  11  197.28   65.54
  -6  -2 -11  204.13   80.91
  -6  -2 -11  204.74   65.43
  -6   2 -11  213.80   65.46
   6  -2  11  206.44   65.53
   6   2  12   16.14    7.08
  -6  -2 -12   17.46    7.59
  -6   2 -12   15.91    7.52
   6  -2  12   13.66    7.26
   6   2  13   74.16   23.68
  -6  -2 -13   70.49   25.29
  -6  -2 -13   74.09   23.70
  -6   2 -13   64.52   23.61
   6  -2  13   66.24   23.56
   6   2  14  101.68   27.46
  -6  -2 -14   79.09   27.23
  -6   2 -14   73.56   27.17
   6  -2  14   73.44   27.14
   6   2  15   95.13   22.14
  -6  -2 -15    1.81   23.37
  -6  -2 -15    6.65   21.38
  -6   2 -15   80.61   21.67
   6  -2  15   91.72   21.62
   6   2  16    4.38    5.73
  -6  -2 -16    2.09    4.93
  -6   2 -16    3.37    4.39
   6  -2  16    4.03    3.77
   6   2  17   21.31    8.01
  -6  -2 -17   -2.32    7.60
  -6   2 -17   19.35    7.55
   6  -2  17   23.36    7.13
  -6   2 -18    1.12    5.77
   6  -2  18    4.41    4.45
   6   4   0    2.57    5.09
   6   4   0   -0.43    4.88
  -6  -4   0    1.49   10.19
  -6  -4   0    2.35    5.43
   6  -4   0    1.66    7.16
   6   4   1    3.45    3.57
  -6  -4  -1    0.86   10.66
  -6  -4  -1    0.62    5.00
   6  -4   1    1.18    9.63
   6   4   2  424.36   92.74
  -6  -4  -2  325.06  117.18
  -6  -4  -2  111.94   92.14
   6  -4   2  499.00  117.62
   6  -4   3    1.47   12.04
   6   4   4   34.12   13.75
  -6  -4  -4   36.01   13.93
   6   4   5   43.64   15.44
  -6  -4  -5   40.95   15.57
   6  -4   5   32.19   14.82
   6   4   6 1769.83  399.99
  -6  -4  -6  984.04  530.86
  -6  -4  -6 1606.93  399.81
  -6   4  -6  630.44  399.55
   6   4   7  370.48  116.60
  -6  -4  -7  365.88  149.19
   6   4   8  121.05   28.91
  -6  -4  -8  111.90   30.95
  -6   4  -8   39.25   27.86
   6   4   9   97.91   35.32
  -6  -4  -9  110.19   39.37
  -6   4  -9  110.42   35.28
   6   4  10  172.37   38.07
  -6  -4 -10  175.71   42.92
  -6  -4 -10    3.45   36.79
  -6   4 -10  151.50   37.89
  -6  -4 -11   30.92   13.84
  -6   4 -11   36.76   15.44
  -6  -4 -12   -2.51   13.69
  -6  -4 -13    3.77   17.23
   7   1   0 1040.58  545.30
   7   1   0 1444.18  409.57
  -7  -1   0 1129.18  545.20
  -7  -1   0 1332.19  409.51
  -7   1   0 1094.07  544.98
  -7   1   0 1503.03  409.53
   7  -1   0 1364.41  546.01
   7  -1   0  486.24  544.16
   7  -1   0 1454.57  409.73
   7   1   1    1.91    3.55
  -7  -1  -1    4.42    4.79
  -7  -1  -1    0.71    2.15
  -7   1  -1    0.30    2.26
   7  -1   1    1.06    3.14
   7  -1   1   -0.28    4.59
   7   1   2    9.40    2.09
   7   1   2    7.57    5.67
  -7  -1  -2    4.58    3.60
  -7  -1  -2   12.67    5.11
  -7   1  -2   11.00    4.96
   7  -1   2   15.23    1.19
   7  -1   2   11.16    4.94
   7   1   3  131.42   78.00
   7   1   3  197.84   63.57
  -7  -1  -3  152.32   78.28
  -7  -1  -3  199.46   63.47
  -7   1  -3  211.79   63.52
   7  -1   3  271.38   78.10
   7  -1   3  207.31   63.57
   7   1   4  488.00  262.14
   7   1   4  710.95  200.18
  -7  -1  -4  650.18  200.00
  -7   1  -4  602.07  200.22
  -7   1  -4  668.58  200.08
   7  -1   4  622.94  200.20
   7   1   5    1.53    1.17
   7   1   5    5.96    3.88
  -7  -1  -5    4.46    1.33
  -7  -1  -5    6.69    3.76
  -7   1  -5    5.67    3.61
  -7   1  -5    3.95    4.12
   7  -1   5    5.49    3.98
   7   1   6    3.69    4.34
   7   1   6   -0.48    2.76
  -7  -1  -6    1.11    2.32
  -7   1  -6    1.17    2.59
  -7   1  -6    0.02    3.05
   7  -1   6    1.02    2.27
   7   1   7   10.40    1.40
   7   1   7    9.94    4.66
  -7  -1  -7    6.93    1.44
  -7  -1  -7    6.41    4.90
  -7   1  -7   11.57    5.07
  -7   1  -7    9.11    4.89
   7  -1   7    8.64    4.83
   7   1   8  103.89   29.55
   7   1   8   86.86   27.55
  -7  -1  -8   86.36   27.46
  -7  -1  -8   70.66   27.45
  -7   1  -8   83.73   27.39
  -7   1  -8   81.23   27.59
   7  -1   8   80.81   27.42
   7   1   9  290.98  108.78
   7   1   9  279.35   86.31
  -7  -1  -9  265.73   86.23
  -7  -1  -9  260.69   86.33
  -7   1  -9  276.88   86.21
  -7   1  -9  260.86   86.37
   7  -1   9  286.45   86.29
   7   1  10   44.39   10.43
   7   1  10   30.29   11.86
  -7  -1 -10   31.08   11.87
  -7  -1 -10   31.00   12.24
  -7   1 -10   28.75   11.85
  -7   1 -10   29.08   12.07
   7  -1  10   39.34   11.99
   7   1  11  174.38   57.80
   7   1  11  142.86   48.55
  -7  -1 -11  130.33   48.47
  -7   1 -11  157.15   48.55
   7  -1  11  166.45   48.67
   7   1  12 1683.37  517.46
   7   1  12 1300.97  389.59
  -7  -1 -12   68.44  514.83
  -7  -1 -12 1298.74  389.50
  -7   1 -12 1202.05  389.47
   7  -1  12 1303.33  389.56
   7   1  13   54.28   19.74
  -7  -1 -13   19.74   18.34
  -7  -1 -13   48.84   19.69
  -7   1 -13   68.47   20.03
   7  -1  13   72.16   19.80
   7   1  14  237.28   73.75
  -7  -1 -14  227.81   73.66
  -7   1 -14  224.76   73.64
   7  -1  14  238.86   73.71
   7   1  15  339.67  111.48
  -7  -1 -15  355.39  111.42
  -7   1 -15  371.19  111.42
   7  -1  15  347.83  111.42
   7   1  16  393.50  125.23
  -7  -1 -16  389.28  125.21
   7  -1  16  412.02  125.23
   7   1  17   70.29   24.57
  -7  -1 -17   78.69   24.83
  -7   1 -17   65.61   24.59
   7  -1  17   76.92   24.53
   7   1  18   14.89    8.02
  -7  -1 -18   10.71    8.66
  -7   1 -18   12.80    8.07
   7  -1  18   18.24    8.64
   7   3   0  450.42  269.90
   7   3   0  788.27  206.09
  -7  -3   0  584.44  270.32
  -7   3   0  610.90  270.50
   7  -3   0  643.65  269.88
   7   3   1   -0.38    4.50
   7   3   1   -0.66    4.38
  -7  -3  -1    4.23    6.80
  -7  -3  -1    1.31    3.45
  -7   3  -1   -0.33    5.46
   7  -3   1   -1.36    5.06
   7   3   2    1.92    1.52
   7   3   2    5.20    4.16
  -7  -3  -2    6.04    1.48
  -7  -3  -2    5.45    3.88
  -7   3  -2    5.01    4.65
   7   3   3   33.21   19.42
   7   3   3   87.11   21.21
  -7  -3  -3   45.01   20.58
  -7   3  -3   62.18   21.23
  -7   3  -3   55.61   20.76
  -7   3  -3   87.39   21.13
   7  -3   3   92.10   21.38
   7  -3   3    3.16   23.42
   7  -3   3   42.24   20.78
   7   3   4  142.71   82.91
   7   3   4  324.21   67.96
  -7  -3  -4  162.78   83.70
  -7   3  -4  155.94   83.52
  -7   3  -4  225.33   67.82
   7  -3   4  164.41   67.61
   7   3   5    1.30    5.88
  -7  -3  -5    3.69    6.05
  -7  -3  -5   -0.58    4.95
  -7   3  -5    1.17    6.20
  -7   3  -5    0.87    3.78
  -7   3  -5   -0.66    3.85
   7  -3   5    0.72    7.79
   7  -3   5    0.44   11.87
   7  -3   5   -0.17    2.40
   7   3   6   -1.00    4.35
  -7  -3  -6   -1.32    7.08
  -7  -3  -6   -1.61    5.22
  -7   3  -6    0.25    4.11
   7  -3   6    0.09    2.52
   7   3   7   13.56    5.66
  -7  -3  -7    3.82    4.69
  -7  -3  -7    4.91    6.88
  -7   3  -7    4.37    4.87
  -7   3  -7    1.45    5.67
   7  -3   7    5.51    4.12
   7   3   8   63.49   16.86
  -7  -3  -8   53.26   16.74
  -7   3  -8   33.95   16.12
   7  -3   8   34.19   15.94
  -7  -3  -9   81.35   34.41
  -7  -3  -9  122.21   31.26
  -7   3  -9   76.07   30.82
   7  -3   9   86.95   30.78
   7   3  10   21.96   10.06
  -7  -3 -10   21.88   13.10
  -7  -3 -10   21.34    9.52
  -7   3 -10   21.45    9.16
   7  -3  10   16.37    8.64
   7   3  11   78.58   24.57
  -7  -3 -11   69.85   26.93
  -7  -3 -11   64.67   24.17
  -7   3 -11   77.75   24.61
   7  -3  11   65.78   24.15
  -7  -3 -12   -1.76   63.84
  -7  -3 -12   -0.03   52.66
   7  -3  12    0.35   52.53
   7   3  13   20.59    8.19
  -7  -3 -13    2.77   14.69
  -7   3 -13   21.21    8.75
   7  -3  13   -0.75    6.45
  -7  -3 -14   -4.04   13.97
  -7  -3 -14   -0.04    9.76
  -7   3 -14   77.15   11.73
   7  -3  14   -0.08    9.17
  -7   3 -15  102.94   34.27
  -7  -5   0   67.54   24.11
  -7  -5  -1    1.97   10.14
   7  -5   1    4.61   12.53
  -7  -5  -2   -0.55   13.22
   7  -5   2    0.91   13.46
  -7  -5  -3    7.69   10.18
   7  -5   3    1.15   13.02
  -7  -5  -4    3.26   10.49
  -7  -5  -5    1.43   10.53
  -7  -5  -6    0.92   11.19
  -7  -5  -7   -5.75   13.45
  -7  -5  -8    2.75   13.50
   8   0   0   42.42   12.16
   8   0   0   46.01   15.55
  -8   0   0   44.20   15.28
   8   0   1 6321.04 2591.68
  -8   0  -1 6089.35 2591.21
   8   0   2 3893.53 1488.40
   8   0   2 3598.19 1108.82
  -8   0  -2 4084.69 1487.84
  -8   0  -2 3253.09 1108.81
   8   0   3  834.50  333.19
   8   0   3  816.36  252.74
  -8   0  -3  995.98  332.76
  -8   0  -3  741.91  252.54
   8   0   4  128.20   40.77
  -8   0  -4  125.46   46.38
  -8   0  -4  124.87   40.71
   8   0   5 3114.90  986.47
   8   0   5 2269.99  736.96
  -8   0  -5 3088.61  986.33
  -8   0  -5 1961.16  736.89
   8   0   6 1808.11  548.91
  -8   0  -6 1724.31  548.89
   8   0   7    0.24    3.37
  -8   0  -7    0.44    2.34
  -8   0  -7   -0.56    3.08
   8   0   8   24.06    8.72
  -8   0  -8   20.01    8.43
  -8   0  -8   18.77    8.73
   8   0   9  447.93  145.00
  -8   0  -9  455.41  144.96
  -8   0  -9  485.99  145.12
   8   0  10  111.94   35.58
  -8   0 -10  118.22   35.55
  -8   0 -10   95.61   35.84
   8   0  11    8.50    5.58
  -8   0 -11   12.54    5.82
   8   0  12   49.76   17.90
  -8   0 -12   53.61   17.93
   8   0  13    6.67    4.60
  -8   0 -13    7.74    4.95
   8   0  14   25.07    8.48
  -8   0 -14   15.72    8.48
   8   0  15  227.64   70.04
  -8   0 -15  212.96   69.98
   8   0  16    1.40    3.48
  -8   0 -16    2.58    4.23
   8   0  17   54.07   18.42
  -8   0 -17   51.95   18.56
   8   0  18   94.70   30.21
  -8   0 -18   85.75   30.23
   8   2   0    7.79    4.48
  -8  -2   0    2.75    3.88
  -8  -2   0    5.99    3.98
  -8   2   0    8.42    2.22
  -8   2   0    7.49    3.74
  -8   2   0    7.52    3.74
   8  -2   0   12.32    7.67
   8   2   1 2413.77 1251.74
   8   2   1 3926.40  933.62
  -8  -2  -1 2754.17 1252.02
  -8  -2  -1 2558.10  933.43
  -8   2  -1 2352.32 1252.22
  -8   2  -1 3162.04  933.52
  -8   2  -1 3181.67  933.50
   8  -2   1 3250.89 1251.83
   8  -2   1 2134.23 1251.01
   8  -2   1 3014.75  933.59
   8   2   2 1682.28  864.74
   8   2   2 2676.54  646.91
  -8  -2  -2 1820.08  865.04
  -8  -2  -2 1961.84  646.74
   8  -2   2 2566.53  864.86
   8  -2   2  892.27  863.98
   8  -2   2 2039.43  646.85
   8   2   3  299.20  161.47
   8   2   3  435.32  125.44
  -8  -2  -3  265.88  161.76
  -8  -2  -3  428.89  125.33
  -8   2  -3  404.34  125.28
  -8   2  -3  478.17  125.34
   8  -2   3  443.89  161.11
   8  -2   3   68.58  160.49
   8  -2   3  432.63  125.39
   8   2   4   56.17   29.95
   8   2   4  108.60   28.34
  -8  -2  -4   60.16   30.51
  -8  -2  -4   70.76   28.12
  -8   2  -4   79.22   28.12
  -8   2  -4   91.54   28.28
   8  -2   4  118.48   30.28
   8  -2   4   88.92   28.26
   8   2   5  958.32  594.49
   8   2   5 1605.64  446.73
  -8  -2  -5 1344.69  595.24
  -8  -2  -5 1316.12  446.59
  -8   2  -5 1432.56  446.57
  -8   2  -5 1540.53  446.70
   8  -2   5 1509.13  446.68
   8   2   6  706.46  453.25
   8   2   6 1286.02  342.12
  -8  -2  -6  753.66  453.67
  -8  -2  -6 1120.86  342.03
  -8   2  -6 1006.95  341.92
  -8   2  -6 1196.23  342.11
   8  -2   6 1172.39  342.06
   8   2   7   -3.18    6.75
   8   2   7    1.74    3.23
  -8  -2  -7    1.46    4.42
  -8  -2  -7    2.54    4.35
  -8   2  -7    2.21    3.34
  -8   2  -7    1.32    3.55
   8  -2   7    3.53    3.62
   8   2   8    8.81    4.36
   8   2   8   16.99    6.65
  -8  -2  -8   10.65    1.79
  -8  -2  -8   15.75    7.64
  -8   2  -8   13.41    6.57
  -8   2  -8   13.62    7.05
   8  -2   8   15.34    6.55
   8   2   9  207.89  109.06
   8   2   9  312.15   87.15
  -8  -2  -9  170.93  109.05
  -8  -2  -9  297.14   86.99
  -8   2  -9  287.72   86.91
   8  -2   9  260.42   86.98
   8   2  10   67.74   21.54
  -8  -2 -10   43.37   20.85
  -8  -2 -10   69.89   21.28
  -8   2 -10   62.19   21.17
   8  -2  10   57.84   21.18
   8   2  11   10.31    5.41
  -8  -2 -11    7.38    6.61
  -8  -2 -11   11.13    5.95
  -8   2 -11    5.57    5.23
   8  -2  11    6.64    4.85
   8   2  12   43.60   14.65
  -8  -2 -12   19.31   11.14
  -8  -2 -12   41.50   14.73
  -8   2 -12   38.50   14.42
   8  -2  12   43.73   14.37
   8   2  13   11.00    5.68
  -8  -2 -13   -0.25    6.42
  -8  -2 -13    7.58    5.93
   8  -2  13   10.40    5.09
   8   2  14   12.89    7.27
  -8  -2 -14    9.72    7.42
  -8   2 -14   14.78    7.36
   8  -2  14   17.82    6.63
   8   2  15  156.61   32.63
  -8  -2 -15    4.79   35.52
  -8  -2 -15    0.70   31.72
  -8   2 -15  132.62   32.33
   8  -2  15  133.08   32.21
   8   2  16   -1.29    5.40
  -8  -2 -16   -0.66    4.53
  -8   2 -16    1.21    4.80
   8  -2  16   -1.86    3.86
  -8   2 -17   32.39   12.95
   8   4   0    1.48    5.91
  -8  -4   0    2.64    9.92
   8  -4   0    1.15   12.63
   8   4   1  935.31  324.91
  -8  -4  -1 1046.37  430.20
   8  -4   1 1310.32  430.07
   8   4   2  842.96  247.06
  -8  -4  -2  636.68  324.86
   8  -4   2  823.23  324.90
   8   4   3  141.02   47.02
  -8  -4  -3  151.37   55.93
   8   4   4   31.85   11.50
  -8  -4  -4   29.53   11.24
   8  -4   4    7.25    9.71
   8   4   5  769.58  193.73
  -8  -4  -5  463.29  252.63
   8  -4   5  391.03  252.66
   8   4   6  500.85   86.85
  -8  -4  -6  280.87  108.40
  -8   4  -6  114.84   86.04
   8  -4   6  137.62  109.26
   8   4   7    3.43    7.04
  -8  -4  -7    4.49   12.22
  -8  -4  -7    0.75    8.04
   8   4   8    8.50    8.19
  -8  -4  -8    6.03   11.13
  -8   4  -8    4.56    6.56
   8   4   9   88.13   16.59
  -8  -4  -9   31.72   14.98
  -8  -4  -9   -0.28   14.58
  -8  -4 -10    5.42   11.92
  -8  -4 -10   -0.57    6.97
  -8   4 -10    6.05    9.18
  -8  -4 -11   -1.01    8.45
  -8  -4 -12   -3.45   17.40
   9   1   0    5.17    1.42
   9   1   0    8.38    4.78
  -9  -1   0   24.85    6.79
  -9  -1   0    6.08    4.55
  -9   1   0    6.52    4.17
   9  -1   0    9.37    1.44
   9  -1   0    7.09    4.46
   9   1   1    2.38    3.88
  -9  -1  -1    2.30    4.81
  -9  -1  -1    0.99    2.35
  -9   1  -1    2.44    2.90
   9  -1   1    0.26    2.78
   9  -1   1    0.49    3.92
   9  -1   1    2.52    2.62
   9   1   2    4.02    1.33
   9   1   2    5.97    4.35
  -9  -1  -2    9.07    3.97
  -9  -1  -2    4.93    3.57
  -9   1  -2    5.72    3.65
   9  -1   2    7.96    1.08
   9  -1   2    5.70    3.80
   9   1   3    6.22    1.56
   9   1   3    3.41    3.86
  -9  -1  -3    8.44    2.35
  -9  -1  -3    5.75    3.85
   9  -1   3    8.56    1.00
   9  -1   3    4.72    3.47
   9   1   4  272.49  108.33
   9   1   4  270.99   85.80
  -9  -1  -4  259.32  108.00
  -9  -1  -4  267.36   85.71
  -9   1  -4  281.68   85.71
   9  -1   4  270.57   85.78
   9   1   5    2.19    4.34
   9   1   5    1.46    3.17
  -9  -1  -5    1.02    5.85
  -9  -1  -5    1.03    2.48
  -9   1  -5    0.33    2.32
  -9   1  -5   -0.17    3.02
   9  -1   5    1.15    3.25
   9   1   6   12.83    1.94
   9   1   6   14.90    5.85
  -9  -1  -6   11.82    1.90
  -9  -1  -6   10.62    5.72
  -9   1  -6   11.17    5.65
  -9   1  -6   14.57    6.06
   9  -1   6   10.93    5.89
   9   1   7 1962.39  698.43
   9   1   7 1543.26  523.53
  -9  -1  -7 1746.22  698.79
  -9  -1  -7 1570.47  523.50
  -9   1  -7 1711.20  523.50
  -9   1  -7 1840.90  523.60
   9  -1   7 1629.65  523.52
   9   1   8  457.09  154.31
   9   1   8  373.42  120.32
  -9  -1  -8  558.47  155.10
  -9  -1  -8  315.49  120.29
  -9   1  -8  385.67  120.25
  -9   1  -8  392.03  120.43
   9  -1   8  348.77  120.28
   9   1   9  530.37  158.64
  -9  -1  -9  625.77  206.49
  -9  -1  -9  486.18  158.53
  -9   1  -9  511.76  158.53
  -9   1  -9  432.55  158.69
   9  -1   9  518.29  158.60
   9   1  10  239.53   76.20
  -9  -1 -10  242.17   95.36
  -9  -1 -10  235.77   76.04
  -9   1 -10  237.41   76.07
   9  -1  10  246.64   76.17
  -9  -1 -11 1012.67  506.02
  -9  -1 -11 1326.62  380.87
  -9   1 -11 1247.82  380.85
   9  -1  11 1168.43  380.90
   9   1  12  544.52  164.59
  -9  -1 -12  354.82  214.19
  -9  -1 -12  559.95  164.50
  -9   1 -12  544.70  164.49
   9  -1  12  510.98  164.56
   9   1  13    6.57    4.48
  -9  -1 -13    1.04   11.77
  -9  -1 -13    4.43    4.97
  -9   1 -13    0.94    4.37
   9  -1  13    4.26    3.84
   9   1  14   66.02   21.33
  -9  -1 -14   60.22   21.26
  -9   1 -14   54.63   21.49
   9  -1  14   69.35   21.30
   9   1  15  283.31   95.17
  -9  -1 -15  294.06   95.09
  -9   1 -15  313.39   95.19
   9  -1  15  313.09   95.18
   9   1  16   -1.08    3.97
  -9  -1 -16    0.04    4.85
  -9   1 -16   -0.26    3.91
   9  -1  16    1.58    3.13
   9   1  17   29.04   11.97
  -9  -1 -17   28.15   12.09
  -9   1 -17   28.60   12.03
   9  -1  17   31.24   11.93
   9   3   0   -0.24    4.78
   9   3   0   -0.63    4.24
  -9  -3   0   -2.58    6.67
  -9  -3   0    1.00    3.72
  -9   3   0   -0.21    7.16
   9  -3   0    0.09    7.36
   9  -3   0   -0.42   14.56
   9   3   1    0.90    5.33
   9   3   1   -0.64    4.83
  -9  -3  -1   -3.72    8.91
  -9  -3  -1   -1.04    3.07
   9  -3   1   -1.16   10.75
   9  -3   1   -0.21   15.23
   9   3   2    2.36    3.43
   9   3   2    3.66    4.09
  -9  -3  -2    2.00    8.19
  -9  -3  -2    3.58    3.78
  -9   3  -2   -0.95    7.04
   9  -3   2    8.36    6.89
   9  -3   2   -1.87   15.42
   9   3   3    0.67    4.64
   9   3   3    3.89    3.76
  -9  -3  -3    5.62    7.67
  -9  -3  -3    4.80    4.63
  -9   3  -3    3.45    3.61
   9  -3   3    4.25    6.97
   9  -3   3   -1.07   16.66
   9  -3   3    4.83    3.59
   9   3   4  107.13   27.55
  -9  -3  -4   65.00   29.22
  -9   3  -4   75.99   27.17
   9  -3   4  102.87   29.80
   9  -3   4   66.10   27.21
   9   3   5    1.72    4.36
  -9  -3  -5   -0.04    4.57
  -9   3  -5    1.44    4.05
  -9   3  -5    3.56    5.03
   9  -3   5    0.93    6.89
   9  -3   5    1.04    3.48
   9   3   6    9.53    5.21
  -9  -3  -6    1.58    9.82
  -9   3  -6    7.52    5.46
   9  -3   6    6.23    4.96
   9   3   7 1211.68  251.31
  -9   3  -7  663.40  250.80
   9  -3   7  598.17  250.89
   9   3   8  182.97   46.17
  -9  -3  -8  107.91   54.52
  -9   3  -8  121.65   45.78
   9  -3   8  139.52   45.85
   9   3   9  266.91   67.76
  -9  -3  -9  192.46   83.20
  -9  -3  -9  252.12   67.57
  -9   3  -9  171.66   67.35
   9  -3   9  171.00   67.33
   9   3  10  132.52   35.60
  -9  -3 -10   78.33   39.58
  -9  -3 -10  117.27   35.34
  -9   3 -10  101.88   35.34
   9  -3  10   89.22   35.10
   9   3  11  671.89   93.84
  -9  -3 -11    1.20   92.70
  -9   3 -11  539.21   93.48
   9  -3  11   -0.77   92.69
   9   3  12  240.88   33.23
  -9  -3 -12    1.01   34.66
  -9  -3 -12    1.35   31.86
  -9   3 -12  193.00   32.75
   9  -3  12   -2.00   31.82
   9   3  13    3.63    6.10
  -9  -3 -13   -3.25    5.42
   9  -3  13   -2.43    4.06
  -9  -3 -14    0.04    5.66
   9  -3  14    0.49    3.38
  -9  -5   0   -2.05   11.90
   9  -5   0   -4.23   14.54
  -9  -5  -1    3.39   10.03
  -9  -5  -2   -2.95   11.42
   9  -5   2    2.05   17.43
  -9  -5  -3    0.77   10.69
  -9  -5  -4    0.78   10.77
  -9  -5  -5   -1.41   11.91
  -9  -5  -6   -1.29   14.62
  -9  -5  -7   -2.13   13.35
  10   0   0 1556.42  781.28
  10   0   0 2028.98  584.99
 -10   0   0 1736.92  781.34
 -10   0   0 1902.34  584.80
  10   0   1 3930.28 1798.51
 -10   0  -1 4907.89 1797.44
 -10   0  -1 4292.61 1338.62
  10   0   2    3.28    1.14
  10   0   2    4.20    3.90
 -10   0  -2    4.14    3.49
  10   0   3   65.04   20.01
  10   0   3   53.27   20.85
 -10   0  -3   92.29   20.30
 -10   0  -3   57.89   20.72
  10   0   4 1221.88  381.99
  10   0   4  904.66  288.73
 -10   0  -4 1000.57  381.17
 -10   0  -4  812.55  288.65
  10   0   5   10.44    2.94
  10   0   5    5.23    4.13
 -10   0  -5    6.56    4.22
  10   0   6    6.53    4.45
 -10   0  -6   13.01    3.50
 -10   0  -6    8.31    4.47
  10   0   7   34.11   10.73
 -10   0  -7   35.85    6.09
 -10   0  -7   20.11   10.56
  10   0   8   36.60   12.33
 -10   0  -8   31.48   12.16
 -10   0  -8   32.39   12.46
  10   0   9   80.27   22.44
 -10   0  -9   67.48   22.26
 -10   0  -9   50.17   22.50
  10   0  10  307.46   93.68
 -10   0 -10  286.22   93.61
  10   0  11   21.34    8.37
 -10   0 -11   19.08    8.54
  10   0  12   23.41   10.24
 -10   0 -12   27.87   10.53
  10   0  13  182.49   59.77
 -10   0 -13  191.00   59.72
  10   0  14    8.26    4.99
 -10   0 -14    7.65    5.28
  10   0  15  172.43   58.42
 -10   0 -15  191.86   58.41
  10   0  16  125.54   42.03
 -10   0 -16  133.11   42.05
  10   0  17  308.26   92.44
 -10   0 -17  276.18   92.38
  10   2   0 1008.44  460.71
  10   2   0 1183.53  347.22
 -10  -2   0  907.95  460.99
 -10  -2   0 1020.35  347.04
 -10   2   0 1375.17  347.09
  10  -2   0 1264.48  460.81
  10  -2   0  513.26  459.96
  10  -2   0 1128.82  347.20
  10   2   1 2316.81 1074.15
  10   2   1 3194.65  802.40
 -10  -2  -1 2623.20 1074.82
 -10  -2  -1 2117.29  802.19
 -10   2  -1 2646.54  802.33
  10  -2   1 3513.34 1074.73
  10  -2   1  484.70 1073.73
  10  -2   1 2832.78  802.35
  10   2   2    1.41    3.25
  10   2   2    2.14    4.79
 -10  -2  -2    3.27    5.29
 -10  -2  -2    1.54    3.61
 -10   2  -2    2.21    2.62
 -10   2  -2    4.16    3.54
  10  -2   2    5.16    2.94
  10  -2   2    1.93    3.38
  10   2   3   28.41   11.70
  10   2   3   43.50   15.18
 -10  -2  -3   17.99   13.27
 -10  -2  -3   36.12   14.96
 -10   2  -3   46.39   14.94
 -10   2  -3   52.42   15.11
  10  -2   3   69.73   13.31
  10  -2   3   40.35   14.94
  10   2   4  370.89  227.05
  10   2   4  606.06  174.45
 -10  -2  -4  434.46  227.81
 -10   2  -4  567.37  174.30
  10  -2   4  616.27  174.39
  10   2   5    0.53    3.32
 -10  -2  -5   -2.34    8.92
 -10  -2  -5    0.67    3.03
 -10   2  -5   -0.47    2.85
 -10   2  -5    3.52    3.82
  10  -2   5   -1.22    2.57
  10   2   6    6.93    6.92
  10   2   6    6.40    4.70
 -10  -2  -6    8.21    7.42
 -10   2  -6    7.30    4.44
 -10   2  -6    4.32    5.22
  10  -2   6    6.41    4.21
  10   2   7   16.15    7.59
  10   2   7   26.54    9.30
 -10  -2  -7   19.77    6.47
 -10  -2  -7   17.54    9.70
 -10   2  -7   21.27    9.14
 -10   2  -7   21.65    9.60
  10  -2   7   31.39    9.38
  10   2   8    5.61    5.64
  10   2   8   22.12    8.64
 -10  -2  -8   23.40    5.82
 -10   2  -8   19.15    8.36
  10  -2   8   24.92    8.54
  10   2   9   52.49   16.31
 -10  -2  -9   53.39   17.21
 -10  -2  -9   41.42   16.10
 -10   2  -9   43.43   16.22
  10  -2   9   45.30   16.31
  10   2  10  221.59   68.80
 -10  -2 -10  248.65   85.89
 -10  -2 -10  244.92   68.68
 -10   2 -10  192.22   68.59
  10  -2  10  193.41   68.67
  10   2  11    5.76    5.07
 -10  -2 -11    4.17   11.28
 -10  -2 -11    6.74    4.75
 -10   2 -11    5.10    4.86
  10  -2  11    7.52    4.38
  10   2  12   21.21    8.37
 -10  -2 -12    5.58   14.53
 -10  -2 -12   18.59    8.15
 -10   2 -12   17.45    8.62
  10  -2  12   20.77    8.17
  10   2  13  122.00   37.70
 -10  -2 -13   -3.16   43.65
 -10  -2 -13  126.34   37.75
  10  -2  13  135.29   37.69
  10   2  14    2.29    6.06
 -10  -2 -14   -1.96   16.65
 -10  -2 -14    4.65    5.24
 -10   2 -14    2.49    4.37
  10  -2  14    3.84    3.83
  10   2  15  117.19   25.33
 -10  -2 -15   -1.11   24.51
 -10   2 -15   88.28   25.12
  10  -2  15   95.38   24.88
  10   2  16   70.38   20.07
 -10  -2 -16    0.32   19.57
 -10   2 -16   67.33   20.49
  10  -2  16   87.23   20.39
 -10  -4   0  491.12  199.74
  10   4   1  870.40  301.18
 -10  -4  -1 1009.72  397.87
  10  -4   1 1166.74  397.77
 -10  -4  -2    0.17   10.80
  10  -4   2   -1.17   12.68
  10   4   3   12.57    8.23
 -10  -4  -3    8.02   11.63
 -10  -4  -4  155.66   32.55
  10  -4   4   19.54   31.51
 -10  -4  -5   -0.15   10.76
  10  -4   5    1.10   12.56
  10   4   6    2.25    8.20
 -10  -4  -6   -0.37   10.33
  10   4   7   12.25    7.07
 -10  -4  -7   -0.92    9.94
 -10   4  -7   -4.45    8.10
  10   4   8    9.91    8.29
 -10  -4  -8    0.00    9.82
 -10  -4  -8    0.07    6.74
 -10   4  -8    2.57    8.36
  10   4   9    5.80    5.52
 -10  -4  -9   -3.04   12.86
 -10  -4  -9   -0.17    7.35
 -10  -4 -10    0.43   13.16
 -10  -4 -11   -5.66   15.73
  11   1   0   73.48   32.18
  11   1   0   93.03   29.73
 -11  -1   0   86.23   32.52
 -11  -1   0   91.69   29.62
 -11   1   0   36.96   32.31
 -11   1   0   93.38   29.58
  11  -1   0   71.64   33.23
  11  -1   0  119.84   32.45
  11  -1   0  109.09   29.77
  11   1   1   14.14    6.65
 -11  -1  -1   15.12    4.67
 -11  -1  -1   11.41    6.00
 -11   1  -1   10.28    7.63
  11  -1   1   13.76    5.92
  11   1   2  843.46  447.66
  11   1   2 1119.46  337.71
 -11  -1  -2 1655.86  448.46
 -11  -1  -2 1066.18  337.60
 -11   1  -2 1108.28  337.70
  11  -1   2  851.55  447.57
  11  -1   2  979.42  337.72
  11   1   3  607.61  319.83
  11   1   3  769.03  242.99
 -11  -1  -3  772.26  242.87
 -11   1  -3  791.30  242.88
  11  -1   3  982.73  320.36
  11  -1   3  723.13  320.08
  11  -1   3  780.25  242.98
  11   1   4  352.05  111.05
 -11  -1  -4  433.26  142.33
 -11  -1  -4  329.11  110.91
 -11   1  -4  308.22  110.89
  11  -1   4  497.87  142.11
  11  -1   4  334.53  110.99
  11   1   5   20.37    6.36
  11   1   5   34.18   10.33
 -11  -1  -5   25.23    4.63
 -11  -1  -5   20.15   10.13
 -11   1  -5   24.32    9.95
  11  -1   5   30.29    9.99
  11   1   6 1873.02  560.94
 -11  -1  -6 2028.43  749.06
 -11  -1  -6 1647.41  560.84
 -11   1  -6 1874.60  560.91
 -11   1  -6 1613.38  560.86
  11  -1   6 1938.08  560.94
  11   1   7 2266.13  785.67
  11   1   7 1890.13  588.47
 -11  -1  -7 2604.48  786.19
 -11  -1  -7 1552.80  588.38
 -11   1  -7 1695.42  588.38
 -11   1  -7 1922.41  588.46
  11  -1   7 2010.10  588.47
  11   1   8   32.77    9.38
  11   1   8   39.91   12.12
 -11  -1  -8   47.97   12.11
 -11  -1  -8   25.03   12.09
 -11   1  -8   36.31   12.26
 -11   1  -8   22.27   12.35
  11  -1   8   34.19   12.19
  11   1   9    3.07    8.13
  11   1   9    2.65    4.38
 -11  -1  -9    2.50   11.71
 -11  -1  -9    3.70    3.14
 -11   1  -9    1.21    3.41
  11  -1   9    2.27    3.12
  11   1  10  955.48  299.88
 -11  -1 -10 1186.99  396.72
 -11  -1 -10  979.01  299.79
 -11   1 -10  941.64  299.76
  11  -1  10  888.26  299.82
  11   1  11   57.78   19.41
 -11  -1 -11   39.85   20.20
 -11  -1 -11   57.99   19.26
 -11   1 -11   55.96   19.24
  11  -1  11   56.96   19.22
  11   1  12   32.72   12.44
 -11  -1 -12   37.64   12.55
 -11   1 -12   32.48   12.45
  11  -1  12   30.35   12.36
  11   1  13   82.88   25.93
 -11  -1 -13    1.86   26.08
 -11  -1 -13   82.64   25.93
 -11   1 -13   78.42   25.75
  11  -1  13   86.73   25.80
  11   1  14   39.42   13.78
 -11  -1 -14   42.03   13.80
 -11   1 -14   35.74   13.85
  11  -1  14   32.94   13.68
  11   1  15   23.38    8.61
 -11  -1 -15   15.47    8.73
 -11   1 -15   18.62    8.92
  11  -1  15   19.28    8.46
  11   1  16   49.70   17.09
 -11  -1 -16   51.68   17.34
 -11   1 -16   41.43   16.90
  11  -1  16   40.56   16.76
 -11   1 -17   23.53   11.13
  11  -1  17   27.38   11.02
 -11  -3   0   20.30    4.87
 -11  -3   0   12.77    7.43
  11  -3   0   31.62   11.67
  11  -3   0   -0.87    9.35
  11   3   1    3.46    5.02
 -11  -3  -1    0.12    6.01
  11  -3   1    7.79   14.21
  11  -3   1   -0.02   10.52
  11   3   2  563.09  151.43
 -11  -3  -2  760.08  196.66
 -11   3  -2  513.70  151.20
  11  -3   2   86.80  194.39
  11  -3   2  378.71  151.08
  11   3   3  382.94  104.02
 -11  -3  -3  277.10  132.49
 -11   3  -3  385.13  103.94
  11  -3   3  248.74  103.72
  11   3   4  174.91   41.71
 -11  -3  -4  113.95   48.56
 -11   3  -4  111.54   41.67
  11  -3   4  105.79   41.38
  11   3   5   13.38    6.38
 -11  -3  -5   13.21   10.72
 -11   3  -5    9.14    6.54
  11  -3   5   10.99    6.22
  11   3   6 1092.49  260.74
 -11  -3  -6  751.50  343.35
 -11   3  -6  739.92  260.28
  11  -3   6  744.08  260.39
  11   3   7 1297.36  278.02
 -11  -3  -7  902.08  366.49
 -11   3  -7  775.83  277.45
  11  -3   7  656.05  277.52
  11   3   8   17.34    8.78
 -11  -3  -8    6.47    7.87
 -11   3  -8    7.96    7.09
  11  -3   8    8.94    6.05
  11   3   9    2.63    6.02
 -11  -3  -9    6.32   11.93
 -11  -3  -9    3.15    5.72
 -11   3  -9   -0.52    5.82
  11  -3   9   -2.16    3.95
  11   3  10  503.87   63.17
 -11  -3 -10    3.78   75.25
 -11  -3 -10   -1.07   61.92
 -11   3 -10  369.04   62.64
  11  -3  10   -1.92   61.80
 -11  -3 -11    0.84   11.26
 -11  -3 -11   -0.53    5.48
 -11   3 -11   22.78    6.47
  11  -3  11   -0.14    5.17
  11   3  12    9.82    6.75
 -11  -3 -12    1.00   15.63
 -11  -3 -12    0.39    5.26
 -11   3 -12   10.35    7.27
  11  -3  12    1.90    4.96
  11   3  13   27.90    8.93
 -11  -3 -13    0.12    7.67
 -11   3 -13   28.78    9.59
  11  -3  13    0.89    6.98
 -11  -5   0   -0.59   11.37
 -11  -5  -1    3.70   18.24
 -11  -5  -2   26.23   15.82
 -11  -5  -3   11.04    8.88
 -11  -5  -4    6.68    9.06
 -11  -5  -5   -4.46   12.11
  12   0   0  189.36   84.47
  12   0   0  235.47   68.55
 -12   0   0  231.28   84.13
 -12   0   0  203.21   68.32
  12   0   1   77.78   25.78
  12   0   1   75.91   24.63
 -12   0  -1   59.16   24.87
 -12   0  -1   74.96   24.46
  12   0   2   16.71    6.53
 -12   0  -2    8.27    4.35
  12   0   3   40.93   12.13
  12   0   3   44.50   15.18
 -12   0  -3   36.71   12.21
 -12   0  -3   44.73   15.18
  12   0   4  116.11   35.51
  12   0   4  103.06   32.14
 -12   0  -4   87.31   32.07
  12   0   5  349.26  102.00
 -12   0  -5  298.99  101.92
  12   0   6   60.81   17.73
 -12   0  -6   42.02   17.64
  12   0   7    1.89    5.95
  12   0   7   -0.65    2.47
 -12   0  -7   -0.90    2.57
  12   0   8  161.87   46.29
 -12   0  -8  168.54   46.19
 -12   0  -8   98.07   46.23
  12   0   9    2.33    3.55
 -12   0  -9    2.69    3.86
  12   0  10  301.98   95.87
 -12   0 -10  304.84   95.80
  12   0  11   79.99   27.95
 -12   0 -11   87.07   28.00
  12   0  12  756.76  223.38
 -12   0 -12  676.55  223.24
  12   0  13  336.73  105.90
 -12   0 -13  334.62  105.80
  12   0  14   44.21   17.20
 -12   0 -14   52.24   17.29
  12   0  15   18.16    7.92
 -12   0 -15   15.72    8.17
  12   0  16  369.46  115.21
 -12   0 -16  361.38  115.15
  12   2   0  104.20   57.88
  12   2   0  200.28   48.90
 -12  -2   0  145.09   58.10
 -12  -2   0  129.88   48.55
 -12   2   0  185.65   48.69
  12  -2   0   19.21   57.80
  12  -2   0  149.22   48.68
  12   2   1   26.26   11.52
  12   2   1   49.56   15.24
 -12  -2  -1   33.40   12.28
 -12  -2  -1   34.28   14.35
 -12   2  -1   51.51   14.65
  12  -2   1   33.41   10.14
  12  -2   1   40.31   14.47
  12   2   2    4.80    1.67
  12   2   2    6.87    5.10
 -12  -2  -2    8.58    4.00
 -12  -2  -2    6.28    4.95
 -12   2  -2    8.14    4.43
 -12   2  -2   10.44    5.22
  12  -2   2    2.27    3.82
  12  -2   2    8.87    4.87
  12   2   3   19.10    4.39
  12   2   3   29.15   10.57
 -12  -2  -3   23.12    6.44
 -12  -2  -3   27.66   10.15
 -12   2  -3   24.04   10.00
  12  -2   3   39.34    6.03
  12  -2   3   13.32    4.80
  12  -2   3   30.06   10.27
  12   2   4   56.87   19.85
  12   2   4   64.93   19.45
 -12  -2  -4   73.60   19.21
 -12  -2  -4   42.34   19.41
 -12   2  -4   52.81   19.27
 -12   2  -4   64.69   19.61
  12  -2   4   52.54   19.35
  12   2   5  218.52   87.66
  12   2   5  251.96   70.96
 -12  -2  -5  250.42   87.57
 -12  -2  -5  186.06   70.88
 -12   2  -5  225.77   70.94
  12   2   6    7.61    5.36
  12   2   6   25.54    9.74
 -12  -2  -6   32.25    6.88
 -12   2  -6   26.18    9.47
 -12   2  -6   19.72   10.28
  12  -2   6   28.69    9.64
  12   2   7    1.29    3.82
 -12  -2  -7    1.87    9.11
 -12   2  -7    0.70    3.65
  12  -2   7    2.13    3.71
  12   2   8  123.41   37.25
 -12  -2  -8   93.91   42.67
 -12   2  -8  107.16   37.03
  12  -2   8  119.14   37.19
  12   2   9    5.61    4.88
 -12  -2  -9    4.25    9.02
 -12   2  -9    2.83    4.15
  12  -2   9    2.62    3.75
  12   2  10  180.52   57.42
 -12  -2 -10  136.94   70.02
 -12  -2 -10  195.21   57.37
 -12   2 -10  173.95   57.30
  12  -2  10  180.50   57.36
  12   2  11   52.21   17.52
 -12  -2 -11    2.02   18.12
 -12  -2 -11   61.93   17.50
 -12   2 -11   50.26   17.31
  12  -2  11   47.00   17.20
  12   2  12  477.22  142.19
 -12  -2 -12    3.34  182.47
 -12  -2 -12  508.10  142.07
 -12   2 -12  504.03  142.06
  12  -2  12  459.63  142.06
  12   2  13  207.72   63.60
 -12  -2 -13   -1.80   77.86
 -12  -2 -13  222.57   63.44
 -12   2 -13  208.88   63.44
  12  -2  13  214.38   63.47
  12   2  14   28.76    7.92
 -12  -2 -14    1.91    7.00
 -12   2 -14   28.32    8.75
  12  -2  14   -0.04    7.10
  12   2  15    9.25    6.04
 -12  -2 -15   -3.21    5.69
 -12   2 -15    4.73    5.41
  12  -2  15   -1.08    4.88
  12   4   0   87.12   29.69
 -12  -4   0   76.89   31.88
  12  -4   0  101.42   36.25
  12   4   1    6.24    6.36
 -12  -4  -1    3.35    9.70
  12  -4   1    4.55   13.41
  12   4   2    5.57    7.70
 -12  -4  -2    4.80    9.79
  12   4   3   17.57   10.12
 -12  -4  -3   16.04    9.05
 -12  -4  -4   22.43   11.92
  12  -4   4   12.98   13.30
  12   4   5   68.72   20.63
 -12  -4  -5   25.57   19.43
  12   4   6    5.18    9.12
 -12  -4  -6    1.18    9.58
  12   4   7    2.02    8.53
 -12  -4  -7    2.62   10.16
  12   4   8   31.12    9.39
 -12  -4  -8   -3.27    6.11
 -12  -4  -8   -1.82    8.27
 -12  -4  -9    0.54    9.15
  13   1   0    2.75    3.37
  13   1   0    1.64    4.43
 -13  -1   0    4.48    7.00
 -13  -1   0    0.64    3.31
 -13   1   0    1.01    3.06
  13  -1   0   -1.30    4.44
  13  -1   0    3.74    5.93
  13  -1   0    3.83    3.30
  13   1   1 1324.83  366.57
 -13  -1  -1 1736.86  486.53
 -13  -1  -1 1038.17  366.43
 -13   1  -1  460.96  485.53
 -13   1  -1 1001.49  366.43
  13  -1   1 1478.59  486.83
  13  -1   1 1277.83  366.59
  13   1   2 3267.36  980.41
 -13  -1  -2 5105.06 1314.98
 -13  -1  -2 2813.96  980.21
  13  -1   2 2776.70 1314.99
  13  -1   2 2233.03 1314.56
  13  -1   2 3217.45  980.38
  13   1   3    4.60    6.05
  13   1   3    1.46    4.53
 -13  -1  -3    3.49    4.88
 -13  -1  -3   12.25    3.95
 -13   1  -3    1.70    4.42
  13  -1   3   10.42    3.65
  13  -1   3    0.12    4.04
  13  -1   3    1.83    4.11
  13   1   4  133.84   42.69
  13   1   4  106.08   37.34
 -13  -1  -4  157.12   43.03
 -13   1  -4  104.12   37.23
  13  -1   4  110.06   37.28
  13   1   5 1369.04  492.29
  13   1   5 1288.48  370.85
 -13  -1  -5 1742.01  492.55
 -13  -1  -5  989.66  370.69
 -13   1  -5 1088.48  370.74
  13  -1   5 1136.12  370.80
  13   1   6  582.95  158.84
 -13  -1  -6  635.51  206.13
 -13  -1  -6  385.67  158.66
 -13   1  -6  514.54  158.72
 -13   1  -6  434.91  158.71
  13  -1   6  576.44  158.81
  13   1   7   44.49   19.02
  13   1   7   58.07   20.07
 -13  -1  -7   67.17   20.03
 -13   1  -7   58.52   20.00
  13  -1   7   60.92   20.26
  13   1   8   47.79    7.79
  13   1   8    8.81    5.84
 -13  -1  -8    6.62    4.48
 -13   1  -8    7.84    6.26
  13  -1   8    5.12    5.87
  13   1   9  109.57   35.94
 -13   1  -9  108.96   35.78
  13  -1   9  109.82   35.80
  13   1  10    8.65    5.45
 -13  -1 -10    8.89    5.14
 -13   1 -10    7.12    6.01
  13  -1  10    6.94    5.37
  13   1  11  109.40   32.95
 -13  -1 -11   54.61   36.64
 -13  -1 -11  113.73   32.85
 -13   1 -11   93.31   32.92
  13  -1  11   96.51   32.94
  13   1  12   75.16   24.01
 -13  -1 -12   -1.21   25.11
 -13  -1 -12   77.32   24.15
 -13   1 -12   76.85   24.11
  13  -1  12   73.76   24.07
  13   1  13    9.12    5.79
 -13  -1 -13    7.56    5.67
 -13   1 -13   11.42    6.14
  13  -1  13    6.64    5.69
  13   1  14    0.05    3.35
 -13  -1 -14    2.49    4.73
 -13   1 -14   -3.06    4.92
  13  -1  14    1.60    4.02
  13   1  15   44.75   15.66
 -13  -1 -15   41.61   15.83
 -13   1 -15   42.86   15.77
  13  -1  15   38.16   15.61
 -13   1 -16   25.15   12.66
  13  -1  16   39.46   12.61
  13   3   0   -0.85    5.05
 -13  -3   0   -0.69   10.56
  13  -3   0    4.93   11.84
  13   3   1  705.01  140.36
 -13  -3  -1  581.86  181.25
 -13   3  -1  387.53  139.80
  13  -3   1   -4.35  180.15
  13  -3   1  348.93  139.91
  13   3   2 1746.53  382.44
 -13  -3  -2 1623.90  507.73
 -13   3  -2 1128.50  381.94
  13  -3   2    6.13  505.93
  13  -3   2 1077.82  382.06
 -13  -3  -3    0.87   10.02
 -13   3  -3    2.40    4.58
  13  -3   3   -0.44    5.22
  13   3   4   51.88   14.58
 -13  -3  -4   46.50   13.66
 -13   3  -4   31.28   14.39
  13  -3   4   33.75   14.33
  13   3   5  672.74  176.76
 -13  -3  -5  509.80  229.97
  13  -3   5  488.09  176.45
  13   3   6  391.98   84.75
 -13  -3  -6  299.28  105.82
 -13   3  -6  192.46   84.21
  13  -3   6  227.99   84.38
  13   3   7   25.55   10.21
 -13  -3  -7    5.66    5.55
 -13   3  -7   14.92    8.64
  13  -3   7   14.57    7.99
  13   3   8    7.82    6.78
 -13  -3  -8    3.58    7.34
  13  -3   8    1.12    4.93
  13   3   9   78.77   12.77
 -13  -3  -9   -1.55    7.13
 -13  -3  -9    0.52   11.05
 -13   3  -9   50.99   12.29
  13  -3   9   -2.80   10.86
  13   3  10    5.11    6.35
 -13  -3 -10    2.63    9.13
 -13  -3 -10   -1.98    5.89
 -13   3 -10    0.34    6.47
  13  -3  10   -1.99    4.28
  13   3  11   43.52    9.07
 -13  -3 -11   -1.40    7.02
 -13  -3 -11    2.05    7.39
 -13   3 -11   17.24    8.88
  13  -3  11   -0.25    6.47
  13   3  12   25.42    8.62
 -13  -3 -12    1.90    6.98
 -13  -5   0    0.79   15.86
 -13  -5  -1   14.41   20.18
 -13  -5  -2   12.32   21.50
 -13  -5  -3   -4.62   20.53
  14   0   0  226.87  143.87
  14   0   0  410.39  112.71
 -14   0   0  510.32  143.46
 -14   0   0  313.95  112.50
  14   0   1  107.81   29.48
  14   0   1   92.76   27.01
 -14   0  -1   61.33   28.98
 -14   0  -1   67.57   26.77
  14   0   2    1.93    5.95
  14   0   2    0.49    3.43
 -14   0  -2   -1.70    9.39
 -14   0  -2    0.30    2.30
  14   0   3   37.35   15.41
  14   0   3   59.63   17.62
 -14   0  -3   39.29   16.86
  14   0   4    1.44    6.59
  14   0   4    1.37    3.58
 -14   0  -4   -0.16    3.31
  14   0   5  169.05   45.54
 -14   0  -5  114.73   45.40
  14   0   6   30.45    9.69
 -14   0  -6   19.21    9.74
  14   0   7 1304.29  334.58
  14   0   7  654.88  254.47
  14   0   8 1016.13  316.74
  14   0   9   68.52   22.93
 -14   0  -9   65.87   22.75
  14   0  10    5.94    4.61
 -14   0 -10    6.52    4.79
  14   0  11 1015.74  314.38
 -14   0 -11 1001.67  314.25
  14   0  12  282.79   96.40
 -14   0 -12  324.69   96.34
  14   0  13   27.87   10.88
  14   0  14   19.54    8.68
 -14   0 -14   18.96    8.86
  14   0  15  105.82   35.26
 -14   0 -15  105.89   35.36
  14   2   0  126.14   80.22
  14   2   0  267.36   65.85
 -14  -2   0  191.87   80.78
 -14  -2   0  159.55   65.40
 -14   2   0  213.95   65.54
  14  -2   0  223.47   65.64
  14   2   1   53.92   15.79
 -14  -2  -1   40.88   14.06
 -14   2  -1   39.22   15.64
  14  -2   1   51.26   13.91
  14  -2   1   11.16   11.02
  14  -2   1   45.08   15.29
  14   2   2    1.89    5.09
  14   2   2    0.68    3.51
 -14  -2  -2    6.29    8.25
 -14  -2  -2   -0.30    3.36
 -14   2  -2    0.97    4.05
  14  -2   2    1.50    9.68
  14  -2   2   -0.03    4.01
  14   2   3   18.51    8.94
  14   2   3   40.04   12.59
 -14  -2  -3   23.75    9.73
 -14   2  -3   29.77   12.44
 -14   2  -3   35.16   12.90
  14  -2   3   49.01   10.48
  14  -2   3   33.86   12.84
  14   2   4    0.47    3.24
 -14   2  -4    1.03    3.85
 -14   2  -4    2.30    5.19
  14  -2   4    0.46    4.81
  14   2   5  106.04   36.03
 -14  -2  -5   87.43   40.16
 -14   2  -5  112.31   35.90
  14  -2   5  118.52   36.02
  14   2   6   26.10   10.65
 -14  -2  -6   43.73   15.38
 -14   2  -6   24.78   10.85
  14  -2   6   23.68   10.96
  14   2   7  494.58  156.76
 -14  -2  -7  678.32  203.60
 -14   2  -7  451.47  156.52
  14  -2   7  492.89  156.64
  14   2   8  757.75  237.69
 -14  -2  -8  995.08  312.82
 -14   2  -8  689.28  237.48
  14  -2   8  760.17  237.62
  14   2   9   53.74   18.90
 -14  -2  -9   57.70   23.22
 -14   2  -9   51.65   19.06
  14  -2   9   54.89   19.02
  14   2  10    5.40    4.69
 -14  -2 -10    4.47   17.32
 -14  -2 -10    7.28    4.76
 -14   2 -10    5.58    5.33
  14  -2  10    5.35    5.55
  14   2  11  632.58  184.33
 -14  -2 -11    3.83  239.48
 -14  -2 -11  565.55  184.11
 -14   2 -11  669.13  184.22
  14  -2  11  669.37  184.27
  14   2  12  224.94   49.73
 -14  -2 -12    3.12   57.67
 -14  -2 -12  204.07   49.55
 -14   2 -12  226.22   49.60
  14  -2  12   -1.28   49.00
  14   2  13   14.63    7.30
 -14  -2 -13    9.00    5.62
 -14   2 -13   14.99    7.67
  14  -2  13   -0.02    6.28
  14   2  14   15.61    6.18
 -14  -2 -14    1.62    5.78
  14   4   0   67.60   22.59
 -14  -4   0   48.88   22.68
  14  -4   0   67.39   27.01
  14   4   1    8.62    7.20
 -14  -4  -1    6.53    9.69
  14  -4   1    6.60   14.60
  14   4   2    1.63    6.28
 -14  -4  -2    0.15   10.73
  14   4   3   13.15    9.16
 -14  -4  -3    2.14    9.43
  14   4   4    0.59    6.36
 -14  -4  -4    3.66   10.68
  14   4   5   26.68   10.90
 -14  -4  -5    8.75    9.08
  14   4   6    5.94    9.66
 -14  -4  -6   -1.33   10.31
 -14  -4  -7    2.27   16.63
 -14  -4  -8   -0.22   20.65
  15   1   0  340.06  208.99
  15   1   0  597.24  160.75
 -15  -1   0  847.66  208.88
 -15  -1   0  452.34  160.49
 -15   1   0  166.07  206.90
 -15   1   0  572.24  160.58
  15  -1   0  292.37  209.11
  15  -1   0  519.65  209.06
  15  -1   0  564.90  160.72
  15   1   1 1303.44  555.21
  15   1   1 1648.81  417.30
 -15  -1  -1 2178.50  555.03
 -15  -1  -1 1114.53  417.10
 -15   1  -1 1217.16  417.11
  15  -1   1 1276.39  555.17
  15  -1   1  844.01  554.86
  15  -1   1 1352.10  417.28
  15   1   2  188.03   89.86
  15   1   2  261.80   72.64
 -15  -1  -2  353.56   89.96
 -15  -1  -2  204.18   72.40
 -15   1  -2   87.52   88.60
 -15   1  -2  221.26   72.46
  15  -1   2  263.92   90.35
  15  -1   2  225.49   72.57
  15   1   3   78.88   23.36
  15   1   3   70.39   22.34
 -15  -1  -3   97.57   22.51
 -15  -1  -3   48.59   22.27
 -15   1  -3   50.80   22.29
  15  -1   3   45.23   22.54
  15  -1   3   90.08   22.50
  15   1   4  139.67   56.35
  15   1   4  160.03   47.69
 -15  -1  -4  192.11   56.31
 -15   1  -4  124.92   47.63
  15   1   5    1.55    5.61
  15   1   5   13.99    6.54
 -15  -1  -5   27.43    9.09
  15  -1   5   11.67    6.18
  15   1   6   91.74   45.94
  15   1   6  131.46   40.26
 -15  -1  -6  196.33   46.75
 -15   1  -6   94.10   39.96
  15  -1   6  131.07   40.19
  15   1   7   80.51   25.41
 -15  -1  -7   78.96   27.02
 -15   1  -7   69.60   25.36
  15  -1   7   75.25   25.40
  15   1   8   14.90    7.81
 -15  -1  -8   20.01   10.01
 -15   1  -8   19.71    7.69
  15  -1   8   15.89    7.57
  15   1   9    6.43    5.24
 -15  -1  -9   11.96   14.02
 -15   1  -9    8.21    5.52
  15  -1   9    8.96    5.11
  15   1  10   84.30   27.85
 -15  -1 -10   22.28   31.47
 -15  -1 -10   94.06   27.88
 -15   1 -10   84.16   27.94
  15  -1  10   86.43   27.92
  15   1  11   51.73   17.59
 -15  -1 -11    3.33   30.17
 -15  -1 -11   53.83   17.53
 -15   1 -11   53.66   17.65
  15  -1  11   48.69   17.52
  15   1  12   38.86   14.15
 -15  -1 -12   44.57   14.19
 -15   1 -12   36.60   14.35
  15  -1  12   33.37   14.24
  15   1  13   71.43   26.32
 -15  -1 -13   79.78   26.34
 -15   1 -13   79.18   26.31
  15  -1  13   80.23   26.31
  15   1  14   39.90   15.42
 -15  -1 -14   49.18   15.60
 -15   1 -14   39.29   16.08
  15  -1  14   35.86   15.74
  15   3   0  339.55   99.72
 -15  -3   0  276.74  126.24
  15  -3   0  284.85  125.50
  15   3   1  861.48  199.32
 -15  -3  -1 1086.38  260.80
 -15   3  -1  444.07  198.75
  15  -3   1  744.84  260.07
  15  -3   1  466.48  198.90
  15   3   2  121.07   31.44
 -15  -3  -2   99.99   34.77
 -15   3  -2   87.83   31.18
  15  -3   2   88.26   34.31
  15  -3   2   75.84   31.21
  15   3   3   40.91   11.83
 -15  -3  -3   32.21   10.76
 -15   3  -3   21.15   12.13
  15  -3   3   27.67   12.01
  15   3   4   80.30   22.34
 -15  -3  -4   59.39   22.45
  15  -3   4   51.95   22.34
  15   3   5   11.65    6.02
 -15  -3  -5    9.76    8.74
 -15   3  -5    9.19    7.32
  15  -3   5    7.20    7.32
  15   3   6   57.46   11.50
 -15  -3  -6   29.30   14.68
 -15   3  -6   23.58   11.20
  15  -3   6   -0.60   10.42
  15   3   7   28.84    9.98
 -15  -3  -7    6.43   13.34
 -15   3  -7   16.60    8.40
  15  -3   7   -1.71    7.30
  15   3   8   11.19    8.66
 -15  -3  -8    1.60   14.71
  15  -3   8    2.05    6.50
  15   3   9    4.48    5.48
 -15  -3  -9    2.41   16.07
 -15  -3  -9   -0.92    4.97
  15  -3   9    0.80    5.10
  15   3  10   37.77    7.76
 -15  -3 -10    3.65   16.24
 -15  -3 -10   -0.68    7.41
  15  -3  10    0.25    6.30
  16   0   0   16.00    5.45
  16   0   0   21.73    7.97
 -16   0   0   14.84    8.07
 -16   0   0   15.96    7.46
  16   0   1   17.27    6.27
  16   0   1   14.47    6.94
 -16   0  -1   19.38   10.08
 -16   0  -1   10.57    6.14
  16   0   2  211.70   89.94
  16   0   2  265.24   72.45
 -16   0  -2  176.31   88.75
 -16   0  -2  214.44   72.27
  16   0   3  885.04  426.98
  16   0   3 1057.46  322.46
 -16   0  -3 1069.27  322.33
  16   0   4   -4.83   10.10
  16   0   4   -0.19    3.04
 -16   0  -4    0.21   13.08
  16   0   5  121.73   43.75
  16   0   5  143.75   38.62
 -16   0  -5   21.26   43.45
  16   0   6 1077.23  268.74
 -16   0  -6   55.34  352.03
  16   0   7 1277.84  397.89
  16   0   8   84.62   28.38
  16   0   9   11.75    6.63
 -16   0  -9   15.47    6.79
  16   0  10  256.46   82.23
 -16   0 -10  261.00   82.10
  16   0  11  118.24   39.99
 -16   0 -11  126.23   39.92
  16   0  12    7.14    5.42
 -16   0 -12    6.58    5.97
  16   0  13   84.12   28.48
 -16   0 -13   85.97   28.56
  16   0  14   19.92    9.43
 -16   0 -14   19.51    9.82
  16   2   0   15.49    7.62
 -16  -2   0   28.27    4.69
 -16   2   0    9.39    7.49
  16  -2   0   19.05    6.94
  16  -2   0    6.76    9.13
  16   2   1   12.69    5.70
 -16  -2  -1   12.73    6.55
 -16   2  -1    9.44    6.97
  16  -2   1    7.78    8.46
  16  -2   1    2.15    8.19
  16  -2   1   10.42    5.63
  16   2   2  218.64   66.45
 -16  -2  -2  348.92   81.70
  16  -2   2  309.34   81.14
  16  -2   2   38.39   80.99
  16  -2   2  179.62   66.33
  16   2   3  915.88  308.25
 -16  -2  -3 1706.29  407.92
 -16   2  -3  854.93  308.08
  16  -2   3 1117.83  406.70
  16  -2   3  902.84  308.24
  16   2   4    2.19    3.56
 -16   2  -4   -0.31    4.28
  16  -2   4    2.07    5.47
  16   2   5   95.27   31.93
 -16  -2  -5  119.32   35.28
 -16   2  -5   96.75   31.77
  16  -2   5   87.34   31.94
  16   2   6  659.37  194.10
 -16   2  -6  674.65  193.91
  16  -2   6  521.95  193.94
  16   2   7  950.08  256.44
 -16   2  -7  739.13  256.14
  16  -2   7  793.42  256.28
  16   2   8   74.76   19.41
 -16  -2  -8    3.64   17.72
 -16   2  -8   51.40   19.41
  16  -2   8   57.11   19.36
  16   2   9    7.28    4.70
 -16  -2  -9    1.94   10.80
 -16   2  -9    4.21    5.83
  16  -2   9   -0.52    4.40
  16   2  10  154.43   37.18
 -16  -2 -10   -6.78   41.97
 -16  -2 -10  173.82   37.11
 -16   2 -10  149.96   37.08
  16  -2  10    1.85   36.69
  16   2  11   68.73   16.49
 -16  -2 -11   53.62   16.21
 -16   2 -11   56.50   16.69
  16  -2  11   -0.49   15.99
  16   2  12    7.01    6.43
 -16  -2 -12    6.04    5.71
 -16   2 -12    4.18    6.80
  16  -2  12   -0.23    5.45
  16   4   0    5.67    6.11
 -16  -4   0    6.51   12.04
  16  -4   0    4.10   21.00
  16   4   1    3.58    7.88
 -16  -4  -1    3.75   12.23
  16   4   2   99.17   26.16
 -16  -4  -2    3.14   25.70
  16   4   3  321.88   77.70
 -16  -4  -3   29.80   94.48
  16   4   4    3.32    6.76
 -16  -4  -4   -4.20   12.03
 -16  -4  -5   -2.85   15.17
  17   1   0   81.64   47.29
  17   1   0  177.95   41.53
 -17   1   0  117.64   41.23
  17  -1   0   77.46   47.06
  17  -1   0   45.91   47.32
  17  -1   0  152.53   41.27
  17   1   1   26.47   11.18
  17   1   1   42.78   13.19
 -17  -1  -1   53.57   11.10
 -17   1  -1    8.75   15.00
 -17   1  -1   27.01   13.10
  17  -1   1   44.85   10.58
  17  -1   1   38.96   13.21
  17   1   2   15.28    8.11
  17   1   2   31.94   11.56
 -17  -1  -2   43.04    8.14
  17  -1   2   18.68   10.52
  17  -1   2   31.99   11.15
  17   1   3    0.12   10.35
  17   1   3    4.27    3.83
 -17  -1  -3    5.08   12.32
  17  -1   3    2.15    7.48
  17   1   4    5.52    4.39
 -17  -1  -4    9.52   10.66
  17  -1   4    4.18    3.99
  17   1   5  135.20   47.97
 -17  -1  -5  213.06   56.57
  17  -1   5  140.32   47.89
  17   1   6   36.01   12.32
 -17  -1  -6   32.76   13.53
 -17   1  -6   27.30   11.85
  17  -1   6   30.65   12.10
  17   1   7   45.87   15.01
 -17  -1  -7   22.09   14.03
 -17   1  -7   38.16   14.55
  17  -1   7   42.37   14.61
  17   1   8   30.92   12.00
 -17   1  -8   30.71   11.79
  17  -1   8   28.20   11.73
  17   1   9  128.61   42.10
 -17   1  -9  129.56   41.95
  17  -1   9  128.92   42.04
  17   1  10   60.41   21.10
 -17  -1 -10   64.48   20.97
 -17   1 -10   57.94   21.06
  17  -1  10   61.32   21.07
  17   1  11   14.29    7.30
 -17  -1 -11   17.01    7.40
 -17   1 -11   13.64    7.65
  17  -1  11   10.55    6.80
  17   1  12  364.09  106.49
 -17  -1 -12  377.69  106.31
 -17   1 -12  312.24  106.31
  17  -1  12  292.02  106.38
  17   1  13  178.72   60.78
 -17  -1 -13  173.84   60.66
 -17   1 -13  191.22   60.88
  17  -1  13  212.78   60.90
  17   3   0   99.94   21.24
 -17  -3   0   81.79   21.05
 -17   3   0   37.90   20.93
  17  -3   0   71.37   22.67
  17  -3   0   38.12   20.79
  17   3   1   16.96    7.63
 -17  -3  -1   34.67   11.53
 -17   3  -1    7.84    8.33
  17  -3   1    8.96   17.51
  17  -3   1    9.64    8.37
  17   3   2   10.79    5.68
 -17   3  -2    6.85    7.86
  17  -3   2    7.54    7.22
  17   3   3    5.74    4.93
 -17  -3  -3    8.59   11.62
 -17   3  -3    5.29    7.87
  17  -3   3    6.12    7.11
  17   3   4    2.65    4.05
 -17  -3  -4    7.50   10.50
 -17   3  -4    3.17    7.57
  17  -3   4   -1.75    5.92
  17   3   5   90.93   15.14
 -17  -3  -5    0.68   11.90
 -17   3  -5   43.78   15.07
  17  -3   5    0.75   14.64
  17   3   6   20.63    6.75
 -17  -3  -6    0.09    8.62
 -17   3  -6   11.49    7.99
  17  -3   6    0.87    7.46
  17   3   7   23.70   10.10
 -17  -3  -7    2.88    8.99
  17  -3   7    5.87    8.19
  17   3   8   22.62    9.92
 -17  -3  -8   -0.24   12.68
  17   3   9   46.21    9.82
 -17  -3  -9   -0.68    9.13
  18   0   0   41.10   26.20
  18   0   0   89.79   25.29
 -18   0   0   68.99   25.86
  18   0   1  218.20  165.03
  18   0   1  448.23  128.42
 -18   0  -1  544.05  164.40
  18   0   2  746.63  603.40
  18   0   2 1703.14  453.53
 -18   0  -2 1625.09  602.22
  18   0   3  132.75  106.72
  18   0   3  345.12   85.38
 -18   0  -3  184.96  105.51
  18   0   4   67.82   44.25
  18   0   4  153.62   38.97
 -18   0  -4   55.17   42.93
  18   0   5  264.63   84.03
  18   0   6  422.66  109.60
 -18   0  -6   13.83  136.21
  18   0   7    0.87    3.92
 -18   0  -7    1.04   11.81
  18   0   8   53.36   16.48
 -18   0  -8   38.05   16.06
  18   0   9   31.04   12.20
 -18   0  -9   31.27   11.87
  18   0  10    0.52    3.81
 -18   0 -10    4.14    4.82
  18   0  11   78.39   26.15
 -18   0 -11   76.54   26.05
  18   0  12    1.50    5.93
 -18   0 -12    4.17    6.50
  18   0  13   31.88   13.08
 -18   0 -13   34.18   13.20
  18   2   0   61.02   20.25
  18  -2   0   58.23   19.05
  18  -2   0   53.56   19.98
  18   2   1  391.33  116.28
 -18  -2  -1  640.63  148.63
  18  -2   1  294.53  147.36
  18  -2   1  275.90  116.13
 -18  -2  -2 1885.67  546.59
  18  -2   2 1572.81  545.67
  18  -2   2 1060.08  411.45
  18   2   3  261.15   84.40
 -18  -2  -3  449.96  105.85
  18  -2   3  214.90  104.80
  18  -2   3  223.96   84.41
  18   2   4   83.76   26.16
 -18  -2  -4  120.21   28.45
 -18   2  -4   65.96   26.27
  18  -2   4   70.33   26.26
  18   2   5  178.80   46.86
 -18  -2  -5   28.83   54.72
 -18   2  -5  143.54   46.69
  18  -2   5  149.03   46.77
  18   2   6  326.54   56.23
 -18  -2  -6    1.08   66.32
 -18   2  -6  249.07   55.93
  18  -2   6    0.87   55.45
  18   2   7    2.27    4.17
 -18  -2  -7   -0.39   12.73
 -18   2  -7    0.60    5.24
  18  -2   7    0.98    4.32
  18   2   8   21.24    7.66
 -18  -2  -8   -5.77   16.05
 -18   2  -8   21.41    7.26
  18  -2   8    1.02    6.56
  18   2   9   26.56    7.52
 -18   2  -9   13.89    7.15
  18  -2   9   -2.69    7.21
  18   2  10    0.23    4.87
 -18  -2 -10   -0.30    3.73
 -18   2 -10    0.74    5.82
  18  -2  10    0.57    5.10
  18   2  11   45.84   15.53
 -18  -2 -11   37.02   15.26
  18   4   0   19.92    9.62
 -18  -4   0    4.32   13.46
  18   4   1  113.35   38.45
  18   4   2  441.00  139.41
 -18  -4  -3   13.47   10.36
  19   1   0  131.25   40.04
 -19  -1   0   56.76   45.00
  19  -1   0  118.03   45.71
  19  -1   0  135.86   40.14
  19   1   1   18.25    7.82
 -19  -1  -1    8.53    6.60
  19  -1   1    7.87    7.99
  19  -1   1   21.40    8.09
  19   1   2   56.94   17.58
  19  -1   2   42.57   17.75
  19   1   3    3.75    4.16
 -19   1  -3    2.82    7.72
  19  -1   3    3.13   16.94
  19  -1   3    4.74    5.06
  19   1   4   65.15   22.10
  19  -1   4   75.13   23.74
  19  -1   4   60.41   22.11
  19   1   5   21.82    8.27
 -19  -1  -5    6.93    9.58
  19  -1   5   17.43    8.61
  19   1   6   29.00   11.07
 -19  -1  -6    1.37   12.59
 -19   1  -6   28.95   10.88
  19  -1   6   27.94   10.57
  19   1   7  362.46  100.66
 -19  -1  -7    3.16  125.13
 -19   1  -7  332.73  100.41
  19  -1   7  336.74  100.57
  19   1   8  532.18  145.17
 -19  -1  -8    5.81  186.86
 -19   1  -8  486.51  144.92
  19  -1   8  470.45  145.07
  19   1   9   36.99   12.81
 -19  -1  -9   33.61   12.63
 -19   1  -9   32.76   12.81
  19  -1   9   31.27   12.74
  19   1  10   23.52   10.04
 -19  -1 -10   24.55    9.92
 -19   1 -10   18.63   10.22
  19  -1  10   26.71   10.04
  19   1  11  155.88   47.92
 -19  -1 -11  158.25   47.72
 -19   1 -11  147.82   47.99
  19  -1  11  125.51   47.97
  19   3   0   63.22   12.09
 -19  -3   0   68.42   12.32
 -19   3   0   -0.01   11.39
  19  -3   0   30.38   16.80
  19  -3   0   16.74   12.00
 -19  -3  -1   19.83   14.78
 -19   3  -1   -3.25    7.11
  19  -3   1   -1.85   19.48
  19  -3   1    0.07    6.11
  19   3   2   16.18    5.36
 -19  -3  -2   12.47   10.96
 -19   3  -2    3.07    7.34
  19  -3   2   -0.92    7.09
  19   3   3    2.29    4.24
 -19  -3  -3    2.06   12.06
  19   3   4   42.55    8.08
 -19  -3  -4    8.50   14.32
 -19   3  -4    2.38    8.04
  19  -3   4   -1.48    7.08
  19   3   5    8.65    7.06
 -19  -3  -5    3.70   11.83
  19   3   6   12.44    8.32
 -19  -3  -6   -1.17   12.22
  19   3   7  144.00   47.12
  20   0   0   38.04   14.43
 -20   0   0   40.17   16.32
  20   0   1  717.15  223.91
 -20   0  -1  712.27  291.91
  20   0   2   85.72   28.75
  20   0   3    8.92    6.26
  20   0   4    3.35    4.36
  20   0   5    4.11    7.80
  20   0   5   21.21    7.47
 -20   0  -5   -0.55   10.47
  20   0   6    3.75   25.67
  20   0   6   98.85   23.96
 -20   0  -6    1.23   21.67
  20   0   7    7.07    5.39
  20   0   8   70.91   23.29
 -20   0  -8   64.61   23.10
  20   0   9    3.75    4.76
 -20   0  -9    7.73    4.87
  20   0  10    5.18    6.38
 -20   0 -10    4.07    6.63
  20   0  11   31.83   12.81
 -20   0 -11   32.74   13.31
  20   2   0   25.60    9.26
 -20  -2   0   26.32   11.51
  20  -2   0   14.90    9.39
  20   2   1  571.06  195.86
 -20  -2  -1  793.74  255.12
  20   2   2   68.06   16.66
 -20  -2  -2  131.64   19.23
  20  -2   2   48.43   22.95
  20  -2   2   -3.21   16.24
  20   2   3    4.60    4.24
 -20  -2  -3    8.11   16.56
 -20   2  -3    3.26    6.27
  20  -2   3    1.46    5.50
  20   2   4    2.12    3.81
 -20  -2  -4   -6.21   17.93
 -20   2  -4    0.08    5.95
  20  -2   4   -0.47    5.16
  20   2   5   11.55    5.74
 -20  -2  -5   -5.64   18.11
 -20   2  -5    4.35    6.19
  20  -2   5   -0.19    5.26
  20   2   6   52.82   11.95
 -20  -2  -6    0.92   14.34
 -20   2  -6   36.08   11.79
  20  -2   6    2.95   11.06
  20   2   7    2.96    4.22
 -20  -2  -7   -4.03   21.82
 -20   2  -7    1.42    5.51
  20  -2   7   -2.67    4.62
  20   2   8   52.14   10.95
 -20   2  -8   25.81   11.11
  20  -2   8   -0.94   10.43
  20   2   9    2.92    6.33
  21   1   0    7.51    5.25
 -21  -1   0    2.15   10.84
 -21   1   0    1.71   20.16
  21  -1   0    9.21   12.00
  21  -1   0    7.67    5.25
  21   1   1    3.85    4.31
 -21   1  -1    2.80   13.64
  21  -1   1    3.02    4.10
  21   1   2  149.51   35.81
 -21  -1  -2    0.78   38.91
 -21   1  -2    3.00   34.80
  21  -1   2    4.02   41.31
  21  -1   2  141.67   35.78
  21   1   3  580.68  151.91
 -21  -1  -3    3.54  193.70
  21  -1   3  512.15  151.85
  21   1   4  173.72   55.59
  21  -1   4  171.01   55.63
  21   1   5  107.33   30.45
 -21  -1  -5    3.77   32.51
  21  -1   5   95.16   30.39
  21   1   6  123.85   34.53
 -21  -1  -6   -2.41   34.79
 -21   1  -6  108.19   34.41
  21  -1   6  101.44   34.46
  21   1   7  632.93  173.61
 -21   1  -7  533.43  173.36
  21  -1   7  499.82  173.51
  21   1   8   61.08   14.06
 -21   1  -8   44.93   14.01
  21  -1   8   -0.77   13.39
  21   1   9    0.91    4.96
 -21  -1  -9    2.89    5.10
 -21   1  -9    2.02    4.74
  21  -1   9    0.88    4.42
 -21  -1 -10   21.28   10.22
  21   3   0    5.66    6.15
 -21  -3   0    0.65   11.88
  21   3   1    2.42    4.34
 -21  -3  -1    1.38   14.64
  21   3   2   72.82   19.92
 -21  -3  -2   -2.23   19.39
  21   3   3  338.10   82.71
 -21  -3  -3    1.88  100.21
  21   3   4   60.13   21.60
  22   0   0   52.83   16.04
 -22   0   0    3.70   19.46
  22   0   1   25.92    9.28
 -22   0  -1   -4.56   17.44
  22   0   2   16.14    7.02
 -22   0  -2    1.01    8.99
  22   0   3   70.60   20.89
 -22   0  -3   -0.96   18.82
  22   0   4   12.40    6.62
 -22   0  -4    7.21   18.64
  22   0   5   27.07   11.37
  22   0   6   27.39   11.14
  22   0   7    0.07    4.82
  22   0   8   52.97   19.96
 -22   0  -8   58.59   19.79
  22   0   9   46.77   16.76
 -22   0  -9   43.86   16.54
  22   2   0   42.69    9.20
  22  -2   0   18.27   21.01
  22  -2   0   -2.02    9.13
  22   2   1   15.26    6.15
 -22  -2  -1    0.96   16.64
  22  -2   1   15.41   24.05
  22  -2   1   -1.27    6.15
  22   2   2   11.01    4.92
 -22  -2  -2   -2.63   17.42
 -22   2  -2    6.76    7.02
  22  -2   2    0.03    6.26
  22   2   3   50.35   10.56
 -22   2  -3   22.92   11.03
  22  -2   3   -0.80   10.40
  22   2   4    3.30    4.50
 -22   2  -4    0.03    6.58
  22  -2   4    1.98    5.89
  22   2   5   22.64    8.40
 -22   2  -5   10.57    7.64
  22  -2   5    1.72    6.88
  22   2   6   25.86   11.18
  22   2   7    1.62    4.93
  23   1   0   66.85   12.19
 -23  -1   0    9.55   14.75
  23  -1   0    2.50   23.13
  23  -1   0    1.45   10.97
  23   1   1   26.32    6.31
 -23  -1  -1    0.57   20.48
  23  -1   1   -6.26   25.81
  23  -1   1   -0.37    6.26
  23   1   2  669.27   95.05
 -23  -1  -2    1.77  115.64
  23  -1   2    1.21   94.10
  23   1   3  231.72   37.97
  23  -1   3   -0.97   37.09
  23   1   4    2.26    5.29
 -23  -1  -4    1.91   21.40
  23  -1   4    1.69    5.14
  23   1   5    2.08    4.22
 -23   1  -5   -0.74    4.96
  23  -1   5   -1.16    5.22
  23   1   6  143.46   24.83
  23  -1   6   -0.67   23.66
  23   1   7   -0.43    4.54
  23   3   0   24.89   11.52
 -23  -3   0   -4.01   14.29
  24   0   0   24.68    9.42
 -24   0   0    5.22   21.40
  24   0   1   10.14   27.61
  24   0   1   41.14   12.49
 -24   0  -1   -0.47   20.68
  24   0   2   -3.99   21.34
  24   0   2    4.72    4.45
 -24   0  -2  -11.08   23.48
  24   0   3   27.90   11.36
  24   0   4   37.72   14.63
  24   0   5   20.11    9.39
  24   0   6   33.60   13.30
  24   2   0   17.58    8.03
 -24  -2   0    1.30   11.67
  24   2   1   34.77   13.19
 -24  -2  -1    3.94   16.20
  24   2   2    3.36    6.39
  24   2   3   15.16    8.58
  24   2   4   21.89   11.07
  25   1   0   18.45    6.01
 -25  -1   0   -3.08   14.08
  25  -1   0    0.64    5.63
  25   1   1  148.51   23.57
 -25  -1  -1    1.26   20.83
  25  -1   1   -0.53   22.84
  25   1   2   48.33   11.93
  25  -1   2    0.06   10.37
  25   1   3   -0.19    6.62
  25  -1   3    2.20    5.49
  25   1   4   17.57    9.11
  26   0   0   13.20    7.42
  26   0   1   15.68    9.28
  26   0   2   19.97    9.83
   0   0   0    0.00    0.00

_computing_structure_solution     'SHELXT 2014/5 (Sheldrick, 2014)'
;
_shelx_hkl_checksum              58075
loop_
_space_group_symop_operation_xyz
'x, y, z'
'-x, y, -z'
'x+1/2, y+1/2, z'
'-x+1/2, y+1/2, -z'
'-x, -y, -z'
'x, -y, z'
'-x+1/2, -y+1/2, -z'
'x+1/2, -y+1/2, z'
loop_
_atom_site_label
_atom_site_type_symbol
_atom_site_fract_x
_atom_site_fract_y
_atom_site_fract_z
_atom_site_U_iso_or_equiv
_atom_site_adp_type
_atom_site_occupancy
_atom_site_site_symmetry_order
_atom_site_calc_flag
_atom_site_refinement_flags_posn
_atom_site_refinement_flags_adp
_atom_site_refinement_flags_occupancy
_atom_site_disorder_assembly
_atom_site_disorder_group
Pb1 Pb 0.58656(5) 0.5000 0.74939(6) 0.0333(4) Uani 1 2 d S T P . .
Pb2 Pb 0.5000 1.0000 0.5000 0.0276(5) Uani 1 4 d S T P . .
I1 I 0.68838(7) 0.0000 0.79855(10) 0.0431(5) Uani 1 2 d S T P . .
I2 I 0.54468(10) 0.5000 0.91237(9) 0.0568(7) Uani 1 2 d S T P . .
I3 I 0.47803(6) 1.0000 0.68619(8) 0.0301(5) Uani 1 2 d S T P . .
I4 I 0.39407(6) 0.5000 0.45398(8) 0.0307(5) Uani 1 2 d S T P . .
N1 N 0.8923(9) 0.5000 0.908(2) 0.135(15) Uani 1 2 d DS T P A 1
H1A H 0.9247 0.5000 0.9517 0.202 Uiso 1 2 d R U P A 1
H1B H 0.8947 0.3397 0.8763 0.202 Uiso 1 1 d R U . A 1
C1 C 0.8323(10) 0.5000 0.935(2) 0.135(15) Uani 1 2 d DS T P A 1
H1C H 0.7971 0.5000 0.8880 0.202 Uiso 1 2 d R U P A 1
H1D H 0.8299 0.6726 0.9690 0.202 Uiso 1 1 d R U . A 1
O1 O 0.8249(6) 0.559(2) 0.7354(7) 0.068(8) Uani 0.25 1 d D . P B 2
O2 O 0.8636(5) 0.959(3) 0.8018(7) 0.068(8) Uani 0.25 1 d D . P B 2
C2 C 0.8410(3) 0.845(2) 0.7371(6) 0.068(8) Uani 0.25 1 d D . P B 2
C3 C 0.8263(8) 0.969(3) 0.6520(7) 0.068(8) Uani 0.25 1 d D . P B 2
H3A H 0.8645 1.0003 0.6294 0.082 Uiso 0.25 1 d R U P B 2
H3B H 0.8050 1.1594 0.6512 0.082 Uiso 0.25 1 d R U P B 2
C4 C 0.7815(8) 0.747(3) 0.6042(7) 0.068(8) Uani 0.25 1 d D . P B 2
H4A H 0.7880 0.7291 0.5473 0.082 Uiso 0.25 1 d R U P B 2
H4B H 0.7371 0.7954 0.6027 0.082 Uiso 0.25 1 d R U P B 2
C5 C 0.7990(7) 0.469(3) 0.6526(9) 0.068(8) Uani 0.25 1 d D . P B 2
H5A H 0.7624 0.3403 0.6509 0.082 Uiso 0.25 1 d R U P B 2
H5B H 0.8310 0.3616 0.6299 0.082 Uiso 0.25 1 d R U P B 2
loop_
_atom_site_aniso_label
_atom_site_aniso_U_11
_atom_site_aniso_U_22
_atom_site_aniso_U_33
_atom_site_aniso_U_23
_atom_site_aniso_U_13
_atom_site_aniso_U_12
Pb1 0.0380(7) 0.0308(8) 0.0288(6) 0.000 0.0016(4) 0.000
Pb2 0.0267(8) 0.0277(9) 0.0259(7) 0.000 0.0000(5) 0.000
I1 0.0321(9) 0.0356(10) 0.0544(10) 0.000 -0.0078(7) 0.000
I2 0.0836(14) 0.0544(13) 0.0334(9) 0.000 0.0146(8) 0.000
I3 0.0260(8) 0.0370(10) 0.0259(7) 0.000 0.0020(5) 0.000
I4 0.0251(8) 0.0317(10) 0.0329(8) 0.000 0.0007(6) 0.000
N1 0.066(14) 0.041(13) 0.25(4) 0.000 -0.07(2) 0.000
C1 0.066(14) 0.041(13) 0.25(4) 0.000 -0.07(2) 0.000
O1 0.037(12) 0.09(2) 0.079(15) -0.03(2) 0.020(11) -0.026(18)
O2 0.037(12) 0.09(2) 0.079(15) -0.03(2) 0.020(11) -0.026(18)
C2 0.037(12) 0.09(2) 0.079(15) -0.03(2) 0.020(11) -0.026(18)
C3 0.037(12) 0.09(2) 0.079(15) -0.03(2) 0.020(11) -0.026(18)
C4 0.037(12) 0.09(2) 0.079(15) -0.03(2) 0.020(11) -0.026(18)
C5 0.037(12) 0.09(2) 0.079(15) -0.03(2) 0.020(11) -0.026(18)
loop_
_atom_type_symbol
_atom_type_description
_atom_type_scat_dispersion_real
_atom_type_scat_dispersion_imag
_atom_type_scat_source
C C 0.0070 0.0030 'International Tables Vol C Tables 4.2.6.8 and 6.1.1.4'
H H 0.0000 0.0000 'International Tables Vol C Tables 4.2.6.8 and 6.1.1.4'
N N 0.0130 0.0070 'International Tables Vol C Tables 4.2.6.8 and 6.1.1.4'
O O 0.0210 0.0120 'International Tables Vol C Tables 4.2.6.8 and 6.1.1.4'
I I -0.0340 3.1360 'International Tables Vol C Tables 4.2.6.8 and 6.1.1.4'
Pb Pb -9.9000 4.0740 'International Tables Vol C Tables 4.2.6.8 and 6.1.1.4'
loop_
_geom_angle_atom_site_label_1
_geom_angle_atom_site_label_2
_geom_angle_atom_site_label_3
_geom_angle
_geom_angle_site_symmetry_1
_geom_angle_site_symmetry_3
I2 Pb1 I1 95.27(5) . .
I1 Pb1 I1 92.38(5) 1_565 .
I2 Pb1 I3 87.58(5) . .
I1 Pb1 I3 89.80(3) 1_565 .
I1 Pb1 I3 176.23(4) . .
I1 Pb1 I3 176.23(4) 1_565 1_545
I1 Pb1 I3 89.80(3) . 1_545
I3 Pb1 I3 87.85(4) . 1_545
I3 Pb2 I4 89.33(4) . .
I4 Pb2 I4 89.57(4) 5_666 .
Pb1 I1 Pb1 92.38(5) 1_545 .
Pb2 I3 Pb1 93.91(4) . .
Pb1 I3 Pb1 87.85(4) . 1_565
C1 N1 H1A 111.0 . .
C1 N1 H1B 109.7 . .
H1A N1 H1B 109.6 . .
N1 C1 H1C 110.4 . .
N1 C1 H1D 109.5 . .
H1C C1 H1D 109.6 . .
C2 O1 C5 110.38(6) . .
O2 C2 O1 119.60(10) . .
O2 C2 C3 130.37(10) . .
O1 C2 C3 110.04(6) . .
C2 C3 C4 103.37(8) . .
C2 C3 H3A 112.3 . .
C4 C3 H3A 113.5 . .
C2 C3 H3B 111.1 . .
C4 C3 H3B 109.6 . .
H3A C3 H3B 107.1 . .
C5 C4 C3 102.80(9) . .
C5 C4 H4A 111.5 . .
C3 C4 H4A 110.8 . .
C5 C4 H4B 109.9 . .
C3 C4 H4B 112.6 . .
H4A C4 H4B 109.1 . .
O1 C5 C4 105.76(8) . .
O1 C5 H5A 110.8 . .
C4 C5 H5A 111.9 . .
O1 C5 H5B 109.9 . .
C4 C5 H5B 109.8 . .
H5A C5 H5B 108.7 . .
loop_
_geom_bond_atom_site_label_1
_geom_bond_atom_site_label_2
_geom_bond_distance
_geom_bond_site_symmetry_2
Pb1 I2 3.036(2) .
Pb1 I1 3.1856(13) .
Pb1 I3 3.3139(12) .
Pb1 I3 3.3140(13) 1_545
Pb2 I3 3.2329(14) 5_676
Pb2 I3 3.2329(14) .
Pb2 I4 3.2390(10) 5_676
Pb2 I4 3.2390(10) 5_666
Pb2 I4 3.2390(10) 1_565
Pb2 I4 3.2391(10) .
I1 Pb1 3.1856(13) 1_545
I3 Pb1 3.3140(12) 1_565
I4 Pb2 3.2391(10) 1_545
N1 C1 1.4750(11) .
N1 H1A 0.9100 .
N1 H1B 0.9100 .
C1 H1C 0.9800 .
C1 H1D 0.9800 .
O1 C2 1.3598(9) .
O1 C5 1.4402(10) .
O2 C2 1.2084(8) .
C2 C3 1.4996(9) .
C3 C4 1.5202(11) .
C3 H3A 0.9900 .
C3 H3B 0.9900 .
C4 C5 1.5197(10) .
C4 H4A 0.9900 .
C4 H4B 0.9900 .
C5 H5A 0.9900 .
C5 H5B 0.9900 .
loop_
_geom_torsion_atom_site_label_1
_geom_torsion_atom_site_label_2
_geom_torsion_atom_site_label_3
_geom_torsion_atom_site_label_4
_geom_torsion
O2 C2 C3 C4 -163.0(2)
O1 C2 C3 C4 16.9(2)
C2 C3 C4 C5 -25.8(3)
C2 O1 C5 C4 -17.2(2)
C3 C4 C5 O1 26.5(4)
