#------------------------------------------------------------------------------
#$Date: 2019-11-22 23:25:33 +0200 (Fri, 22 Nov 2019) $
#$Revision: 231557 $
#$URL: file:///home/coder/svn-repositories/cod/cif/4/00/33/4003383.cif $
#------------------------------------------------------------------------------
#
# This file is available in the Crystallography Open Database (COD),
# http://www.crystallography.net/
#
# All data on this site have been placed in the public domain by the
# contributors.
#
data_4003383
loop_
_publ_author_name
'Xiong, Lin'
'Chen, Jie'
'Lu, Jing'
'Pan, Chun-Ya'
'Wu, Li-Ming'
_publ_section_title
;
 Monofluorophosphates: A New Source of Deep-Ultraviolet Nonlinear Optical
 Materials
;
_journal_issue                   21
_journal_name_full               'Chemistry of Materials'
_journal_page_first              7823
_journal_paper_doi               10.1021/acs.chemmater.8b03310
_journal_volume                  30
_journal_year                    2018
_chemical_formula_sum            'F H6 N Na O4 P'
_chemical_formula_weight         157.02
_space_group_crystal_system      monoclinic
_space_group_IT_number           7
_space_group_name_Hall           'P -2yac'
_space_group_name_H-M_alt        'P 1 n 1'
_atom_sites_solution_hydrogens   difmap
_audit_creation_method           SHELXL-2016/6
_cell_angle_alpha                90
_cell_angle_beta                 90.797(3)
_cell_angle_gamma                90
_cell_formula_units_Z            2
_cell_length_a                   4.9431(4)
_cell_length_b                   9.0200(7)
_cell_length_c                   6.0536(5)
_cell_measurement_reflns_used    2593
_cell_measurement_temperature    273(2)
_cell_measurement_theta_max      27.49
_cell_measurement_theta_min      4.00
_cell_volume                     269.88(4)
_computing_structure_refinement  'SHELXL-2016/6 (Sheldrick, 2016)'
_diffrn_ambient_temperature      273(2)
_diffrn_measured_fraction_theta_full 0.990
_diffrn_measured_fraction_theta_max 0.992
_diffrn_measurement_device_type  'BRUKER D8 QUEST PHOTON II'
_diffrn_radiation_type           MoK\a
_diffrn_radiation_wavelength     0.71073
_diffrn_reflns_av_R_equivalents  0.0234
_diffrn_reflns_av_unetI/netI     0.0242
_diffrn_reflns_Laue_measured_fraction_full 0.990
_diffrn_reflns_Laue_measured_fraction_max 0.992
_diffrn_reflns_limit_h_max       6
_diffrn_reflns_limit_h_min       -6
_diffrn_reflns_limit_k_max       11
_diffrn_reflns_limit_k_min       -11
_diffrn_reflns_limit_l_max       7
_diffrn_reflns_limit_l_min       -7
_diffrn_reflns_number            4027
_diffrn_reflns_point_group_measured_fraction_full 0.990
_diffrn_reflns_point_group_measured_fraction_max 0.986
_diffrn_reflns_theta_full        25.242
_diffrn_reflns_theta_max         27.481
_diffrn_reflns_theta_min         4.054
_exptl_absorpt_coefficient_mu    0.542
_exptl_crystal_colour            colorless
_exptl_crystal_density_diffrn    1.932
_exptl_crystal_description       plate
_exptl_crystal_F_000             160
_refine_diff_density_max         0.335
_refine_diff_density_min         -0.431
_refine_diff_density_rms         0.136
_refine_ls_abs_structure_details
;
 Flack x determined using 578 quotients [(I+)-(I-)]/[(I+)+(I-)]
 (Parsons, Flack and Wagner, Acta Cryst. B69 (2013) 249-259).
;
_refine_ls_abs_structure_Flack   0.03(4)
_refine_ls_extinction_coef       0.17(3)
_refine_ls_extinction_expression Fc^*^=kFc[1+0.001xFc^2^\l^3^/sin(2\q)]^-1/4^
_refine_ls_extinction_method     'SHELXL-2016/6 (Sheldrick 2016)'
_refine_ls_goodness_of_fit_ref   1.294
_refine_ls_hydrogen_treatment    refall
_refine_ls_matrix_type           full
_refine_ls_number_parameters     98
_refine_ls_number_reflns         1228
_refine_ls_number_restraints     2
_refine_ls_restrained_S_all      1.293
_refine_ls_R_factor_all          0.0229
_refine_ls_R_factor_gt           0.0222
_refine_ls_shift/su_max          0.000
_refine_ls_shift/su_mean         0.000
_refine_ls_structure_factor_coef Fsqd
_refine_ls_weighting_details
'w=1/[\s^2^(Fo^2^)+(0.0298P)^2^] where P=(Fo^2^+2Fc^2^)/3'
_refine_ls_weighting_scheme      calc
_refine_ls_wR_factor_gt          0.0571
_refine_ls_wR_factor_ref         0.0574
_reflns_Friedel_coverage         0.971
_reflns_Friedel_fraction_full    0.990
_reflns_Friedel_fraction_max     0.981
_reflns_number_gt                1207
_reflns_number_total             1228
_reflns_threshold_expression     'I > 2\s(I)'
_cod_data_source_file            cm8b03310_si_004.cif
_cod_data_source_block           a
_cod_original_sg_symbol_H-M      'P n'
_cod_database_code               4003383
_shelx_shelxl_version_number     2016/6
_shelx_space_group_comment
;
The symmetry employed for this shelxl refinement is uniquely defined
by the following loop, which should always be used as a source of
symmetry information in preference to the above space-group names.
They are only intended as comments.
;
_shelx_res_file
;

TITL a in Pn
    a.res
    created by SHELXL-2016/6 at 11:19:08 on 22-Dec-2017
CELL 0.71073   4.9431   9.0200   6.0536  90.000  90.797  90.000
ZERR    2.00   0.0004   0.0007   0.0005   0.000   0.003   0.000
LATT -1
SYMM 0.5+X, -Y, 0.5+Z
SFAC N H O F NA P
UNIT 2 12 8 2 2 2
OMIT -1 1 0
OMIT 0 1 0
OMIT -1 1 0
LIST 4 ! automatically inserted. Change 6 to 4 for CHECKCIF!!
TEMP 0
ACTA
L.S. 10
BOND
FMAP 2
PLAN 20
WGHT    0.029800
EXTI    0.172875
FVAR       0.65310
P1    6    0.209257    0.281292    0.328850    11.00000    0.01332    0.01610 =
         0.01381    0.00036    0.00082    0.00028
NA1   5    0.596716    0.541265    0.321473    11.00000    0.02297    0.02230 =
         0.02075    0.00091    0.00153   -0.00269
N1    1    0.203368    0.046569   -0.171725    11.00000    0.02488    0.02702 =
         0.02652   -0.00144    0.00182    0.00475
O2    3    0.313661    0.326863    0.107110    11.00000    0.02387    0.03907 =
         0.01745    0.00749    0.00293    0.00394
O3    3    0.199820    0.115670    0.365660    11.00000    0.02654    0.01554 =
         0.03595    0.00043    0.00188   -0.00096
O11   3    0.246365    0.722549    0.311512    11.00000    0.02360    0.04209 =
         0.02946   -0.00054    0.00072    0.00033
F1    4   -0.102987    0.326587    0.321603    11.00000    0.01581    0.03609 =
         0.03522    0.00275    0.00105    0.00697
O1    3    0.325664    0.367048    0.519597    11.00000    0.02500    0.02603 =
         0.02004   -0.00590   -0.00019   -0.00344
H11   2    0.228184    0.116852   -0.072628    11.00000    0.06091
H13   2    0.363922   -0.014339   -0.147171    11.00000    0.03840
H14   2    0.205569    0.080254   -0.310531    11.00000    0.04011
H21   2    0.145142    0.700631    0.198537    11.00000    0.06761
H22   2    0.148725    0.703920    0.414523    11.00000    0.04347
H12   2    0.069984   -0.008832   -0.129307    11.00000    0.05644

HKLF 4




REM  a in Pn
REM R1 =  0.0222 for    1207 Fo > 4sig(Fo)  and  0.0229 for all    1228 data
REM     98 parameters refined using      2 restraints

END

WGHT      0.0298      0.0000

REM Highest difference peak  0.335,  deepest hole -0.431,  1-sigma level  0.136
Q1    1   0.4024  0.2773  0.0735  11.00000  0.05    0.33
Q2    1   0.2248  0.0036  0.3269  11.00000  0.05    0.32
Q3    1   0.4127  0.7526  0.0983  11.00000  0.05    0.31
Q4    1  -0.2130  0.2552  0.4561  11.00000  0.05    0.30
Q5    1   0.5222  0.4865  0.6575  11.00000  0.05    0.30
Q6    1   0.0514  0.4610  0.2589  11.00000  0.05    0.30
Q7    1   0.3666  0.0178 -0.4334  11.00000  0.05    0.29
Q8    1  -0.3703  0.2471  0.2135  11.00000  0.05    0.29
Q9    1   0.1776  0.4987  0.2784  11.00000  0.05    0.29
Q10   1   0.1543  0.2569 -0.1209  11.00000  0.05    0.28
Q11   1   0.2206  0.4998  0.4155  11.00000  0.05    0.28
Q12   1   0.5163  0.7592  0.2106  11.00000  0.05    0.28
Q13   1   0.1262  0.2550 -0.2758  11.00000  0.05    0.27
Q14   1   0.2687  0.0275  0.4126  11.00000  0.05    0.27
Q15   1   0.4111  0.4999  0.5427  11.00000  0.05    0.26
Q16   1   0.4515  0.5130  0.5865  11.00000  0.05    0.26
Q17   1  -0.0665  0.0385  0.0613  11.00000  0.05    0.26
Q18   1   0.5558  0.0447 -0.2882  11.00000  0.05    0.25
Q19   1   0.5079  0.0420 -0.3351  11.00000  0.05    0.24
Q20   1  -0.3658  0.2094  0.3652  11.00000  0.05    0.21
;
_shelx_res_checksum              18561
_shelx_hkl_file
;
  -1   0   0   -0.07    0.04
   1   0   0    0.00    0.02
   2   0   0  851.49   13.09
   3   0   0    0.07    0.07
   3   0   0    0.02    0.06
  -3   0   0    0.35    0.23
  -3   0   0    0.08    0.09
   3   0   0    0.16    0.18
  -4   0   0   31.67    2.01
   4   0   0   25.14    1.74
  -4   0   0   30.08    1.53
   4   0   0   28.46    1.01
   4   0   0   29.19    1.37
   5   0   0    0.56    0.32
   5   0   0    0.22    0.22
  -5   0   0    0.16    0.24
  -5   0   0   -0.49    0.34
  -6   0   0   51.41    4.55
   6   0   0   50.09    1.50
   0   1   0    0.02    0.01
  -1  -1   0    0.11    0.26
   2  -1   0   49.74    1.77
  -2  -1   0   51.08    2.24
  -2  -1   0   52.79    1.48
   2   1   0   52.47    1.27
   2   1   0   48.02    1.78
  -2   1   0   52.13    1.88
  -2   1   0   49.23    1.39
   2   1   0   52.68    1.43
  -3  -1   0  133.92    3.85
   3  -1   0  127.94    2.26
   3  -1   0  135.27    3.02
  -3  -1   0  131.99    3.15
   3  -1   0  136.56    3.78
   3   1   0  134.07    2.67
  -3   1   0  132.49    3.90
   3   1   0  138.86    3.05
  -3   1   0  131.25    3.07
   4  -1   0   95.23    2.75
   4  -1   0   94.21    3.48
  -4  -1   0   95.41    3.60
   4  -1   0   92.49    1.91
  -4  -1   0   96.32    2.97
  -4   1   0   95.92    2.88
   4   1   0   95.71    3.54
   4   1   0   93.55    2.28
   4   1   0   93.67    2.73
  -4   1   0   95.97    3.70
   5  -1   0    4.74    1.02
  -5  -1   0    5.36    1.10
  -5  -1   0    7.37    0.78
   5  -1   0    4.17    0.36
   5  -1   0    4.64    0.65
   5   1   0    5.03    0.63
  -5   1   0    5.15    1.11
  -5   1   0    5.82    0.74
   5   1   0    4.17    0.97
   5   1   0    5.61    0.47
  -6  -1   0    7.12    1.47
   6  -1   0    8.25    1.09
   6   1   0    8.48    0.68
   6   1   0    9.93    1.00
  -6   1   0    6.83    1.49
   0  -2   0  268.30    4.20
   0   2   0  289.36    4.51
   1  -2   0    3.75    0.30
  -1  -2   0    4.22    0.32
  -1  -2   0    3.97    0.30
   1  -2   0    3.65    0.25
  -1  -2   0    4.27    0.29
   1  -2   0    3.97    0.21
   1   2   0    3.76    0.30
  -1   2   0    4.47    0.37
   1   2   0    3.48    0.46
   1   2   0    3.84    0.28
  -1   2   0    3.99    0.32
  -2  -2   0  363.38    6.52
   2  -2   0  369.98    6.48
   2  -2   0  367.38    5.94
  -2  -2   0  370.83    6.06
   2   2   0  357.23    5.88
  -2   2   0  360.66    6.70
   2   2   0  363.76    6.61
  -2   2   0  365.23    5.84
   2   2   0  376.69    5.85
   3  -2   0   58.97    2.28
   3  -2   0   57.27    1.78
  -3  -2   0   55.79    2.29
  -3  -2   0   57.89    1.96
   3   2   0   55.07    2.32
   3   2   0   57.54    1.67
   3   2   0   57.20    1.81
  -3   2   0   54.18    1.79
  -3   2   0   56.61    2.43
   4  -2   0   96.35    2.76
  -4  -2   0   91.54    3.49
  -4  -2   0   93.17    3.00
   4  -2   0   98.18    3.48
   4   2   0   96.65    2.47
  -4   2   0   96.38    2.86
   4   2   0   93.23    2.77
   4   2   0   94.13    3.54
  -4   2   0   92.58    3.66
   5  -2   0   44.59    2.01
  -5  -2   0   41.14    2.56
   5  -2   0   41.78    2.51
  -5  -2   0   42.01    2.17
   5   2   0   39.81    2.57
  -5   2   0   39.44    2.64
   5   2   0   45.11    2.03
  -5   2   0   43.83    2.11
  -6  -2   0   22.21    2.15
   6  -2   0   26.69    1.74
   6   2   0   24.07    1.32
   6   2   0   24.03    1.65
  -6   2   0   27.58    2.40
   1  -3   0  234.23    3.63
   1  -3   0  231.55    3.67
   1  -3   0  234.99    3.56
  -1   3   0  235.90    4.09
   1   3   0  231.22    3.84
  -1   3   0  231.58    3.76
  -1   3   0  234.63    3.73
   2  -3   0  451.76    6.90
   2  -3   0  439.11    6.26
  -2  -3   0  456.11    7.44
   2  -3   0  429.72    7.32
  -2  -3   0  434.98    7.09
   2   3   0  447.08    7.68
  -2   3   0  430.63    7.78
   2   3   0  445.67    7.11
  -2   3   0  435.53    6.86
   2   3   0  439.70    7.04
   3  -3   0   18.51    0.97
  -3  -3   0   19.24    1.26
  -3  -3   0   19.62    1.11
   3  -3   0   19.58    1.24
   3   3   0   17.21    0.95
  -3   3   0   18.12    0.97
   3   3   0   19.30    0.98
   3   3   0   19.33    1.32
  -3   3   0   17.26    1.32
   4  -3   0   13.95    0.97
   4  -3   0   15.03    1.25
  -4  -3   0   15.54    1.12
  -4  -3   0   15.20    1.32
   4   3   0   14.91    1.35
  -4   3   0   14.06    1.03
   4   3   0   14.93    0.94
   4   3   0   14.19    0.99
  -4   3   0   16.15    1.46
  -5  -3   0   22.28    1.61
   5  -3   0   21.99    1.79
  -5  -3   0   24.15    1.90
   5  -3   0   21.23    1.40
   5   3   0   22.26    1.27
  -5   3   0   24.84    2.04
   5   3   0   23.19    1.45
   6  -3   0   13.56    1.30
  -6  -3   0   18.33    1.84
  -6  -3   0   16.92    2.16
   6   3   0   16.14    1.30
  -6   3   0   13.88    1.81
   6   3   0   15.52    1.09
   0  -4   0   10.04    0.58
   0   4   0   10.41    0.60
  -1  -4   0   53.75    1.63
   1  -4   0   53.24    1.34
   1   4   0   52.22    1.42
  -1   4   0   50.52    1.26
  -1   4   0   51.87    1.50
   1   4   0   51.86    1.35
   1   4   0   49.49    1.55
  -1   4   0   52.78    1.41
   2  -4   0  145.41    2.57
  -2  -4   0  153.02    3.07
  -2  -4   0  143.91    3.21
   2  -4   0  151.40    2.91
   2  -4   0  143.61    3.08
   2   4   0  152.13    3.30
  -2   4   0  149.58    2.97
  -2   4   0  148.52    3.67
   2   4   0  142.05    3.08
   2   4   0  150.14    3.54
   3  -4   0  221.52    4.35
   3  -4   0  215.07    4.79
   3  -4   0  214.24    3.28
  -3  -4   0  216.96    4.56
  -3  -4   0  220.06    4.83
   3   4   0  216.78    4.42
  -3   4   0  216.01    5.44
   3   4   0  220.69    5.26
  -3   4   0  219.09    4.40
   3   4   0  218.27    4.52
  -4  -4   0   26.99    1.54
   4  -4   0   24.62    1.57
   4  -4   0   27.10    1.40
  -4  -4   0   25.85    1.65
   4   4   0   28.13    1.40
  -4   4   0   25.00    1.37
   4   4   0   28.30    1.87
   4   4   0   25.81    1.51
  -5  -4   0   20.50    1.53
   5  -4   0   25.10    1.77
   5  -4   0   20.46    1.38
  -5  -4   0   19.32    1.65
   5   4   0   20.03    1.34
   5   4   0   20.66    1.31
  -5   4   0   21.92    1.97
  -5   4   0   20.49    1.44
   5   4   0   21.44    1.94
  -6  -4   0   11.71    1.50
   6  -4   0   12.84    1.26
  -6  -4   0   13.58    1.65
   6   4   0   12.39    1.30
  -6   4   0   10.14    2.03
   6   4   0   13.01    1.18
   0  -5   0  536.21    8.35
   0   5   0  529.75    8.39
  -1  -5   0   70.29    2.05
   1  -5   0   75.00    1.83
  -1   5   0   74.83    1.93
   1   5   0   70.05    2.05
   1   5   0   71.37    1.73
  -1   5   0   72.09    1.66
   1   5   0   71.51    1.78
  -1   5   0   74.88    1.93
  -2  -5   0  153.72    3.55
   2  -5   0  163.73    2.95
   2   5   0  158.99    3.63
   2   5   0  159.04    3.70
  -2   5   0  159.98    3.20
  -2   5   0  158.19    3.89
   2   5   0  153.71    3.32
   3  -5   0   96.97    2.71
  -3  -5   0  102.12    2.69
   3  -5   0  102.75    2.58
   3  -5   0   99.61    1.88
   3   5   0  103.74    3.31
   3   5   0  100.36    2.71
  -3   5   0   99.86    3.46
  -3   5   0   99.11    2.64
   3   5   0  102.74    2.90
  -4  -5   0   50.59    2.17
  -4  -5   0   47.71    2.03
   4  -5   0   52.33    1.98
   4  -5   0   52.07    2.44
  -4   5   0   47.29    1.98
   4   5   0   52.11    2.05
   4   5   0   49.97    2.04
  -4   5   0   52.63    2.79
   4   5   0   51.56    2.55
   5  -5   0   18.93    1.32
   5  -5   0   22.08    1.53
  -5  -5   0   17.18    1.49
  -5  -5   0   17.35    1.38
   5   5   0   19.24    1.78
  -5   5   0   17.90    1.78
   5   5   0   18.60    1.35
  -5   5   0   18.26    1.40
   5   5   0   19.30    1.34
   0  -6   0    3.34    0.41
   0   6   0    3.03    0.39
  -1  -6   0  137.34    3.29
   1  -6   0  137.97    2.98
  -1   6   0  137.90    3.01
   1   6   0  137.77    2.85
   1   6   0  134.66    3.33
  -1   6   0  141.37    3.16
  -1   6   0  142.08    2.74
   2  -6   0   86.76    2.05
  -2  -6   0   86.25    2.59
  -2   6   0   85.86    2.17
  -2   6   0   88.19    2.76
   2   6   0   84.96    2.56
   2   6   0   89.36    2.65
   2   6   0   84.67    2.32
   3  -6   0   65.50    1.55
   3  -6   0   67.99    1.85
   3  -6   0   65.97    1.89
  -3   6   0   72.55    2.88
  -3   6   0   69.12    2.63
   3   6   0   65.68    2.16
   3   6   0   66.93    2.64
   3   6   0   65.28    2.37
   4  -6   0   36.20    1.57
   4  -6   0   32.03    1.65
  -4  -6   0   35.42    1.71
  -4  -6   0   35.52    1.58
  -4   6   0   35.96    1.68
   4   6   0   32.97    2.07
  -4   6   0   37.20    2.36
   4   6   0   33.93    1.67
   4   6   0   38.45    1.88
   5  -6   0    7.66    0.95
   5  -6   0    7.57    1.09
  -5  -6   0    6.40    0.95
  -5   6   0   10.17    1.02
   5   6   0    9.90    0.96
   5   6   0   10.10    0.98
   5   6   0   11.80    1.35
  -5   6   0    8.76    1.33
   0  -7   0   75.24    2.25
   0   7   0   75.50    3.11
   1  -7   0   31.81    1.32
  -1  -7   0   33.79    1.53
   1   7   0   30.64    1.16
  -1   7   0   31.80    1.11
  -1   7   0   32.96    1.43
   1   7   0   29.47    1.46
  -1   7   0   30.90    1.25
  -2  -7   0   98.18    4.22
   2  -7   0  101.26    2.44
   2   7   0  101.45    2.88
  -2   7   0  100.81    3.06
   2   7   0  100.63    2.63
  -2   7   0  102.08    2.46
   2   7   0   96.46    3.01
   3  -7   0    3.11    0.31
   3   7   0    3.47    0.69
   3   7   0    3.03    0.55
  -3   7   0    2.92    0.44
   4   7   0   45.87    2.01
   4   7   0   42.78    2.11
   4   7   0   46.27    2.49
  -4   7   0   50.91    2.76
  -4   7   0   44.74    1.96
   5  -7   0   24.58    1.51
   5  -7   0   22.93    1.39
   5   7   0   22.17    1.78
  -5   7   0   26.91    2.76
   0  -8   0    4.13    0.54
   0   8   0    3.77    0.53
  -1  -8   0    6.49    0.72
   1  -8   0    7.13    0.66
  -1   8   0    6.92    0.58
  -1   8   0    6.71    0.51
  -1   8   0    6.46    0.66
   1   8   0    6.75    0.63
   1   8   0    8.16    0.81
   1   8   0    6.73    0.58
   2  -8   0    4.43    0.51
  -2   8   0    4.83    0.46
   2   8   0    5.41    0.69
   2   8   0    4.85    0.56
   2   8   0    4.90    0.55
  -2   8   0    4.28    0.75
   3  -8   0   39.34    1.35
   3   8   0   40.38    2.00
   3   8   0   39.53    1.70
  -3   8   0   36.95    1.57
   3   8   0   38.14    2.00
  -3   8   0   41.41    2.15
  -4   8   0    2.83    0.63
  -4   8   0    3.70    0.73
   4   8   0    5.12    0.94
   4   8   0    3.31    0.67
   0  -9   0    4.11    0.58
   0   9   0    4.40    0.63
  -1  -9   0    8.44    0.86
   1  -9   0    8.18    0.77
   1   9   0    8.91    0.69
  -1   9   0    9.06    0.88
   1   9   0    8.62    0.71
   1   9   0   10.04    0.92
  -1   9   0    9.25    0.63
  -1   9   0    8.51    0.70
   2  -9   0   50.94    1.85
   2   9   0   53.37    2.03
  -2   9   0   47.35    1.63
   2   9   0   47.12    2.25
  -2   9   0   47.09    2.03
   2   9   0   49.17    1.84
   3   9   0    6.54    0.88
  -3   9   0    7.86    0.98
  -3   9   0    8.36    0.71
   3   9   0    8.50    0.76
   4   9   0   40.27    1.94
  -4   9   0   39.42    1.88
  -4   9   0   39.31    2.47
   0 -10   0    1.75    0.49
   0  10   0    2.57    0.66
   1 -10   0   17.94    1.21
   1  10   0   18.24    1.01
   1  10   0   17.05    0.95
  -1  10   0   16.02    0.98
  -1  10   0   18.94    0.89
   1  10   0   17.26    1.35
   2  10   0   10.66    0.75
  -2  10   0    8.73    0.79
  -3  10   0    4.51    0.53
   3  10   0    2.63    0.55
  -3  10   0    3.01    0.70
   0  11   0   27.13    1.80
  -1  11   0   20.19    0.98
  -1  11   0   19.82    1.13
  -2  11   0   17.24    1.24
   2  11   0   18.04    1.09
  -2  11   0   18.91    1.00
   2  11   0   21.62    1.19
  -6   0   1   -1.02    0.60
   6   0  -1    0.76    0.26
   5   0  -1   42.01    1.99
  -5   0   1   42.52    2.60
  -5   0   1   40.63    2.03
   5   0  -1   43.91    1.50
   5   0  -1   42.90    2.65
  -4   0   1   -0.20    0.13
   4   0  -1    0.20    0.24
  -4   0   1   -0.34    0.19
   4   0  -1    0.01    0.13
   3   0  -1  530.84    9.95
   3   0  -1  539.12    8.73
  -3   0   1  548.14    8.70
  -3   0   1  541.06    9.87
  -2   0   1    0.01    0.11
  -2   0   1    0.15    0.08
   2   0  -1    0.26    0.18
   1   0  -1  220.44    4.02
  -1   0   1  230.94    3.63
  -1   0   1  229.87    3.94
   0   0   1   -0.02    0.02
   0   0  -1    0.15    0.07
   0   0  -1    0.00    0.02
   0   0   1   -0.03    0.03
  -1   0  -1  229.19    4.12
  -1   0  -1  238.12    4.01
   1   0   1  243.76    3.92
  -1   0  -1  238.18    3.55
   1   0   1  235.45    4.12
   2   0   1    0.10    0.06
  -2   0  -1    0.21    0.11
  -2   0  -1   -0.03    0.05
   2   0   1    0.07    0.10
   2   0   1    0.00    0.04
   3   0   1  648.65    9.82
   3   0   1  603.69    8.88
  -3   0  -1  597.01   10.98
   3   0   1  610.10   10.80
  -3   0  -1  641.29   10.23
   4   0   1    0.02    0.11
   4   0   1    0.01    0.06
  -4   0  -1    0.13    0.18
  -4   0  -1    0.20    0.23
   4   0   1   -0.11    0.16
   5   0   1   66.78    2.49
  -5   0  -1   67.28    3.46
   5   0   1   67.56    3.23
  -5   0  -1   66.54    2.89
   6   0   1   -0.34    0.25
   6  -1  -1   41.80    1.44
   6  -1  -1   37.15    2.68
  -6  -1   1   48.68    2.96
   6   1  -1   43.06    1.73
  -6   1   1   44.38    3.01
   6   1  -1   45.28    2.31
  -5  -1   1    7.71    1.15
  -5  -1   1    7.84    0.89
   5  -1  -1    7.08    0.85
   5  -1  -1    7.70    0.55
   5  -1  -1    7.52    1.32
  -5   1   1    9.70    1.22
  -5   1   1    7.92    0.84
   5   1  -1    6.03    0.65
   5   1  -1    6.36    1.28
   5   1  -1    6.52    0.78
  -4  -1   1   79.48    2.54
   4  -1  -1   77.12    3.22
  -4  -1   1   79.19    3.15
   4  -1  -1   77.75    2.51
   4   1  -1   73.28    2.44
   4   1  -1   78.09    2.11
  -4   1   1   84.34    3.35
   4   1  -1   72.08    3.15
  -4   1   1   78.30    2.51
   3  -1  -1  170.47    3.68
  -3  -1   1  172.91    4.38
   3  -1  -1  169.92    4.54
  -3  -1   1  176.35    3.65
   3   1  -1  169.16    3.61
   3   1  -1  165.55    4.51
  -3   1   1  170.00    3.61
  -3   1   1  178.36    4.61
   2  -1  -1   51.78    1.92
  -2  -1   1   47.52    1.34
   2  -1  -1   48.74    1.46
   2   1  -1   47.42    1.35
  -2   1   1   46.79    1.81
   2   1  -1   45.73    1.80
  -2   1   1   44.93    1.35
  -1  -1   1   31.57    0.81
   1  -1  -1   32.76    1.00
  -1  -1   1   33.42    1.00
   1   1  -1   32.07    0.85
   1   1  -1   31.16    1.05
  -1   1   1   32.99    1.14
   0  -1  -1  316.71   12.77
   0  -1   1  321.23   10.71
   0   1   1  328.81   13.01
   0   1  -1  303.38   10.36
   1  -1   1   30.75    0.82
   1  -1   1   30.26    0.98
  -1  -1  -1   30.88    1.11
  -1  -1  -1   30.26    0.85
   1   1   1   29.49    0.88
  -1   1  -1   28.45    0.88
   1   1   1   30.34    1.03
   1   1   1   29.20    1.07
  -1   1  -1   31.35    1.05
   2  -1   1   88.75    2.39
  -2  -1  -1   81.31    1.74
   2  -1   1   85.95    1.94
  -2  -1  -1   86.70    2.53
  -2  -1  -1   85.38    2.27
   2   1   1   80.13    2.42
  -2   1  -1   82.99    2.09
   2   1   1   84.66    1.79
  -2   1  -1   80.65    2.43
  -3  -1  -1  101.96    3.30
   3  -1   1   99.78    3.10
  -3  -1  -1   97.25    2.82
   3  -1   1  102.45    2.51
  -3   1  -1  100.20    3.29
   3   1   1   97.09    2.14
   3   1   1  100.06    2.60
  -3   1  -1  100.08    2.69
   3   1   1   96.17    3.15
  -4  -1  -1   76.60    3.27
  -4  -1  -1   80.07    2.83
   4  -1   1   79.48    2.44
   4  -1   1   80.67    3.14
   4   1   1   77.02    1.95
   4   1   1   76.16    2.46
  -4   1  -1   76.59    3.28
  -4   1  -1   80.94    2.76
   4   1   1   71.05    3.06
   5  -1   1   12.37    1.00
  -5  -1  -1   11.04    1.40
   5  -1   1   12.82    1.16
  -5  -1  -1   10.52    1.15
   5   1   1   12.78    1.03
   5   1   1   12.46    0.76
   5   1   1   13.38    1.40
  -5   1  -1   11.71    1.46
  -5   1  -1   12.04    1.19
   6  -1   1   46.04    2.88
   6   1   1   37.98    2.07
  -6   1  -1   36.96    2.85
  -6  -2   1    5.52    1.15
   6  -2  -1    5.76    0.46
   6   2  -1    7.12    0.95
   6   2  -1    7.49    0.74
  -6   2   1    5.65    1.28
   5  -2  -1   14.95    1.56
  -5  -2   1   14.53    1.22
  -5  -2   1   12.58    1.37
   5  -2  -1   14.73    0.72
   5  -2  -1   14.97    1.20
   5   2  -1   13.64    1.10
   5   2  -1   14.04    1.54
  -5   2   1   14.41    1.55
   5   2  -1   16.66    1.02
  -5   2   1   15.46    1.46
  -4  -2   1    7.23    0.92
   4  -2  -1    6.08    0.87
   4  -2  -1    7.02    0.71
  -4  -2   1    6.51    0.69
   4   2  -1    6.16    0.57
   4   2  -1    6.38    0.93
  -4   2   1    6.38    0.95
   4   2  -1    6.57    0.66
  -4   2   1    7.15    0.71
   3  -2  -1  133.21    3.87
   3  -2  -1  126.48    3.10
  -3  -2   1  130.56    3.55
  -3  -2   1  127.99    3.02
   3   2  -1  123.88    3.78
  -3   2   1  129.67    3.05
   3   2  -1  129.10    2.87
  -3   2   1  129.23    3.88
   3   2  -1  127.01    2.97
  -2  -2   1  172.95    3.24
   2  -2  -1  180.76    4.12
   2  -2  -1  175.86    3.49
  -2  -2   1  179.39    3.65
   2   2  -1  172.05    3.24
  -2   2   1  171.33    3.39
   2   2  -1  174.63    3.99
  -2   2   1  175.33    4.10
   1  -2  -1  309.06   15.49
   0  -2  -1   27.34    0.91
   0  -2  -1   28.85    0.90
   0   2   1   29.29    0.96
   0   2   1   27.67    0.92
  -2  -2  -1  116.93    2.88
   2  -2   1  116.79    2.36
  -2  -2  -1  119.49    3.09
   2  -2   1  121.15    2.86
  -2   2  -1  121.87    2.56
   2   2   1  117.10    2.47
   2   2   1  122.24    2.79
  -2   2  -1  119.83    3.06
   2   2   1  109.79    3.00
   3  -2   1  216.08    4.08
  -3  -2  -1  211.69    3.91
   3  -2   1  207.80    4.78
  -3  -2  -1  211.02    4.71
  -3  -2  -1  212.74    5.17
   3   2   1  211.25    4.35
   3   2   1  208.88    5.09
  -3   2  -1  215.50    4.38
  -3   2  -1  204.17    5.14
   3   2   1  206.68    3.96
   4  -2   1   16.38    1.02
  -4  -2  -1   16.91    1.26
  -4  -2  -1   16.22    1.45
   4  -2   1   15.32    1.27
   4   2   1   14.90    1.05
   4   2   1   15.61    1.41
   4   2   1   16.94    0.91
  -4   2  -1   17.41    1.50
  -4   2  -1   16.75    1.18
  -5  -2  -1   28.92    2.24
  -5  -2  -1   28.35    1.86
   5  -2   1   28.42    1.58
   5  -2   1   29.91    1.98
  -5   2  -1   26.45    2.24
   5   2   1   27.24    1.29
   5   2   1   31.02    3.20
  -5   2  -1   29.54    2.25
   5   2   1   28.07    1.61
  -6  -2  -1    8.05    1.54
   6  -2   1    8.75    0.99
   6   2   1    8.30    0.97
  -6   2  -1    7.43    1.58
   6   2   1    8.81    0.75
   6  -3  -1   20.24    2.02
  -6  -3   1   20.83    1.94
  -6  -3   1   18.29    1.63
   6   3  -1   16.27    1.44
  -6   3   1   12.90    1.85
   6   3  -1   19.82    1.30
  -5  -3   1   11.90    1.32
   5  -3  -1   14.32    0.63
   5  -3  -1   16.17    1.58
  -5  -3   1   14.67    1.26
   5  -3  -1   13.78    1.19
  -5   3   1   14.97    1.57
   5   3  -1   15.79    1.08
  -5   3   1   16.51    1.24
   5   3  -1   14.36    1.14
  -4  -3   1   19.77    1.40
   4  -3  -1   18.24    1.20
  -4  -3   1   18.60    1.20
   4  -3  -1   18.51    1.52
   4   3  -1   21.62    1.57
   4   3  -1   19.94    1.09
   4   3  -1   16.90    1.10
  -4   3   1   21.89    1.24
  -3  -3   1   13.09    0.96
   3  -3  -1   14.04    0.91
  -3  -3   1   13.92    0.86
   3  -3  -1   15.62    1.19
   3   3  -1   14.12    0.84
  -3   3   1   13.10    1.16
  -3   3   1   14.96    0.90
   3   3  -1   14.07    1.10
   3   3  -1   14.82    0.86
  -2  -3   1   46.03    1.38
  -2  -3   1   44.45    1.29
   2  -3  -1   43.73    1.49
   2  -3  -1   42.25    1.72
  -2   3   1   41.56    1.78
   2   3  -1   44.52    1.45
  -2   3   1   43.54    1.43
   2   3  -1   44.57    1.74
   2   3  -1   42.48    1.27
   1  -3  -1   95.20    2.13
   1  -3  -1   98.64    2.17
   1  -3  -1   97.11    2.35
   1   3  -1   95.58    1.74
   1   3  -1  101.36    2.00
  -1   3   1   98.47    2.20
  -1   3   1   99.03    2.40
   1   3  -1   99.35    2.28
   0  -3  -1  141.09    2.70
   0  -3  -1  136.76    2.52
   0   3   1  131.45    2.64
   0   3   1  140.85    2.70
   0   3  -1  129.49    2.49
  -1  -3  -1  186.31    3.46
  -1  -3  -1  179.79    3.42
  -1  -3  -1  175.54    3.40
  -1   3  -1  178.55    3.17
   1   3   1  172.06    3.49
  -1   3  -1  173.43    2.87
   1   3   1  174.32    3.53
   1   3   1  184.63    3.51
  -2  -3  -1  127.54    2.80
  -2  -3  -1  139.45    3.35
  -2  -3  -1  128.57    3.09
   2  -3   1  133.38    2.54
   2  -3   1  130.58    2.88
   2   3   1  128.25    3.31
   2   3   1  132.94    2.91
  -2   3  -1  132.47    2.71
   2   3   1  132.57    3.09
  -2   3  -1  127.52    3.23
   3  -3   1   24.56    1.07
  -3  -3  -1   24.94    1.52
  -3  -3  -1   24.70    1.11
   3  -3   1   25.20    1.36
  -3  -3  -1   25.78    1.39
  -3   3  -1   24.03    1.17
   3   3   1   24.28    1.13
   3   3   1   24.28    1.25
   3   3   1   24.53    1.49
  -3   3  -1   25.92    1.59
  -4  -3  -1   10.21    1.09
   4  -3   1    7.74    0.70
   4  -3   1    7.41    0.89
  -4  -3  -1    8.55    0.92
   4   3   1    8.65    1.05
   4   3   1    7.97    0.69
  -4   3  -1    8.49    1.11
  -4   3  -1    7.70    0.78
  -5  -3  -1   13.29    1.22
  -5  -3  -1   12.87    1.50
   5  -3   1   14.27    1.11
   5  -3   1   11.45    1.34
  -5   3  -1   13.05    1.50
   5   3   1   13.33    0.96
   5   3   1   14.79    1.13
   5   3   1   14.71    1.58
  -5   3  -1   15.21    1.31
  -6  -3  -1    8.53    1.65
   6  -3   1    9.23    1.04
  -6   3  -1    8.56    1.69
   6   3   1    8.59    1.03
   6   3   1    9.37    0.93
  -5  -4   1   35.14    2.57
  -5  -4   1   39.45    2.01
   5  -4  -1   35.95    1.97
   5  -4  -1   36.42    0.95
   5  -4  -1   42.46    2.48
   5   4  -1   37.19    1.80
   5   4  -1   40.53    2.60
  -5   4   1   39.68    2.62
   5   4  -1   38.97    1.90
  -5   4   1   36.24    1.94
  -4  -4   1   36.84    1.82
   4  -4  -1   37.50    1.18
   4  -4  -1   33.45    1.69
  -4  -4   1   36.90    1.70
   4  -4  -1   35.99    2.07
   4   4  -1   36.81    2.19
  -4   4   1   37.09    2.28
   4   4  -1   37.06    1.69
   4   4  -1   35.07    1.60
  -4   4   1   37.25    1.71
   3  -4  -1   21.61    0.89
   3  -4  -1   22.10    1.18
   3  -4  -1   21.52    1.38
  -3  -4   1   22.62    1.11
  -3  -4   1   21.44    1.07
  -3   4   1   19.74    1.37
   3   4  -1   22.89    1.08
  -3   4   1   21.00    1.51
   3   4  -1   19.43    1.14
   3   4  -1   21.67    1.42
   2  -4  -1   12.85    0.75
   2  -4  -1   13.06    0.79
   2  -4  -1   12.62    0.88
   2   4  -1   13.40    0.81
  -2   4   1   13.49    1.00
  -2   4   1   14.46    0.81
   2   4  -1   13.87    0.69
   2   4  -1   14.54    0.95
   1  -4  -1   75.83    1.90
   1  -4  -1   76.12    1.87
   1  -4  -1   74.32    1.75
  -1   4   1   71.78    2.04
  -1   4   1   75.10    1.92
   1   4  -1   75.31    1.45
   1   4  -1   72.30    1.94
   1   4  -1   77.76    1.62
   0  -4  -1  291.40    4.94
   0   4   1  278.01    4.77
   0   4  -1  270.25    4.66
   0   4   1  277.66    5.02
   0   4   1  280.30    4.76
  -1  -4  -1    7.12    0.49
  -1  -4  -1    7.11    0.45
   1   4   1    8.17    0.66
  -1   4  -1    6.79    0.41
   1   4   1    6.66    0.54
  -1   4  -1    7.07    0.43
  -1   4  -1    6.76    0.43
   2  -4   1   12.96    0.58
  -2  -4  -1   13.69    0.91
   2  -4   1   13.33    0.66
  -2  -4  -1   13.76    0.83
   2   4   1   12.56    0.85
   2   4   1   12.66    0.82
  -2   4  -1   14.48    0.71
   2   4   1   14.08    0.93
  -2   4  -1   14.16    0.93
  -3  -4  -1   59.34    2.18
   3  -4   1   58.49    2.03
   3  -4   1   58.53    1.73
  -3  -4  -1   58.08    1.92
  -3  -4  -1   55.62    2.31
  -3   4  -1   56.77    2.43
  -3   4  -1   57.67    1.89
   3   4   1   59.91    2.01
   3   4   1   56.01    2.04
   3   4   1   61.25    2.49
   4  -4   1    7.36    0.69
   4  -4   1    6.87    0.82
  -4  -4  -1    8.26    0.99
  -4  -4  -1    8.08    0.87
   4   4   1    7.63    0.67
  -4   4  -1    8.72    1.31
   4   4   1    7.56    0.78
   4   4   1    7.08    0.96
  -4   4  -1    7.73    0.78
  -5  -4  -1   27.78    1.85
  -5  -4  -1   25.95    2.04
   5  -4   1   25.91    1.87
   5  -4   1   27.88    1.55
   5   4   1   26.34    1.45
   5   4   1   29.00    1.68
  -5   4  -1   25.96    1.73
   5   4   1   28.18    2.05
  -5   4  -1   29.68    2.28
   5  -5  -1   36.26    2.23
   5  -5  -1   38.23    2.02
  -5  -5   1   36.25    1.93
  -5  -5   1   33.60    1.88
  -5   5   1   37.09    1.98
  -5   5   1   38.37    2.61
   5   5  -1   34.51    2.52
   5   5  -1   35.14    2.46
   5   5  -1   38.11    1.89
  -4  -5   1   27.66    1.40
  -4  -5   1   28.71    1.43
   4  -5  -1   28.16    1.55
   4  -5  -1   30.54    1.04
   4  -5  -1   28.84    1.77
   4   5  -1   28.90    1.93
   4   5  -1   27.94    1.52
   4   5  -1   29.71    1.59
  -4   5   1   29.64    2.05
  -4   5   1   28.73    1.53
  -3  -5   1  106.67    2.41
   3  -5  -1  106.75    2.89
   3  -5  -1  105.74    3.15
  -3  -5   1  102.85    2.42
   3  -5  -1  106.02    2.33
   3   5  -1  101.92    2.63
   3   5  -1  105.88    2.96
  -3   5   1  105.77    2.83
  -3   5   1  102.90    3.54
   3   5  -1  106.10    3.39
   2  -5  -1    4.07    0.47
   2  -5  -1    4.14    0.40
   2  -5  -1    4.75    0.45
  -2   5   1    3.45    0.53
   2   5  -1    3.79    0.36
   2   5  -1    4.19    0.49
   2   5  -1    3.48    0.46
  -2   5   1    4.57    0.44
   1  -5  -1   97.33    2.35
   1   5  -1   92.54    2.41
  -1   5   1   92.75    2.32
  -1   5   1   96.31    2.46
   0  -5  -1  270.10    4.97
   0   5   1  274.95    4.78
   0   5   1  272.58    4.79
   0   5   1  266.74    5.12
   0   5  -1  269.25    4.81
  -1  -5  -1  256.04    4.83
  -1   5  -1  250.58    4.30
   1   5   1  236.57    4.80
   1   5   1  246.56    4.69
  -2  -5  -1    4.79    0.51
  -2  -5  -1    4.57    0.50
  -2  -5  -1    4.74    0.48
   2   5   1    5.59    0.58
  -2   5  -1    4.67    0.35
  -2   5  -1    3.94    0.53
   2   5   1    5.21    0.54
   2   5   1    5.19    0.56
  -2   5  -1    4.78    0.41
  -3  -5  -1  258.46    5.58
   3  -5   1  257.91    4.85
  -3  -5  -1  247.73    5.19
  -3  -5  -1  264.34    5.65
   3   5   1  258.28    5.35
  -3   5  -1  248.32    5.97
   3   5   1  256.47    5.38
  -3   5  -1  261.06    5.04
   3   5   1  256.50    5.96
   4  -5   1   22.79    1.21
  -4  -5  -1   22.29    1.59
   4  -5   1   24.05    1.39
   4   5   1   21.58    1.30
  -4   5  -1   22.09    1.81
   4   5   1   22.69    1.39
  -4   5  -1   21.58    1.32
   4   5   1   21.43    1.69
  -5  -5  -1   40.65    2.23
   5  -5   1   39.55    2.19
   5  -5   1   41.05    2.24
  -5  -5  -1   42.98    2.47
   5   5   1   36.85    2.54
   5   5   1   41.16    2.07
   5   5   1   39.80    1.96
  -5   5  -1   38.65    2.14
  -5   5  -1   35.94    2.65
  -5  -6   1   15.08    1.13
   5  -6  -1   15.20    1.29
   5  -6  -1   15.91    1.53
  -5   6   1   13.55    1.78
   5   6  -1   15.47    1.25
   5   6  -1   14.89    1.19
   4  -6  -1  123.08    3.43
   4  -6  -1  120.68    2.48
   4  -6  -1  115.94    3.61
   4   6  -1  120.41    3.33
   4   6  -1  124.40    4.22
  -4   6   1  116.21    3.42
   4   6  -1  115.70    3.52
  -4   6   1  116.38    4.34
   3  -6  -1   10.64    0.82
   3  -6  -1   11.92    0.88
   3  -6  -1   11.34    0.68
  -3   6   1   11.69    0.85
  -3   6   1    8.35    1.02
   3   6  -1   10.90    0.76
   3   6  -1   10.96    0.99
   3   6  -1    9.80    0.88
   2  -6  -1   47.91    1.56
   2  -6  -1   46.31    1.34
   2   6  -1   46.40    1.77
  -2   6   1   45.00    1.92
   2   6  -1   46.10    1.84
   2   6  -1   44.21    1.38
  -2   6   1   46.10    1.65
   1  -6  -1   53.41    1.76
  -1   6   1   55.55    1.74
   1   6  -1   53.27    1.87
  -1   6   1   56.22    1.83
   0  -6  -1   31.55    1.35
   0   6   1   31.53    1.45
   0   6   1   29.63    1.20
   0   6  -1   30.93    1.29
  -1  -6  -1   55.92    1.95
  -1   6  -1   55.38    1.67
   1   6   1   56.98    1.85
  -2  -6  -1  166.90    3.96
  -2   6  -1  166.87    3.26
   2   6   1  164.33    3.99
  -2   6  -1  164.31    3.91
   2   6   1  161.42    3.90
   2   6   1  168.15    4.12
  -2   6  -1  173.34    3.30
  -3  -6  -1    1.87    0.77
  -3  -6  -1    2.30    0.46
  -3  -6  -1    2.34    0.46
  -3   6  -1    2.28    0.45
   3   6   1    1.90    0.45
  -3   6  -1    2.42    0.62
   3   6   1    1.76    0.46
   3   6   1    1.72    0.54
  -4  -6  -1  128.07    3.81
   4  -6   1  136.09    3.36
  -4  -6  -1  132.99    3.98
   4  -6   1  138.25    3.19
   4   6   1  132.94    4.49
   4   6   1  135.08    3.79
  -4   6  -1  133.43    3.68
  -4   6  -1  135.58    4.74
   4   6   1  131.38    3.81
   5  -6   1   13.68    1.27
  -5  -6  -1   13.19    1.37
  -5  -6  -1   16.17    1.50
   5  -6   1   13.33    1.10
  -5   6  -1   17.91    1.41
   5   6   1   18.46    1.32
   5   6   1   13.49    1.24
  -5   6  -1   14.54    1.70
   5  -7  -1   45.88    2.37
   5  -7  -1   49.30    2.22
  -5   7   1   50.44    3.07
   5   7  -1   47.48    2.28
   4  -7  -1    3.13    0.35
   4  -7  -1    3.44    0.60
   4  -7  -1    3.23    0.57
   4   7  -1    3.24    0.59
  -4   7   1    4.48    0.55
  -4   7   1    3.66    0.72
   4   7  -1    2.80    0.69
   4   7  -1    3.62    0.82
   3  -7  -1   73.57    2.06
  -3   7   1   80.53    3.05
   3   7  -1   74.77    2.25
  -3   7   1   76.99    2.48
   3   7  -1   75.59    2.83
   3   7  -1   74.23    2.72
   2  -7  -1  169.06    3.62
   2   7  -1  160.55    4.07
  -2   7   1  166.95    3.71
   2   7  -1  158.42    3.23
  -2   7   1  163.52    4.19
   2   7  -1  159.96    3.76
   1  -7  -1   92.28    2.55
  -1   7   1   90.25    2.53
   1   7  -1   89.82    2.72
  -1   7   1   91.15    2.44
   0  -7  -1   75.70    2.37
   0   7  -1   73.51    2.46
   0   7   1   75.71    2.52
   0   7   1   76.34    2.15
   0   7   1   73.22    2.17
  -1  -7  -1  138.69    3.55
   1   7   1  137.06    3.68
  -1   7  -1  139.84    3.19
   1   7   1  135.91    3.29
  -2  -7  -1   52.64    2.09
  -2   7  -1   50.34    1.51
  -2   7  -1   52.54    1.99
   2   7   1   49.93    1.98
   2   7   1   49.33    2.04
   2   7   1   54.26    2.18
  -2   7  -1   51.54    1.67
  -3  -7  -1  113.65    3.42
   3   7   1  114.46    3.34
   3   7   1  111.15    3.68
  -3   7  -1  116.11    3.84
   3   7   1  114.97    3.51
  -3   7  -1  112.29    2.93
  -4  -7  -1    1.19    0.42
  -4  -7  -1    0.46    0.34
  -4   7  -1    0.68    0.62
   4   7   1    0.78    0.37
   4   7   1    2.16    0.72
  -4   7  -1    2.26    0.49
   4   7   1    1.49    0.43
  -5  -7  -1   39.51    2.06
   5  -7   1   43.39    1.74
  -5  -7  -1   41.33    2.04
  -5   7  -1   41.77    4.35
   5   7   1   43.10    2.19
   4  -8  -1    2.96    0.46
  -4   8   1    3.23    0.90
   4   8  -1    2.02    0.83
   4   8  -1    2.85    0.56
   3  -8  -1    5.12    0.54
   3   8  -1    5.39    0.60
  -3   8   1    6.08    1.03
   3   8  -1    6.23    0.73
   3   8  -1    6.57    0.80
  -3   8   1    5.40    0.62
   2  -8  -1   52.82    1.88
  -2   8   1   54.27    2.21
  -2   8   1   52.39    1.88
   2   8  -1   50.23    2.17
   2   8  -1   49.21    1.89
   2   8  -1   50.85    1.56
   1  -8  -1   62.87    2.18
  -1   8   1   62.91    2.13
  -1   8   1   65.71    2.04
   1   8  -1   63.50    2.31
   0  -8  -1   24.83    1.35
   0   8   1   23.98    1.21
   0   8   1   23.65    1.15
   0   8  -1   22.89    1.28
   0   8   1   26.12    1.48
  -1  -8  -1   27.13    1.49
   1   8   1   26.84    1.33
   1   8   1   27.09    1.58
  -1   8  -1   28.14    1.35
  -2  -8  -1   39.29    1.90
  -2   8  -1   41.00    1.83
   2   8   1   41.83    1.90
   2   8   1   38.03    1.97
   2   8   1   39.38    1.80
  -2   8  -1   40.57    1.36
  -3  -8  -1    7.61    0.85
   3   8   1    9.19    0.98
   3   8   1    6.64    0.86
  -3   8  -1    6.90    0.67
  -3   8  -1    6.64    0.96
   4   8   1    1.38    0.40
  -4   8  -1    0.58    0.40
  -4   8  -1    0.23    0.57
   4  -9  -1    5.10    0.51
  -4   9   1    4.64    0.80
  -4   9   1    4.18    1.09
   4   9  -1    6.90    1.02
   4   9  -1    5.29    0.61
   3  -9  -1    6.39    0.66
  -3   9   1    6.78    0.70
   3   9  -1    5.76    0.62
  -3   9   1    6.22    0.92
   2  -9  -1    3.48    0.61
  -2   9   1    3.97    0.51
   2   9  -1    2.93    0.37
  -2   9   1    3.43    0.68
   2   9  -1    4.18    0.74
   1  -9  -1   56.40    2.16
   1   9  -1   57.78    2.37
  -1   9   1   58.37    2.00
  -1   9   1   55.41    2.07
   0  -9  -1   24.02    1.42
   0   9  -1   23.22    1.39
   0   9   1   22.16    1.48
   0   9   1   23.63    1.29
   0   9   1   22.00    1.19
  -1  -9  -1   35.51    1.79
  -1   9  -1   31.82    1.55
   1   9   1   31.91    1.51
   1   9   1   32.79    1.88
  -2  -9  -1   13.89    1.17
   2   9   1   14.93    1.17
  -2   9  -1   15.83    0.81
  -2   9  -1   17.55    1.14
   2   9   1   15.22    1.31
   2   9   1   15.30    1.15
  -3  -9  -1    2.56    0.61
   3   9   1    5.44    0.76
  -3   9  -1    4.18    0.83
  -3   9  -1    5.02    0.51
   3   9   1    3.52    0.64
   4   9   1   -0.19    0.31
  -4   9  -1   -0.26    0.65
  -4   9  -1    0.19    0.39
   3 -10  -1   12.61    0.99
   3  10  -1   15.24    1.15
  -3  10   1   12.69    0.97
  -3  10   1   13.82    1.18
   3  10  -1   10.73    1.22
   2 -10  -1   26.50    1.46
  -2  10   1   28.18    1.35
   2  10  -1   25.72    1.13
  -2  10   1   23.11    1.53
   2  10  -1   32.47    1.38
   1 -10  -1   32.48    1.71
  -1  10   1   35.19    1.45
   1  10  -1   34.80    1.92
  -1  10   1   32.20    1.59
   0 -10  -1    4.82    0.66
   0  10  -1    3.66    0.69
   0  10   1    5.52    0.69
  -1 -10  -1   39.25    2.03
   1  10   1   41.78    2.27
   1  10   1   37.76    1.73
  -1  10  -1   40.27    1.92
   1  10   1   42.59    1.77
  -2 -10  -1    2.18    0.61
   2  10   1    3.88    0.56
  -2  10  -1    2.53    0.61
  -2  10  -1    4.13    0.43
   3  10   1   11.49    1.04
   3  10   1   13.10    1.20
  -3  10  -1   13.94    1.29
  -3  10  -1   11.99    0.86
   2 -11  -1   19.21    1.36
  -2  11   1   21.58    1.42
   2  11  -1   18.70    0.95
  -2  11   1   18.48    1.18
   1 -11  -1   28.41    1.69
  -1  11   1   26.45    1.56
  -1  11   1   27.98    1.39
   0 -11  -1   10.17    1.05
   0  11  -1    8.34    0.92
   0  11   1    9.27    1.12
   0  11   1   10.68    0.93
  -1 -11  -1   25.25    1.73
  -1  11  -1   22.52    1.72
   1  11   1   25.73    1.48
   1  11   1   25.97    1.41
  -2 -11  -1   16.02    1.78
   2  11   1   16.30    1.22
  -2  11  -1   11.50    1.06
   2  11   1   11.29    1.07
  -2  11  -1   13.21    0.73
  -6   0   2   74.85    3.82
   6   0  -2   82.80    2.52
   6   0  -2   81.19    3.36
  -5   0   2   -0.33    0.21
   5   0  -2    0.29    0.20
   5   0  -2   -0.51    0.64
  -5   0   2   -0.39    0.31
   4   0  -2  179.27    4.59
  -4   0   2  173.48    4.14
   4   0  -2  171.89    5.38
  -4   0   2  183.85    5.09
   3   0  -2    0.07    0.23
   3   0  -2   -0.05    0.09
  -3   0   2    0.12    0.09
  -3   0   2   -0.02    0.16
   2   0  -2  555.45    8.67
  -2   0   2  553.73    9.07
   2   0  -2  510.47    9.33
  -1   0   2    0.09    0.06
   1   0  -2    0.01    0.07
  -1   0   2    0.01    0.05
   1   0  -2    0.06    0.08
   1   0   2    0.10    0.08
  -1   0  -2    0.00    0.07
  -1   0  -2    0.23    0.13
   2   0   2  395.85    6.57
   2   0   2  387.40    7.04
  -2   0  -2  376.39    5.84
  -2   0  -2  382.59    7.21
  -2   0  -2  389.41    6.97
  -3   0  -2    1.98    0.54
   3   0   2    0.06    0.16
   3   0   2    0.43    0.21
  -3   0  -2    0.04    0.14
  -4   0  -2  171.87    4.74
   4   0   2  171.80    5.01
   4   0   2  179.53    4.17
  -5   0  -2   -0.38    0.36
   5   0   2   -0.18    0.21
   5   0   2   -0.95    0.53
   6   0   2  114.32    3.75
  -6   0  -2  102.84    4.96
   6  -1  -2   19.26    1.61
  -6  -1   2   17.68    1.97
   6  -1  -2   18.73    1.06
   6   1  -2   21.56    1.21
  -6   1   2   19.59    1.98
   6   1  -2   18.56    1.59
  -5  -1   2   38.37    1.93
   5  -1  -2   44.44    3.32
   5  -1  -2   39.66    2.10
  -5  -1   2   36.44    2.28
   5   1  -2   37.13    2.66
   5   1  -2   37.62    2.00
   5   1  -2   36.97    1.60
  -5   1   2   36.55    2.38
  -4  -1   2   12.76    1.20
   4  -1  -2   12.54    1.10
  -4  -1   2   14.66    1.01
   4  -1  -2   17.59    1.40
  -4   1   2   14.84    1.00
   4   1  -2   16.06    1.35
  -4   1   2   13.27    1.28
   4   1  -2   14.60    1.40
  -3  -1   2  296.10    5.30
   3  -1  -2  286.08    5.64
   3  -1  -2  284.19    6.65
  -3  -1   2  288.62    5.99
   3   1  -2  279.83    6.54
  -3   1   2  282.31    6.25
  -3   1   2  292.37    5.42
   3   1  -2  275.74    5.42
   2  -1  -2   85.63    2.36
  -2  -1   2   90.25    2.06
   2  -1  -2   83.48    2.74
  -2  -1   2   92.25    2.47
  -2   1   2   84.43    2.56
  -2   1   2   82.92    2.17
   2   1  -2   83.62    2.17
   2   1  -2   84.47    2.66
   1  -1  -2  419.59    7.77
  -1  -1   2  452.49    7.06
   1  -1  -2  434.33    7.24
  -1   1   2  437.58    6.97
   1   1  -2  445.13    6.82
  -1   1   2  434.46    8.06
   1   1  -2  414.95    6.98
   0  -1   2    5.75    0.39
   0  -1  -2    5.65    0.50
   0  -1   2    5.86    0.43
   0  -1  -2    6.03    0.50
   0   1  -2    6.13    0.50
   0   1  -2    5.83    0.44
   0   1   2    5.38    0.47
   1  -1   2  136.09    2.86
  -1  -1  -2  131.98    3.22
   1  -1   2  141.30    2.75
   1   1   2  128.73    3.05
  -1   1  -2  134.30    2.94
  -1   1  -2  135.83    3.00
  -2  -1  -2  185.92    3.41
  -2  -1  -2  192.72    4.42
  -2  -1  -2  179.57    4.16
   2  -1   2  188.01    4.10
   2  -1   2  191.80    3.65
  -2   1  -2  187.88    4.05
  -2   1  -2  181.33    4.26
  -2   1  -2  193.41    3.09
   2   1   2  193.53    4.04
   2   1   2  183.35    4.26
   3  -1   2  218.78    5.10
  -3  -1  -2  221.19    5.49
  -3  -1  -2  220.50    3.88
   3  -1   2  217.24    4.38
  -3  -1  -2  219.19    5.11
  -3   1  -2  214.71    5.38
  -3   1  -2  221.76    3.29
  -3   1  -2  213.90    4.88
   3   1   2  221.59    5.58
   3   1   2  219.09    4.61
   4  -1   2   26.42    1.73
  -4  -1  -2   28.10    2.43
   4  -1   2   28.25    1.40
  -4  -1  -2   29.01    1.78
  -4   1  -2   26.94    1.64
   4   1   2   26.36    1.80
   5  -1   2   40.63    1.92
  -5  -1  -2   42.10    2.76
   5  -1   2   45.56    2.57
  -5  -1  -2   37.09    2.71
  -5   1  -2   40.75    2.34
   5   1   2   42.26    2.61
   5   1   2   41.38    1.98
  -5   1  -2   46.42    2.94
  -6  -1  -2   12.52    1.78
   6  -1   2   11.85    1.20
   6   1   2   11.95    1.12
  -6   1  -2   12.55    1.76
   6  -2  -2   32.44    2.09
  -6  -2   2   32.59    2.32
   6   2  -2   34.93    2.17
  -6   2   2   30.93    2.53
   6   2  -2   34.90    1.73
  -5  -2   2    7.71    0.90
  -5  -2   2    8.37    1.12
   5  -2  -2    9.60    0.99
   5  -2  -2   10.92    1.44
   5   2  -2    8.72    0.94
   5   2  -2   10.11    0.83
   5   2  -2    9.11    1.33
  -5   2   2    8.44    1.21
  -5   2   2   11.06    1.00
   4  -2  -2  122.88    3.75
   4  -2  -2  125.63    4.41
  -4  -2   2  124.20    3.28
  -4  -2   2  119.94    3.73
  -4   2   2  121.98    4.19
   4   2  -2  119.74    4.33
  -4   2   2  120.30    3.36
   3  -2  -2   22.75    1.28
  -3  -2   2   24.35    1.10
  -3  -2   2   24.83    1.35
   3  -2  -2   21.55    1.67
  -3   2   2   23.23    1.40
   3   2  -2   24.60    1.20
  -3   2   2   25.01    1.57
   3   2  -2   25.24    1.62
  -2  -2   2  103.98    2.79
   2  -2  -2  106.48    2.75
  -2  -2   2  102.54    2.21
   2  -2  -2  104.28    3.16
   2   2  -2   98.56    2.35
   2   2  -2  102.40    2.92
  -2   2   2  101.16    2.93
  -2   2   2   97.56    2.51
  -1  -2   2  288.24    4.39
   1  -2  -2  288.91    5.22
   1  -2  -2  292.55    5.39
  -1  -2   2  289.76    4.86
  -1   2   2  293.93    5.39
   1   2  -2  290.23    4.98
  -1   2   2  277.27    5.11
   1   2  -2  287.21    4.71
   0  -2   2   15.51    0.52
   0  -2  -2   16.51    0.86
   0  -2   2   15.29    0.56
   0  -2  -2   16.18    0.85
   0   2   2   15.93    0.86
   0   2  -2   15.15    0.67
   0   2   2   14.87    1.10
   0   2  -2   17.24    0.81
  -1  -2  -2  435.68    7.33
  -1  -2  -2  437.85    7.49
   1  -2   2  441.15    6.34
   1  -2   2  420.84    6.59
  -1  -2  -2  427.64    6.86
   1   2   2  427.95    7.34
   1   2   2  393.11    7.18
  -1   2  -2  421.02    6.94
  -1   2  -2  431.14    6.83
   2  -2   2  120.22    2.50
  -2  -2  -2  119.23    3.20
   2  -2   2  119.31    2.93
  -2  -2  -2  119.65    2.63
  -2  -2  -2  118.83    3.29
  -2   2  -2  120.54    2.92
  -2   2  -2  115.39    3.16
   2   2   2  117.74    3.25
   3  -2   2   57.43    1.80
  -3  -2  -2   59.31    2.53
   3  -2   2   57.43    2.22
  -3  -2  -2   59.02    2.53
  -3  -2  -2   60.41    1.73
   3   2   2   58.37    2.46
   3   2   2   58.58    2.12
  -3   2  -2   57.15    2.47
  -3   2  -2   55.84    2.10
  -4  -2  -2  137.91    3.02
   4  -2   2  135.04    4.15
  -4  -2  -2  137.61    4.70
   4  -2   2  138.41    3.44
  -4  -2  -2  135.16    4.18
  -4   2  -2  132.72    4.72
   4   2   2  138.92    4.51
  -4   2  -2  132.62    3.98
   4   2   2  136.54    3.70
   5  -2   2    1.71    0.47
  -5  -2  -2    1.36    0.78
   5  -2   2    2.66    0.62
  -5  -2  -2    1.72    0.73
   5   2   2    1.76    0.72
  -5   2  -2    1.70    0.54
  -5   2  -2    0.83    0.65
   5   2   2    1.68    0.48
   6  -2   2   32.56    2.70
  -6  -2  -2   30.10    2.65
   6   2   2   32.81    1.96
  -6   2  -2   28.96    2.68
  -6  -3   2   29.97    2.08
  -6  -3   2   28.35    2.13
   6  -3  -2   27.67    2.04
   6  -3  -2   30.15    1.21
   6   3  -2   30.87    1.72
   6   3  -2   30.86    2.34
  -5  -3   2   21.61    1.62
   5  -3  -2   25.20    2.16
  -5  -3   2   23.71    1.53
   5  -3  -2   19.84    1.52
  -5   3   2   23.24    2.00
   5   3  -2   21.01    1.32
  -5   3   2   20.62    1.41
   5   3  -2   21.07    1.85
   5   3  -2   21.84    1.50
  -4  -3   2  107.27    3.36
   4  -3  -2  114.22    3.61
  -4  -3   2  114.58    3.13
   4  -3  -2  110.37    4.05
   4   3  -2  108.12    3.01
  -4   3   2  110.44    3.22
   4   3  -2  107.94    4.14
  -4   3   2  108.92    4.00
   4   3  -2  103.84    4.00
  -3  -3   2   14.85    0.86
   3  -3  -2   16.80    1.11
  -3  -3   2   15.97    1.02
   3   3  -2   15.94    0.94
  -3   3   2   16.19    1.24
  -3   3   2   14.95    0.98
   3   3  -2   17.95    1.31
  -2  -3   2   23.68    0.87
   2  -3  -2   21.88    1.36
  -2  -3   2   23.72    1.01
   2  -3  -2   25.00    1.24
  -2   3   2   23.47    1.34
   2   3  -2   24.48    1.00
  -2   3   2   24.52    1.15
   2   3  -2   24.58    1.30
   1  -3  -2   96.38    2.48
   1  -3  -2   99.22    2.63
  -1   3   2   92.34    2.56
   1   3  -2   97.51    2.18
  -1   3   2   93.29    2.45
   1   3  -2   94.73    1.94
   0  -3  -2    1.25    0.26
   0  -3  -2    2.44    0.33
   0  -3  -2    2.71    0.35
   0   3   2    1.79    0.36
   0   3   2    1.79    0.34
  -1  -3  -2   25.62    1.22
  -1  -3  -2   24.16    1.06
  -1  -3  -2   25.10    1.22
  -1   3  -2   24.47    1.01
   1   3   2   24.40    1.22
  -1   3  -2   25.42    0.95
   1   3   2   25.97    1.27
  -2  -3  -2    4.43    0.61
   2  -3   2    5.75    0.40
   2  -3   2    5.44    0.49
  -2  -3  -2    5.79    0.69
  -2  -3  -2    5.28    0.50
  -2   3  -2    5.13    0.26
  -2   3  -2    5.07    0.58
   2   3   2    5.09    0.63
   2   3   2    6.08    0.65
  -2   3  -2    4.85    0.49
   3  -3   2   24.99    1.35
  -3  -3  -2   23.52    1.57
  -3  -3  -2   24.39    1.14
  -3  -3  -2   23.50    1.53
   3  -3   2   25.19    1.06
   3   3   2   26.51    1.29
   3   3   2   24.73    1.60
  -3   3  -2   25.30    1.32
   3   3   2   24.60    1.38
  -3   3  -2   25.11    1.58
  -4  -3  -2  106.96    4.02
   4  -3   2  110.13    3.55
  -4  -3  -2  103.56    3.62
  -4  -3  -2  114.53    2.86
   4  -3   2  110.70    2.92
  -4   3  -2  113.48    3.53
  -4   3  -2  110.47    4.13
   4   3   2  108.20    4.00
   4   3   2  112.55    3.09
   4   3   2  108.62    3.31
  -5  -3  -2   12.28    1.50
   5  -3   2    8.74    1.13
   5  -3   2    9.79    0.92
   5   3   2    8.89    1.33
   5   3   2   11.56    1.06
  -5   3  -2   11.19    1.15
  -5   3  -2   11.19    1.48
   5  -4  -2   51.25    2.50
  -5  -4   2   50.62    2.39
  -5  -4   2   49.66    2.26
   5  -4  -2   48.34    3.33
   5   4  -2   52.31    2.97
   5   4  -2   49.89    2.15
   5   4  -2   53.76    2.37
  -5   4   2   48.26    2.89
  -5   4   2   48.01    2.29
   4  -4  -2    3.90    0.80
  -4  -4   2    4.19    0.57
   4  -4  -2    3.44    0.68
  -4  -4   2    4.03    0.69
   4   4  -2    3.73    0.52
  -4   4   2    3.20    0.78
   4   4  -2    6.41    0.87
   4   4  -2    4.17    0.58
  -4   4   2    4.39    0.60
  -3  -4   2  165.18    3.43
   3  -4  -2  162.23    4.07
   3  -4  -2  155.89    6.64
  -3  -4   2  168.46    3.61
  -3   4   2  163.95    4.62
  -3   4   2  161.75    3.86
   3   4  -2  161.04    3.81
   3   4  -2  162.59    3.62
   3   4  -2  167.01    4.61
   2  -4  -2   70.00    2.52
   2  -4  -2   67.92    2.20
   2   4  -2   66.69    2.24
   2   4  -2   66.79    2.08
   2   4  -2   66.48    1.75
  -2   4   2   66.01    2.13
  -2   4   2   66.96    2.41
   1  -4  -2   27.12    1.21
   1  -4  -2   25.18    1.27
   1  -4  -2   26.31    1.20
  -1   4   2   27.00    1.24
  -1   4   2   26.89    1.30
   1   4  -2   27.09    0.96
   1   4  -2   26.51    0.81
   0  -4  -2  293.88    5.16
   0  -4  -2  287.39    5.20
   0  -4  -2  292.48    5.32
   0   4   2  279.96    5.37
   0   4  -2  287.09    4.35
   0   4   2  281.25    5.57
  -1  -4  -2   14.43    0.91
  -1  -4  -2   13.22    0.85
  -1  -4  -2   13.60    0.85
  -1   4  -2   13.81    0.64
   1   4   2   13.87    0.93
  -1   4  -2   13.71    0.64
  -1   4  -2   13.61    0.71
   2  -4   2  118.50    2.17
   2  -4   2  113.68    2.35
  -2  -4  -2  118.06    3.30
  -2  -4  -2  115.38    3.30
  -2  -4  -2  116.92    2.93
  -2   4  -2  115.41    3.10
   2   4   2  113.65    3.34
  -2   4  -2  113.72    2.05
   2   4   2  121.73    3.34
   2   4   2  114.01    3.06
  -2   4  -2  120.10    2.76
   3  -4   2  198.80    4.29
  -3  -4  -2  201.96    5.17
  -3  -4  -2  202.75    4.30
  -3  -4  -2  194.80    5.19
   3  -4   2  201.11    3.81
   3   4   2  202.01    5.39
   3   4   2  200.93    4.76
  -3   4  -2  196.88    4.44
   3   4   2  199.78    5.21
  -3   4  -2  197.22    5.12
   4  -4   2    6.84    0.73
   4  -4   2    5.93    0.61
  -4  -4  -2    6.60    0.67
  -4  -4  -2    4.53    0.86
  -4  -4  -2    6.47    1.20
   4   4   2    6.22    0.74
  -4   4  -2    4.69    0.98
   4   4   2    4.93    1.01
  -4   4  -2    6.09    0.74
   4   4   2    5.19    0.66
  -5  -4  -2   45.61    3.14
  -5  -4  -2   41.54    2.70
   5  -4   2   45.82    1.94
   5  -4   2   43.13    2.27
   5   4   2   42.89    2.76
  -5   4  -2   41.98    2.82
   5   4   2   41.98    2.12
  -5   4  -2   40.09    2.32
  -5  -5   2    1.53    0.51
   5  -5  -2    4.79    1.15
   5  -5  -2    2.57    0.44
  -5  -5   2    2.57    0.59
   5  -5  -2    1.76    0.61
   5   5  -2    2.95    0.77
   5   5  -2    2.33    0.61
   5   5  -2    3.26    0.75
  -5   5   2    2.21    0.74
   4  -5  -2   49.14    1.74
  -4  -5   2   48.14    1.82
   4  -5  -2   48.62    2.23
  -4  -5   2   47.80    1.80
   4  -5  -2   47.06    2.50
  -4   5   2   46.95    2.62
  -4   5   2   45.35    2.00
   4   5  -2   43.38    1.97
   4   5  -2   49.03    2.59
   4   5  -2   47.06    1.94
   3  -5  -2   13.94    0.90
   3  -5  -2   15.52    1.07
   3  -5  -2   16.08    1.30
  -3   5   2   15.07    1.03
   3   5  -2   15.19    1.21
  -3   5   2   14.18    1.22
   3   5  -2   14.99    0.89
   3   5  -2   14.00    1.01
   2  -5  -2   59.44    2.03
   2  -5  -2   58.83    1.96
   2  -5  -2   57.72    2.25
  -2   5   2   63.02    2.11
  -2   5   2   60.91    2.33
   2   5  -2   63.06    2.14
   2   5  -2   60.16    1.63
   1  -5  -2  184.49    4.08
   1  -5  -2  192.30    4.04
   1  -5  -2  186.85    4.51
   1   5  -2  193.67    3.37
   1   5  -2  187.59    3.06
  -1   5   2  187.68    4.24
  -1   5   2  186.43    4.11
   1   5  -2  186.82    3.94
   0  -5  -2  302.90    5.29
   0  -5  -2  302.11    5.56
   0  -5  -2  293.10    5.24
   0   5  -2  280.44    5.16
   0   5   2  287.85    5.81
   0   5   2  297.77    5.65
  -1  -5  -2  194.67    3.95
  -1  -5  -2  201.70    4.28
  -1   5  -2  199.56    3.67
  -1   5  -2  200.70    3.67
  -1   5  -2  200.52    3.43
   1   5   2  205.46    4.49
  -2  -5  -2  136.73    3.56
  -2  -5  -2  136.49    3.39
  -2  -5  -2  131.08    3.42
  -2   5  -2  132.20    2.49
  -2   5  -2  136.30    2.98
   2   5   2  136.86    3.60
   2   5   2  133.46    3.70
  -2   5  -2  131.06    3.36
   2   5   2  142.77    3.83
   3  -5   2    9.00    0.66
  -3  -5  -2   10.62    1.03
  -3  -5  -2   10.09    1.00
  -3  -5  -2   11.82    0.86
   3  -5   2    9.99    0.59
   3   5   2   10.00    1.03
   3   5   2   10.57    0.96
   3   5   2   10.10    0.92
  -3   5  -2   11.29    0.99
  -4  -5  -2   47.06    2.44
  -4  -5  -2   50.06    2.56
   4  -5   2   46.88    1.70
  -4  -5  -2   48.48    2.00
   4  -5   2   48.16    1.97
   4   5   2   47.41    2.61
  -4   5  -2   46.60    2.13
   4   5   2   45.28    2.17
  -4   5  -2   52.93    2.75
   4   5   2   47.26    2.13
   5  -5   2   -0.86    0.39
  -5  -5  -2    1.08    0.65
   5  -5   2    0.42    0.34
  -5   5  -2    1.32    0.58
   5   5   2    0.81    0.31
   5   5   2    0.17    0.38
   5  -6  -2    4.59    1.08
  -5  -6   2    4.69    0.71
   5  -6  -2    4.35    0.93
   5  -6  -2    5.22    0.55
   5   6  -2    6.85    0.87
  -5   6   2    4.59    1.07
   4  -6  -2   13.61    1.15
   4  -6  -2   14.19    0.86
   4  -6  -2   15.42    1.28
   4   6  -2   13.53    1.01
  -4   6   2   14.62    1.13
   4   6  -2   12.65    1.17
  -4   6   2   15.84    1.45
   4   6  -2   12.71    1.43
   3  -6  -2   39.74    1.80
   3  -6  -2   39.09    1.55
   3  -6  -2   40.31    1.93
  -3   6   2   40.82    1.79
   3   6  -2   39.38    1.52
   3   6  -2   40.59    1.85
   3   6  -2   39.06    2.01
   2  -6  -2   65.90    2.26
   2  -6  -2   64.95    2.09
   2  -6  -2   65.98    2.09
   2   6  -2   63.81    2.25
  -2   6   2   66.80    2.53
   2   6  -2   65.88    1.72
   2   6  -2   62.82    2.18
   1  -6  -2  118.16    3.03
   1  -6  -2  117.74    2.68
   1  -6  -2  115.81    2.84
   1   6  -2  118.99    3.06
  -1   6   2  116.96    3.12
  -1   6   2  118.10    3.27
   0  -6  -2   31.97    1.47
   0  -6  -2   33.03    1.19
   0  -6  -2   32.33    1.15
   0   6   2   31.92    1.47
   0   6   2   31.04    1.55
   0   6  -2   32.39    1.33
  -1  -6  -2  149.08    3.05
  -1  -6  -2  146.89    3.68
  -1  -6  -2  151.76    3.23
  -1   6  -2  151.64    3.18
   1   6   2  152.67    3.79
  -1   6  -2  148.60    2.67
  -1   6  -2  149.18    2.95
   1   6   2  149.41    4.16
  -2  -6  -2   55.41    2.11
  -2  -6  -2   51.41    1.93
  -2  -6  -2   52.97    1.81
  -2   6  -2   53.79    1.65
  -2   6  -2   55.61    1.50
  -2   6  -2   53.29    1.96
   2   6   2   55.74    2.28
   2   6   2   54.86    2.36
   2   6   2   53.93    2.23
  -3  -6  -2   18.40    1.21
  -3  -6  -2   20.56    1.31
  -3  -6  -2   18.64    1.33
  -3   6  -2   19.95    1.41
   3   6   2   17.70    1.55
   3   6   2   19.89    1.46
  -3   6  -2   17.18    1.08
   3   6   2   18.57    1.34
  -4  -6  -2   11.24    1.20
  -4  -6  -2   12.47    1.06
  -4  -6  -2   12.87    1.21
   4  -6   2   12.43    0.83
   4   6   2   12.53    1.38
  -4   6  -2   11.85    1.12
   4   6   2   12.89    1.20
  -4   6  -2   11.90    1.32
   4   6   2   11.63    1.14
  -5  -6  -2    2.54    0.86
  -5  -6  -2    1.06    0.77
   5  -6   2    3.32    0.72
   5  -6   2    3.74    0.66
   5   6   2    2.21    0.67
   5   6   2    3.91    0.81
  -5   6  -2    4.15    1.24
   4  -7  -2   10.44    1.18
   4  -7  -2   10.22    1.03
   4  -7  -2   10.92    0.82
  -4   7   2   14.31    1.41
   4   7  -2   12.42    0.96
  -4   7   2   13.99    1.09
   4   7  -2   15.93    1.47
   4   7  -2   13.59    1.09
   3  -7  -2    7.48    0.69
   3  -7  -2    8.05    0.83
   3  -7  -2    7.45    0.74
   3   7  -2    8.68    0.83
  -3   7   2    8.68    0.99
   3   7  -2    7.10    0.64
  -3   7   2    7.01    0.78
   2  -7  -2   65.58    1.95
   2  -7  -2   62.20    2.13
   2  -7  -2   61.54    1.92
   2   7  -2   63.16    2.36
   2   7  -2   59.82    1.65
   2   7  -2   59.69    2.13
  -2   7   2   63.27    2.25
  -2   7   2   63.05    2.52
   1  -7  -2    8.86    0.79
   1   7  -2   10.65    0.86
  -1   7   2   10.55    0.91
  -1   7   2   10.39    0.84
   0  -7  -2  159.98    3.88
   0   7   2  151.34    3.79
   0   7  -2  151.90    3.61
   0   7   2  154.04    4.04
  -1  -7  -2   64.40    2.36
  -1   7  -2   72.10    2.10
   1   7   2   70.62    2.46
   1   7   2   72.11    2.80
  -2  -7  -2   99.41    3.10
   2   7   2  101.03    3.29
  -2   7  -2   97.56    2.89
   2   7   2  102.52    3.38
  -2   7  -2   98.08    2.36
   2   7   2  102.99    3.32
  -2   7  -2  104.32    2.47
  -3  -7  -2    8.05    0.71
  -3  -7  -2    9.17    0.79
  -3  -7  -2    7.47    0.81
   3   7   2    7.93    0.92
  -3   7  -2    8.63    0.72
   3   7   2    9.11    0.89
  -3   7  -2    9.78    0.92
   3   7   2    7.41    1.01
  -4  -7  -2   22.05    1.40
  -4  -7  -2   20.61    1.41
  -4  -7  -2   18.55    1.46
  -4   7  -2   23.67    1.80
   4   7   2   20.09    1.55
   4   7   2   21.70    1.54
   4   7   2   21.73    1.74
  -4   7  -2   18.26    1.40
   4  -8  -2    5.33    0.83
   4  -8  -2    6.99    0.62
   4  -8  -2    5.49    0.78
   4   8  -2   10.21    1.21
  -4   8   2    5.97    1.18
   4   8  -2    6.30    0.72
  -4   8   2    6.89    0.83
   3  -8  -2   30.50    1.44
   3   8  -2   26.59    1.27
  -3   8   2   29.11    1.87
   3   8  -2   28.26    1.68
   3   8  -2   26.42    1.68
  -3   8   2   26.13    1.54
   2  -8  -2    8.79    0.81
   2   8  -2    9.59    0.84
  -2   8   2    9.82    0.97
   2   8  -2    9.07    0.59
   2   8  -2    9.02    0.84
  -2   8   2    8.44    0.81
   1  -8  -2   32.99    1.92
  -1   8   2   32.52    1.69
   1   8  -2   32.86    1.63
  -1   8   2   29.79    1.95
   0  -8  -2   14.42    1.09
   0   8   2   15.33    1.06
   0   8   2   15.59    1.14
   0   8  -2   14.57    1.01
  -1  -8  -2   39.95    1.91
   1   8   2   37.72    1.86
  -1   8  -2   39.93    1.60
  -2  -8  -2    1.50    0.42
   2   8   2    1.62    0.49
   2   8   2    1.74    0.48
   2   8   2    0.91    0.35
  -2   8  -2    1.48    0.41
  -2   8  -2    1.38    0.34
  -2   8  -2    1.59    0.39
  -3  -8  -2   23.87    1.55
   3   8   2   24.02    1.72
   3   8   2   23.95    1.72
   3   8   2   22.42    1.58
  -3   8  -2   24.32    1.66
  -3   8  -2   22.79    1.27
  -4  -8  -2    3.20    0.78
   4   8   2    3.02    0.76
  -4   8  -2    3.13    0.74
   4   8   2    3.69    0.79
   3  -9  -2    3.74    0.69
   3   9  -2    6.68    0.56
   3   9  -2    5.98    0.79
  -3   9   2    4.62    0.76
  -3   9   2    5.36    0.81
   2  -9  -2   69.52    2.46
  -2   9   2   65.03    2.69
   2   9  -2   63.10    2.65
   2   9  -2   67.65    2.25
  -2   9   2   63.77    2.42
   2   9  -2   67.06    1.77
   1  -9  -2   11.21    0.99
  -1   9   2   11.63    1.03
  -1   9   2   13.06    0.93
   1   9  -2    9.74    0.97
   0  -9  -2   11.27    1.04
   0   9   2   14.48    1.06
   0   9   2   14.55    1.20
   0   9  -2   13.15    1.01
  -1  -9  -2    0.92    0.42
   1   9   2    1.69    0.42
  -1   9  -2    1.83    0.42
  -2  -9  -2   37.59    2.04
   2   9   2   39.55    2.12
  -2   9  -2   39.95    1.41
  -2   9  -2   40.28    1.63
   2   9   2   41.06    2.10
  -2   9  -2   41.59    1.82
  -3  -9  -2    8.08    1.06
   3   9   2    6.17    1.12
   3   9   2    6.39    0.88
  -3   9  -2    9.31    0.76
  -3   9  -2    7.11    1.48
   2 -10  -2    5.11    0.72
  -2  10   2    6.30    0.75
   2  10  -2    6.65    0.51
   1 -10  -2   24.27    1.52
  -1  10   2   21.32    1.37
   1  10  -2   22.97    1.57
   0 -10  -2    0.22    0.21
   0  10  -2   -0.13    0.23
   0  10   2    0.12    0.30
  -1 -10  -2   10.28    1.06
  -1  10  -2   10.23    0.91
   1  10   2   10.75    1.02
   1  10   2   11.23    1.62
  -2 -10  -2   13.66    1.18
   2  10   2   12.48    1.17
   2  10   2   12.67    1.27
  -2  10  -2   12.22    0.79
  -2  10  -2   11.49    0.93
  -2  10  -2   13.94    1.10
   1 -11  -2   19.83    1.45
  -1  11   2   21.23    1.39
  -1  11   2   21.72    1.59
   0 -11  -2   20.00    1.50
   0  11   2   19.33    1.56
   0  11  -2   17.10    1.43
   0  11   2   22.41    1.36
  -1 -11  -2   13.78    1.29
   1  11   2   16.31    1.33
   1  11   2   15.31    1.34
  -1  11  -2   15.85    1.18
   5   0  -3   80.29    3.98
   5   0  -3   75.75    3.10
  -5   0   3   76.17    2.84
  -5   0   3   73.88    3.37
   4   0  -3   -0.16    0.18
   4   0  -3    0.09    0.34
  -4   0   3    0.15    0.30
  -4   0   3    0.27    0.14
   3   0  -3  367.17    8.20
  -3   0   3  371.95    7.58
   3   0  -3  381.03    7.23
  -3   0   3  372.89    6.69
   2   0  -3    0.22    0.13
  -2   0   3    0.18    0.12
   2   0  -3    0.04    0.14
  -2   0   3   -0.07    0.11
  -1   0   3   79.86    2.47
   1   0  -3   71.63    2.29
  -1   0   3   76.47    2.07
   1   0  -3   71.74    2.23
   0   0  -3    0.09    0.11
   0   0  -3    0.00    0.10
   0   0   3    0.21    0.11
   0   0   3    0.00    0.06
   1   0   3    0.26    0.17
   1   0   3    0.38    0.18
  -1   0  -3    0.41    0.22
  -1   0  -3    0.38    0.19
  -2   0  -3    0.28    0.20
  -2   0  -3   -0.10    0.12
   3   0   3  375.71    7.78
  -3   0  -3  370.07    8.05
  -3   0  -3  389.32    7.90
   3   0   3  391.80    7.11
  -3   0  -3  374.51    6.09
   4   0   3    0.45    0.17
  -4   0  -3    0.39    0.25
   4   0   3    0.65    0.34
  -4   0  -3    0.18    0.34
  -5   0  -3   84.74    4.06
  -5   0  -3   82.05    3.63
   5   0   3   80.46    3.69
   5   0   3   80.92    2.91
  -5  -1   3   24.78    1.87
   5  -1  -3   26.42    1.78
   5  -1  -3   24.77    2.18
  -5   1   3   27.24    1.62
   5   1  -3   31.83    2.37
   5   1  -3   24.48    1.68
  -5   1   3   25.85    1.96
  -4  -1   3  148.67    4.39
   4  -1  -3  141.31    5.02
  -4  -1   3  144.92    3.71
   4  -1  -3  145.72    4.21
  -4   1   3  148.90    3.83
   4   1  -3  136.31    4.93
  -4   1   3  147.71    4.61
   4   1  -3  147.99    4.11
   3  -1  -3   92.22    3.54
  -3  -1   3   89.94    2.98
  -3  -1   3   93.51    3.06
   3  -1  -3   90.17    2.93
  -3   1   3   93.47    2.67
   3   1  -3   91.25    3.46
  -3   1   3   97.56    3.26
   3   1  -3   93.14    2.84
  -2  -1   3   58.01    1.72
  -2  -1   3   59.92    2.13
   2  -1  -3   56.81    2.08
  -2   1   3   57.55    2.24
   2   1  -3   54.26    2.20
  -2   1   3   58.16    1.91
   2   1  -3   59.21    2.01
   1  -1  -3   45.78    1.76
  -1  -1   3   45.67    1.76
  -1  -1   3   45.80    1.42
  -1   1   3   44.95    1.62
  -1   1   3   47.26    1.91
   1   1  -3   45.36    1.64
   1   1  -3   44.38    1.69
   0  -1   3   58.15    2.22
   0  -1   3   57.13    1.67
   0  -1  -3   53.96    1.98
   0  -1  -3   55.71    1.96
   0   1  -3   53.05    1.93
   0   1  -3   56.50    1.85
   0   1   3   58.72    2.19
   1  -1   3   42.97    1.55
  -1  -1  -3   42.70    1.78
   1  -1   3   42.96    1.57
  -1   1  -3   42.36    1.71
  -2  -1  -3    8.08    0.85
   2  -1   3    9.55    0.81
  -2  -1  -3    7.91    0.83
   2  -1   3    9.89    0.71
  -2  -1  -3    7.55    0.58
   2   1   3    8.21    0.76
  -2   1  -3    7.58    0.76
  -2   1  -3    8.40    0.84
   2   1   3    9.08    0.84
  -3  -1  -3   63.91    1.80
   3  -1   3   63.01    2.52
  -3  -1  -3   63.46    2.63
  -3  -1  -3   60.23    2.70
   3  -1   3   63.29    2.09
   3   1   3   61.02    2.60
   3   1   3   64.74    2.31
  -3   1  -3   60.92    2.53
  -3   1  -3   65.55    1.51
  -3   1  -3   65.09    2.77
  -4  -1  -3   82.88    2.08
   4  -1   3   80.23    3.19
  -4  -1  -3   78.03    3.50
   4  -1   3   73.84    3.16
  -4  -1  -3   80.79    3.30
  -4   1  -3   82.69    3.61
  -4   1  -3   79.54    3.23
   4   1   3   83.56    2.82
   4   1   3   76.75    3.27
  -5  -1  -3   17.14    1.62
   5  -1   3   16.35    1.53
   5  -1   3   14.59    1.18
  -5  -1  -3   15.34    1.68
   5   1   3   15.22    1.20
  -5   1  -3   19.27    1.92
   5   1   3   17.15    1.63
  -5   1  -3   15.82    1.58
   5  -2  -3   21.14    1.63
  -5  -2   3   21.27    1.41
  -5  -2   3   21.06    1.66
   5  -2  -3   20.92    2.06
  -5   2   3   20.11    1.80
   5   2  -3   19.48    2.05
   5   2  -3   20.28    1.28
  -5   2   3   18.53    1.39
   5   2  -3   19.82    1.53
   4  -2  -3   57.12    2.50
  -4  -2   3   55.86    2.46
  -4  -2   3   59.04    2.12
   4  -2  -3   54.61    2.96
   4   2  -3   56.16    3.00
   4   2  -3   56.20    2.33
  -4   2   3   56.80    2.22
  -4   2   3   60.08    2.83
   3  -2  -3  139.21    4.52
  -3  -2   3  145.25    3.83
  -3  -2   3  144.88    3.27
   3  -2  -3  142.46    3.93
  -3   2   3  143.92    4.25
   3   2  -3  149.27    3.72
   3   2  -3  138.74    4.36
  -3   2   3  141.80    3.60
   2  -2  -3    6.73    0.78
  -2  -2   3    5.66    0.46
   2  -2  -3    5.99    0.66
  -2  -2   3    6.18    0.64
  -2   2   3    5.92    0.60
   2   2  -3    6.84    0.72
  -2   2   3    5.87    0.71
   2   2  -3    5.42    0.55
  -1  -2   3  480.95    7.20
   1  -2  -3  477.97    8.33
   1  -2  -3  467.11    8.30
  -1  -2   3  481.96    7.99
   1   2  -3  464.84    7.98
  -1   2   3  487.15    8.64
   1   2  -3  455.40    7.75
   0  -2  -3   34.60    1.52
   0  -2   3   33.76    1.11
   0  -2  -3   34.60    1.52
   0  -2   3   36.66    1.26
   0   2   3   34.31    1.70
   0   2  -3   34.43    1.36
   0   2   3   33.86    1.51
   0   2  -3   34.33    1.49
   1  -2   3  336.46    5.78
  -1  -2  -3  340.51    6.56
  -1  -2  -3  334.71    6.70
   1  -2   3  339.93    5.81
   1   2   3  321.07    6.43
  -1   2  -3  339.66    6.23
  -1   2  -3  322.53    6.17
   1   2   3  340.58    6.61
   2  -2   3   11.19    0.70
  -2  -2  -3    9.53    0.98
   2  -2   3   11.51    0.85
  -2  -2  -3   10.36    0.71
  -2  -2  -3   10.20    0.96
   2   2   3   11.76    1.00
  -2   2  -3   10.92    0.94
  -2   2  -3    9.82    0.86
   2   2   3   10.23    0.90
  -3  -2  -3   98.88    2.57
   3  -2   3  104.22    3.23
  -3  -2  -3  105.69    3.71
   3  -2   3  103.34    2.69
  -3  -2  -3  103.75    3.51
  -3   2  -3  105.50    1.89
   3   2   3  102.60    3.19
   3   2   3   98.93    3.50
  -3   2  -3  101.49    3.55
  -3   2  -3  103.28    3.34
  -4  -2  -3   42.72    1.52
   4  -2   3   41.17    2.17
  -4  -2  -3   38.93    2.25
  -4  -2  -3   39.67    2.43
   4  -2   3   40.66    1.74
   4   2   3   38.47    1.91
   4   2   3   37.95    2.31
  -4   2  -3   39.10    2.18
  -4   2  -3   39.77    2.45
   5  -2   3   23.09    1.45
  -5  -2  -3   26.35    2.04
  -5  -2  -3   24.99    2.20
   5   2   3   22.28    2.37
  -5   2  -3   22.67    1.84
   5   2   3   25.33    1.65
  -5   2  -3   23.48    2.13
  -5  -3   3   11.45    1.19
  -5  -3   3   12.93    1.07
   5  -3  -3   13.66    1.31
   5  -3  -3   13.34    1.70
   5   3  -3   13.82    1.47
  -5   3   3   15.99    1.50
   5   3  -3   14.70    1.28
   5   3  -3   16.72    1.64
  -4  -3   3    7.34    0.68
   4  -3  -3    6.37    0.86
  -4  -3   3    6.76    0.81
   4  -3  -3    7.53    1.10
   4   3  -3    5.52    0.69
   4   3  -3    8.14    1.13
  -4   3   3    6.14    0.73
  -4   3   3    5.11    0.95
  -3  -3   3   56.38    1.78
   3  -3  -3   59.66    2.40
  -3  -3   3   59.94    2.16
   3  -3  -3   58.64    2.78
  -3   3   3   59.36    2.19
   3   3  -3   58.59    2.09
  -3   3   3   59.47    2.63
   3   3  -3   57.47    2.64
  -2  -3   3   70.75    1.72
   2  -3  -3   68.16    2.70
   2  -3  -3   70.33    2.48
   2   3  -3   66.47    2.37
  -2   3   3   75.02    3.42
   2   3  -3   69.75    2.11
  -2   3   3   70.27    2.61
   1  -3  -3  110.14    3.09
  -1  -3   3  114.12    2.34
   1  -3  -3  110.71    3.06
  -1  -3   3  106.49    2.00
   1   3  -3  104.46    2.57
  -1   3   3  110.02    3.01
  -1   3   3  112.44    3.29
   1   3  -3  107.31    2.75
   0  -3  -3  177.64    4.03
   0  -3  -3  172.77    4.04
   0   3  -3  170.05    3.58
   0   3   3  174.93    4.46
   0   3   3  175.16    4.13
   0   3  -3  169.93    3.80
   1  -3   3  124.03    2.30
  -1  -3  -3  128.18    3.48
  -1  -3  -3  126.32    3.43
  -1  -3  -3  123.69    3.11
   1  -3   3  118.96    2.45
  -1   3  -3  121.72    3.05
   1   3   3  117.50    3.36
   1   3   3  122.93    3.50
  -1   3  -3  124.01    3.05
  -2  -3  -3   26.70    1.58
   2  -3   3   25.56    0.96
  -2  -3  -3   25.79    1.22
  -2  -3  -3   26.15    1.62
   2  -3   3   24.56    1.17
  -2   3  -3   24.74    1.43
   2   3   3   23.52    1.44
  -2   3  -3   26.71    1.39
  -3  -3  -3   41.38    1.62
   3  -3   3   38.87    1.43
  -3  -3  -3   38.47    2.14
   3  -3   3   39.96    1.78
   3   3   3   38.50    2.13
  -3   3  -3   40.16    1.95
   3   3   3   36.22    1.87
  -3   3  -3   43.38    2.19
  -4  -3  -3    6.39    0.94
  -4  -3  -3    7.46    1.33
   4  -3   3    7.60    0.72
  -4  -3  -3    6.93    0.66
   4  -3   3    8.03    0.87
  -4   3  -3    6.83    0.90
   4   3   3    7.57    1.01
   4   3   3    6.36    0.82
  -4   3  -3    7.94    1.07
   5  -3   3    4.24    0.73
   5  -3   3    6.61    1.09
  -5  -3  -3    5.45    1.27
  -5  -3  -3    7.13    1.07
  -5   3  -3    3.06    1.01
   5   3   3    4.58    0.90
  -5  -4   3   12.01    1.53
   5  -4  -3   10.52    1.26
   5  -4  -3   15.88    1.62
  -5  -4   3    9.73    1.07
   5   4  -3   11.89    1.14
   5   4  -3   16.17    1.65
   5   4  -3   10.34    1.02
  -4  -4   3   20.64    1.30
  -4  -4   3   19.88    1.28
   4  -4  -3   19.45    1.48
   4  -4  -3   20.06    1.79
   4   4  -3   20.23    1.33
  -4   4   3   18.69    1.62
   4   4  -3   21.88    1.79
  -4   4   3   22.86    1.42
   4   4  -3   19.83    1.32
   3  -4  -3   62.55    2.50
  -3  -4   3   59.37    2.02
   3  -4  -3   59.66    2.80
  -3  -4   3   56.09    1.72
  -3   4   3   59.67    2.27
   3   4  -3   58.03    2.66
   3   4  -3   59.77    2.11
  -3   4   3   58.67    4.06
   2  -4  -3   59.49    2.32
   2  -4  -3   58.04    2.52
   2   4  -3   60.67    1.90
   2   4  -3   62.18    2.23
  -2   4   3   63.29    2.25
  -2   4   3   64.81    2.56
   1  -4  -3  114.28    3.26
   1  -4  -3  112.66    3.16
   1   4  -3  113.85    2.60
  -1   4   3  111.88    3.18
  -1   4   3  115.32    3.44
   1   4  -3  114.78    2.77
   0  -4  -3  116.85    3.25
   0  -4  -3  108.79    3.07
   0  -4  -3  104.73    2.96
   0   4   3  114.00    3.50
   0   4  -3  109.47    2.91
   0   4   3  111.25    3.21
   0   4  -3  113.66    2.83
  -1  -4  -3   56.78    1.99
  -1  -4  -3   55.32    2.17
  -1  -4  -3   57.43    2.15
  -1   4  -3   56.08    1.84
  -1   4  -3   52.70    1.82
   1   4   3   53.97    2.19
   2  -4   3   11.33    0.53
   2  -4   3   11.24    0.65
  -2  -4  -3   11.79    1.07
  -2  -4  -3   10.88    0.84
  -2  -4  -3    9.70    0.98
  -2   4  -3   12.52    0.89
   2   4   3   12.30    1.09
  -2   4  -3   11.67    0.97
   2   4   3   12.39    1.05
   3  -4   3   19.17    1.12
  -3  -4  -3   19.22    1.13
  -3  -4  -3   15.78    1.39
  -3  -4  -3   16.61    1.45
   3  -4   3   19.43    0.90
   3   4   3   20.23    1.63
  -3   4  -3   17.20    1.39
  -3   4  -3   19.96    1.29
   3   4   3   18.26    1.47
   4  -4   3   13.36    0.91
  -4  -4  -3   15.57    1.54
   4  -4   3   15.85    1.16
  -4  -4  -3   16.93    1.59
  -4  -4  -3   14.09    1.00
   4   4   3   13.83    1.21
  -4   4  -3   12.90    1.46
  -4   4  -3   16.69    1.35
   4   4   3   14.61    1.64
   5  -4   3   12.92    1.33
  -5  -4  -3   13.18    0.94
  -5  -4  -3   12.07    1.67
   5  -4   3   11.63    1.01
   5   4   3   13.49    1.22
  -5   4  -3   12.17    1.67
  -5  -5   3   16.20    1.32
   5  -5  -3   16.06    1.88
   5  -5  -3   17.59    1.57
  -5  -5   3   17.95    1.27
  -5   5   3   19.27    1.87
   5   5  -3   17.93    1.44
  -4  -5   3    8.79    0.73
   4  -5  -3   10.73    1.34
  -4  -5   3   10.89    0.87
   4  -5  -3   10.03    1.12
  -4   5   3    8.32    0.94
  -4   5   3   11.02    1.27
   4   5  -3   11.69    1.00
   4   5  -3   10.24    1.06
   3  -5  -3  128.23    3.81
   3  -5  -3  115.58    4.06
   3   5  -3  120.99    3.94
  -3   5   3  120.63    4.03
  -3   5   3  114.02    3.41
   3   5  -3  116.58    3.41
   3   5  -3  119.94    3.17
   2  -5  -3   42.11    2.12
   2  -5  -3   42.17    1.90
  -2   5   3   43.78    2.13
   2   5  -3   42.22    1.79
  -2   5   3   39.82    1.83
   2   5  -3   40.94    1.48
   1  -5  -3  132.43    3.63
   1  -5  -3  130.16    3.45
   1  -5  -3  130.18    3.49
   1   5  -3  132.41    2.79
  -1   5   3  133.13    3.86
  -1   5   3  136.40    3.65
   1   5  -3  132.51    2.98
   0  -5  -3   25.25    1.34
   0  -5  -3   25.48    1.31
   0  -5  -3   26.67    1.39
   0   5   3   25.64    1.44
   0   5  -3   26.96    1.19
   0   5  -3   25.29    1.02
   0   5   3   24.86    1.59
  -1  -5  -3   77.04    2.50
  -1  -5  -3   82.61    2.67
  -1  -5  -3   77.69    2.49
  -1   5  -3   77.46    2.20
   1   5   3   82.89    2.84
  -1   5  -3   78.02    2.05
  -1   5  -3   79.17    2.24
  -2  -5  -3   28.00    1.61
  -2  -5  -3   29.51    1.68
  -2  -5  -3   29.77    1.49
   2   5   3   30.42    1.77
  -2   5  -3   28.18    1.48
   2   5   3   31.15    1.78
  -2   5  -3   29.71    1.01
  -2   5  -3   29.15    1.42
  -3  -5  -3   86.60    3.54
   3  -5   3   85.40    2.13
  -3  -5  -3   83.56    3.26
  -3  -5  -3   84.06    3.28
  -3   5  -3   84.42    2.89
  -3   5  -3   83.15    3.18
   3   5   3   82.89    3.15
   3   5   3   84.56    3.34
  -4  -5  -3    7.90    1.07
   4  -5   3    7.50    0.64
  -4  -5  -3    6.39    0.77
   4  -5   3    7.12    0.76
  -4  -5  -3    9.96    1.02
   4   5   3    7.89    1.07
  -4   5  -3    6.51    0.93
   4   5   3    8.43    0.95
  -4   5  -3    7.83    1.13
  -5  -5  -3   26.34    1.56
  -5  -5  -3   22.49    2.11
  -5  -5  -3   26.32    2.32
   5  -5   3   27.37    1.42
   5  -5   3   27.83    1.73
  -5   5  -3   27.07    2.66
   5   5   3   26.14    1.81
   4  -6  -3   69.81    3.09
   4  -6  -3   64.98    2.85
   4  -6  -3   68.39    2.45
   4   6  -3   68.46    3.21
  -4   6   3   64.96    3.22
   4   6  -3   66.83    2.69
  -4   6   3   69.12    2.74
   4   6  -3   66.05    2.49
   3  -6  -3   -0.07    0.38
   3  -6  -3    0.34    0.28
   3  -6  -3    0.30    0.29
   3   6  -3    0.57    0.26
  -3   6   3    0.60    0.23
  -3   6   3    0.62    0.28
   3   6  -3    0.47    0.37
   3   6  -3    0.43    0.22
   2  -6  -3   87.23    2.83
   2  -6  -3   82.71    3.03
   2  -6  -3   88.44    2.82
  -2   6   3   85.15    2.87
  -2   6   3   87.71    3.19
   2   6  -3   84.45    2.26
   2   6  -3   87.71    2.79
   2   6  -3   85.77    2.65
   1  -6  -3   57.84    2.25
   1  -6  -3   57.61    2.19
   1  -6  -3   58.67    2.12
   1   6  -3   55.94    2.05
   1   6  -3   55.06    1.56
  -1   6   3   56.18    2.27
   1   6  -3   54.98    1.68
  -1   6   3   55.53    2.42
   0  -6  -3   69.73    2.32
   0  -6  -3   71.06    2.44
   0  -6  -3   68.57    2.30
   0   6  -3   72.83    2.03
   0   6  -3   68.24    1.79
   0   6   3   70.25    2.84
   0   6  -3   71.98    2.35
  -1  -6  -3   73.50    2.37
  -1  -6  -3   73.16    2.55
  -1  -6  -3   72.76    2.48
  -1   6  -3   72.50    2.09
   1   6   3   72.05    2.72
  -1   6  -3   74.12    2.09
  -1   6  -3   73.87    2.07
  -2  -6  -3  105.52    3.15
  -2  -6  -3  104.46    3.31
  -2  -6  -3  105.72    3.20
   2   6   3  107.32    3.62
  -2   6  -3  101.57    3.06
   2   6   3  100.97    3.53
  -2   6  -3  102.50    2.33
  -2   6  -3  105.09    2.91
  -3  -6  -3    4.75    0.91
  -3  -6  -3    5.70    0.83
  -3  -6  -3    5.72    0.71
   3   6   3    4.27    0.85
  -3   6  -3    6.36    0.73
  -3   6  -3    4.76    0.90
   3   6   3    6.18    0.88
  -4  -6  -3   49.08    2.18
  -4  -6  -3   50.89    2.74
  -4  -6  -3   50.24    2.56
   4   6   3   46.59    2.78
  -4   6  -3   51.40    2.84
   4   6   3   50.14    2.49
  -4   6  -3   49.12    2.48
   4  -7  -3    4.66    0.90
   4  -7  -3    4.92    0.97
   4  -7  -3    4.64    0.69
   4   7  -3    5.23    0.69
  -4   7   3    4.30    1.00
   4   7  -3    5.49    1.08
   3  -7  -3   51.67    2.46
   3  -7  -3   54.99    2.32
   3   7  -3   55.19    2.00
  -3   7   3   53.27    2.35
  -3   7   3   53.56    2.73
   3   7  -3   56.99    2.58
   3   7  -3   56.40    2.38
   2  -7  -3   56.26    2.33
   2  -7  -3   63.52    3.19
   2  -7  -3   59.01    2.19
  -2   7   3   57.75    2.36
   2   7  -3   53.10    2.09
   2   7  -3   56.50    2.28
  -2   7   3   55.85    2.57
   2   7  -3   56.27    1.76
   1  -7  -3  119.41    3.32
   1  -7  -3  121.29    3.14
   1  -7  -3  119.22    4.86
  -1   7   3  120.19    3.60
  -1   7   3  117.62    3.86
   1   7  -3  119.61    3.34
   1   7  -3  121.30    2.69
   1   7  -3  122.66    3.01
   0  -7  -3   35.97    1.56
   0  -7  -3   35.82    1.50
   0  -7  -3   36.08    1.78
   0   7  -3   35.55    1.55
   0   7   3   33.66    1.99
   0   7   3   34.88    1.84
  -1  -7  -3  110.89    2.88
  -1  -7  -3  111.32    3.40
  -1  -7  -3  111.32    3.03
  -1   7  -3  109.45    2.87
  -1   7  -3  112.85    2.68
  -1   7  -3  110.15    2.68
   1   7   3  112.91    3.62
  -2  -7  -3   61.09    2.32
  -2  -7  -3   62.63    2.17
  -2  -7  -3   56.70    2.34
  -2   7  -3   61.40    2.10
   2   7   3   61.60    2.69
   2   7   3   62.26    2.71
  -2   7  -3   61.29    1.79
  -2   7  -3   61.75    2.29
  -3  -7  -3   49.87    2.14
  -3  -7  -3   48.09    2.19
  -3  -7  -3   44.81    2.21
   3   7   3   45.25    2.52
   3   7   3   45.78    2.37
  -3   7  -3   48.52    2.15
  -3   7  -3   45.63    2.31
  -4  -7  -3    4.80    1.12
  -4  -7  -3    5.55    0.95
  -4  -7  -3    4.06    0.76
  -4   7  -3    4.49    1.06
   4   7   3    7.28    0.87
   4  -8  -3    2.46    0.45
   4   8  -3    1.98    0.46
  -4   8   3    1.77    0.56
   4   8  -3    1.16    0.82
   3  -8  -3   13.63    1.26
   3  -8  -3   12.33    1.00
   3  -8  -3   10.30    0.99
   3   8  -3   11.91    0.89
  -3   8   3   14.64    1.38
  -3   8   3   12.32    1.17
   2  -8  -3   29.40    1.48
   2  -8  -3   29.83    1.37
   2  -8  -3   29.70    1.64
  -2   8   3   30.93    1.71
   2   8  -3   32.44    1.77
   2   8  -3   30.76    1.24
   2   8  -3   30.84    1.53
  -2   8   3   32.51    1.98
   1  -8  -3    4.76    0.70
  -1   8   3    7.92    1.02
   1   8  -3    4.73    0.65
  -1   8   3    4.61    0.68
   0  -8  -3   39.98    1.96
   0   8   3   41.97    2.08
   0   8  -3   39.00    1.74
   0   8   3   44.00    2.29
  -1  -8  -3   23.05    1.51
  -1   8  -3   21.74    1.17
  -1   8  -3   23.65    1.09
   1   8   3   22.24    1.55
  -2  -8  -3   24.29    1.14
  -2  -8  -3   24.90    1.61
  -2   8  -3   27.57    1.19
   2   8   3   27.41    1.81
  -2   8  -3   26.92    1.44
   2   8   3   22.42    1.71
  -2   8  -3   27.04    1.36
  -3  -8  -3    4.00    0.61
  -3  -8  -3    5.85    0.99
  -3  -8  -3    4.00    0.66
   3   8   3    3.27    0.83
  -3   8  -3    6.93    1.03
   3  -9  -3    1.12    0.56
  -3   9   3    1.15    0.53
  -3   9   3    1.74    0.82
   3   9  -3    2.55    0.51
   2  -9  -3    8.89    0.90
  -2   9   3    8.02    0.94
   2   9  -3    8.35    0.62
  -2   9   3    8.45    1.06
   1  -9  -3   35.36    1.87
  -1   9   3   33.92    1.87
   1   9  -3   36.04    1.89
  -1   9   3   33.70    2.07
   0  -9  -3   26.29    1.67
   0   9  -3   26.31    1.50
   0   9   3   26.01    1.63
   0   9   3   28.70    1.90
  -1  -9  -3   40.03    2.11
  -1   9  -3   42.60    1.82
   1   9   3   44.06    2.26
  -2  -9  -3   -0.13    0.33
   2   9   3    0.21    0.32
   2   9   3    0.48    0.43
  -2   9  -3    0.79    0.21
  -2   9  -3    2.12    0.42
  -3  -9  -3    7.66    0.94
   3   9   3    9.16    1.17
   3   9   3    5.58    1.02
  -3   9  -3    8.87    0.87
  -3   9  -3    5.21    1.05
   2 -10  -3    5.27    0.94
   2  10  -3    5.39    0.57
  -2  10   3    6.48    0.80
  -2  10   3    7.86    1.12
   1 -10  -3   35.26    1.94
  -1  10   3   32.26    2.08
  -1  10   3   31.84    1.92
   0 -10  -3    3.76    0.92
   0  10   3    1.73    0.58
   0  10  -3    2.54    0.49
   0  10   3    1.13    0.56
  -1 -10  -3   21.29    1.63
   1  10   3   26.52    1.78
  -1  10  -3   23.13    1.36
   1  10   3   20.69    1.66
  -2 -10  -3   19.78    1.54
  -2  10  -3   21.45    1.13
   2  10   3   19.95    1.62
  -2  10  -3   18.93    1.12
   2  10   3   19.13    1.59
  -2  10  -3   18.48    1.28
  -5   0   4   -0.63    0.28
  -5   0   4   -0.08    0.36
  -4   0   4   36.39    2.20
   4   0  -4   34.21    2.00
   4   0  -4   27.65    2.24
  -4   0   4   35.88    1.73
   3   0  -4   -0.07    0.28
  -3   0   4    0.15    0.25
   3   0  -4    0.33    0.24
  -3   0   4    0.02    0.14
  -2   0   4  150.51    4.27
   2   0  -4  154.91    4.35
  -2   0   4  152.15    4.20
   2   0  -4  152.94    4.09
   1   0  -4    0.17    0.13
  -1   0   4    0.34    0.17
  -1   0   4   -0.21    0.16
   0   0  -4  964.01   15.64
   0   0  -4  976.29   15.53
   0   0   4 1000.00   15.11
   1   0   4    0.17    0.19
   1   0   4    0.24    0.15
  -1   0  -4    0.12    0.19
  -2   0  -4  221.21    5.90
   2   0   4  223.53    5.31
   2   0   4  220.04    5.03
  -2   0  -4  216.60    5.53
   3   0   4    0.03    0.14
   3   0   4    0.13    0.20
  -3   0  -4   -0.09    0.10
  -3   0  -4    0.82    0.28
  -3   0  -4   -0.08    0.25
   4   0   4   26.41    1.93
   4   0   4   23.83    1.49
  -4   0  -4   23.59    1.95
  -4   0  -4   26.53    1.06
  -5   0  -4    0.86    0.59
   5   0   4   -0.38    0.25
  -5  -1   4   13.11    1.43
  -5  -1   4   11.28    1.11
   5  -1  -4   12.84    1.84
   5   1  -4   10.77    2.07
  -5   1   4   12.42    1.47
   4  -1  -4   13.49    1.81
   4  -1  -4   15.52    1.35
  -4  -1   4   15.32    1.40
  -4  -1   4   17.29    1.15
   4   1  -4   15.21    1.61
   4   1  -4   15.35    1.33
  -4   1   4   14.63    1.10
  -4   1   4   18.11    1.57
   3  -1  -4   80.34    3.43
  -3  -1   4   80.53    3.01
   3  -1  -4   74.45    2.88
  -3  -1   4   77.18    2.39
  -3   1   4   75.39    2.55
  -3   1   4   76.71    3.30
   3   1  -4   76.23    3.27
   2  -1  -4    2.53    0.58
   2  -1  -4    2.34    0.55
  -2  -1   4    2.55    0.58
  -2  -1   4    3.25    0.43
   2   1  -4    2.37    0.51
  -2   1   4    3.15    0.69
  -2   1   4    3.33    0.45
   2   1  -4    2.46    0.57
   1  -1  -4  168.50    4.31
   1  -1  -4  164.80    4.30
  -1  -1   4  169.85    4.36
  -1  -1   4  168.76    3.66
   1   1  -4  164.95    4.20
  -1   1   4  178.79    4.68
   1   1  -4  165.15    4.12
  -1   1   4  174.42    4.04
   0  -1   4   87.10    2.49
   0  -1  -4   90.11    2.97
   0  -1  -4   92.66    2.97
   0  -1   4   88.49    2.71
   0   1   4   90.05    2.79
   0   1  -4   91.82    2.96
   0   1   4   88.99    3.21
   0   1  -4   92.58    2.88
  -1  -1  -4   92.54    3.09
   1  -1   4   93.83    2.75
  -1  -1  -4   95.92    3.40
   1  -1   4   93.36    2.76
   1   1   4   93.84    2.99
  -1   1  -4   92.44    3.22
  -1   1  -4   90.63    3.00
   1   1   4   92.31    3.04
   2  -1   4   19.38    1.16
   2  -1   4   17.84    1.25
  -2  -1  -4   20.51    1.51
  -2  -1  -4   17.30    1.46
   2   1   4   18.90    1.31
   2   1   4   19.33    1.36
  -2   1  -4   16.53    1.28
  -2   1  -4   20.60    1.47
   3  -1   4   63.02    2.26
   3  -1   4   62.72    2.63
  -3  -1  -4   61.22    1.95
  -3  -1  -4   59.55    2.90
  -3   1  -4   65.71    2.99
  -3   1  -4   63.45    1.79
   3   1   4   63.06    2.83
  -3   1  -4   62.79    2.83
   3   1   4   60.80    2.75
  -4  -1  -4   18.82    1.71
  -4  -1  -4   18.29    0.98
   4  -1   4   17.09    1.21
   4  -1   4   17.17    1.52
   4   1   4   16.54    1.59
   4   1   4   19.59    1.36
  -4   1  -4   18.54    1.68
  -5  -1  -4    4.07    1.14
   5  -1   4    5.22    1.17
   5  -1   4    3.78    0.73
  -5   1  -4    5.15    1.31
  -5  -2   4    3.03    0.64
  -5  -2   4    5.00    1.04
   5  -2  -4    3.26    1.10
  -5   2   4    4.41    1.51
   5   2  -4    3.59    0.90
   4  -2  -4   57.67    2.73
  -4  -2   4   58.10    2.17
  -4   2   4   56.02    2.89
   4   2  -4   60.02    3.20
   4   2  -4   61.76    2.68
   3  -2  -4    1.55    0.57
  -3  -2   4    1.38    0.49
  -3  -2   4    2.17    0.31
   3  -2  -4    1.23    0.39
  -3   2   4    1.48    0.50
   3   2  -4    1.63    0.74
  -3   2   4    1.52    0.37
   3   2  -4    1.99    0.48
   2  -2  -4  107.37    3.43
  -2  -2   4  106.46    2.58
   2  -2  -4  110.97    3.69
  -2  -2   4  112.13    3.34
   2   2  -4  110.46    3.24
   2   2  -4  107.46    3.55
  -2   2   4  109.21    3.65
  -2   2   4  105.19    3.13
   1  -2  -4    7.59    0.80
  -1  -2   4    7.59    0.56
  -1  -2   4    6.91    0.74
   1   2  -4    7.45    0.72
  -1   2   4    7.38    0.78
   1   2  -4    7.89    0.73
  -1   2   4    7.67    0.89
   0  -2  -4   45.34    2.02
   0  -2   4   49.19    1.75
   0  -2   4   47.90    1.59
   0  -2  -4   45.85    2.04
   0   2   4   45.11    2.28
   0   2   4   48.76    2.05
   0   2  -4   48.08    1.94
   0   2  -4   46.65    2.00
  -1  -2  -4   54.63    2.33
   1  -2   4   53.83    1.82
  -1  -2  -4   53.76    2.52
   1  -2   4   52.85    1.84
   1   2   4   49.71    2.18
  -1   2  -4   54.75    2.38
  -1   2  -4   54.49    2.20
  -2  -2  -4  104.74    3.76
  -2  -2  -4  104.91    2.94
  -2  -2  -4  108.02    3.69
   2  -2   4  112.51    2.87
   2  -2   4  112.77    3.16
   2   2   4  109.77    3.53
  -2   2  -4  107.61    3.49
  -2   2  -4  107.91    3.55
   2   2   4  109.22    3.60
   3  -2   4    0.55    0.35
  -3  -2  -4    0.12    0.16
  -3  -2  -4    0.06    0.35
   3  -2   4    0.42    0.21
  -3  -2  -4    0.87    0.46
   3   2   4    0.37    0.29
  -3   2  -4    0.19    0.27
  -3   2  -4   -0.04    0.32
   3   2   4    0.81    0.32
  -3   2  -4    0.33    0.18
   4  -2   4   51.37    2.06
   4  -2   4   48.61    2.47
  -4  -2  -4   50.87    1.85
  -4  -2  -4   48.77    2.90
   4   2   4   52.23    2.80
  -4   2  -4   52.48    2.93
   4   2   4   49.65    2.38
   5  -2   4    9.44    0.99
   5  -2   4    8.12    1.30
  -5  -2  -4    7.65    1.55
  -5  -2  -4    9.70    0.75
  -5   2  -4   11.22    1.85
   5   2   4   10.18    1.09
  -5  -3   4   15.69    1.32
  -5  -3   4   14.02    1.38
   5  -3  -4   18.51    1.72
   5   3  -4   17.14    1.48
  -5   3   4   15.34    1.70
  -4  -3   4   29.74    1.44
   4  -3  -4   29.30    2.34
  -4  -3   4   28.29    1.77
   4  -3  -4   28.24    1.91
  -4   3   4   28.91    1.66
  -4   3   4   26.88    2.03
   4   3  -4   28.67    1.76
   4   3  -4   34.23    2.23
   3  -3  -4   47.29    2.33
  -3  -3   4   44.06    2.04
  -3  -3   4   49.01    1.68
   3  -3  -4   46.35    2.59
  -3   3   4   47.48    2.06
   3   3  -4   54.62    3.20
   3   3  -4   50.01    2.54
  -3   3   4   49.21    2.56
   2  -3  -4   90.96    3.35
  -2  -3   4   88.10    2.75
   2  -3  -4   91.78    3.21
  -2  -3   4   90.42    2.16
  -2   3   4   87.34    3.33
   2   3  -4   91.53    2.85
  -2   3   4   93.24    2.97
   1  -3  -4    1.62    0.49
   1  -3  -4    1.38    0.44
  -1  -3   4    0.78    0.19
  -1  -3   4    1.31    0.51
   1   3  -4    2.10    0.47
   1   3  -4    1.00    0.35
  -1   3   4    0.63    0.28
  -1   3   4    0.52    0.32
   0  -3   4   85.57    1.96
   0  -3  -4   84.13    2.93
   0  -3   4   89.86    2.16
   0   3  -4   89.73    2.70
   0   3   4   89.30    3.37
   0   3   4   94.12    3.05
   0   3  -4   85.45    2.80
  -1  -3  -4   14.40    1.19
   1  -3   4   14.90    0.77
   1  -3   4   13.87    0.78
  -1  -3  -4   13.55    1.17
   1   3   4   13.79    1.20
  -1   3  -4   14.58    1.17
  -1   3  -4   12.72    1.03
   1   3   4   15.69    1.21
  -2  -3  -4   79.08    3.20
   2  -3   4   81.84    2.47
  -2  -3  -4   79.95    2.54
  -2  -3  -4   82.86    3.18
   2  -3   4   83.36    2.14
  -2   3  -4   77.73    2.86
  -2   3  -4   78.31    2.94
   2   3   4   78.89    3.08
   2   3   4   81.65    3.11
  -3  -3  -4   10.10    0.84
  -3  -3  -4   11.09    1.28
   3  -3   4    9.91    0.75
  -3  -3  -4    9.86    1.13
   3  -3   4    8.58    1.58
   3   3   4   10.41    1.10
   3   3   4    9.02    1.00
  -3   3  -4   10.07    1.10
  -3   3  -4    7.48    0.89
  -4  -3  -4   18.59    1.12
  -4  -3  -4   18.03    1.80
   4  -3   4   19.00    1.16
  -4  -3  -4   19.15    1.88
   4  -3   4   19.40    1.41
   4   3   4   18.93    1.48
   4   3   4   19.96    1.69
  -4   3  -4   21.25    1.83
  -4   3  -4   18.42    2.42
  -5  -3  -4   15.65    1.99
  -5  -3  -4   16.25    1.08
   5  -3   4   13.79    1.50
   5  -3   4   14.77    1.15
   5   3   4   14.92    1.40
  -5   3  -4   12.80    1.71
  -5  -4   4   18.78    1.56
  -5  -4   4   16.69    1.26
   5  -4  -4   15.20    1.63
  -5   4   4   19.92    1.79
   5   4  -4   15.28    1.42
   4  -4  -4   19.56    1.91
  -4  -4   4   18.46    1.13
  -4  -4   4   17.73    1.32
   4  -4  -4   16.41    1.53
  -4   4   4   18.87    1.39
   4   4  -4   20.51    1.48
   4   4  -4   17.47    1.70
  -4   4   4   18.62    1.68
   3  -4  -4  100.00    3.98
   3  -4  -4  100.90    3.60
  -3  -4   4  100.98    2.97
  -3  -4   4  101.83    2.46
   3   4  -4   97.52    3.70
  -3   4   4   99.08    3.27
  -3   4   4   97.46    3.78
   2  -4  -4   84.86    3.06
   2  -4  -4   82.39    3.27
   2   4  -4   86.60    2.70
  -2   4   4   81.48    2.86
   2   4  -4   81.13    3.00
   1  -4  -4   25.75    1.55
   1  -4  -4   23.72    1.50
  -1   4   4   24.26    1.69
   1   4  -4   26.19    1.37
  -1   4   4   25.05    1.52
   1   4  -4   25.35    1.31
   0  -4  -4   71.45    2.67
   0  -4  -4   70.16    2.57
   0   4  -4   67.85    2.26
   0   4   4   71.59    3.06
   0   4  -4   67.47    2.41
   0   4   4   66.89    2.64
  -1  -4  -4   25.48    1.58
  -1  -4  -4   24.76    1.58
  -1  -4  -4   24.99    1.43
   1   4   4   26.27    1.72
  -1   4  -4   24.98    1.37
   1   4   4   26.64    1.66
  -2  -4  -4   49.91    2.44
  -2  -4  -4   51.51    2.02
   2  -4   4   52.72    1.61
  -2  -4  -4   49.42    2.45
   2   4   4   49.23    2.73
  -2   4  -4   50.88    2.27
  -2   4  -4   50.45    2.22
   2   4   4   47.74    2.40
  -3  -4  -4   71.25    2.94
  -3  -4  -4   74.26    3.34
   3  -4   4   74.50    2.41
   3  -4   4   72.07    2.00
  -3  -4  -4   71.17    3.22
  -3   4  -4   75.98    3.13
   3   4   4   73.15    3.06
  -3   4  -4   73.68    3.01
   3   4   4   72.37    3.17
  -4  -4  -4   10.67    0.95
  -4  -4  -4   10.22    1.46
   4  -4   4    9.98    1.06
  -4  -4  -4   11.44    1.38
   4  -4   4   12.34    0.86
   4   4   4   13.14    1.39
   4   4   4   11.26    1.21
  -4   4  -4   11.17    1.32
  -4   4  -4   14.83    1.47
  -5  -4  -4   10.50    0.99
   5  -4   4    9.53    1.00
   5  -4   4   13.53    1.26
  -5  -4  -4   12.44    1.65
  -5   4  -4   15.27    1.65
  -4  -5   4   19.76    1.18
   4  -5  -4   22.87    1.85
   4  -5  -4   23.07    1.77
   4   5  -4   19.40    2.13
   4   5  -4   19.34    1.44
  -4   5   4   20.44    1.77
   3  -5  -4   30.25    1.90
   3  -5  -4   29.18    1.95
   3   5  -4   28.85    1.92
  -3   5   4   28.87    1.72
  -3   5   4   27.85    2.01
   2  -5  -4   74.34    3.13
   2  -5  -4   78.54    2.98
   2   5  -4   77.91    2.71
  -2   5   4   73.75    3.18
  -2   5   4   74.60    2.83
   2   5  -4   76.01    2.47
   1  -5  -4   71.96    2.80
   1  -5  -4   72.62    2.73
   1   5  -4   66.22    2.20
  -1   5   4   68.75    2.70
   1   5  -4   69.98    2.32
  -1   5   4   71.28    3.08
   0  -5  -4  167.47    4.46
   0  -5  -4  171.15    4.40
   0  -5  -4  175.69    4.48
   0   5   4  164.21    5.06
   0   5   4  159.96    4.55
   0   5  -4  175.01    4.17
   0   5  -4  167.81    3.86
  -1  -5  -4   44.77    2.17
  -1  -5  -4   44.08    2.07
  -1   5  -4   43.20    1.88
  -1   5  -4   45.51    1.88
   1   5   4   44.22    2.23
   1   5   4   43.07    2.33
  -2  -5  -4   43.57    2.25
  -2  -5  -4   44.73    1.99
  -2  -5  -4   47.24    2.38
  -2   5  -4   44.85    2.11
   2   5   4   41.28    2.32
   2   5   4   42.28    2.32
  -2   5  -4   42.67    2.05
  -3  -5  -4   25.04    1.87
  -3  -5  -4   23.33    1.76
  -3  -5  -4   25.91    1.52
  -3   5  -4   24.31    1.76
  -3   5  -4   23.41    0.77
  -3   5  -4   26.76    1.68
   3   5   4   25.38    1.83
   3   5   4   24.45    2.00
  -4  -5  -4   13.32    1.56
   4  -5   4   14.22    0.87
  -4  -5  -4   15.66    1.16
  -4  -5  -4   13.80    1.43
   4  -5   4   13.32    1.04
   4   5   4   17.16    1.56
  -4   5  -4   14.20    1.56
  -4   5  -4   13.22    1.40
   4  -6  -4    8.46    1.45
   4  -6  -4    6.87    1.20
   4   6  -4    7.68    0.91
  -4   6   4    7.01    1.33
   4   6  -4   10.19    1.49
   3  -6  -4   36.64    2.37
   3  -6  -4   38.58    2.16
   3   6  -4   37.26    2.16
  -3   6   4   38.93    2.03
  -3   6   4   39.17    2.46
   3   6  -4   36.02    1.77
   3   6  -4   39.97    2.02
   2  -6  -4   18.70    1.57
   2  -6  -4   19.87    1.40
   2  -6  -4   17.72    1.37
   2   6  -4   20.25    1.29
  -2   6   4   20.95    1.44
   2   6  -4   19.19    1.18
   2   6  -4   20.45    1.29
  -2   6   4   18.70    1.58
   1  -6  -4  136.35    3.99
   1  -6  -4  137.96    4.13
   1  -6  -4  133.96    3.93
   1   6  -4  136.29    3.33
  -1   6   4  140.25    4.59
  -1   6   4  142.24    4.19
   1   6  -4  134.11    3.40
   0  -6  -4    0.24    0.27
   0  -6  -4   -0.24    0.19
   0  -6  -4    0.05    0.25
   0   6   4    0.66    0.22
   0   6  -4    0.39    0.23
   0   6   4    0.26    0.22
  -1  -6  -4   29.24    1.64
  -1  -6  -4   31.99    1.80
  -1  -6  -4   27.25    1.58
   1   6   4   30.45    1.89
  -1   6  -4   28.32    1.45
  -1   6  -4   30.55    1.53
  -1   6  -4   30.72    1.36
   1   6   4   29.77    1.95
  -2  -6  -4   31.11    1.70
  -2  -6  -4   33.46    1.96
  -2  -6  -4   32.29    1.78
   2   6   4   32.79    2.07
  -2   6  -4   33.21    1.75
   2   6   4   29.87    1.97
  -2   6  -4   32.64    1.71
  -2   6  -4   31.56    1.22
  -3  -6  -4    4.77    0.97
  -3  -6  -4    6.73    1.15
  -3  -6  -4    7.50    0.76
   3   6   4    5.76    1.07
  -3   6  -4    5.24    0.37
   3   6   4    7.56    0.94
  -3   6  -4    7.13    0.88
  -3   6  -4    6.12    0.83
  -4  -6  -4   21.23    1.44
  -4  -6  -4   18.60    1.90
  -4  -6  -4   19.06    1.77
  -4   6  -4   18.35    1.75
   4   6   4   20.82    1.67
  -4   6  -4   20.59    1.90
   4  -7  -4   18.03    1.40
   4  -7  -4   14.75    1.56
  -4   7   4   17.85    1.82
   4   7  -4   20.88    1.90
   4   7  -4   18.31    1.43
   3  -7  -4    1.65    0.62
   3  -7  -4    1.68    0.57
   3   7  -4    2.06    0.55
  -3   7   4    2.18    0.58
   3   7  -4    3.64    0.54
  -3   7   4    1.93    0.70
   2  -7  -4   55.73    2.66
   2  -7  -4   56.35    2.46
   2  -7  -4   59.29    2.50
   2   7  -4   56.64    2.08
   2   7  -4   57.35    2.42
  -2   7   4   56.64    2.91
   2   7  -4   55.49    2.20
  -2   7   4   56.32    2.51
   1  -7  -4   24.36    1.49
   1  -7  -4   24.30    1.60
   1  -7  -4   24.46    1.53
   1   7  -4   23.85    1.20
  -1   7   4   22.53    1.83
   1   7  -4   23.56    1.44
  -1   7   4   26.28    1.67
   1   7  -4   21.25    1.16
   0  -7  -4   55.76    2.40
   0  -7  -4   60.73    3.65
   0  -7  -4   54.76    2.30
   0   7  -4   57.31    2.14
   0   7  -4   51.65    1.94
   0   7   4   55.05    2.92
   0   7  -4   52.26    1.85
   0   7   4   57.58    2.59
  -1  -7  -4    9.35    0.99
  -1  -7  -4    9.98    0.95
  -1  -7  -4   11.29    1.03
   1   7   4   12.81    1.32
  -1   7  -4    9.55    0.75
  -1   7  -4    9.47    0.85
   1   7   4   10.84    1.11
  -1   7  -4   10.43    0.87
  -2  -7  -4   34.96    1.86
  -2  -7  -4   33.30    1.88
  -2  -7  -4   36.23    1.97
  -2   7  -4   34.53    1.83
   2   7   4   36.21    2.23
  -2   7  -4   33.93    1.32
  -2   7  -4   32.97    1.72
   2   7   4   31.79    2.15
  -3  -7  -4   10.08    1.18
  -3  -7  -4   10.20    1.91
  -3  -7  -4   11.35    1.09
  -3   7  -4    9.63    0.52
  -3   7  -4   11.40    1.10
   3   7   4    9.28    1.22
  -3   7  -4    9.13    1.15
   3   7   4   12.00    1.31
   3  -8  -4   25.43    1.62
   3  -8  -4   26.19    1.69
   3  -8  -4   23.51    1.78
  -3   8   4   20.68    2.50
   3   8  -4   23.68    1.41
   3   8  -4   24.04    1.76
   2  -8  -4    2.54    0.67
   2  -8  -4    3.85    0.82
   2  -8  -4    2.50    0.71
  -2   8   4    3.61    0.80
   2   8  -4    4.06    0.53
  -2   8   4    2.95    0.79
   2   8  -4    2.79    0.58
   1  -8  -4    8.38    0.96
   1  -8  -4    7.80    1.04
   1  -8  -4    9.41    0.94
   1   8  -4   10.46    0.75
  -1   8   4   10.38    1.10
   1   8  -4    8.60    0.92
  -1   8   4    9.19    1.23
   0  -8  -4   10.61    0.98
   0  -8  -4    8.32    0.89
   0  -8  -4    9.27    0.98
   0   8   4    8.80    1.18
   0   8  -4   10.73    0.79
   0   8  -4    9.89    0.76
   0   8  -4    8.61    0.84
   0   8   4    8.42    1.03
  -1  -8  -4   12.64    1.11
  -1  -8  -4   13.26    1.22
  -1  -8  -4   11.40    1.03
   1   8   4   13.02    1.25
  -1   8  -4   13.11    0.96
   1   8   4   14.37    1.39
  -1   8  -4   13.46    0.98
  -2  -8  -4    7.63    0.77
  -2  -8  -4    5.15    0.69
   2   8   4    7.79    1.03
   2   8   4    7.25    0.99
  -2   8  -4    8.17    0.72
  -2   8  -4    5.37    0.54
  -2   8  -4    6.51    0.80
  -3  -8  -4   27.91    1.67
  -3  -8  -4   23.35    1.71
  -3  -8  -4   22.45    1.75
  -3   8  -4   26.62    0.94
  -3   8  -4   28.38    1.88
   3   8   4   23.53    2.12
  -3   8  -4   25.23    1.72
   2  -9  -4   23.83    1.63
   2  -9  -4   24.83    1.37
   2  -9  -4   20.17    1.42
   2   9  -4   23.77    1.31
  -2   9   4   23.38    2.12
   1  -9  -4   -0.65    0.26
   1   9  -4    1.34    0.45
  -1   9   4   -0.47    0.47
  -1   9   4   -0.25    0.31
   0  -9  -4   11.50    1.11
   0   9  -4   12.83    1.05
   0   9   4    7.29    1.14
   0   9   4    8.01    1.47
  -1  -9  -4    8.10    0.96
   1   9   4    5.97    1.22
   1   9   4    7.78    1.02
  -1   9  -4    6.89    0.76
  -1   9  -4    6.98    0.77
  -2  -9  -4   46.97    2.40
  -2   9  -4   47.73    2.10
   2   9   4   42.73    2.61
  -2   9  -4   45.20    2.02
  -2   9  -4   41.16    1.66
   0 -10  -4    0.83    0.48
   0  10   4    2.00    0.69
   0  10   4    2.49    0.68
  -5   0   5   11.97    1.45
  -4   0   5   -0.39    0.23
  -4   0   5    0.29    0.38
  -3   0   5   80.48    2.69
  -3   0   5   78.69    3.39
   3   0  -5   81.61    3.27
   3   0  -5   82.73    3.58
   2   0  -5    0.36    0.21
  -2   0   5   -0.33    0.21
  -2   0   5   -0.20    0.17
   2   0  -5    0.16    0.24
   1   0  -5   48.94    2.28
  -1   0   5   47.71    1.95
  -1   0   5   42.63    2.33
   1   0  -5   48.64    2.28
   0   0  -5    0.00    0.23
   0   0   5   -0.13    0.18
   0   0  -5    0.20    0.19
   0   0   5    0.29    0.22
   1   0   5  109.62    3.52
   1   0   5  107.33    3.40
  -1   0  -5  107.19    3.72
  -2   0  -5   -0.19    0.27
   2   0   5    0.06    0.21
  -2   0  -5    0.01    0.22
   2   0   5   -0.33    0.14
  -3   0  -5  194.76    5.96
   3   0   5  197.86    5.55
  -3   0  -5  192.93    4.29
   3   0   5  195.85    4.96
  -3   0  -5  196.39    6.31
  -4   0  -5    0.90    0.25
   4   0   5   -0.52    0.38
   4   0   5    0.30    0.27
   4  -1  -5   26.22    1.91
  -4  -1   5   27.33    2.01
   4  -1  -5   27.58    2.93
  -4  -1   5   25.32    1.44
   4   1  -5   27.44    2.43
  -4   1   5   25.65    2.02
  -4   1   5   25.84    1.56
   4   1  -5   25.20    1.83
  -3  -1   5   45.40    1.83
   3  -1  -5   47.32    2.74
   3  -1  -5   44.64    2.41
   3   1  -5   44.60    2.62
  -3   1   5   44.01    2.56
  -3   1   5   46.39    2.02
   3   1  -5   47.05    2.39
   2  -1  -5   15.59    1.33
   2  -1  -5   16.67    1.45
  -2  -1   5   16.11    1.05
  -2  -1   5   14.96    1.37
   2   1  -5   17.24    1.40
   2   1  -5   18.06    1.36
  -2   1   5   18.16    1.20
   1  -1  -5   27.84    1.75
  -1  -1   5   29.20    1.44
   1  -1  -5   29.42    1.80
  -1  -1   5   27.76    1.80
  -1   1   5   29.04    1.58
   1   1  -5   28.13    1.71
   1   1  -5   27.04    1.66
  -1   1   5   29.10    1.94
   0  -1   5  127.23    3.67
   0  -1   5  125.51    4.03
   0  -1  -5  125.76    3.95
   0  -1  -5  123.66    3.92
   0   1  -5  125.92    3.94
   0   1   5  127.36    3.72
   0   1  -5  120.86    3.83
   1  -1   5   11.24    0.94
   1  -1   5    9.71    0.92
  -1  -1  -5    8.51    1.06
  -1  -1  -5   11.97    1.17
   1   1   5   11.13    1.09
  -1   1  -5   11.02    1.09
  -1   1  -5   11.25    1.17
   1   1   5   10.89    1.02
   2  -1   5   85.90    2.87
  -2  -1  -5   90.06    3.58
   2  -1   5   87.61    3.12
   2   1   5   87.51    3.23
   2   1   5   88.29    3.31
  -2   1  -5   82.53    3.40
  -2   1  -5   88.84    3.73
  -3  -1  -5   38.70    1.65
   3  -1   5   37.74    1.86
   3  -1   5   40.94    2.17
  -3  -1  -5   35.21    2.52
  -3  -1  -5   35.68    2.38
  -3   1  -5   37.73    1.56
   3   1   5   42.30    2.36
   3   1   5   37.13    2.01
  -3   1  -5   36.83    2.39
  -4  -1  -5   10.78    1.38
  -4  -1  -5   10.51    0.79
   4  -1   5   12.73    1.29
   4  -1   5    9.35    1.00
   4   1   5   12.70    1.42
   4   1   5   10.48    1.12
  -4   1  -5   11.43    1.51
  -4   1  -5   11.33    0.66
  -4  -2   5    2.29    0.50
  -4  -2   5    1.66    0.68
   4  -2  -5    1.09    0.53
  -4   2   5    1.90    0.43
  -4   2   5    2.75    0.72
   4   2  -5    1.84    0.65
   4   2  -5    0.93    0.47
  -3  -2   5   40.70    1.67
   3  -2  -5   42.77    2.68
   3  -2  -5   40.05    2.28
  -3  -2   5   42.52    2.24
  -3   2   5   40.89    1.97
  -3   2   5   34.64    2.35
   3   2  -5   39.04    2.13
   3   2  -5   37.70    2.37
   2  -2  -5   61.90    2.79
  -2  -2   5   61.71    2.67
  -2  -2   5   63.72    2.02
   2  -2  -5   64.48    2.89
  -2   2   5   63.55    2.52
   2   2  -5   64.87    3.02
  -2   2   5   60.27    2.97
   2   2  -5   60.72    2.70
  -1  -2   5  197.62    4.74
  -1  -2   5  200.34    4.15
   1  -2  -5  200.79    6.19
   1  -2  -5  192.07    5.18
   1   2  -5  205.81    5.14
  -1   2   5  189.18    4.86
  -1   2   5  194.44    5.70
   1   2  -5  194.92    5.05
   0  -2  -5   55.10    2.50
   0  -2   5   56.15    1.93
   0  -2   5   56.91    2.17
   0   2   5   60.05    2.97
   0   2  -5   58.11    2.53
   0   2   5   54.96    2.40
   0   2  -5   58.33    2.47
   1  -2   5  215.45    4.71
   1  -2   5  199.40    4.58
  -1  -2  -5  202.45    7.98
  -1  -2  -5  205.78    5.61
   1   2   5  207.56    5.44
   1   2   5  208.29    5.74
  -1   2  -5  212.14    5.69
  -1   2  -5  208.91    5.38
  -2  -2  -5   39.37    2.31
   2  -2   5   36.82    1.66
  -2  -2  -5   38.93    2.36
   2  -2   5   39.30    1.91
  -2  -2  -5   39.46    1.84
  -2   2  -5   38.94    2.40
   2   2   5   38.77    2.20
   2   2   5   39.11    2.18
  -2   2  -5   38.57    2.19
  -3  -2  -5   54.64    4.51
   3  -2   5   57.52    2.49
  -3  -2  -5   57.08    2.14
  -3  -2  -5   58.15    3.09
   3  -2   5   54.52    2.12
  -3   2  -5   62.37    3.08
  -3   2  -5   59.59    2.95
   3   2   5   57.38    3.67
   3   2   5   57.47    2.68
   4  -2   5    0.71    0.35
  -4  -2  -5    0.19    0.44
   4  -2   5    0.85    0.53
  -4   2  -5    0.56    0.62
   4   2   5    1.04    0.40
   4  -3  -5   21.05    1.74
  -4  -3   5   17.02    1.18
  -4   3   5   20.74    2.01
   4   3  -5   17.33    1.57
   4   3  -5   18.26    1.79
  -3  -3   5    4.60    0.86
   3  -3  -5    5.77    0.85
  -3  -3   5    5.44    0.54
  -3   3   5    7.80    0.82
   3   3  -5    6.53    0.89
  -3   3   5    5.41    1.09
   3   3  -5    4.43    0.95
  -2  -3   5   57.48    1.78
   2  -3  -5   57.42    2.83
   2  -3  -5   59.60    2.72
  -2   3   5   60.08    3.01
  -2   3   5   58.92    2.47
   2   3  -5   57.51    2.57
  -1  -3   5   57.14    1.69
   1  -3  -5   55.65    2.56
   1  -3  -5   54.08    2.84
  -1  -3   5   57.56    2.03
   1   3  -5   54.58    2.38
  -1   3   5   53.91    2.86
   1   3  -5   57.85    2.39
  -1   3   5   54.50    2.43
   0  -3   5   59.55    1.77
   0  -3  -5   61.90    2.80
   0  -3  -5   59.79    2.63
   0  -3   5   63.47    2.01
   0   3   5   59.31    3.34
   0   3  -5   59.69    2.54
   0   3   5   56.62    2.52
   0   3  -5   59.82    2.49
  -1  -3  -5   73.73    3.11
   1  -3   5   78.57    2.23
   1  -3   5   80.58    2.32
  -1  -3  -5   79.68    3.29
  -1   3  -5   85.49    3.25
   1   3   5   78.87    3.18
  -1   3  -5   83.89    3.09
   1   3   5   75.77    3.21
  -2  -3  -5   36.53    2.27
  -2  -3  -5   39.87    2.34
   2  -3   5   36.17    1.47
  -2  -3  -5   37.29    1.83
   2  -3   5   36.17    1.66
   2   3   5   37.94    2.25
   2   3   5   38.54    2.26
  -2   3  -5   39.55    2.20
  -3  -3  -5   13.03    1.64
  -3  -3  -5   12.16    1.35
  -3  -3  -5   10.58    0.92
   3  -3   5    9.18    0.79
   3  -3   5   10.95    1.03
  -3   3  -5    8.95    1.16
   3   3   5   11.84    1.27
  -3   3  -5   10.99    1.15
   3   3   5   10.16    1.17
  -4  -3  -5    8.27    0.85
  -4  -3  -5   10.06    1.39
   4  -3   5    8.40    1.09
   4  -3   5    8.62    0.88
   4   3   5    9.92    1.52
  -4   3  -5   11.23    1.44
  -4  -4   5   11.60    0.91
  -4  -4   5   13.06    1.24
   4  -4  -5   12.57    1.45
  -4   4   5   12.50    1.52
   4   4  -5    8.81    2.01
   4   4  -5   12.47    1.26
  -3  -4   5   32.59    1.29
   3  -4  -5   33.82    2.39
   3  -4  -5   34.07    2.19
  -3  -4   5   33.23    1.74
  -3   4   5   29.01    1.82
   3   4  -5   31.41    1.90
   3   4  -5   34.36    2.20
  -3   4   5   30.93    2.30
  -2  -4   5    4.85    0.60
   2  -4  -5    4.69    1.04
   2  -4  -5    4.63    0.92
  -2  -4   5    4.68    0.40
  -2   4   5    4.59    0.71
   2   4  -5    6.52    0.81
  -2   4   5    5.67    1.17
   1  -4  -5    6.96    0.84
   1   4  -5    6.71    0.71
   1   4  -5    4.94    0.85
  -1   4   5    6.27    0.77
   0  -4  -5  107.51    3.60
   0  -4  -5   98.76    5.25
   0   4  -5  108.02    3.42
   0   4   5  104.16    3.68
   0   4   5  107.63    4.31
   0   4  -5  108.09    3.50
  -1  -4  -5    2.04    0.54
   1  -4   5    2.45    0.31
  -1  -4  -5    3.21    0.71
  -1  -4  -5    1.49    0.59
   1   4   5    2.01    0.50
  -1   4  -5    2.09    0.52
  -1   4  -5    2.47    0.59
   1   4   5    2.43    0.70
   2  -4   5    8.06    0.67
  -2  -4  -5    6.47    1.14
   2  -4   5    7.53    0.53
  -2  -4  -5    7.73    0.84
  -2  -4  -5    7.64    1.08
   2   4   5    8.06    1.02
   2   4   5    7.18    1.01
  -2   4  -5   10.46    1.02
   3  -4   5   25.59    1.76
  -3  -4  -5   29.26    2.05
   3  -4   5   28.16    1.23
  -3  -4  -5   29.71    1.64
  -3  -4  -5   30.22    2.15
  -3   4  -5   30.13    2.09
  -3   4  -5   27.19    2.00
   3   4   5   28.10    1.98
   3   4   5   25.86    1.99
   4  -4   5    2.07    0.57
   4  -4   5    0.98    0.37
  -4  -4  -5    1.16    0.55
  -4  -4  -5    1.07    0.43
   4   4   5    0.88    0.49
   4  -5  -5   27.76    2.63
  -4   5   5   30.23    2.37
   4   5  -5   26.89    1.92
   3  -5  -5   32.52    2.15
   3  -5  -5   35.57    2.43
  -3   5   5   32.85    2.40
  -3   5   5   38.78    2.91
   3   5  -5   34.09    1.99
   3   5  -5   33.87    2.18
   2  -5  -5    4.92    0.98
   2  -5  -5    3.04    0.81
  -2   5   5    4.69    1.00
  -2   5   5    5.61    1.20
   2   5  -5    5.95    0.74
   1  -5  -5   34.42    2.01
   1  -5  -5   30.45    1.94
   1   5  -5   32.60    1.71
  -1   5   5   33.40    2.29
   1   5  -5   33.03    1.73
  -1   5   5   31.27    1.95
   0  -5  -5   50.28    2.51
   0  -5  -5   46.47    2.29
   0  -5  -5   45.36    2.28
   0   5   5   49.42    2.50
   0   5  -5   47.05    2.13
   0   5   5   47.83    2.88
   0   5  -5   51.08    2.23
  -1  -5  -5   39.61    2.26
  -1  -5  -5   37.65    1.98
  -1  -5  -5   36.48    2.10
   1   5   5   37.48    2.26
  -1   5  -5   37.28    1.94
  -1   5  -5   41.18    2.21
   1   5   5   35.42    2.29
  -2  -5  -5    1.11    0.42
  -2  -5  -5    0.55    0.40
   2   5   5    1.47    0.53
   2   5   5    1.56    0.47
  -2   5  -5    2.52    0.62
  -3  -5  -5   60.82    2.53
  -3  -5  -5   59.94    3.16
  -3  -5  -5   58.97    3.11
  -3   5  -5   64.24    3.11
   3   5   5   63.24    3.15
  -3   5  -5   61.23    1.62
  -3   5  -5   62.55    3.04
   4  -5   5   16.97    0.94
  -4  -5  -5   15.69    1.27
   4  -5   5   18.17    1.50
  -4  -5  -5   17.00    2.12
   4   5   5   14.72    1.70
  -4   5  -5   11.59    1.74
   3  -6  -5    7.02    1.37
   3  -6  -5    7.79    1.19
   3   6  -5   10.81    1.31
  -3   6   5    8.60    1.61
   3   6  -5    8.17    1.03
   2  -6  -5   23.41    1.72
   2  -6  -5   24.44    1.94
   2   6  -5   25.59    1.57
  -2   6   5   25.29    2.05
   2   6  -5   26.12    2.04
  -2   6   5   22.31    1.67
   1  -6  -5    5.60    0.99
   1  -6  -5    5.26    0.93
   1  -6  -5    5.70    1.07
  -1   6   5    5.85    1.22
   1   6  -5    7.22    0.77
   1   6  -5    5.27    0.73
   0  -6  -5   11.62    1.14
   0  -6  -5   10.67    1.16
   0  -6  -5   12.18    1.21
   0   6   5   12.26    1.48
   0   6   5   12.76    1.28
   0   6  -5   10.83    1.01
   0   6  -5   12.10    1.11
  -1  -6  -5    5.73    1.01
  -1  -6  -5    5.02    0.97
  -1  -6  -5    6.65    0.84
  -1   6  -5    5.29    1.00
   1   6   5    4.81    1.06
  -1   6  -5    3.88    0.70
  -2  -6  -5   44.94    2.55
  -2  -6  -5   39.77    2.10
  -2  -6  -5   40.11    2.25
  -2   6  -5   40.41    1.56
   2   6   5   41.23    2.54
  -2   6  -5   41.78    2.21
  -2   6  -5   40.75    2.21
   2   6   5   38.68    2.43
  -3  -6  -5    3.95    0.85
  -3  -6  -5    5.35    0.93
  -3  -6  -5    3.69    0.90
   3   6   5    4.28    0.99
  -3   6  -5    3.46    0.84
  -3   6  -5    4.14    0.36
   3  -7  -5   36.20    2.64
   3  -7  -5   41.57    2.45
   3  -7  -5   40.09    2.28
   3   7  -5   43.42    2.21
  -3   7   5   45.12    2.89
   3   7  -5   38.62    2.30
   2  -7  -5   42.59    2.31
   2  -7  -5   42.90    2.61
   2  -7  -5   38.04    2.25
  -2   7   5   41.09    2.67
   2   7  -5   41.42    1.99
   2   7  -5   41.13    1.95
   1  -7  -5   27.29    1.80
   1  -7  -5   26.07    1.84
   1  -7  -5   29.22    1.85
  -1   7   5   29.80    2.28
   1   7  -5   28.56    1.69
   1   7  -5   31.34    1.47
   1   7  -5   27.10    1.52
  -1   7   5   30.07    2.04
   0  -7  -5   12.65    1.16
   0  -7  -5   13.44    1.67
   0  -7  -5   15.69    1.22
   0   7  -5   12.86    1.03
   0   7   5   11.62    1.34
   0   7   5   11.06    1.48
   0   7  -5   15.91    1.14
  -1  -7  -5   25.71    1.79
  -1  -7  -5   27.86    1.68
  -1  -7  -5   26.15    1.75
   1   7   5   29.21    2.15
  -1   7  -5   27.04    1.46
  -1   7  -5   29.43    1.72
  -1   7  -5   26.46    1.53
   1   7   5   24.78    1.97
  -2  -7  -5   12.93    1.39
  -2  -7  -5    8.84    1.23
  -2  -7  -5   11.69    1.19
   2   7   5   11.55    1.34
  -2   7  -5   13.53    0.83
  -2   7  -5   12.82    1.21
  -3  -7  -5   43.68    2.44
  -3  -7  -5   41.33    2.70
  -3  -7  -5   45.84    2.33
   3   7   5   43.30    2.70
  -3   7  -5   41.66    1.29
  -3   7  -5   47.61    2.61
  -3   7  -5   44.92    2.59
   2  -8  -5   34.63    2.05
   2  -8  -5   41.04    2.24
   2  -8  -5   34.66    2.11
   2   8  -5   35.32    1.83
  -2   8   5   37.17    2.66
   2   8  -5   31.59    1.72
   1  -8  -5    8.25    1.71
   1  -8  -5    8.05    1.21
   1   8  -5   11.56    0.83
   1   8  -5    8.85    0.86
  -1   8   5    8.37    1.21
   0  -8  -5    9.57    1.19
   0  -8  -5   10.81    1.24
   0  -8  -5   10.23    1.25
   0   8  -5   12.44    1.03
   0   8   5   15.77    1.54
   0   8   5   13.72    1.59
   0   8  -5   13.16    0.96
  -1  -8  -5    9.50    0.98
  -1  -8  -5    8.47    1.62
  -1  -8  -5   11.58    1.17
  -1   8  -5   10.57    0.98
   1   8   5   11.91    1.30
  -1   8  -5    8.79    0.85
  -2  -8  -5   20.40    1.62
  -2  -8  -5   22.46    1.61
  -2  -8  -5   20.95    1.53
  -2   8  -5   21.16    1.14
  -2   8  -5   23.15    1.63
   2   8   5   23.96    1.97
   0  -9  -5    4.08    0.84
   0   9  -5    7.35    0.75
   0   9   5    5.03    1.23
   4   0  -6   19.92    1.86
  -4   0   6   20.72    2.00
  -3   0   6    0.06    0.32
   3   0  -6    0.49    0.62
   3   0  -6   -0.23    0.37
  -3   0   6   -0.37    0.41
  -2   0   6   62.34    3.18
  -2   0   6   62.18    2.44
   2   0  -6   59.95    2.94
   1   0  -6   -0.33    0.23
  -1   0   6   -0.16    0.17
  -1   0   6   -0.55    0.23
   1   0  -6   -0.05    0.31
   0   0   6  246.08    6.53
   0   0  -6  238.42    6.34
   0   0   6  231.49    5.61
   0   0  -6  236.41    6.27
  -1   0  -6   -0.12    0.24
   1   0   6   -0.47    0.23
   1   0   6    0.00    0.27
  -1   0  -6    0.85    0.48
  -2   0  -6   64.11    3.25
   2   0   6   64.67    2.81
   2   0   6   66.17    2.96
   3   0   6    1.41    0.47
  -3   0  -6    0.56    0.45
  -3   0  -6   -0.69    0.39
   3   0   6    0.53    0.34
  -4   0  -6   22.35    1.23
  -4   0  -6   28.28    2.98
   4  -1  -6    4.44    1.00
  -4  -1   6    3.07    1.04
  -4  -1   6    3.60    0.70
   4   1  -6    5.01    1.09
  -4   1   6    5.50    1.33
   3  -1  -6   35.60    2.37
  -3  -1   6   34.57    2.38
  -3  -1   6   37.49    1.78
  -3   1   6   35.99    1.87
  -3   1   6   35.22    2.52
   3   1  -6   35.03    2.29
   3   1  -6   35.50    2.40
  -2  -1   6    2.35    0.46
  -2  -1   6    0.36    0.40
   2  -1  -6    1.78    0.51
   2  -1  -6    1.19    0.55
   2   1  -6    1.42    0.67
   2   1  -6    1.65    0.59
  -2   1   6    1.44    0.42
  -2   1   6    0.39    0.48
  -1  -1   6   54.82    2.60
   1  -1  -6   53.69    2.69
  -1  -1   6   59.79    2.26
   1  -1  -6   56.59    2.84
  -1   1   6   54.99    2.42
   1   1  -6   59.81    2.72
  -1   1   6   57.42    3.11
   1   1  -6   54.35    2.71
   0  -1   6   25.73    1.69
   0  -1  -6   26.08    1.88
   0  -1   6   26.83    1.52
   0  -1  -6   24.92    1.77
   0   1   6   28.22    1.91
   0   1   6   25.64    1.68
   0   1  -6   27.86    1.90
   0   1  -6   25.34    1.78
  -1  -1  -6   27.53    2.04
   1  -1   6   27.40    1.69
   1  -1   6   27.42    1.62
  -1  -1  -6   28.93    2.04
  -1   1  -6   26.64    1.85
   1   1   6   26.76    1.81
  -1   1  -6   25.71    1.91
   1   1   6   26.41    1.87
  -2  -1  -6   11.08    1.36
   2  -1   6    7.70    1.01
   2  -1   6    9.70    1.00
  -2  -1  -6   10.57    1.36
   2   1   6    9.79    1.21
  -2   1  -6    8.60    1.17
  -2   1  -6    8.07    1.89
   2   1   6    9.13    1.12
  -3  -1  -6   29.59    1.61
  -3  -1  -6   31.84    2.28
   3  -1   6   30.03    1.76
  -3   1  -6   30.67    1.56
   3   1   6   32.81    2.18
   3   1   6   30.76    1.97
  -3   1  -6   28.84    2.27
  -4  -1  -6    5.99    0.69
  -4  -1  -6    7.61    1.98
   4  -1   6    6.27    0.90
  -4   1  -6    6.93    0.62
  -4   1  -6    8.13    1.99
   4   1   6    4.61    0.94
  -4  -2   6   25.32    2.18
   4  -2  -6   25.82    2.25
  -4  -2   6   27.70    1.58
  -4   2   6   27.86    2.44
   4   2  -6   31.28    2.20
  -3  -2   6    1.71    0.50
   3  -2  -6    2.09    0.69
  -3  -2   6    1.67    0.67
   3   2  -6    2.53    0.90
  -3   2   6    1.65    0.63
   3   2  -6    1.89    0.56
  -3   2   6    2.13    0.82
   2  -2  -6   20.27    1.73
  -2  -2   6   20.78    1.19
   2  -2  -6   23.22    1.76
  -2   2   6   21.09    1.51
   2   2  -6   21.87    1.78
  -2   2   6   19.17    1.86
   2   2  -6   20.87    1.65
   1  -2  -6   10.34    1.16
  -1  -2   6    9.86    0.84
   1  -2  -6   11.93    1.22
  -1  -2   6    9.17    0.99
  -1   2   6   10.66    1.36
   1   2  -6   10.40    1.14
  -1   2   6   10.44    1.09
   1   2  -6   11.06    1.17
   0  -2  -6   11.66    1.18
   0  -2   6   12.56    0.94
   0  -2   6   12.79    1.11
   0  -2  -6   14.11    1.36
   0   2   6   13.71    1.23
   0   2  -6   13.53    1.32
   0   2  -6   12.86    1.30
   0   2   6   11.62    1.30
  -1  -2  -6   12.43    1.32
   1  -2   6   12.63    1.07
  -1  -2  -6   14.43    1.35
   1  -2   6   12.05    1.05
   1   2   6   11.06    1.21
   1   2   6   12.96    1.30
  -1   2  -6   13.33    1.37
  -1   2  -6   13.62    1.33
  -2  -2  -6   39.96    2.05
   2  -2   6   40.62    2.04
   2  -2   6   44.47    1.95
  -2  -2  -6   45.54    2.60
  -2  -2  -6   39.89    2.59
   2   2   6   42.52    2.44
  -2   2  -6   39.79    2.44
   2   2   6   42.20    2.40
  -3  -2  -6    2.68    0.65
   3  -2   6    3.16    0.78
  -3  -2  -6    3.86    0.95
   3  -2   6    2.17    0.54
  -3   2  -6    4.65    1.06
   3   2   6    2.81    0.73
  -3  -3   6   15.88    1.03
  -3  -3   6   15.51    1.49
   3  -3  -6   15.62    1.59
   3   3  -6   19.13    1.64
  -3   3   6   18.24    2.20
   3   3  -6   18.83    1.65
   2  -3  -6   18.00    1.70
  -2  -3   6   18.12    1.03
  -2  -3   6   19.85    1.38
   2  -3  -6   19.99    1.68
  -2   3   6   16.46    1.41
  -2   3   6   18.89    1.89
   2   3  -6   19.12    1.59
   2   3  -6   19.74    1.59
   1  -3  -6    1.40    0.46
  -1  -3   6    0.65    0.31
  -1  -3   6    0.60    0.28
  -1   3   6    0.65    0.61
   1   3  -6    0.67    0.41
  -1   3   6    1.29    0.54
   1   3  -6    1.07    0.35
   0  -3   6   18.94    1.17
   0  -3  -6   19.13    1.59
   0  -3  -6   19.05    1.66
   0  -3   6   19.27    1.06
   0   3  -6   20.92    1.62
   0   3  -6   21.39    1.60
   0   3   6   19.02    1.63
  -1  -3  -6    1.72    0.63
  -1  -3  -6    1.37    0.84
   1  -3   6    1.87    0.38
  -1   3  -6    1.56    0.56
  -1   3  -6    1.44    0.51
   1   3   6    0.52    0.48
   1   3   6    1.72    0.54
  -2  -3  -6   19.29    1.43
   2  -3   6   22.31    1.36
   2  -3   6   21.06    1.19
  -2  -3  -6   23.63    1.82
  -2  -3  -6   18.42    1.79
   2   3   6   20.27    1.81
   2   3   6   23.18    1.87
  -2   3  -6   21.27    1.75
   3  -3   6   19.85    1.51
  -3  -3  -6   21.60    1.40
  -3  -3  -6   19.12    2.94
  -3   3  -6   20.64    1.89
   3   3   6   20.15    2.31
  -3  -4   6   29.00    1.57
  -3  -4   6   25.92    1.36
   3   4  -6   27.30    1.96
  -3   4   6   26.71    2.35
   3   4  -6   26.57    2.14
  -2  -4   6   27.61    1.33
  -2  -4   6   28.30    1.09
   2  -4  -6   29.93    2.24
   2  -4  -6   27.05    2.03
  -2   4   6   24.61    2.05
   2   4  -6   26.55    1.89
   2   4  -6   25.87    1.85
  -2   4   6   26.78    2.16
   1  -4  -6    2.81    0.72
   1  -4  -6    1.37    0.61
   1   4  -6    1.71    0.69
  -1   4   6    2.24    0.80
   1   4  -6    2.92    0.65
  -1   4   6    2.89    0.62
   0  -4  -6   32.57    2.23
   0   4  -6   37.14    2.25
   0   4   6   37.28    2.29
   0   4  -6   40.89    2.19
  -1  -4  -6    2.93    0.74
   1  -4   6    5.83    0.48
  -1  -4  -6    3.77    0.81
   1  -4   6    4.58    0.48
  -1  -4  -6    4.62    0.97
  -1   4  -6    2.90    0.80
  -1   4  -6    4.68    0.98
   1   4   6    5.24    1.01
   1   4   6    4.66    1.00
   2  -4   6   44.52    1.51
  -2  -4  -6   46.81    2.76
  -2  -4  -6   40.84    2.61
  -2  -4  -6   47.60    2.29
   2  -4   6   45.57    1.69
   2   4   6   48.08    2.79
  -2   4  -6   47.10    2.63
   3  -4   6   46.73    1.73
   3  -4   6   47.88    2.01
  -3  -4  -6   46.78    4.28
  -3  -4  -6   50.71    2.36
   3   4   6   49.78    2.87
  -3   4  -6   50.71    3.00
   3  -5  -6   15.18    1.82
  -3   5   6   14.99    1.84
   3   5  -6   18.27    1.56
   3   5  -6   20.57    2.06
   2  -5  -6    9.43    1.30
   2  -5  -6   12.23    1.40
  -2   5   6    6.34    2.07
   2   5  -6   11.13    1.11
   2   5  -6    8.33    1.22
   1  -5  -6   34.69    2.30
   1  -5  -6   34.45    2.30
   1   5  -6   32.96    2.00
   1   5  -6   39.70    2.10
  -1   5   6   37.55    2.48
  -1   5   6   34.34    2.64
   0  -5  -6   33.13    2.19
   0  -5  -6   32.95    2.19
   0   5   6   31.22    2.58
   0   5  -6   35.78    2.13
   0   5  -6   33.48    1.97
   0   5   6   32.98    2.20
  -1  -5  -6   31.78    1.96
  -1  -5  -6   27.16    2.00
  -1  -5  -6   31.68    2.21
  -1   5  -6   33.54    2.02
  -1   5  -6   28.96    2.08
   1   5   6   37.87    3.25
   1   5   6   31.50    2.38
  -2  -5  -6   30.69    1.80
  -2  -5  -6   30.41    2.15
  -2  -5  -6   29.71    2.28
  -2   5  -6   26.83    2.00
   2   5   6   28.78    2.38
  -2   5  -6   30.40    3.51
  -3  -5  -6    5.95    1.25
  -3  -5  -6    4.97    1.06
   2  -6  -6   16.72    1.64
   2  -6  -6   15.20    2.58
   2   6  -6   13.24    1.49
   2   6  -6   18.65    1.43
  -2   6   6   14.07    1.70
   1  -6  -6   21.60    1.85
   1  -6  -6   21.94    1.84
   1   6  -6   22.08    1.58
   1   6  -6   20.77    1.52
  -1   6   6   22.85    2.89
   0  -6  -6    8.92    2.25
   0  -6  -6    7.23    1.02
   0  -6  -6    8.56    1.09
   0   6  -6    6.11    0.87
   0   6   6    3.41    1.19
  -1  -6  -6   20.09    1.75
  -1  -6  -6   22.74    2.02
  -1  -6  -6   20.06    1.83
  -1   6  -6   19.96    1.57
   1   6   6   18.95    2.27
  -1   6  -6   16.41    1.66
  -2  -6  -6    8.12    2.14
  -2  -6  -6    5.92    1.24
  -2  -6  -6    7.66    0.97
  -2   6  -6    6.28    1.43
   2   6   6    9.26    1.34
  -2   6  -6   10.48    1.23
   1  -7  -6    1.59    0.43
   1  -7  -6    2.07    0.74
   1  -7  -6   -0.59    0.52
   1   7  -6    0.64    0.37
  -1   7   6   -0.64    0.54
   0  -7  -6   21.01    1.64
   0  -7  -6   19.31    1.75
   0  -7  -6   20.16    1.78
   0   7  -6   22.50    1.68
   0   7   6   17.40    2.13
   0   7  -6   20.16    1.52
  -1  -7  -6   26.58    1.83
  -1  -7  -6   23.70    1.93
  -1  -7  -6   24.26    1.94
  -1   7  -6   22.79    1.59
  -1   7  -6   26.46    1.73
  -1   7  -6   31.64    1.96
   1   7   6   22.01    2.15
  -3   0   7   53.33    3.31
   2   0  -7    2.38    0.58
  -2   0   7    0.59    0.35
  -1   0   7   14.03    1.22
   1   0  -7   12.72    1.48
  -1   0   7   13.83    1.49
   0   0  -7    1.49    0.61
   0   0   7    0.28    0.42
   0   0  -7   -0.14    0.39
   1   0   7    2.23    0.76
  -1   0  -7    2.44    0.73
  -2   0  -7    1.04    0.62
   2   0   7    1.16    0.49
   2   0   7   -0.08    0.38
   2  -1  -7   21.72    1.89
  -2  -1   7   21.89    1.78
   2   1  -7   23.40    2.08
  -2   1   7   21.60    2.18
   1  -1  -7   -0.26    0.38
  -1  -1   7    0.42    0.40
   1   1  -7    0.85    0.49
  -1   1   7    0.28    0.34
   0  -1   7   16.45    1.24
   0  -1  -7   13.88    1.59
   0  -1   7   14.28    1.40
   0   1  -7   15.31    1.57
   0   1   7   14.30    1.38
   0   1  -7   17.59    1.52
   0   1   7   16.16    1.51
   1  -1   7    1.11    0.52
   1  -1   7    1.54    0.62
  -1  -1  -7    2.24    0.77
   1   1   7    1.80    0.59
   1   1   7    2.63    0.69
  -1   1  -7    1.37    0.71
  -2  -1  -7    3.13    1.00
   2  -1   7    4.49    0.95
   2  -1   7    4.18    0.86
   2   1   7    4.75    0.93
  -2   1  -7    3.43    0.95
  -2  -2   7    6.73    0.77
   2  -2  -7    4.10    1.07
  -2  -2   7    6.09    1.12
   2   2  -7    7.02    1.38
  -1  -2   7   63.77    2.80
  -1  -2   7   66.25    2.36
   1  -2  -7   73.10    4.26
   1   2  -7   62.43    3.24
   1   2  -7   59.75    3.14
   0  -2   7    2.15    0.48
   0  -2   7    1.62    0.55
   0  -2  -7    1.55    0.57
   0   2   7    1.65    0.61
   0   2  -7    2.50    0.69
   0   2  -7    1.60    0.67
   0   2   7    0.78    0.59
   1  -2   7   47.08    2.23
   1  -2   7   46.71    2.15
  -1   2  -7   51.25    2.89
  -1   2  -7   43.56    3.42
   1   2   7   45.67    2.79
   2  -2   7   -0.33    0.47
  -2  -2  -7    0.27    0.62
  -2  -2  -7    0.28    0.36
   2  -2   7    0.44    0.32
  -2   2  -7    1.12    0.61
   2   2   7    0.03    0.40
  -2  -3   7   24.39    1.58
   2  -3  -7   23.16    2.04
  -2  -3   7   22.80    1.27
   2   3  -7   22.12    2.04
  -2   3   7   23.12    2.33
   1  -3  -7   15.23    1.99
  -1  -3   7   20.18    1.44
  -1  -3   7   21.70    1.22
   1   3  -7   22.75    1.90
   1   3  -7   27.05    1.80
   0  -3   7   44.27    1.78
   0  -3  -7   51.90    4.64
   0  -3   7   45.76    2.02
   0   3  -7   45.22    2.67
   0   3  -7   48.99    2.69
   0   3   7   41.95    2.83
   1  -3   7    9.37    0.93
   1  -3   7   10.10    0.92
  -1  -3  -7   12.34    1.57
  -1   3  -7   13.32    1.46
   1   3   7    9.07    1.79
  -2  -3  -7   23.64    2.39
   2  -3   7   19.95    1.39
  -2  -3  -7   19.16    1.98
   2   3   7   20.47    1.95
  -2   3  -7   18.44    1.88
  -2   4   7   17.64    2.68
   1  -4  -7   21.96    1.93
   1   4  -7   22.77    1.92
   1   4  -7   23.34    1.86
  -1   4   7   19.94    2.26
   0  -4  -7   13.12    1.76
   0   4  -7   13.10    1.41
   0   4   7   11.74    1.59
   0   4  -7   14.17    1.41
  -1  -4  -7   21.60    1.73
   1  -4   7   24.30    1.08
  -1  -4  -7   23.76    2.04
  -1   4  -7   22.64    1.99
   1   4   7   22.47    2.14
   1  -5  -7   10.11    1.68
   1   5  -7    9.62    1.23
   1   5  -7   12.60    1.56
   0  -5  -7   -0.36    0.61
   0   5   7    0.98    0.57
   0   5  -7    0.09    0.58
   0   5  -7    0.28    0.49
   0   0   0    0.00    0.00
;
_shelx_hkl_checksum              71126
loop_
_space_group_symop_operation_xyz
'x, y, z'
'x+1/2, -y, z+1/2'
loop_
_atom_site_label
_atom_site_type_symbol
_atom_site_fract_x
_atom_site_fract_y
_atom_site_fract_z
_atom_site_U_iso_or_equiv
_atom_site_adp_type
_atom_site_occupancy
_atom_site_site_symmetry_order
_atom_site_calc_flag
P1 P 0.20926(10) 0.28129(7) 0.32885(9) 0.0144(2) Uani 1 1 d
Na1 Na 0.5967(2) 0.54127(14) 0.32147(19) 0.0220(3) Uani 1 1 d
N1 N 0.2034(7) 0.0466(3) -0.1717(6) 0.0261(5) Uani 1 1 d
O2 O 0.3137(4) 0.3269(3) 0.1071(3) 0.0268(5) Uani 1 1 d
O3 O 0.1998(5) 0.1157(2) 0.3657(4) 0.0260(5) Uani 1 1 d
O11 O 0.2464(5) 0.7225(3) 0.3115(5) 0.0317(6) Uani 1 1 d
F1 F -0.1030(3) 0.3266(2) 0.3216(3) 0.0290(4) Uani 1 1 d
O1 O 0.3257(4) 0.3670(2) 0.5196(3) 0.0237(5) Uani 1 1 d
H11 H 0.228(11) 0.117(7) -0.073(9) 0.061(16) Uiso 1 1 d
H13 H 0.364(10) -0.014(4) -0.147(6) 0.038(12) Uiso 1 1 d
H14 H 0.206(10) 0.080(5) -0.311(9) 0.040(11) Uiso 1 1 d
H21 H 0.145(14) 0.701(6) 0.199(12) 0.068(17) Uiso 1 1 d
H22 H 0.149(12) 0.704(5) 0.415(9) 0.043(14) Uiso 1 1 d
H12 H 0.070(13) -0.009(5) -0.129(8) 0.056(16) Uiso 1 1 d
loop_
_atom_site_aniso_label
_atom_site_aniso_U_11
_atom_site_aniso_U_22
_atom_site_aniso_U_33
_atom_site_aniso_U_23
_atom_site_aniso_U_13
_atom_site_aniso_U_12
P1 0.0133(3) 0.0161(3) 0.0138(3) 0.0004(3) 0.0008(2) 0.0003(2)
Na1 0.0230(5) 0.0223(6) 0.0207(6) 0.0009(5) 0.0015(4) -0.0027(5)
N1 0.0249(11) 0.0270(12) 0.0265(13) -0.0014(17) 0.0018(10) 0.0048(14)
O2 0.0239(10) 0.0391(13) 0.0174(11) 0.0075(9) 0.0029(8) 0.0039(9)
O3 0.0265(9) 0.0155(9) 0.0360(14) 0.0004(8) 0.0019(9) -0.0010(8)
O11 0.0236(15) 0.0421(14) 0.0295(14) -0.0005(12) 0.0007(12) 0.0003(10)
F1 0.0158(7) 0.0361(10) 0.0352(11) 0.0028(9) 0.0010(7) 0.0070(7)
O1 0.0250(10) 0.0260(11) 0.0200(10) -0.0059(8) -0.0002(8) -0.0034(8)
loop_
_atom_type_symbol
_atom_type_description
_atom_type_scat_dispersion_real
_atom_type_scat_dispersion_imag
_atom_type_scat_source
N N 0.0061 0.0033 'International Tables Vol C Tables 4.2.6.8 and 6.1.1.4'
H H 0.0000 0.0000 'International Tables Vol C Tables 4.2.6.8 and 6.1.1.4'
O O 0.0106 0.0060 'International Tables Vol C Tables 4.2.6.8 and 6.1.1.4'
F F 0.0171 0.0103 'International Tables Vol C Tables 4.2.6.8 and 6.1.1.4'
Na Na 0.0362 0.0249 'International Tables Vol C Tables 4.2.6.8 and 6.1.1.4'
P P 0.1023 0.0942 'International Tables Vol C Tables 4.2.6.8 and 6.1.1.4'
loop_
_geom_angle_atom_site_label_1
_geom_angle_atom_site_label_2
_geom_angle_atom_site_label_3
_geom_angle
_geom_angle_site_symmetry_1
_geom_angle_site_symmetry_3
O1 P1 O2 114.48(13) . .
O1 P1 O3 114.15(12) . .
O2 P1 O3 114.45(13) . .
O1 P1 F1 104.47(11) . .
O2 P1 F1 104.44(12) . .
O3 P1 F1 103.01(11) . .
O1 P1 Na1 51.34(8) . .
O2 P1 Na1 63.24(10) . .
O3 P1 Na1 142.04(9) . .
F1 P1 Na1 114.38(8) . .
O1 P1 Na1 32.41(8) . 2_465
O2 P1 Na1 135.22(10) . 2_465
O3 P1 Na1 109.07(9) . 2_465
F1 P1 Na1 74.73(7) . 2_465
Na1 P1 Na1 76.24(2) . 2_465
O1 Na1 O2 100.21(9) 2_564 2_565
O1 Na1 O11 95.62(10) 2_564 .
O2 Na1 O11 89.73(11) 2_565 .
O1 Na1 O1 155.73(9) 2_564 .
O2 Na1 O1 102.51(9) 2_565 .
O11 Na1 O1 92.95(9) . .
O1 Na1 F1 88.84(8) 2_564 1_655
O2 Na1 F1 97.49(9) 2_565 1_655
O11 Na1 F1 170.73(9) . 1_655
O1 Na1 F1 79.86(8) . 1_655
O1 Na1 O2 97.58(8) 2_564 .
O2 Na1 O2 160.61(9) 2_565 .
O11 Na1 O2 96.17(9) . .
O1 Na1 O2 58.86(7) . .
F1 Na1 O2 75.14(7) 1_655 .
O1 Na1 P1 127.18(7) 2_564 .
O2 Na1 P1 131.64(7) 2_565 .
O11 Na1 P1 94.14(7) . .
O1 Na1 P1 29.21(5) . .
F1 Na1 P1 76.72(6) 1_655 .
O2 Na1 P1 29.69(5) . .
O1 Na1 P1 20.29(5) 2_564 2_564
O2 Na1 P1 109.00(7) 2_565 2_564
O11 Na1 P1 77.57(8) . 2_564
O1 Na1 P1 146.90(6) . 2_564
F1 Na1 P1 105.31(6) 1_655 2_564
O2 Na1 P1 90.32(6) . 2_564
P1 Na1 P1 118.91(4) . 2_564
O1 Na1 Na1 111.37(6) 2_564 2_565
O2 Na1 Na1 41.95(6) 2_565 2_565
O11 Na1 Na1 126.55(9) . 2_565
O1 Na1 Na1 80.87(6) . 2_565
F1 Na1 Na1 58.41(6) 1_655 2_565
O2 Na1 Na1 123.10(7) . 2_565
P1 Na1 Na1 103.40(5) . 2_565
P1 Na1 Na1 130.19(3) 2_564 2_565
O1 Na1 Na1 76.71(6) 2_564 2_464
O2 Na1 Na1 159.18(9) 2_565 2_464
O11 Na1 Na1 70.32(9) . 2_464
O1 Na1 Na1 84.94(6) . 2_464
F1 Na1 Na1 102.99(7) 1_655 2_464
O2 Na1 Na1 35.40(5) . 2_464
P1 Na1 Na1 58.43(3) . 2_464
P1 Na1 Na1 61.98(3) 2_564 2_464
Na1 Na1 Na1 158.28(7) 2_565 2_464
O1 Na1 Na1 167.58(7) 2_564 2_465
O2 Na1 Na1 79.50(6) 2_565 2_465
O11 Na1 Na1 71.97(8) . 2_465
O1 Na1 Na1 31.22(5) . 2_465
F1 Na1 Na1 103.54(7) 1_655 2_465
O2 Na1 Na1 84.79(6) . 2_465
P1 Na1 Na1 56.48(3) . 2_465
P1 Na1 Na1 148.39(4) 2_564 2_465
Na1 Na1 Na1 76.823(12) 2_565 2_465
Na1 Na1 Na1 99.086(17) 2_464 2_465
O1 Na1 Na1 32.46(5) 2_564 2_564
O2 Na1 Na1 111.77(6) 2_565 2_564
O11 Na1 Na1 124.38(9) . 2_564
O1 Na1 Na1 127.69(8) . 2_564
F1 Na1 Na1 58.05(6) 1_655 2_564
O2 Na1 Na1 79.93(6) . 2_564
P1 Na1 Na1 105.33(5) . 2_564
P1 Na1 Na1 47.28(2) 2_564 2_564
Na1 Na1 Na1 99.086(17) 2_565 2_564
Na1 Na1 Na1 76.822(12) 2_464 2_564
Na1 Na1 Na1 158.57(7) 2_465 2_564
P1 O2 Na1 129.66(13) . 2_464
P1 O2 Na1 87.07(10) . .
Na1 O2 Na1 102.65(9) 2_464 .
P1 F1 Na1 142.28(12) . 1_455
P1 O1 Na1 127.30(11) . 2_465
P1 O1 Na1 99.45(11) . .
Na1 O1 Na1 116.32(9) 2_465 .
loop_
_geom_bond_atom_site_label_1
_geom_bond_atom_site_label_2
_geom_bond_distance
_geom_bond_site_symmetry_2
P1 O1 1.498(2) .
P1 O2 1.502(2) .
P1 O3 1.511(2) .
P1 F1 1.5966(17) .
P1 Na1 3.0284(14) .
P1 Na1 3.4366(13) 2_465
Na1 O1 2.316(2) 2_564
Na1 O2 2.346(2) 2_565
Na1 O11 2.382(3) .
Na1 O1 2.397(2) .
Na1 F1 2.440(2) 1_655
Na1 O2 2.708(3) .
Na1 Na1 3.9517(5) 2_565
Na1 Na1 3.9517(5) 2_464
Na1 Na1 4.0040(5) 2_465
Na1 Na1 4.0041(5) 2_564
