#------------------------------------------------------------------------------
#$Date: 2020-07-09 06:17:15 +0300 (Thu, 09 Jul 2020) $
#$Revision: 254122 $
#$URL: file:///home/coder/svn-repositories/cod/cif/4/00/36/4003614.cif $
#------------------------------------------------------------------------------
#
# This file is available in the Crystallography Open Database (COD),
# http://www.crystallography.net/
#
# All data on this site have been placed in the public domain by the
# contributors.
#
data_4003614
loop_
_publ_author_name
'Creason, Tielyr D.'
'McWhorter, Timothy M.'
'Bell, Zane'
'Du, Mao-Hua'
'Saparov, Bayrammurad'
_publ_section_title
;
 K2CuX3 (X = Cl, Br): All-Inorganic Lead-Free Blue Emitters with
 Near-Unity Photoluminescence Quantum Yield
;
_journal_name_full               'Chemistry of Materials'
_journal_paper_doi               10.1021/acs.chemmater.0c02098
_journal_year                    2020
_chemical_formula_moiety         'Br3 Cu K2'
_chemical_formula_sum            'Br3 Cu K2'
_chemical_formula_weight         381.47
_space_group_crystal_system      orthorhombic
_space_group_IT_number           62
_space_group_name_Hall           '-P 2ac 2n'
_space_group_name_H-M_alt        'P n m a'
_atom_sites_solution_primary     dual
_atom_sites_solution_secondary   difmap
_audit_creation_method           SHELXL-2018/3
_audit_update_record
;
2020-03-11 deposited with the CCDC.	2020-04-30 downloaded from the CCDC.
;
_cell_angle_alpha                90
_cell_angle_beta                 90
_cell_angle_gamma                90
_cell_formula_units_Z            4
_cell_length_a                   12.5112(10)
_cell_length_b                   4.2939(3)
_cell_length_c                   13.1645(10)
_cell_measurement_reflns_used    4970
_cell_measurement_temperature    100(2)
_cell_measurement_theta_max      33.80
_cell_measurement_theta_min      3.09
_cell_volume                     707.22(9)
_computing_cell_refinement       'SAINT (Bruker, 2016)'
_computing_data_collection       'APEX3 (Bruker, 2018)'
_computing_data_reduction        'SAINT (Bruker, 2016)'
_computing_molecular_graphics    'Mercury (CCDC, 2018)'
_computing_publication_material  'SHELXL-2018/3 (Sheldrick, 2015b)'
_computing_structure_refinement  'SHELXL-2018/3 (Sheldrick, 2015b)'
_computing_structure_solution    'SHELXT (Sheldrick, 2015a)'
_diffrn_ambient_temperature      100(2)
_diffrn_measured_fraction_theta_full 1.000
_diffrn_measured_fraction_theta_max 0.999
_diffrn_measurement_device_type  'Bruker Photon II CMOS?'
_diffrn_measurement_method       '\w and \f scans'
_diffrn_radiation_type           MoK\a
_diffrn_radiation_wavelength     0.71073
_diffrn_reflns_av_R_equivalents  0.0606
_diffrn_reflns_av_unetI/netI     0.0412
_diffrn_reflns_Laue_measured_fraction_full 1.000
_diffrn_reflns_Laue_measured_fraction_max 0.999
_diffrn_reflns_limit_h_max       19
_diffrn_reflns_limit_h_min       -18
_diffrn_reflns_limit_k_max       6
_diffrn_reflns_limit_k_min       -6
_diffrn_reflns_limit_l_max       19
_diffrn_reflns_limit_l_min       -20
_diffrn_reflns_number            11844
_diffrn_reflns_point_group_measured_fraction_full 1.000
_diffrn_reflns_point_group_measured_fraction_max 0.999
_diffrn_reflns_theta_full        25.242
_diffrn_reflns_theta_max         33.799
_diffrn_reflns_theta_min         2.246
_diffrn_source                   'microfocus sealed tube'
_exptl_absorpt_coefficient_mu    21.085
_exptl_absorpt_correction_T_max  0.6489
_exptl_absorpt_correction_T_min  0.3849
_exptl_absorpt_correction_type   multi-scan
_exptl_absorpt_process_details
; 
 SADABS 2016/2: Krause, L., Herbst-Irmer, R., Sheldrick G.M. & Stalke D., 
 J. Appl. Cryst. 48 (2015) 3-10 
;
_exptl_crystal_colour            colourless
_exptl_crystal_density_diffrn    3.583
_exptl_crystal_description       Needle
_exptl_crystal_F_000             688
_exptl_crystal_preparation       Luminescent
_exptl_crystal_size_max          0.140
_exptl_crystal_size_mid          0.066
_exptl_crystal_size_min          0.052
_refine_diff_density_max         1.197
_refine_diff_density_min         -1.153
_refine_diff_density_rms         0.280
_refine_ls_extinction_coef       0.0015(3)
_refine_ls_extinction_expression Fc^*^=kFc[1+0.001xFc^2^\l^3^/sin(2\q)]^-1/4^
_refine_ls_extinction_method     'SHELXL-2018/3 (Sheldrick 2018)'
_refine_ls_goodness_of_fit_ref   1.009
_refine_ls_hydrogen_treatment    undef
_refine_ls_matrix_type           full
_refine_ls_number_parameters     38
_refine_ls_number_reflns         1579
_refine_ls_number_restraints     0
_refine_ls_restrained_S_all      1.009
_refine_ls_R_factor_all          0.0464
_refine_ls_R_factor_gt           0.0316
_refine_ls_shift/su_max          0.000
_refine_ls_shift/su_mean         0.000
_refine_ls_structure_factor_coef Fsqd
_refine_ls_weighting_details
'w=1/[\s^2^(Fo^2^)+(0.0300P)^2^+3.0000P] where P=(Fo^2^+2Fc^2^)/3'
_refine_ls_weighting_scheme      calc
_refine_ls_wR_factor_gt          0.0658
_refine_ls_wR_factor_ref         0.0731
_reflns_Friedel_coverage         0.000
_reflns_number_gt                1305
_reflns_number_total             1579
_reflns_threshold_expression     'I > 2\s(I)'
_cod_data_source_file            cm0c02098_si_001.cif
_cod_data_source_block           20040
_cod_database_code               4003614
_shelx_space_group_comment
; 
The symmetry employed for this shelxl refinement is uniquely defined 
by the following loop, which should always be used as a source of 
symmetry information in preference to the above space-group names. 
They are only intended as comments. 
;
_shelx_estimated_absorpt_t_min   0.156
_shelx_estimated_absorpt_t_max   0.407
_shelx_res_file
; 
TITL 20040 in Pnma 
    20040.res 
    created by SHELXL-2018/3 at 14:08:12 on 04-Mar-2020 
CELL 0.71073  12.5112   4.2939  13.1645  90.0000  90.0000  90.0000 
ZERR    4.00   0.0010   0.0003   0.0010   0.0000   0.0000   0.0000 
LATT  1 
SYMM 0.5-X, -Y, 0.5+Z 
SYMM -X, 0.5+Y, -Z 
SYMM 0.5+X, 0.5-Y, 0.5-Z 
SFAC K CU BR 
UNIT 8 4  12 
  
TEMP -173.15 
SIZE 0.052 0.066 0.140 
acta 
conf 
wpdb -2 
  
L.S. 10 
BOND $H 
LIST 4 
FMAP 2 
PLAN 20 
WGHT    0.030000    3.000000 
EXTI    0.001512 
FVAR       0.22163 
BR1   3    0.368906    0.750000    0.552392    10.50000    0.01021    0.01454 = 
         0.01214    0.00000    0.00034    0.00000 
BR2   3    0.058049    0.750000    0.638756    10.50000    0.01028    0.01379 = 
         0.01374    0.00000    0.00001    0.00000 
BR3   3    0.277194    1.250000    0.793047    10.50000    0.01130    0.01151 = 
         0.01230    0.00000    0.00025    0.00000 
CU1   2    0.245546    0.750000    0.697208    10.50000    0.01251    0.01682 = 
         0.01462    0.00000    0.00047    0.00000 
K1    1    0.175761    0.250000    0.484316    10.50000    0.01429    0.01286 = 
         0.01493    0.00000    0.00027    0.00000 
K2    1    0.513176    0.250000    0.676814    10.50000    0.01211    0.01425 = 
         0.01505    0.00000   -0.00104    0.00000 
HKLF 4 
  
  
  
  
REM  20040 in Pnma 
REM wR2 = 0.0731, GooF = S = 1.009, Restrained GooF = 1.009 for all data 
REM R1 = 0.0316 for 1305 Fo > 4sig(Fo) and 0.0464 for all 1579 data 
REM 38 parameters refined using 0 restraints 
  
END 
  
WGHT      0.0127      3.3801 
  
REM Highest difference peak  1.197,  deepest hole -1.153,  1-sigma level  0.280 
Q1    1   0.2975  1.2500  0.8770  10.50000  0.05    1.20 
Q2    1   0.3691  0.7500  0.6415  10.50000  0.05    1.19 
Q3    1   0.2790  1.2500  0.7013  10.50000  0.05    1.13 
Q4    1   0.2590  0.7500  0.7685  10.50000  0.05    1.11 
Q5    1   0.0954 -0.2500  0.4416  10.50000  0.05    1.08 
Q6    1   0.3331  1.2500  0.7443  10.50000  0.05    1.08 
Q7    1   0.3030  0.7500  0.6907  10.50000  0.05    1.06 
Q8    1   0.0632  0.7500  0.5519  10.50000  0.05    1.04 
Q9    1   0.2832  0.2500  0.6032  10.50000  0.05    1.00 
Q10   1   0.2001  1.2500  0.8551  10.50000  0.05    0.99 
Q11   1   0.3769  0.9603  0.5157  11.00000  0.05    0.92 
Q12   1   0.3628  0.7500  0.4676  10.50000  0.05    0.90 
Q13   1   0.2588  1.1264  0.8682  11.00000  0.05    0.90 
Q14   1   0.0095  0.7500  0.6134  10.50000  0.05    0.89 
Q15   1   0.3521  1.2500  0.8417  10.50000  0.05    0.88 
Q16   1   0.3205  0.7500  0.4194  10.50000  0.05    0.87 
Q17   1   0.1208  0.1723  0.6180  11.00000  0.05    0.86 
Q18   1   0.3422  0.0936  0.4039  11.00000  0.05    0.86 
Q19   1   0.4800  0.2500  0.7038  10.50000  0.05    0.86 
Q20   1   0.5199  0.2500  0.8267  10.50000  0.05    0.84 
;
_shelx_res_checksum              32348
_shelx_hkl_file
; 
   2   0   0 671.074 35.6838   1 
   2   0   0 621.996 35.8704   2 
  -2   0   0 638.365 35.8653   2 
  -2   0   0 694.846 35.6923   1 
  -3   0   0 0.90907 1.24064   2 
   3   0   0 1.03521 1.38866   2 
  -3   0   0 -0.0351 0.86136   1 
   3   0   0 3.22296 1.06399   1 
  -4   0   0 733.162 40.3632   2 
  -4   0   0 773.957 39.9407   1 
   4   0   0 674.554 40.3399   2 
   4   0   0 738.933 39.9428   1 
   5   0   0 -0.7761 2.29485   2 
  -5   0   0 -1.6450 1.23276   1 
  -5   0   0 -1.1048 1.90392   2 
   5   0   0 1.17437 1.60795   1 
   5   0   0 1.14305 3.88953   3 
   6   0   0 297.809 18.4049   2 
   6   0   0 305.944 18.3257   3 
   6   0   0 311.194 17.4751   1 
  -6   0   0 312.611 17.4261   1 
   7   0   0 2.10641 2.31378   1 
  -7   0   0 4.30866 2.99181   2 
  -7   0   0 3.90186 1.96615   1 
   7   0   0 3.12012 3.55772   2 
   7   0   0 2.93472 2.58994   3 
  -8   0   0 336.715 19.9396   2 
   8   0   0 335.814 18.8760   1 
   8   0   0 317.614 20.2584   2 
   8   0   0 311.479 19.9085   3 
  -8   0   0 320.482 18.6476   1 
  -9   0   0 -0.1382 3.83074   2 
   9   0   0 4.30888 3.28850   1 
   9   0   0 -0.5932 3.02996   3 
  -9   0   0 -1.1476 2.14637   1 
  10   0   0 659.360 35.4232   1 
 -10   0   0 663.503 36.6221   2 
  10   0   0 564.255 36.3108   3 
 -10   0   0 604.825 34.7835   1 
  10   0   0 607.689 36.7507   2 
  11   0   0 -1.6080 5.69466   2 
  11   0   0 2.48734 3.86859   3 
 -11   0   0 2.65260 2.98218   1 
 -11   0   0 0.59906 5.72322   2 
  11   0   0 0.97106 4.02982   1 
 -12   0   0 30.8209 8.67951   2 
  12   0   0 49.5420 8.96424   2 
 -12   0   0 39.4892 5.21570   1 
 -13   0   0 1.35830 3.39085   1 
  13   0   0 8.67489 8.32638   2 
  14   0   0 105.652 13.7795   2 
  15   0   0 0.66344 10.6107   2 
  16   0   0 267.282 24.6261   2 
  17   0   0 3.43950 11.4544   2 
  18   0   0 49.0885 14.0863   2 
  19   0   0 -1.6975 21.0031   2 
   0  -1   0 0.40531 0.85910   4 
   0   1   0 0.00630 0.91586   1 
   0   1   0 0.50652 0.95390   4 
   0  -1   0 0.01220 0.90179   1 
  -1   1   0 1.65312 0.86872   1 
  -1  -1   0 1.82157 1.23004   3 
   1   1   0 0.95467 0.88336   2 
  -1  -1   0 0.26819 0.94986   2 
  -1  -1   0 2.17221 1.10819   1 
  -1   1   0 1.25000 0.86991   4 
   1  -1   0 2.56719 0.91170   4 
   1   1   0 3.25371 1.23952   1 
   2   1   0 129.252 7.99194   2 
   2  -1   0 134.308 7.81199   4 
  -2  -1   0 133.729 8.03509   1 
  -2   1   0 135.244 7.81519   4 
  -2  -1   0 137.289 8.11417   2 
   2   1   0 148.173 8.19784   3 
  -2  -1   0 138.867 8.23437   3 
  -3  -1   0 -0.0884 1.60655   3 
  -3   1   0 1.77368 1.15861   4 
  -3  -1   0 1.86622 1.40536   1 
  -3  -1   0 0.36223 1.85706   2 
   3   1   0 2.31139 1.79561   2 
   3   1   0 1.84069 1.77678   3 
   3   1   0 0.03044 1.53806   1 
  -4   1   0 301.114 16.7465   4 
  -4  -1   0 297.789 17.3925   2 
   4  -1   0 283.009 16.9475   2 
  -4  -1   0 286.351 17.2188   3 
  -4   1   0 306.933 16.3658   1 
   4   1   0 287.709 17.3457   2 
   4   1   0 303.851 17.0058   1 
   4   1   0 308.333 17.4983   3 
  -4  -1   0 300.136 16.9420   1 
  -5   1   0 1.03912 1.09281   1 
   5  -1   0 1.10248 2.04133   2 
   5   1   0 1.48690 1.99577   1 
   5   1   0 0.65575 2.83389   2 
  -5  -1   0 1.45051 1.77441   1 
  -5   1   0 1.71342 1.62778   4 
   5   1   0 -1.3867 2.19350   3 
   6   1   0 2475.80 132.263   3 
  -6  -1   0 2378.60 131.331   1 
  -6   1   0 2416.45 130.799   1 
   6  -1   0 2376.21 131.636   2 
   6   1   0 2357.92 131.377   1 
  -6  -1   0 2509.22 131.943   2 
   6   1   0 2390.38 131.952   2 
   7   1   0 4.49390 4.21476   2 
   7  -1   0 2.26650 3.01210   2 
  -7  -1   0 0.53834 2.41519   1 
   7   1   0 0.76660 2.81033   3 
  -7   1   0 0.78071 1.54960   1 
  -7  -1   0 2.85252 3.50673   2 
   7   1   0 -0.0344 2.67411   1 
   8  -1   0 959.004 53.2495   2 
   8   1   0 988.783 52.7535   1 
  -8   1   0 973.201 52.0163   1 
   8   1   0 962.103 53.9521   3 
   8   1   0 941.549 53.7498   2 
  -8  -1   0 936.224 53.4623   2 
  -8  -1   0 885.553 52.5204   1 
  -9  -1   0 1.48432 2.86766   1 
  -9  -1   0 0.75398 4.46052   2 
   9   1   0 1.78718 3.36324   3 
  -9   1   0 -0.6983 2.06258   1 
   9   1   0 -0.1082 3.38202   1 
   9  -1   0 -5.6370 4.94865   2 
   9   1   0 0.67040 5.60697   2 
 -10  -1   0 4.17245 3.05896   1 
  10  -1   0 6.89982 4.68263   3 
 -10   1   0 5.51357 2.44799   1 
  10   1   0 10.8034 5.14712   3 
  10  -1   0 8.07123 5.10905   2 
 -10  -1   0 4.22083 4.98168   2 
  10   1   0 3.20844 3.92988   1 
  10   1   0 10.4688 6.33272   2 
 -11  -1   0 -2.7248 3.08628   1 
 -11   1   0 0.98865 2.46567   1 
  11   1   0 2.15964 6.34115   3 
  11   1   0 -1.4017 4.10773   1 
  11   1   0 -1.8666 6.83211   2 
 -11  -1   0 4.04169 5.91968   2 
  11  -1   0 -0.4953 3.43585   3 
  11  -1   0 -1.5724 5.49084   2 
  12   1   0 823.372 49.7678   2 
  12  -1   0 936.801 49.6011   2 
  12   1   0 814.871 47.5038   1 
 -12   1   0 845.554 46.5189   1 
  12   1   0 760.839 49.2434   3 
 -13   1   0 0.70746 2.97035   1 
  13   1   0 1.54306 8.62696   2 
  13  -1   0 0.62562 7.33996   2 
  13   1   0 1.42506 5.51992   1 
  14  -1   0 18.1333 8.43636   2 
 -14   1   0 15.0824 6.19140   1 
  14   1   0 18.8566 6.56201   1 
  14   1   0 28.0575 10.1549   2 
  15   1   0 -16.420 11.2941   2 
  15  -1   0 2.61574 13.6502   2 
  15   1   0 -4.7112 6.85488   1 
 -15   1   0 -1.9542 3.36812   1 
  16  -1   0 256.483 23.1206   2 
  16   1   0 272.047 24.9281   2 
  17   1   0 -1.5855 12.6770   2 
  17  -1   0 11.0514 11.2970   2 
  18   1   0 62.8872 16.1463   2 
  18  -1   0 71.1235 15.4540   2 
  19  -1   0 8.87745 14.6367   2 
  19   1   0 5.84719 16.9415   2 
   0   2   0 9662.31 536.708   5 
   0  -2   0 9999.99 536.255   5 
  -1  -2   0 0.67012 2.05470   3 
  -1  -2   0 -0.1189 1.82224   1 
  -1  -2   0 1.85726 2.19653   4 
   1  -2   0 1.84122 1.66157   4 
  -1   2   0 -0.2568 1.53789   1 
  -1  -2   0 1.85290 1.59611   2 
  -1   2   0 -0.1373 1.76094   4 
   1   2   0 1.33116 1.89718   1 
  -2  -2   0 424.460 22.7718   3 
   2  -2   0 404.340 22.4383   4 
  -2   2   0 403.964 22.5145   4 
  -2  -2   0 397.111 22.5304   2 
   2   2   0 397.811 22.6928   1 
  -2  -2   0 390.782 22.6721   1 
  -2   2   0 397.093 22.1843   1 
  -2  -2   0 398.816 22.9644   4 
   3  -2   0 0.04307 1.75417   4 
   3   2   0 0.79338 2.39018   1 
  -3   2   0 1.33500 1.44535   1 
  -3  -2   0 1.17773 2.38014   3 
  -3   2   0 0.43936 1.46593   4 
   3   2   0 -1.8559 1.87762   2 
  -3  -2   0 1.41321 2.32251   2 
   4   2   0 457.481 24.9384   3 
  -4   2   0 437.060 24.4339   4 
   4   2   0 436.150 24.6816   2 
   4  -2   0 435.315 24.4111   4 
  -4  -2   0 431.438 25.0679   3 
  -4  -2   0 429.706 25.0718   2 
   4   2   0 435.134 24.9052   1 
  -4  -2   0 436.664 24.8602   1 
  -5  -2   0 0.96002 2.53485   1 
   5   2   0 1.31385 3.01965   3 
  -5  -2   0 0.07907 2.81159   3 
   5   2   0 -0.1809 3.07681   2 
   5   2   0 0.45383 4.88060   1 
  -5  -2   0 0.62074 3.33660   2 
  -5   2   0 -0.3435 1.75449   4 
  -6  -2   0 209.778 16.6688   2 
   6   2   0 217.834 14.7594   1 
  -6  -2   0 231.190 14.4596   3 
   6   2   0 228.479 14.7462   2 
  -6   2   0 223.322 12.6329   1 
   6   2   0 245.386 14.8825   3 
  -6  -2   0 226.714 13.9841   1 
  -7  -2   0 2.18249 4.40974   2 
   7   2   0 5.50425 6.92928   3 
  -7  -2   0 0.70240 3.72049   1 
   7   2   0 2.53499 4.52446   2 
  -7   2   0 0.68711 2.30999   4 
   7   2   0 5.03135 3.20520   1 
   7  -2   0 -1.1920 2.89963   2 
  -7   2   0 -1.3341 1.33747   1 
   8   2   0 194.974 16.7445   2 
   8   2   0 222.403 14.8776   3 
  -8  -2   0 203.025 13.3677   1 
  -8   2   0 223.525 11.9595   1 
   8  -2   0 212.704 13.9616   2 
   8   2   0 182.163 13.4585   1 
  -8   2   0 213.137 13.0052   4 
  -8  -2   0 207.672 15.2196   2 
   9  -2   0 4.18645 4.28602   2 
  -9   2   0 2.71431 1.90584   1 
   9   2   0 -2.6301 4.41381   3 
  -9   2   0 1.17421 3.04697   4 
   9   2   0 0.57530 3.96070   1 
  -9  -2   0 -0.0523 3.10457   1 
   9   2   0 0.55684 5.84648   2 
  -9  -2   0 2.42628 5.33596   2 
 -10   2   0 461.546 26.6074   4 
 -10  -2   0 486.855 27.6743   1 
  10   2   0 445.062 28.8603   2 
  10   2   0 410.971 28.1650   3 
  10   2   0 439.948 27.1048   1 
 -10   2   0 474.425 25.3340   1 
  10  -2   0 452.105 27.5271   2 
  11   2   0 0.54989 5.27746   1 
  11   2   0 6.28813 5.48264   3 
  11  -2   0 0.43059 4.78145   2 
  11   2   0 -1.7766 7.84792   2 
 -11   2   0 6.16844 2.73410   1 
 -11   2   0 -1.2527 3.49409   4 
  12  -2   0 32.7128 6.99888   2 
 -12   2   0 34.0895 5.83623   4 
 -12   2   0 31.8823 4.04128   1 
  12   2   0 20.6349 6.35623   1 
  12   2   0 33.5985 10.5265   2 
  12   2   0 18.5200 7.14746   3 
 -13   2   0 -3.3845 4.41267   4 
  13   2   0 1.98281 6.27678   1 
  13   2   0 -0.3304 9.87341   2 
  13  -2   0 -3.8897 6.21331   2 
  14   2   0 65.3919 13.4786   2 
  14   2   0 19.3932 12.4547   1 
  15  -2   0 -0.1328 8.42624   2 
  15   2   0 11.0859 11.5680   2 
  15   2   0 -2.8418 6.57164   1 
 -15   2   0 -1.9712 1.19323   1 
  16   2   0 160.816 16.1273   1 
  16  -2   0 208.339 19.6166   2 
  16   2   0 182.397 21.7841   2 
  17  -2   0 6.77476 10.2438   2 
  17   2   0 10.2212 12.8133   2 
  17   2   0 10.3125 9.02960   1 
  18  -2   0 60.8022 13.3837   2 
  18   2   0 54.9762 16.3192   2 
   0  -3   0 1.60086 2.92012   4 
   0  -3   0 1.54096 2.35324   2 
   0   3   0 1.88700 2.44401   1 
  -1   3   0 1.15327 2.30794   1 
   1   3   0 2.38863 2.87635   1 
  -1  -3   0 -0.8625 2.51777   1 
  -1  -3   0 1.33274 3.35770   4 
   1  -3   0 0.72292 2.61984   4 
   1  -3   0 2.87967 2.45409   2 
  -1  -3   0 0.81459 3.04353   3 
  -1  -3   0 -4.3117 2.45265   2 
   2   3   0 42.2599 5.02930   1 
  -2  -3   0 47.3991 5.45204   3 
  -2  -3   0 40.4129 5.09711   4 
  -2  -3   0 42.5778 5.07966   2 
  -2   3   0 44.9789 4.84069   4 
  -2  -3   0 42.4124 5.05353   1 
   2  -3   0 45.3751 4.92042   4 
  -2   3   0 40.1115 4.10272   1 
  -3  -3   0 -0.6924 3.79337   4 
   3   3   0 -0.2879 2.78797   1 
  -3   3   0 -0.4179 1.99613   1 
  -3   3   0 -4.2552 2.17051   4 
  -3  -3   0 0.23695 3.06718   1 
   3  -3   0 -0.9824 2.70776   4 
  -3  -3   0 2.35561 3.21891   2 
  -3  -3   0 1.41796 3.35863   3 
  -4  -3   0 120.945 9.05725   1 
  -4  -3   0 116.530 9.17943   3 
  -4   3   0 127.637 8.45434   4 
   4   3   0 119.092 9.24301   1 
   4  -3   0 131.318 8.54003   4 
  -4   3   0 127.117 7.53625   1 
   5   3   0 1.54860 3.39581   2 
  -5   3   0 3.08217 2.70881   4 
  -5   3   0 -2.1561 1.61561   1 
  -5  -3   0 5.30023 4.30087   4 
   5  -3   0 1.22814 2.81115   4 
   5   3   0 6.06644 4.34773   1 
  -5  -3   0 1.44297 4.35897   2 
  -5  -3   0 2.96220 3.60324   1 
  -5  -3   0 0.52680 3.60924   3 
   6   3   0 1297.68 69.6527   2 
   6   3   0 1309.73 70.0649   1 
  -6  -3   0 1236.74 69.8621   3 
  -6   3   0 1319.64 68.3849   1 
  -6  -3   0 1154.62 70.3643   2 
   6   3   0 1226.90 69.6915   3 
  -6   3   0 1279.88 69.3003   4 
   7   3   0 -1.0598 4.55309   3 
  -7  -3   0 -2.3318 5.37425   2 
  -7  -3   0 2.11190 3.79546   1 
   7   3   0 0.02520 4.67398   2 
   7   3   0 2.64187 4.01065   1 
  -7   3   0 -1.3904 2.54939   4 
  -8  -3   0 498.283 31.3489   2 
   8   3   0 510.639 32.4170   2 
  -8   3   0 466.330 30.0818   4 
   8   3   0 506.346 29.7245   3 
   8   3   0 500.476 29.4057   1 
   9   3   0 4.69682 6.77592   2 
   9  -3   0 2.77194 4.11807   2 
   9   3   0 11.1169 5.71171   1 
   9   3   0 -4.8642 4.93700   3 
  -9   3   0 -1.8688 2.79493   4 
  10   3   0 -0.3480 5.97494   3 
 -10   3   0 -1.3690 2.85964   4 
  10   3   0 4.05849 5.93203   1 
  10  -3   0 5.42444 4.42741   2 
  10   3   0 8.98843 7.70254   2 
  11   3   0 8.55353 8.98301   2 
  11   3   0 3.11089 6.80278   3 
  11  -3   0 -0.3127 4.96379   2 
  11   3   0 -13.373 9.81875   1 
 -11   3   0 4.56188 5.23571   4 
  12   3   0 395.493 32.4855   1 
 -12   3   0 529.090 28.5611   4 
  12  -3   0 557.357 30.5424   2 
  12   3   0 463.585 32.1176   2 
  12   3   0 438.415 31.1924   3 
  13   3   0 24.2004 10.9747   2 
  13   3   0 6.04850 7.46930   1 
  13  -3   0 4.47710 6.21276   2 
  14   3   0 2.11810 13.7474   2 
  14   3   0 21.2536 9.11965   1 
  14  -3   0 13.8315 9.42913   2 
  15   3   0 2.03330 8.02176   1 
  15  -3   0 -1.1351 7.51407   2 
  15   3   0 -9.5108 11.3444   2 
  16   3   0 121.448 16.1303   1 
  16  -3   0 178.297 17.8149   2 
  16   3   0 165.742 21.6332   2 
  17  -3   0 -0.9642 9.01906   2 
  17   3   0 -0.0066 11.6085   1 
  17   3   0 5.07153 13.7136   2 
   0  -4   0 3517.86 203.193   2 
   0  -4   0 3995.02 203.649   3 
   0   4   0 3686.55 203.274   1 
   0  -4   0 3775.91 203.634   4 
   1  -4   0 -0.0161 4.10090   4 
  -1   4   0 1.47538 3.19986   1 
  -1  -4   0 0.86476 4.03164   4 
  -1  -4   0 3.01070 4.71492   3 
  -1  -4   0 -0.5131 3.69419   2 
   1  -4   0 0.12617 3.29321   2 
   1   4   0 0.45167 3.71748   1 
  -2  -4   0 144.824 10.6135   3 
  -2  -4   0 122.814 10.2412   2 
  -2   4   0 141.545 8.96867   1 
   2  -4   0 130.624 9.76052   2 
  -2  -4   0 144.908 11.1698   4 
   2   4   0 129.181 9.92124   1 
  -3  -4   0 3.71541 5.24595   1 
  -3  -4   0 -4.6173 4.29129   2 
  -3   4   0 0.54580 2.64442   1 
   3   4   0 0.06567 4.23876   1 
   3  -4   0 -0.0238 4.60008   4 
  -3  -4   0 1.98059 5.72870   4 
  -3  -4   0 1.47905 4.27540   3 
  -4  -4   0 144.485 12.4292   4 
  -4  -4   0 138.652 13.4338   2 
  -4  -4   0 146.286 10.7762   3 
  -4  -4   0 132.781 10.8456   1 
   4   4   0 154.979 10.9896   1 
  -4   4   0 149.093 8.85160   1 
   4  -4   0 123.480 11.3461   4 
   5  -4   0 -4.1131 6.26261   4 
  -5  -4   0 -0.2116 6.16082   2 
  -5  -4   0 -0.2330 4.25682   3 
   5   4   0 3.13987 4.98841   1 
  -5  -4   0 5.51451 6.28824   4 
  -5   4   0 -1.8008 3.00719   4 
  -5   4   0 0.53423 2.02758   1 
  -6  -4   0 91.8648 11.7288   4 
   6   4   0 98.0797 9.64632   1 
  -6   4   0 103.607 8.07370   4 
   7   4   0 16.2013 5.73175   1 
  -7  -4   0 30.1347 7.65521   4 
  -8  -4   0 109.459 13.3516   4 
  -8   4   0 78.5879 7.23204   4 
   8   4   0 82.9645 10.6404   2 
   8   4   0 80.7390 9.73990   1 
   9  -4   0 -3.3650 4.17206   2 
   9   4   0 8.45132 6.47944   1 
   9   4   0 -2.3401 6.65821   2 
  -9   4   0 0.12181 5.00746   4 
  -9  -4   0 39.2889 10.1539   4 
  10   4   0 141.749 14.0475   1 
  10   4   0 179.815 14.8525   2 
 -10   4   0 172.923 11.5792   4 
  11   4   0 4.63067 7.91833   1 
 -11  -4   0 -3.1545 9.83651   4 
  11  -4   0 -1.9983 4.94133   2 
 -11   4   0 -3.8621 3.55312   4 
  11   4   0 24.1012 8.49392   2 
 -12  -4   0 8.26997 9.69491   4 
  12   4   0 15.3560 9.05541   1 
  12  -4   0 13.2937 6.50776   2 
  13  -4   0 -2.2134 6.08400   2 
 -13  -4   0 1.20885 10.5296   4 
  13   4   0 10.8118 9.55555   1 
  13   4   0 28.7028 8.51478   2 
  14   4   0 31.4411 9.73330   1 
  14   4   0 52.5344 11.7448   2 
 -14  -4   0 6.12306 11.4952   4 
  14  -4   0 22.8613 7.99593   2 
  15  -4   0 -5.2024 7.25722   2 
  15   4   0 7.36563 12.2386   1 
 -15  -4   0 -15.590 12.1329   4 
  15   4   0 16.9629 5.66536   2 
   0  -5   0 7.01862 6.34793   3 
   0   5   0 -0.7040 4.42243   1 
   0  -5   0 -0.7326 5.74613   4 
  -1  -5   0 2.91561 5.94173   4 
   1   5   0 1.82231 4.90298   1 
   1  -5   0 1.56094 5.58503   4 
  -1   5   0 2.97611 4.27761   1 
   1  -5   0 2.10243 6.31578   3 
  -1  -5   0 1.41033 5.90123   3 
  -2  -5   0 9.87542 6.72448   4 
  -2  -5   0 6.78913 5.75559   3 
   2  -5   0 12.6449 5.60913   4 
   2  -5   0 14.3423 7.61490   3 
   2   5   0 14.8390 5.81403   1 
   3   5   0 1.09328 5.56457   1 
   3  -5   0 3.74401 5.34269   4 
  -3   5   0 14.8888 3.39303   1 
  -3  -5   0 -4.8449 4.67131   3 
  -3  -5   0 6.16114 7.43399   4 
  -4  -5   0 51.6938 9.89402   4 
  -4  -5   0 43.3849 6.65492   3 
   4   5   0 40.5248 7.32176   1 
   4  -5   0 53.1624 6.83384   4 
   5   5   0 2.28559 6.34415   1 
   5  -5   0 1.91763 5.07060   4 
  -5  -5   0 0.41210 7.69774   4 
   6   5   0 547.081 32.3249   1 
   6  -5   0 498.989 30.9063   4 
  -6  -5   0 549.291 34.8264   4 
  -7  -5   0 4.77757 9.42803   4 
   7   5   0 7.83566 7.27912   1 
   8   5   0 171.419 15.3891   1 
  -8  -5   0 204.454 18.7165   4 
   9   5   0 9.30097 8.40716   1 
  -9  -5   0 27.7543 11.9751   4 
   9  -5   0 -0.9716 5.07685   2 
  10   5   0 30.2786 9.83220   1 
 -10  -5   0 15.1191 11.4302   4 
  10  -5   0 0.44389 5.80929   2 
  11  -5   0 -1.4887 5.44706   2 
 -11  -5   0 -0.5489 10.6546   4 
  11   5   0 4.64331 9.31777   1 
  12  -5   0 254.724 19.9864   2 
  12   5   0 336.820 24.5711   1 
 -12  -5   0 209.922 24.1817   4 
 -13  -5   0 8.43230 13.6725   4 
  13   5   0 16.4261 11.0356   1 
  13  -5   0 2.15535 6.77263   2 
   1  -6   0 -1.2961 6.65090   4 
   1  -6   0 -1.7043 11.2312   3 
  -1  -6   0 1.81066 6.03263   3 
  -1  -6   0 -9.0839 9.45476   4 
   1   6   0 -4.6177 6.23696   1 
  -1   6   0 -3.0857 1.22057   1 
   2  -6   0 58.1674 10.3748   3 
  -2  -6   0 45.2615 9.72669   4 
   2   6   0 40.8595 8.29269   1 
   2  -6   0 43.4900 7.97953   4 
   3  -6   0 4.78307 6.72694   4 
   3  -6   0 -6.6221 7.89430   3 
  -3  -6   0 5.80609 8.78023   4 
   3   6   0 2.37405 10.9377   1 
   4  -6   0 39.7155 7.88710   4 
   4  -6   0 60.1912 11.2485   3 
   4   6   0 68.1574 10.2385   1 
  -4  -6   0 53.3947 11.8692   4 
   5   6   0 4.30141 8.11598   1 
  -5  -6   0 3.32906 8.26518   4 
   5  -6   0 -9.1214 5.52952   4 
  -6  -6   0 20.7649 11.8181   4 
  -7  -6   0 28.0935 12.6131   4 
   7   6   0 31.8135 9.67175   1 
   8   6   0 27.1912 9.99916   1 
  -8  -6   0 37.8063 13.1522   4 
   1   0   1 0.14913 0.57433   1 
  -2   0   1 6.78463 0.99472   1 
  -2   0   1 3.45469 1.06129   2 
  -2   0  -1 6.11252 0.95936   1 
  -2   0  -1 7.00248 1.72677   3 
   2   0   1 6.59938 1.73011   3 
   2   0  -1 3.25386 1.12644   2 
   2   0   1 4.90340 1.32834   2 
   2   0   1 7.78853 1.04823   1 
  -2   0  -1 2.44150 1.23983   2 
   3   0   1 31.2090 2.99831   2 
   3   0  -1 20.1486 2.71342   2 
   3   0   1 22.2033 2.03162   1 
  -3   0  -1 21.6954 2.78586   2 
   3   0   1 22.9865 2.77131   3 
  -3   0  -1 21.8422 2.93364   3 
  -3   0   1 17.9195 2.55116   2 
  -3   0   1 20.9283 1.92840   1 
   3   0  -1 22.0118 2.03180   1 
  -3   0  -1 21.5599 1.96379   1 
   4   0   1 1385.19 77.6243   2 
  -4   0  -1 1390.39 77.5463   2 
  -4   0  -1 1476.88 77.1827   1 
  -4   0   1 1406.50 77.5564   2 
   4   0   1 1444.07 77.1878   1 
   4   0  -1 1446.80 77.2205   1 
  -4   0   1 1455.19 77.1942   1 
   4   0  -1 1359.97 77.5748   2 
   5   0   1 300.957 18.2828   2 
  -5   0  -1 313.958 18.1424   2 
   5   0  -1 304.431 18.1957   2 
  -5   0   1 311.224 17.4823   1 
   5   0   1 311.542 17.5052   1 
   5   0  -1 318.547 17.5622   1 
  -5   0   1 306.901 18.0833   2 
   5   0   1 307.463 18.4184   3 
  -5   0  -1 321.598 17.4845   1 
   6   0   1 102.763 8.13189   3 
  -6   0   1 94.3830 6.03294   1 
  -6   0  -1 92.6008 5.98376   1 
   6   0   1 83.2322 7.55185   2 
   6   0  -1 79.9354 7.19439   2 
   6   0   1 87.2757 6.00853   1 
   6   0  -1 91.7029 6.16903   1 
  -6   0   1 93.7055 7.10503   2 
  -7   0   1 1187.34 69.0424   1 
  -7   0  -1 1281.62 68.3269   1 
  -7   0  -1 1281.62 69.1581   2 
   7   0  -1 1272.22 68.4291   1 
   7   0   1 1212.03 68.3282   1 
   7   0   1 1238.60 69.2969   2 
   7   0   1 1199.25 69.4793   3 
   7   0  -1 1247.42 69.3152   2 
  -7   0   1 1323.63 69.2016   2 
   8   0  -1 390.019 23.9051   2 
  -8   0   1 387.692 22.3413   1 
  -8   0  -1 395.700 22.3509   1 
  -8   0   1 415.662 23.8285   2 
   8   0  -1 386.348 22.4939   1 
   8   0   1 382.308 23.7901   3 
  -8   0  -1 395.444 23.6103   2 
   8   0   1 398.114 22.5458   1 
   8   0   1 386.346 23.8812   2 
   9   0   1 452.603 25.5635   1 
   9   0   1 419.289 26.9506   3 
   9   0   1 460.351 28.6978   2 
  -9   0  -1 437.987 25.3229   1 
  -9   0  -1 470.664 26.9379   2 
  -9   0   1 454.623 26.8526   2 
  -9   0   1 437.159 25.3581   1 
   9   0  -1 427.792 26.6014   3 
   9   0  -1 462.145 25.6135   1 
 -10   0   1 294.097 17.8788   1 
  10   0   1 313.115 18.3404   1 
  10   0   1 331.806 21.2453   3 
  10   0  -1 307.746 20.4753   2 
 -10   0   1 335.016 20.1814   2 
  10   0   1 291.741 20.2975   2 
 -10   0  -1 300.244 19.8291   2 
 -10   0  -1 284.993 17.7893   1 
  10   0  -1 281.263 19.3786   3 
 -11   0   1 36.3771 6.97563   2 
 -11   0  -1 28.0187 4.20992   1 
 -11   0  -1 33.2838 7.87700   2 
  11   0   1 27.1133 5.67613   3 
  11   0  -1 38.2905 7.50171   2 
  11   0   1 44.2603 5.74372   1 
  11   0   1 38.0269 7.84728   2 
 -11   0   1 36.6963 4.59028   1 
  11   0  -1 33.4675 6.57694   3 
  12   0   1 24.2495 5.67845   1 
 -12   0  -1 16.6318 3.80714   1 
  12   0   1 17.3296 7.84807   2 
 -12   0  -1 21.8860 7.08962   2 
  12   0  -1 20.0488 7.31301   2 
  13   0  -1 41.4254 9.31490   2 
 -13   0   1 17.4658 4.12357   1 
  13   0   1 19.5238 8.61274   2 
  13   0   1 34.5334 6.11012   1 
 -13   0  -1 17.2914 4.19753   1 
  14   0  -1 49.5485 10.7286   2 
  14   0   1 33.1168 10.1491   2 
  15   0  -1 189.863 21.0101   2 
  15   0   1 143.613 21.0948   2 
  16   0  -1 3.59362 10.9462   2 
  16   0   1 13.1916 11.0309   2 
  17   0   1 73.4435 14.0329   2 
  17   0  -1 61.1298 13.7281   2 
  18   0  -1 17.5072 13.1312   2 
  18   0   1 13.8058 12.3393   2 
  19   0  -1 43.9583 20.6930   2 
   0   1   1 183.235 10.4734   1 
   0  -1   1 186.552 10.2937   1 
   0  -1  -1 181.349 10.5226   4 
   0   1   1 179.672 10.4962   4 
   0   1  -1 189.570 10.2776   1 
   0  -1  -1 186.672 10.4165   2 
  -1   1   1 746.701 40.8691   4 
  -1  -1  -1 814.975 41.1049   3 
   1  -1   1 750.122 40.5854   1 
  -1  -1  -1 728.502 40.9214   1 
  -1  -1  -1 744.407 40.8540   2 
   1   1  -1 733.974 40.8115   1 
   1  -1   1 739.308 40.6546   4 
  -1  -1   1 754.033 40.6439   2 
  -1  -1   1 757.520 40.8455   1 
   1   1   1 733.924 40.9363   1 
  -1   1  -1 727.101 40.6802   4 
   1  -1  -1 760.845 40.8723   4 
  -1   1  -1 753.197 40.5624   1 
   1   1   1 741.179 40.8262   2 
   2   1  -1 22.4570 2.33746   1 
  -2  -1  -1 20.9746 2.66904   2 
   2   1  -1 25.9372 2.38880   2 
  -2  -1  -1 25.8570 3.16703   3 
   2  -1   1 22.8963 1.86732   4 
  -2   1   1 21.5290 2.24331   4 
  -2  -1  -1 24.5003 2.58306   1 
   2   1  -1 24.3208 2.25559   3 
  -2  -1   1 25.9111 2.37077   1 
   2   1   1 26.4540 2.72500   1 
   2  -1  -1 21.8700 2.33295   4 
   2   1   1 23.6842 2.76062   2 
  -2   1  -1 23.7840 1.86645   4 
  -2  -1   1 24.8352 2.64651   2 
   2   1   1 24.8464 2.87297   3 
   3   1  -1 394.303 21.3545   3 
   3   1  -1 371.593 21.2993   2 
  -3  -1  -1 376.127 21.2442   1 
  -3  -1  -1 397.091 21.7907   3 
  -3  -1  -1 364.246 21.3979   2 
  -3   1   1 373.502 21.0861   4 
  -3   1  -1 378.867 20.8526   4 
   3   1   1 392.837 21.3417   1 
   3   1   1 343.455 21.3295   2 
  -3  -1   1 396.483 21.2289   1 
   3   1   1 396.991 21.8104   3 
   3  -1  -1 371.536 21.0792   4 
  -3  -1   1 379.811 21.4296   2 
   4   1  -1 201.550 12.1312   1 
  -4  -1  -1 211.848 12.1999   1 
   4   1  -1 198.082 12.5870   2 
  -4  -1  -1 195.640 12.5852   2 
   4  -1   1 209.213 12.2486   2 
   4   1  -1 212.954 12.4404   3 
  -4  -1  -1 219.640 12.9130   3 
  -4   1   1 207.877 12.0559   4 
  -4  -1   1 214.358 12.6732   2 
   4   1   1 200.493 12.2603   1 
  -4   1  -1 217.221 11.4692   1 
   4   1   1 196.127 12.6564   2 
  -4   1  -1 208.577 11.8147   4 
  -4  -1   1 208.653 12.1379   1 
   4   1   1 211.599 12.9484   3 
  -5   1   1 247.266 13.7593   1 
   5   1  -1 235.124 14.2730   1 
  -5  -1  -1 249.742 15.0437   3 
   5   1  -1 247.940 15.0763   2 
   5   1  -1 246.074 14.7241   3 
  -5  -1  -1 240.501 14.2701   1 
   5  -1   1 238.043 14.5004   2 
  -5   1   1 251.408 14.2784   4 
   5   1   1 234.691 15.0877   2 
  -5   1  -1 248.635 13.5875   1 
   5   1   1 247.406 15.2604   3 
   5  -1  -1 235.756 14.5525   2 
  -5  -1   1 248.548 14.2788   1 
   5   1   1 251.308 14.4286   1 
  -6  -1  -1 401.188 24.0935   2 
  -6   1   1 402.750 22.7947   1 
   6  -1   1 416.089 23.7584   2 
   6   1  -1 403.474 24.2424   2 
  -6  -1  -1 406.448 23.3419   1 
   6   1  -1 421.333 23.4660   1 
  -6  -1  -1 416.378 24.2139   3 
   6   1  -1 407.485 23.9423   3 
   6   1   1 408.013 23.4776   1 
  -6   1  -1 423.966 22.7014   1 
   6   1   1 416.792 24.4883   3 
  -6  -1   1 425.351 24.1045   2 
   6  -1  -1 407.936 23.8060   2 
   6   1   1 399.306 24.2364   2 
  -7   1   1 232.857 13.6446   1 
  -7  -1  -1 248.523 15.5609   2 
  -7  -1  -1 239.504 14.2999   1 
   7  -1   1 231.543 15.0831   3 
   7   1  -1 247.356 15.8814   2 
   7  -1   1 227.052 14.8833   2 
   7   1  -1 238.103 14.4684   1 
  -7   1  -1 247.443 13.5642   1 
   7   1   1 230.299 14.4558   1 
   7   1   1 250.349 15.8953   2 
   7  -1  -1 248.399 15.2075   2 
  -7  -1   1 221.371 15.2015   2 
   7   1   1 237.359 15.6752   3 
  -7  -1   1 238.671 14.2896   1 
   8  -1   1 19.0540 4.21669   2 
   8   1  -1 23.0127 4.70095   3 
  -8  -1  -1 17.5701 4.88459   2 
   8   1  -1 24.1475 4.24383   1 
  -8   1   1 27.3810 3.05888   1 
  -8  -1  -1 21.3943 3.71725   1 
   8  -1   1 15.2978 3.35911   3 
   8   1  -1 22.8745 5.64787   2 
   8   1   1 22.5243 5.80823   2 
   8   1   1 18.2834 4.35770   3 
   8   1   1 15.2559 3.99404   1 
  -8   1  -1 24.2088 2.89194   1 
   8  -1  -1 23.2462 4.81441   2 
  -8  -1   1 24.9362 3.64381   1 
  -8  -1   1 20.1037 4.48907   2 
  -9   1   1 529.050 28.0981   1 
  -9  -1  -1 483.961 29.9453   2 
   9  -1   1 470.181 29.6396   3 
   9   1  -1 500.794 28.8354   1 
   9   1  -1 487.942 29.8650   3 
   9  -1   1 555.974 30.0029   2 
  -9  -1  -1 468.822 28.5387   1 
   9   1  -1 555.379 31.7106   2 
  -9  -1   1 486.729 29.8431   2 
   9   1   1 466.056 30.2159   3 
   9   1   1 488.539 28.8175   1 
   9   1   1 494.007 30.4305   2 
   9  -1  -1 522.769 33.1843   2 
  -9  -1   1 490.244 28.6126   1 
  -9   1  -1 522.556 27.9939   1 
  10  -1   1 845.840 47.2426   2 
 -10   1   1 842.697 45.3988   1 
  10   1  -1 796.593 46.1423   1 
  10  -1   1 824.581 47.6920   3 
  10   1  -1 767.814 47.3524   3 
  10   1  -1 820.058 47.8436   2 
 -10  -1  -1 809.093 47.6259   2 
 -10  -1  -1 831.787 45.9735   1 
  10   1   1 859.844 46.2721   1 
 -10  -1   1 804.028 45.9510   1 
  10   1   1 761.305 47.7550   3 
  10   1   1 808.960 47.8847   2 
 -10  -1   1 807.006 47.2530   2 
  10  -1  -1 866.326 47.2896   2 
 -10   1  -1 851.336 45.3159   1 
 -11   1   1 1.25529 2.56995   1 
  11   1  -1 4.69143 4.61516   1 
  11  -1   1 -2.2136 5.53437   2 
  11   1  -1 6.49531 4.92762   3 
  11   1  -1 -2.3648 6.84704   2 
  11  -1   1 0.86703 3.59512   3 
 -11  -1  -1 -10.243 5.32193   2 
 -11  -1  -1 -0.6252 3.35712   1 
 -11  -1   1 -6.9196 9.92330   2 
  11  -1  -1 -1.0589 5.30190   2 
 -11  -1   1 -1.0097 2.92154   1 
  11   1   1 1.08236 4.12432   3 
 -11   1  -1 -1.7015 2.55628   1 
  11   1   1 2.18939 4.61358   1 
  11   1   1 -2.8731 6.49350   2 
  12   1  -1 23.4980 6.51958   3 
 -12   1   1 26.6223 4.05097   1 
  12  -1   1 34.8130 8.37181   2 
  12   1  -1 34.1548 6.60526   1 
 -12  -1  -1 25.0185 5.54201   1 
  12   1  -1 26.6758 9.08136   2 
  12   1   1 28.8827 5.75884   1 
 -12   1  -1 25.6114 3.93645   1 
  12   1   1 24.8700 7.73192   3 
  12   1   1 22.1618 8.83121   2 
  12  -1  -1 37.4489 8.04288   2 
 -13   1   1 411.555 24.8820   1 
  13  -1   1 431.318 28.7542   2 
  13   1  -1 457.533 29.7433   2 
  13   1  -1 461.186 26.6128   1 
 -13   1  -1 415.211 24.8018   1 
  13   1   1 412.850 29.5270   2 
  13  -1  -1 456.921 28.8792   2 
  13   1   1 416.643 26.3612   1 
 -14   1   1 126.874 9.42838   1 
  14   1  -1 117.256 11.7718   1 
  14   1  -1 123.028 17.0556   2 
  14  -1   1 140.797 15.2532   2 
  14   1   1 145.595 16.7186   2 
 -14   1  -1 116.735 9.14702   1 
  14  -1  -1 142.137 15.6461   2 
  14   1   1 128.652 12.1641   1 
  15  -1   1 -0.1264 9.57670   2 
  15   1  -1 -1.4565 12.9199   2 
  15   1   1 -0.0793 6.99553   1 
 -15   1  -1 4.44270 3.67129   1 
  16   1  -1 477.566 34.8177   2 
  16  -1   1 483.092 34.2139   2 
  16   1   1 467.819 35.1761   2 
  16  -1  -1 488.271 34.0163   2 
  16   1   1 505.109 30.7160   1 
  17   1  -1 105.449 17.1938   2 
  17  -1   1 112.850 16.6428   2 
  17   1   1 116.516 17.9170   2 
  17  -1  -1 75.1738 14.5433   2 
  18   1  -1 77.1997 16.3504   2 
  18  -1   1 75.0060 15.1018   2 
  18  -1  -1 51.9935 14.4875   2 
  18   1   1 75.8471 16.3030   2 
  19  -1   1 8.66660 15.0153   2 
  19  -1  -1 9.31713 14.7269   2 
  19   1   1 12.2915 13.1504   2 
   0   2   1 2.50403 1.95727   1 
   0  -2  -1 6.30846 1.83958   2 
   0   2   1 2.66140 2.06169   4 
   0  -2  -1 4.01213 1.94327   4 
   0  -2   1 7.13756 1.81024   4 
  -1  -2  -1 4.21430 2.07317   1 
  -1   2   1 1.75937 1.75930   4 
  -1  -2  -1 0.95146 1.72147   2 
   1   2  -1 0.68923 1.66641   1 
   1  -2   1 -0.1578 1.51327   4 
  -1  -2  -1 -1.4947 2.00805   4 
  -1  -2  -1 0.65428 2.36925   3 
  -1   2   1 1.37280 1.90850   1 
  -1  -2   1 0.21200 1.80595   1 
   1  -2  -1 -0.5363 1.71619   4 
  -1  -2   1 0.80352 2.03766   4 
  -1  -2   1 3.22146 1.70418   3 
   1   2   1 4.31807 2.15409   1 
  -1  -2   1 0.55681 1.39291   2 
  -1   2  -1 -0.9122 1.30896   1 
   2  -2   1 4.65568 1.70595   4 
  -2  -2  -1 -2.0052 2.39964   4 
   2   2  -1 4.01504 2.09734   1 
  -2   2   1 4.71955 1.78320   4 
  -2  -2  -1 1.88894 2.71282   3 
  -2   2   1 1.63472 1.86575   1 
  -2  -2  -1 1.34130 1.96632   2 
  -2  -2  -1 1.70112 2.18298   1 
  -2   2  -1 4.31027 1.26802   1 
  -2   2  -1 0.82370 1.55580   4 
   2   2   1 3.41546 2.36371   1 
  -2  -2   1 3.55011 1.82504   3 
  -2  -2   1 4.48713 2.09090   1 
   2  -2  -1 4.78857 2.01094   4 
   2   2   1 0.85499 1.94281   2 
  -2  -2   1 3.45196 1.91038   2 
  -3   2   1 22.2875 2.72011   4 
  -3  -2  -1 14.5695 3.33268   4 
  -3  -2  -1 23.8758 4.20113   2 
   3  -2   1 21.4539 2.71479   4 
   3   2  -1 24.8450 3.51357   1 
   3   2  -1 21.2133 2.91451   2 
  -3  -2  -1 16.5178 3.62106   3 
  -3  -2  -1 21.0886 3.43833   1 
   3   2   1 18.5658 3.04532   1 
   3   2   1 21.4911 3.01961   2 
  -3   2  -1 31.9357 2.92072   4 
  -3  -2   1 14.8993 3.24707   1 
  -3  -2   1 21.3742 3.13308   2 
  -3  -2   1 18.8467 2.74304   3 
  -3   2  -1 17.8533 1.75306   1 
   3  -2  -1 24.2679 2.95756   4 
   3   2   1 22.5730 3.51107   3 
  -4   2   1 898.418 48.5768   4 
   4   2  -1 866.469 48.7853   1 
  -4  -2  -1 840.059 48.7941   1 
   4  -2   1 820.493 48.1907   4 
   4   2  -1 932.643 48.6577   3 
   4   2  -1 893.192 48.4291   2 
  -4  -2  -1 877.019 49.2960   3 
  -4  -2  -1 895.656 49.0431   2 
   4   2   1 872.207 48.7107   2 
   4   2   1 897.629 48.9538   1 
  -4   2  -1 881.480 48.2813   4 
   4   2   1 896.495 49.0022   3 
  -4  -2   1 876.561 48.7859   1 
  -4  -2   1 899.540 49.5559   2 
   4  -2  -1 890.225 48.5134   4 
  -5   2   1 210.805 12.0478   4 
   5   2  -1 203.349 12.4414   2 
  -5  -2  -1 190.737 13.1435   3 
   5   2  -1 195.268 12.4178   1 
  -5  -2  -1 201.329 13.1029   2 
  -5  -2  -1 197.210 12.4147   1 
   5   2  -1 206.550 12.5781   3 
  -5  -2   1 203.008 12.3865   1 
   5   2   1 197.855 12.6210   1 
  -5   2  -1 200.166 11.6464   4 
  -5  -2   1 182.945 12.9351   2 
   5   2   1 197.432 12.7731   2 
   5   2   1 200.652 12.9607   3 
   6   2  -1 44.2864 5.85757   1 
  -6   2   1 58.9111 4.94896   4 
   6  -2   1 51.8387 5.43142   2 
   6   2  -1 55.3706 6.20301   3 
  -6  -2  -1 48.3309 8.31477   2 
  -6  -2  -1 60.1052 6.72203   3 
  -6  -2  -1 56.4731 5.62797   1 
   6   2  -1 64.0269 6.80637   2 
  -6  -2   1 46.2444 6.84292   2 
  -6  -2   1 57.7673 5.44453   1 
   6   2   1 55.3047 6.91499   3 
   6   2   1 44.6654 8.22820   1 
  -6   2  -1 54.2521 4.46874   4 
   6   2   1 58.9224 7.14226   2 
   7   2  -1 868.512 48.4973   1 
   7   2  -1 914.029 49.2747   3 
  -7   2   1 907.897 47.4228   1 
   7   2  -1 868.602 48.9469   2 
  -7  -2  -1 828.622 49.1669   2 
  -7   2   1 880.618 48.1577   4 
  -7  -2  -1 856.224 49.1025   3 
  -7  -2  -1 865.253 48.4569   1 
   7  -2   1 859.888 48.4282   2 
   7   2   1 899.848 49.6662   3 
  -7   2  -1 918.435 47.1105   1 
   7  -2  -1 841.099 48.4464   2 
  -7  -2   1 801.403 49.0393   2 
   7   2   1 913.771 48.7306   1 
  -7  -2   1 797.228 48.3605   1 
   7   2   1 854.753 49.0380   2 
   8   2  -1 280.202 18.8987   2 
   8   2  -1 290.528 18.5701   3 
  -8   2   1 296.669 17.2467   4 
   8  -2   1 294.594 17.8531   2 
  -8  -2  -1 268.601 18.9549   2 
  -8   2   1 286.369 16.1752   1 
   8   2  -1 261.917 17.5985   1 
  -8  -2  -1 339.760 18.7886   1 
  -8   2  -1 296.924 15.8941   1 
   8  -2  -1 274.047 17.9184   2 
   8   2   1 296.992 20.3358   2 
   8   2   1 276.332 17.7790   1 
  -8   2  -1 287.730 16.8323   4 
  -8  -2   1 285.005 19.1017   2 
   8   2   1 264.706 18.8957   3 
  -8  -2   1 275.799 17.4310   1 
  -9   2   1 344.886 17.9710   1 
   9   2  -1 303.134 19.5563   1 
  -9   2   1 333.980 19.2240   4 
  -9  -2  -1 279.011 20.8630   2 
   9   2  -1 324.414 20.6256   3 
  -9  -2  -1 262.634 18.9677   1 
   9   2  -1 309.078 21.1377   2 
   9  -2   1 253.611 21.2592   2 
   9   2   1 336.330 19.7769   1 
   9  -2  -1 337.452 19.9649   2 
   9   2   1 331.681 21.3998   2 
  -9  -2   1 290.186 20.7628   2 
  -9   2  -1 339.396 17.6607   1 
   9   2   1 303.863 20.9851   3 
  -9  -2   1 324.287 19.3142   1 
  -9   2  -1 346.767 18.8446   4 
  10   2  -1 228.422 16.7864   3 
 -10  -2  -1 236.481 16.1580   1 
  10   2  -1 237.928 18.2120   2 
 -10   2   1 234.974 14.2141   1 
 -10   2   1 246.540 15.2108   4 
  10   2  -1 248.361 15.7100   1 
  10  -2   1 238.064 16.0401   2 
  10  -2   1 212.381 15.9772   3 
  10   2   1 231.713 18.2057   2 
  10   2   1 233.525 15.6653   1 
  10   2   1 213.886 16.9135   3 
 -10   2  -1 248.894 13.4570   1 
  10  -2  -1 254.482 16.5092   2 
 -10  -2   1 194.445 17.0893   1 
  11   2  -1 24.4718 6.07209   1 
 -11   2   1 28.7551 3.79352   1 
  11   2  -1 22.2332 8.98668   2 
  11  -2   1 36.6336 6.83886   2 
  11   2  -1 15.5780 6.38814   3 
  11  -2  -1 37.4663 6.74930   2 
  11   2   1 26.2068 11.0125   3 
 -11   2  -1 37.9455 5.36792   4 
 -11   2  -1 32.1266 3.55862   1 
  11   2   1 25.7354 6.27847   1 
  11   2   1 41.7175 9.03300   2 
 -12   2   1 22.2457 5.28271   4 
 -12   2   1 22.6962 3.55464   1 
  12   2  -1 9.80595 6.07618   3 
  12   2  -1 17.2950 6.12847   1 
  12  -2   1 22.2657 6.98729   2 
  12   2  -1 17.9390 9.77843   2 
  12   2   1 18.3795 9.54434   2 
  12  -2  -1 20.7591 6.71943   2 
 -12   2  -1 20.2476 3.31831   1 
 -12   2  -1 25.3932 4.91639   4 
  12   2   1 15.2747 7.11934   3 
  12   2   1 19.7817 6.73970   1 
  13   2  -1 30.4335 11.1007   2 
  13   2  -1 18.6409 7.17094   1 
 -13   2   1 29.8484 4.08683   1 
  13  -2   1 22.2005 7.56004   2 
  13   2   1 19.8582 10.1287   2 
  13   2   1 20.9030 7.33203   1 
  13  -2  -1 21.3449 7.62683   2 
 -13   2  -1 17.6736 4.68367   4 
  14   2  -1 28.6180 11.6358   2 
  14   2  -1 24.0833 13.5871   1 
  14  -2   1 25.5037 8.27269   2 
  14   2   1 22.2677 9.91265   1 
  14   2   1 35.2755 12.2189   2 
  14  -2  -1 23.9353 8.26262   2 
  15  -2   1 131.316 15.3579   2 
  15   2  -1 110.508 22.8449   2 
  15   2  -1 128.118 13.1449   1 
  15   2   1 111.410 15.5581   2 
  15   2   1 95.1548 12.5096   1 
  15  -2  -1 91.7830 12.8257   2 
  16  -2   1 -9.4268 9.05329   2 
  16   2  -1 24.1795 13.9159   2 
  16   2  -1 11.4655 6.91244   1 
  16  -2  -1 -1.1572 8.71127   2 
  16   2   1 6.34728 8.52234   1 
  16   2   1 11.8828 12.1210   2 
  17   2  -1 53.6517 14.3774   2 
  17  -2   1 76.3088 12.8497   2 
  17  -2  -1 95.7835 14.8556   2 
  17   2   1 96.7241 18.6603   2 
  18   2  -1 15.6716 13.8136   2 
  18  -2   1 18.3863 12.3219   2 
  18   2   1 10.6314 13.7010   2 
  18  -2  -1 35.2313 13.2310   2 
  18   2   1 14.8689 10.0510   1 
   0  -3   1 81.1172 6.36655   4 
   0   3   1 69.2897 6.15675   1 
   0  -3   1 71.3419 5.80360   1 
   0  -3  -1 77.4378 6.14194   2 
   0  -3  -1 80.6658 6.65477   4 
   0  -3   1 74.1773 5.63102   2 
   0   3  -1 75.7213 5.70713   1 
   1  -3   1 321.178 18.7925   4 
   1   3  -1 329.878 18.8190   1 
  -1   3   1 314.483 19.1514   4 
  -1  -3  -1 313.247 19.3311   4 
  -1   3   1 321.122 18.7366   1 
  -1  -3  -1 356.423 19.4098   3 
  -1  -3  -1 323.623 18.9175   2 
   1  -3  -1 315.153 18.7498   2 
   1   3   1 330.762 19.0863   1 
  -1   3  -1 323.438 18.4310   1 
  -1  -3   1 320.511 18.9536   1 
   1  -3  -1 319.495 19.0462   4 
  -1  -3   1 339.128 18.7703   3 
  -1  -3   1 320.092 19.1737   4 
  -2  -3  -1 28.7399 4.82212   3 
  -2   3   1 30.6326 3.60595   1 
  -2  -3  -1 35.4641 4.78751   4 
   2  -3   1 34.3823 3.95907   4 
  -2  -3  -1 19.1466 3.80092   2 
  -2   3   1 20.3554 3.49341   4 
   2   3  -1 30.4799 4.01513   1 
  -2  -3   1 24.9405 3.70155   2 
  -2  -3   1 26.0392 3.81786   3 
   2   3   1 28.2979 4.27890   1 
  -2  -3   1 21.6356 4.14813   4 
   2  -3  -1 30.6570 4.08707   4 
  -2   3  -1 24.5368 3.06300   1 
  -2  -3   1 28.3317 4.19055   1 
   3   3  -1 161.472 10.7713   1 
  -3  -3  -1 153.247 10.8637   1 
   3  -3   1 160.331 10.2303   4 
  -3   3   1 157.849 10.5872   4 
  -3  -3  -1 156.045 11.9491   2 
  -3   3   1 167.980 10.0874   1 
  -3  -3  -1 173.602 11.6902   3 
  -3  -3  -1 149.419 11.5770   4 
  -3  -3   1 166.689 10.9679   2 
  -3   3  -1 172.778 9.54081   1 
  -3  -3   1 174.051 11.8999   4 
   3   3   1 160.928 11.2447   1 
  -3  -3   1 177.210 11.0099   1 
  -3  -3   1 162.762 10.3958   3 
   3  -3  -1 164.078 10.6504   4 
  -3   3  -1 165.847 10.5809   4 
  -4   3   1 108.806 7.75560   4 
  -4  -3  -1 100.118 8.12078   1 
   4  -3   1 107.312 7.33829   4 
  -4   3   1 108.974 6.94385   1 
  -4  -3  -1 99.2558 8.74550   2 
   4   3  -1 104.311 8.15169   1 
  -4  -3  -1 109.076 9.54289   4 
  -4  -3  -1 102.267 8.96020   3 
  -4  -3   1 101.274 8.81686   2 
  -4   3  -1 108.846 6.11601   1 
   4   3   1 104.589 7.98127   2 
   4  -3  -1 105.040 7.79398   4 
  -4   3  -1 98.5635 7.33740   4 
   4   3   1 107.123 8.49235   1 
  -4  -3   1 92.9211 7.32958   3 
  -4  -3   1 104.411 8.12059   1 
   5   3  -1 103.754 7.51962   2 
  -5  -3  -1 94.6177 9.74223   4 
   5  -3   1 103.471 7.25333   4 
  -5  -3  -1 89.3707 8.15848   1 
  -5   3   1 101.607 6.73880   1 
  -5  -3  -1 100.451 9.09784   3 
  -5  -3  -1 101.221 9.69529   2 
   5   3  -1 105.180 8.37918   1 
  -5   3   1 109.202 7.70707   4 
   5  -3  -1 108.779 7.89477   4 
  -5  -3   1 113.052 8.40182   1 
   5   3   1 96.2884 8.56988   1 
   5   3   1 97.6931 8.35671   2 
  -5   3  -1 102.169 7.24813   4 
  -5  -3   1 102.691 9.37776   2 
  -6  -3  -1 188.030 13.6473   2 
  -6  -3  -1 164.561 12.5718   3 
   6   3  -1 177.099 11.5181   2 
  -6  -3  -1 219.606 15.2038   4 
   6   3  -1 198.480 12.0610   1 
  -6   3   1 162.989 12.0610   4 
  -6  -3   1 138.507 12.7434   2 
  -6   3  -1 167.562 10.6970   4 
   6   3   1 179.588 12.3103   1 
  -6  -3   1 171.786 13.2891   1 
   6   3   1 147.620 12.1005   3 
   6   3   1 163.420 12.2088   2 
   7   3  -1 112.551 9.41022   1 
  -7  -3  -1 134.505 10.7354   1 
  -7  -3  -1 114.996 10.2870   3 
  -7   3   1 115.206 8.00757   4 
   7   3  -1 107.054 9.36526   2 
  -7  -3  -1 107.973 11.1185   2 
   7   3  -1 113.300 8.92525   3 
  -7  -3   1 90.5687 8.70916   1 
  -7  -3   1 110.544 15.7612   2 
  -7   3  -1 112.582 7.67522   4 
   7   3   1 108.979 9.57402   1 
   7   3   1 107.837 9.47501   3 
   7   3   1 90.2882 12.0724   2 
   8   3  -1 19.5249 6.30500   3 
  -8   3   1 28.3207 4.43250   4 
  -8   3   1 18.7884 2.35994   1 
   8  -3   1 17.9090 4.37180   2 
   8   3  -1 28.3551 5.66349   1 
   8   3  -1 13.6117 6.23841   2 
  -8  -3   1 16.9401 6.48193   2 
   8   3   1 13.6347 5.62983   3 
   8  -3  -1 20.3022 4.71065   2 
   8   3   1 5.34160 6.54651   2 
   8   3   1 20.7129 5.47371   1 
  -8   3  -1 17.1321 3.21362   4 
   9   3  -1 274.344 18.4916   3 
   9   3  -1 238.852 18.9160   2 
  -9   3   1 297.905 15.6223   1 
   9   3  -1 297.218 18.7832   1 
   9  -3   1 262.817 17.7105   2 
  -9   3   1 286.417 17.0505   4 
   9   3   1 302.650 18.7161   1 
   9  -3  -1 272.235 17.9990   2 
   9   3   1 251.767 18.9970   3 
  -9   3  -1 298.225 17.3330   4 
   9   3   1 256.343 19.5489   2 
  10  -3   1 474.440 27.5253   2 
 -10   3   1 375.699 28.9391   4 
  10   3  -1 492.536 28.3275   1 
  10   3  -1 407.264 28.1105   3 
 -10   3   1 521.234 25.0574   1 
  10   3  -1 405.448 28.4817   2 
 -10   3  -1 454.711 25.9720   4 
  10  -3  -1 463.968 27.6056   2 
  10   3   1 457.369 27.7386   1 
  10   3   1 414.975 28.9890   2 
  10   3   1 463.768 28.9543   3 
  11   3  -1 0.69601 6.66071   3 
  11   3  -1 -3.5399 8.14825   2 
  11   3  -1 -2.7067 5.65648   1 
  11  -3   1 -1.9310 4.87826   2 
 -11   3   1 -7.6378 3.29266   4 
  11   3   1 8.91416 8.89849   2 
  11   3   1 -1.0174 7.43958   3 
  11  -3  -1 3.62493 5.13600   2 
  11   3   1 0.15688 5.92904   1 
 -11   3  -1 -1.8107 2.89962   4 
  12   3  -1 29.3466 10.0226   2 
  12   3  -1 13.8834 10.3923   3 
  12  -3   1 20.1055 6.41301   2 
  12   3   1 17.4077 10.4069   2 
  12  -3  -1 16.6236 6.32363   2 
  12   3   1 5.48598 8.14344   1 
  12   3   1 17.1561 11.7706   3 
  13   3  -1 213.033 18.5329   1 
  13  -3   1 273.376 18.8038   2 
  13   3  -1 203.811 21.6437   2 
  13   3   1 234.585 22.5319   2 
  13  -3  -1 270.416 18.9681   2 
  13   3   1 311.409 20.2318   1 
 -13   3  -1 249.393 15.9964   4 
  14   3  -1 91.6540 12.3856   1 
  14  -3   1 33.0993 13.7213   2 
  14   3  -1 69.6628 13.8378   2 
  14   3   1 56.4614 9.82198   1 
  15   3  -1 -10.825 8.45083   1 
  15   3  -1 4.80871 12.1746   2 
  15  -3   1 -3.1310 7.37204   2 
  15   3   1 -1.1448 9.09039   1 
  15  -3  -1 3.31724 7.35800   2 
  15   3   1 7.62215 12.6068   2 
  16   3  -1 335.758 23.8408   1 
  16   3  -1 240.007 26.3220   2 
  16  -3   1 366.085 26.1563   2 
  16  -3  -1 292.288 24.3770   2 
  16   3   1 231.530 27.7946   2 
  16   3   1 363.712 24.2786   1 
  17   3  -1 26.5826 10.0877   1 
  17  -3   1 32.6667 10.7208   2 
  17   3  -1 55.7682 14.8373   2 
  17   3   1 40.9361 13.9905   1 
  17  -3  -1 51.9603 11.5591   2 
  17   3   1 42.0197 15.8240   2 
   0  -4  -1 -1.1759 4.91086   3 
   0  -4   1 5.13595 4.19742   3 
   0   4  -1 5.65456 3.46041   1 
   0  -4  -1 0.91109 3.61622   2 
   0  -4   1 21.5811 7.56469   4 
   0  -4  -1 5.62996 4.63554   4 
  -1  -4  -1 0.59321 3.87485   2 
  -1  -4  -1 -6.0973 5.09599   3 
  -1   4   1 2.66971 3.57937   1 
   1   4  -1 11.0414 7.41785   1 
  -1  -4  -1 1.64800 4.68258   4 
   1  -4   1 1.81196 3.91397   4 
  -1   4  -1 -2.4353 2.92033   1 
   1  -4  -1 4.70461 4.51819   4 
   1   4   1 -0.0990 3.95157   1 
  -1  -4   1 2.93791 4.24186   2 
   1  -4  -1 -1.3721 3.51640   2 
  -1  -4   1 1.33726 4.07179   3 
  -1  -4   1 -0.4750 4.42009   4 
  -2  -4  -1 2.17916 4.96243   3 
  -2  -4  -1 0.32107 5.52082   4 
   2   4  -1 -1.1318 3.72917   1 
   2  -4   1 0.90554 3.86230   4 
  -2  -4  -1 3.87624 4.54251   2 
  -2   4   1 -0.4356 3.16173   1 
   2   4   1 1.33502 4.23709   1 
  -2  -4   1 3.61920 4.03303   2 
  -2  -4   1 -1.4731 3.65141   1 
   2  -4  -1 -0.3734 3.71133   2 
  -2  -4   1 -3.3737 3.52210   3 
  -2  -4   1 0.21399 4.79155   4 
   2  -4  -1 -1.8349 4.11427   4 
  -2   4  -1 4.51770 2.85412   1 
  -3  -4  -1 5.29732 5.40321   4 
   3   4  -1 12.0072 4.27202   1 
  -3   4   1 15.2149 3.59437   1 
   3  -4   1 13.2481 4.18345   4 
  -3  -4  -1 7.04431 5.39858   2 
  -3   4   1 16.6646 4.09356   4 
  -3  -4  -1 6.13187 5.19959   3 
  -3  -4   1 13.9480 4.83721   2 
  -3   4  -1 14.5625 2.73246   1 
   3  -4  -1 11.5032 4.48591   4 
  -3  -4   1 7.05168 3.52952   3 
  -3  -4   1 5.36433 5.27464   4 
  -3  -4   1 14.7995 4.62152   1 
   3  -4  -1 11.8953 4.36185   2 
   3   4   1 13.3721 4.94568   1 
   4   4  -1 369.738 22.1821   1 
  -4  -4  -1 426.377 23.9594   4 
  -4  -4  -1 319.659 22.8907   2 
   4  -4   1 354.319 21.5666   4 
  -4   4   1 387.708 21.1521   1 
  -4   4   1 356.536 22.1367   4 
  -4  -4  -1 378.253 23.0613   3 
  -4  -4   1 302.311 24.5286   2 
  -4   4  -1 369.500 20.5003   1 
   4  -4  -1 372.931 22.0861   4 
  -4  -4   1 409.173 23.7598   4 
   4   4   1 397.669 22.6546   1 
   5  -4   1 78.8535 7.35708   4 
   5   4  -1 69.5246 8.45080   1 
  -5  -4  -1 93.3225 10.6474   4 
  -5   4   1 86.8421 6.19185   1 
  -5   4   1 86.5457 7.58538   4 
  -5  -4  -1 84.0593 9.33333   3 
  -5  -4   1 77.1914 9.18579   2 
  -5  -4   1 81.4813 10.6877   1 
  -5  -4   1 84.2088 10.6779   4 
   5  -4  -1 91.7298 8.00766   4 
   5   4   1 84.9404 8.94444   1 
   6   4  -1 23.6763 5.95036   1 
  -6   4   1 15.8608 4.08715   4 
  -6  -4  -1 19.8984 7.56101   4 
  -6  -4  -1 19.7359 6.21972   3 
  -6   4   1 22.6949 3.16393   1 
   6  -4  -1 23.5217 5.03286   4 
  -6   4  -1 19.9619 4.29539   4 
  -6  -4   1 24.2051 7.96171   4 
   6   4   1 19.5211 6.00922   1 
  -7  -4  -1 372.459 25.6702   4 
  -7  -4  -1 366.407 24.2862   3 
  -7   4   1 367.029 25.1528   4 
  -7   4   1 431.799 21.6001   1 
   7   4  -1 392.107 24.2782   1 
   7   4   1 396.647 24.6453   1 
  -7   4  -1 384.650 22.7652   4 
  -7  -4   1 383.891 26.1265   4 
   8  -4   1 148.194 11.0948   2 
   8   4  -1 134.813 12.1197   1 
  -8   4   1 132.843 10.2519   4 
  -8  -4  -1 117.348 14.6440   4 
  -8   4  -1 142.733 9.69396   4 
  -8  -4   1 147.669 15.2191   4 
   8   4   1 127.730 12.8925   2 
   8   4   1 145.765 12.7871   1 
   9  -4   1 152.461 12.0356   2 
  -9   4   1 158.343 11.1307   4 
  -9  -4  -1 150.315 16.0481   4 
   9   4  -1 136.526 12.9995   1 
  -9   4  -1 149.602 10.2957   4 
   9   4   1 129.381 14.1775   2 
  -9  -4   1 161.806 16.3801   4 
   9   4   1 169.956 15.5900   1 
   9  -4  -1 153.191 12.2347   2 
 -10  -4  -1 67.3342 18.1826   4 
  10   4  -1 81.3137 11.4024   1 
  10  -4   1 133.509 10.9698   2 
  10   4  -1 132.403 11.6678   2 
  10   4   1 104.520 12.1243   1 
  10  -4  -1 130.735 11.4418   2 
 -10   4  -1 111.211 8.54707   4 
  10   4   1 90.2281 13.7317   2 
  11  -4   1 11.8030 5.90257   2 
  11   4  -1 13.2926 7.64269   1 
 -11  -4  -1 27.9257 11.3738   4 
  11  -4  -1 8.11953 5.75921   2 
  11   4   1 19.9932 8.75449   1 
  11   4   1 16.4988 9.26924   2 
  12  -4   1 11.4278 6.25133   2 
  12   4  -1 9.96688 8.38035   1 
  12   4  -1 -0.7079 4.81982   3 
 -12  -4  -1 20.6245 11.1798   4 
  12   4   1 11.7535 13.4434   1 
 -12   4  -1 3.10824 2.78463   4 
  12  -4  -1 17.2751 7.96734   2 
  12   4   1 10.1943 9.99311   2 
 -13  -4  -1 19.7373 10.2106   4 
  13   4  -1 8.31038 8.82960   1 
  13  -4   1 11.2152 8.69778   2 
  13   4   1 13.4332 10.1980   2 
  13  -4  -1 2.59539 6.40596   2 
  13   4   1 2.21672 8.57518   1 
  14  -4   1 14.4869 7.70536   2 
 -14  -4  -1 6.60816 9.96550   4 
  14   4  -1 26.4786 11.0922   1 
  14   4   1 6.69871 9.98671   2 
  14  -4  -1 4.07864 6.92403   2 
  14   4   1 6.04427 9.26454   1 
  15   4  -1 80.4903 14.7495   1 
  15  -4   1 56.9604 10.2932   2 
 -15  -4  -1 38.1888 14.4343   4 
  15  -4  -1 48.0105 9.85888   2 
  15   4   1 56.3126 11.6690   2 
  15   4   1 93.0022 15.4304   1 
   0   5  -1 21.7660 4.82201   1 
   0  -5   1 6.07755 4.65166   2 
   0   5   1 9.31399 5.09442   1 
   0  -5   1 13.7708 5.81280   3 
   0  -5   1 16.6090 6.16908   4 
   0  -5  -1 7.09762 11.3295   3 
   0  -5  -1 15.0554 6.43710   4 
   1   5  -1 111.383 9.00172   1 
   1  -5   1 108.541 9.83671   3 
  -1  -5  -1 105.396 11.0674   3 
  -1  -5  -1 115.372 11.4614   4 
   1  -5   1 100.969 9.15365   2 
  -1   5   1 107.275 9.00223   1 
   1  -5   1 89.9979 9.79359   4 
  -1   5  -1 104.587 8.23212   1 
  -1  -5   1 110.492 10.5952   4 
  -1  -5   1 85.5307 10.9086   2 
  -1  -5   1 103.443 8.78150   3 
   1  -5  -1 109.846 10.6632   4 
   1  -5  -1 111.446 11.4286   3 
   1   5   1 101.041 9.67852   1 
   2  -5   1 14.9415 4.66509   2 
   2  -5   1 17.1108 5.61887   4 
  -2  -5  -1 22.8858 7.33142   4 
  -2   5   1 18.9739 4.91862   1 
  -2  -5  -1 18.0242 7.34149   3 
   2   5  -1 19.5393 5.70355   1 
   2  -5  -1 24.1252 8.04540   3 
  -2  -5   1 10.9166 6.24755   4 
   2  -5  -1 27.8756 6.34303   4 
  -2   5  -1 22.4975 4.19340   1 
   2   5   1 16.8642 6.07498   1 
   3  -5   1 60.6976 7.75398   4 
   3   5  -1 61.3533 7.81034   1 
   3  -5   1 60.5991 8.99494   2 
  -3   5   1 56.6717 7.84551   1 
  -3  -5  -1 55.0624 8.74567   3 
  -3  -5  -1 67.7742 10.3227   4 
  -3  -5   1 85.4508 10.6349   4 
   3  -5  -1 72.8100 8.07524   4 
   3   5   1 82.2203 8.88475   1 
   4   5  -1 54.4194 8.19808   1 
  -4  -5  -1 40.1777 9.55621   4 
   4  -5   1 61.7322 7.30598   4 
  -4  -5  -1 67.5733 9.20213   3 
   4  -5  -1 68.2280 7.76893   4 
   4   5   1 65.7229 8.61571   1 
  -4  -5   1 49.1739 10.1251   4 
   5   5  -1 37.3035 7.52402   1 
  -5  -5  -1 36.9289 7.33883   3 
   5  -5   1 44.8905 6.24542   4 
  -5  -5  -1 23.0396 8.23457   4 
  -5  -5   1 27.6706 8.82843   4 
   5  -5  -1 38.5409 6.59453   4 
   5   5   1 31.0327 7.86408   1 
  -6  -5  -1 51.1731 16.4578   4 
   6   5  -1 87.0494 10.7858   1 
   6   5   1 103.257 11.7090   1 
   6  -5  -1 58.7085 7.95081   4 
  -7  -5  -1 55.6254 12.0980   4 
   7   5  -1 51.2157 9.30747   1 
   7   5   1 42.5024 8.89033   1 
  -7  -5   1 31.6501 10.5113   4 
  -8  -5  -1 10.6162 10.7734   4 
   8   5  -1 24.9621 8.01946   1 
  -8  -5   1 59.5036 11.0423   4 
   8   5   1 11.3059 8.03948   1 
   9   5  -1 110.641 12.7945   1 
  -9  -5  -1 139.695 16.7488   4 
   9  -5   1 115.229 10.8690   2 
  -9  -5   1 124.227 15.5658   4 
   9  -5  -1 98.7086 11.4225   2 
   9   5   1 88.3034 12.6782   1 
  10  -5   1 198.464 15.3541   2 
  10   5  -1 223.976 18.0128   1 
 -10  -5  -1 205.012 20.3033   4 
 -10  -5   1 166.343 20.1580   4 
  10   5   1 157.879 17.3497   1 
 -11  -5  -1 4.62906 11.8519   4 
  11   5  -1 10.1057 10.1975   1 
  11   5   1 -1.6691 8.58582   1 
  11  -5  -1 -2.0364 6.02161   2 
 -11  -5   1 3.30482 10.8030   4 
  12   5  -1 58.7180 14.4214   1 
  12  -5   1 4.17102 6.34774   2 
 -12  -5  -1 13.3721 10.9700   4 
  12   5   1 11.9913 12.1464   1 
 -12  -5   1 40.7007 13.5250   4 
  12  -5  -1 11.2650 6.89232   2 
  13  -5   1 152.255 14.4010   2 
  13   5  -1 141.572 17.3893   1 
 -13  -5  -1 119.557 19.7565   4 
  13   5   1 102.171 15.7135   1 
  13  -5  -1 124.792 14.9605   2 
 -13  -5   1 144.008 20.4843   4 
   0  -6  -1 -5.6935 8.50030   3 
   0  -6  -1 -12.482 7.63868   4 
   0  -6   1 33.1460 8.05188   4 
   0   6   1 17.0619 6.17984   1 
   0   6  -1 1.35549 2.28652   1 
   1   6  -1 20.9363 5.97625   1 
   1  -6   1 -5.0684 5.97720   3 
  -1  -6  -1 -6.9266 7.73039   4 
   1  -6   1 -4.8139 6.56851   4 
  -1   6   1 -3.8247 2.21226   1 
  -1  -6   1 0.62892 8.67814   4 
   1  -6  -1 -2.4857 8.38740   3 
   1   6   1 -2.6638 6.37547   1 
  -1   6  -1 -2.0341 1.26756   1 
   1  -6  -1 10.3140 10.2417   4 
  -2   6   1 -2.0753 1.40703   1 
  -2  -6  -1 -0.6346 8.21922   4 
   2   6  -1 -1.3704 6.25624   1 
   2  -6   1 -6.1470 9.96044   3 
  -2  -6  -1 0.46067 6.77921   3 
   2  -6   1 1.63564 6.16859   4 
   2  -6  -1 -4.8742 8.91354   4 
  -2  -6   1 0.95718 8.12644   4 
   2  -6  -1 -7.5625 9.05180   3 
   2   6   1 1.33851 6.90129   1 
  -3  -6  -1 4.06885 6.70455   3 
   3   6  -1 18.6787 9.58793   1 
   3  -6   1 8.97620 6.30622   4 
  -3   6   1 1.38892 1.38297   1 
  -3  -6  -1 18.4115 8.93410   4 
   3  -6   1 5.07502 7.45094   3 
   3  -6  -1 -2.7823 6.78018   4 
  -3  -6   1 -5.1140 7.81225   4 
   3  -6  -1 6.89305 9.58310   3 
   3   6   1 15.1591 8.02045   1 
   4   6  -1 119.289 12.4615   1 
   4  -6   1 116.217 11.3045   4 
   4  -6   1 133.988 13.4253   3 
  -4  -6  -1 137.967 15.1889   4 
  -4  -6   1 125.510 14.9428   4 
   4   6   1 158.683 13.7908   1 
   4  -6  -1 118.523 12.4248   4 
   4  -6  -1 141.117 15.1415   3 
   5   6  -1 39.5375 8.99562   1 
  -5  -6  -1 20.9596 10.1918   4 
   5  -6   1 29.4574 6.37754   4 
   5   6   1 24.5066 8.78985   1 
  -5  -6   1 16.0586 8.98686   4 
   5  -6  -1 14.1347 6.92197   4 
  -6  -6  -1 21.6236 11.9197   4 
   6   6  -1 -5.9804 11.2368   1 
   6   6   1 31.8213 13.2061   1 
  -6  -6   1 10.6474 9.96486   4 
   7   6  -1 113.302 14.0324   1 
  -7  -6  -1 138.929 17.4435   4 
  -7  -6   1 124.694 17.2100   4 
   7   6   1 129.230 13.9654   1 
   8   6  -1 48.7366 11.7553   1 
  -8  -6  -1 45.0659 13.5451   4 
   8   6   1 31.3652 9.85795   1 
  -8  -6   1 66.1207 15.3404   4 
   0   0   2 387.599 22.1817   4 
   0   0  -2 394.672 22.1938   4 
   0   0   2 410.105 22.2343   2 
   0   0   2 414.886 22.4173   3 
   0   0  -2 408.573 22.2261   2 
   0   0  -2 428.399 22.4537   3 
  -1   0   2 369.421 21.1249   4 
   1   0   2 405.565 21.5211   3 
   1   0   2 362.024 21.1444   2 
  -1   0  -2 421.592 21.5876   3 
  -1   0  -2 379.438 21.1584   2 
  -1   0  -2 393.801 21.0488   4 
   1   0   2 368.118 21.0103   4 
   2   0  -2 335.255 18.9100   2 
   2   0   2 331.803 18.6716   1 
   2   0   2 352.297 19.3422   3 
   2   0   2 321.925 18.9012   2 
  -2   0  -2 328.823 18.8885   2 
  -2   0  -2 365.259 19.3848   3 
   3   0   2 884.726 46.2660   3 
  -3   0   2 836.314 45.4061   1 
   3   0   2 802.552 45.7122   2 
  -3   0  -2 876.305 46.1674   3 
   3   0  -2 815.111 45.7033   2 
  -3   0  -2 827.511 45.6914   2 
  -3   0  -2 831.577 45.3489   1 
   3   0   2 817.961 45.3622   1 
  -3   0   2 799.361 45.6148   2 
   4   0   2 3900.75 211.051   1 
  -4   0  -2 3780.46 211.396   2 
   4   0   2 3998.68 212.072   3 
  -4   0  -2 3753.28 210.990   1 
  -4   0   2 3999.74 211.104   1 
  -4   0   2 3868.62 211.414   2 
  -4   0  -2 4005.88 211.872   3 
  -5   0   2 155.762 9.08843   1 
  -5   0  -2 152.201 9.89458   2 
   5   0   2 148.551 10.1357   2 
   5   0   2 155.181 10.3928   3 
  -5   0  -2 151.523 9.05121   1 
  -5   0   2 154.022 9.90922   2 
  -5   0  -2 161.062 10.4491   3 
   5   0   2 151.538 9.12977   1 
   5   0  -2 138.945 10.0427   2 
  -6   0  -2 1096.13 58.7695   1 
  -6   0   2 1093.66 59.5078   2 
   6   0   2 1135.93 60.3988   3 
   6   0   2 1058.08 59.5703   2 
  -6   0  -2 976.979 60.0884   2 
   6   0   2 1085.38 58.8341   1 
   6   0  -2 1059.47 59.5212   2 
  -6   0   2 1089.73 58.8457   1 
   7   0   2 54.1411 4.83369   1 
   7   0   2 54.2555 6.16566   3 
   7   0  -2 53.9581 6.71215   2 
  -7   0  -2 59.8178 4.59909   1 
  -7   0   2 56.3979 6.51565   2 
  -7   0   2 54.0397 4.55030   1 
   7   0   2 49.1952 6.90042   2 
  -7   0  -2 60.7822 6.40938   2 
  -8   0  -2 77.2416 5.86905   1 
   8   0   2 69.9937 8.65165   2 
   8   0   2 97.4162 9.10745   3 
  -8   0  -2 84.4109 8.07995   2 
   8   0   2 74.4335 6.07145   1 
  -8   0   2 73.6920 5.88847   1 
   8   0  -2 75.9724 8.39253   2 
   9   0   2 121.881 10.7361   3 
  -9   0   2 129.788 8.86857   1 
   9   0  -2 138.783 12.8059   2 
  -9   0   2 134.139 10.7917   2 
  -9   0  -2 144.057 11.1398   2 
   9   0   2 133.423 9.23758   1 
  -9   0  -2 134.705 8.83195   1 
  10   0   2 2.42433 3.34976   3 
 -10   0  -2 5.79849 5.19089   2 
 -10   0   2 7.32599 5.45406   2 
  10   0  -2 11.2671 6.02687   2 
  10   0   2 9.61562 4.07787   1 
  10   0   2 10.9487 6.03465   2 
 -10   0  -2 5.79508 2.99600   1 
 -10   0   2 7.25976 2.97197   1 
  11   0  -2 373.457 25.0707   2 
  11   0   2 411.032 25.7150   2 
 -11   0  -2 384.370 22.4734   1 
  11   0   2 394.619 22.9023   1 
  11   0  -2 383.270 24.2308   3 
  11   0   2 338.538 24.6654   3 
 -11   0   2 394.518 22.5820   1 
 -11   0   2 406.904 24.7495   2 
  12   0  -2 94.0565 12.4320   2 
  12   0   2 80.5857 8.25502   1 
 -12   0   2 62.4750 6.60063   1 
 -12   0  -2 77.8840 6.90285   1 
  12   0   2 88.6287 11.0066   2 
 -12   0  -2 82.4377 9.68917   2 
 -13   0  -2 227.142 15.0142   1 
  13   0   2 251.613 20.0518   2 
  13   0   2 248.868 16.0868   1 
  13   0  -2 228.396 19.5009   2 
  14   0   2 6.92202 8.98907   2 
  14   0  -2 10.3559 8.92419   2 
  14   0   2 10.3350 6.33420   1 
  15   0  -2 447.132 38.2395   2 
  15   0   2 465.548 34.4574   2 
  16   0  -2 61.5965 13.5875   2 
  16   0   2 78.9384 14.1690   2 
  17   0  -2 74.6194 14.6484   2 
  17   0   2 86.9656 15.2658   2 
  18   0  -2 52.6910 14.5211   2 
  18   0   2 41.1489 13.8927   2 
  19   0   2 0.04643 14.8100   2 
   0  -1  -2 -0.3806 1.63408   4 
   0  -1  -2 0.26345 1.18560   2 
   0  -1   2 0.55925 0.90343   3 
   0  -1   2 1.61494 0.92048   1 
   0   1   2 2.24658 1.27974   4 
   0   1   2 1.14481 1.28808   2 
   1   1  -2 520.519 28.7769   1 
  -1   1   2 519.561 28.9120   4 
   1  -1   2 539.656 28.6236   4 
   1  -1   2 518.610 28.5519   1 
  -1  -1  -2 542.869 28.9655   2 
  -1  -1  -2 497.838 28.9991   4 
   1  -1   2 521.487 28.9498   3 
  -1  -1  -2 559.683 29.2968   3 
   1  -1  -2 533.346 28.9285   4 
   1   1   2 529.772 28.9407   2 
   1   1   2 522.532 29.0283   4 
   1   1   2 505.301 28.9834   1 
  -1  -1   2 527.920 28.5492   2 
  -1  -1   2 515.575 28.7920   1 
   2   1  -2 1521.33 84.4225   1 
  -2  -1  -2 1573.60 84.5885   2 
   2   1  -2 1570.67 84.1920   2 
   2  -1   2 1535.34 84.7112   3 
  -2   1   2 1560.52 84.4855   4 
  -2  -1  -2 1439.64 84.5014   1 
  -2  -1  -2 1573.96 84.6631   4 
  -2  -1  -2 1642.79 85.0522   3 
  -2  -1   2 1516.94 84.4175   2 
  -2   1  -2 1605.26 84.0441   4 
   2   1   2 1533.65 84.5996   1 
   2   1   2 1688.20 84.9697   3 
   2  -1  -2 1542.57 84.4697   4 
  -2  -1   2 1567.09 84.4688   1 
   2   1   2 1452.34 84.5154   2 
  -3   1   2 1133.54 63.5665   4 
   3   1  -2 1180.65 63.5938   1 
   3  -1   2 1191.74 63.4468   2 
  -3  -1  -2 1206.92 63.8694   2 
   3   1  -2 1126.74 63.6576   2 
  -3  -1  -2 1181.90 64.2976   3 
   3  -1   2 1181.62 64.0224   3 
   3   1   2 1168.63 64.2320   3 
   3  -1  -2 1149.37 63.5754   4 
  -3  -1   2 1122.46 63.7027   2 
  -3  -1   2 1188.31 63.6295   1 
  -3   1  -2 1160.30 63.1344   4 
   3   1   2 1174.16 63.7509   1 
   3   1   2 1156.91 63.8181   2 
  -4   1   2 676.737 36.4772   4 
   4   1  -2 660.731 36.4220   1 
   4  -1   2 644.342 36.9421   3 
   4  -1   2 656.498 36.4006   2 
  -4  -1  -2 672.050 36.8255   2 
   4   1  -2 633.389 36.6851   2 
   4   1  -2 647.463 36.4313   3 
  -4  -1  -2 666.109 37.2988   3 
  -4  -1  -2 642.777 36.4768   1 
   4  -1   2 652.127 35.7655   1 
   4   1   2 697.874 37.4619   3 
  -4  -1   2 645.388 36.6963   2 
   4   1   2 652.986 37.0559   2 
   4   1   2 685.348 36.6170   1 
   5  -1   2 24.2557 2.22909   1 
  -5  -1  -2 30.9638 4.20419   2 
   5   1  -2 31.1497 4.27957   2 
  -5  -1  -2 24.8262 4.54446   3 
   5  -1   2 37.9106 4.87257   3 
   5   1  -2 24.5916 3.36783   1 
   5  -1   2 26.2022 3.76913   2 
  -5  -1  -2 26.9518 3.24587   1 
   5   1  -2 24.9148 3.46257   3 
  -5   1   2 30.3832 3.30830   4 
   5   1   2 20.4330 3.43313   1 
   5   1   2 17.1030 3.49556   3 
   5   1   2 26.7383 4.18779   2 
   5  -1  -2 25.0430 3.42956   2 
  -5   1  -2 26.0952 2.22567   1 
  -6  -1  -2 25.3254 3.35642   1 
   6   1  -2 31.0151 4.93753   2 
   6  -1   2 26.4139 3.64255   2 
  -6  -1  -2 22.0501 4.20368   2 
  -6   1   2 28.5497 3.51132   4 
   6   1  -2 28.9900 3.92345   3 
   6  -1   2 22.5843 2.57978   1 
  -6  -1  -2 17.0342 4.33525   3 
   6  -1   2 22.4142 3.49420   3 
  -6   1   2 24.1263 2.82696   1 
  -6  -1   2 19.8613 3.66768   2 
  -6  -1   2 21.4736 3.09670   1 
   6   1   2 24.2114 4.70992   3 
  -6   1  -2 23.4681 2.46315   1 
   6  -1  -2 27.9858 3.92167   2 
   6   1   2 29.1693 4.99047   2 
   6   1   2 27.7320 3.90652   1 
  -7  -1  -2 151.620 9.84562   1 
  -7  -1  -2 151.871 11.4691   3 
   7  -1   2 151.420 9.06874   1 
  -7   1   2 153.108 9.17565   1 
   7  -1   2 146.115 10.5150   2 
   7  -1   2 131.402 10.4643   3 
   7   1  -2 155.743 9.96516   1 
  -7   1   2 157.807 10.0317   4 
   7   1  -2 169.576 10.7667   3 
   7   1  -2 158.447 11.8065   2 
  -7  -1  -2 155.858 11.2550   2 
  -7  -1   2 152.192 10.9409   2 
  -7  -1   2 142.364 9.70852   1 
   7   1   2 148.193 11.6772   2 
  -7   1  -2 157.123 8.95177   1 
   7  -1  -2 149.845 10.7106   2 
   7   1   2 149.086 11.3335   3 
   7   1   2 142.090 10.0234   1 
   8   1  -2 116.796 9.24903   3 
   8   1  -2 115.688 11.1304   2 
  -8   1   2 120.789 8.65365   4 
  -8  -1  -2 113.855 10.3405   2 
  -8  -1  -2 120.131 8.43162   1 
   8  -1   2 126.645 7.75924   1 
   8   1  -2 115.899 9.95276   1 
   8  -1   2 111.195 9.53368   2 
   8  -1   2 111.576 9.31796   3 
  -8   1   2 123.723 8.04612   1 
   8  -1  -2 120.848 9.93153   2 
  -8   1  -2 115.189 7.43564   1 
   8   1   2 115.394 10.7221   2 
   8   1   2 123.371 10.3159   3 
  -8  -1   2 111.553 9.64783   2 
   8   1   2 125.887 8.87322   1 
  -8  -1   2 124.781 8.36772   1 
  -9  -1  -2 549.731 31.5675   1 
   9   1  -2 540.479 32.5873   3 
  -9  -1  -2 518.866 32.6077   2 
  -9   1   2 539.818 30.9808   1 
   9   1  -2 625.877 34.8431   2 
   9   1  -2 551.251 31.7443   1 
   9  -1   2 565.705 32.7337   2 
   9   1   2 556.763 33.3546   2 
  -9  -1   2 563.149 32.8850   2 
  -9  -1   2 556.216 31.6234   1 
  -9   1  -2 556.106 30.8198   1 
   9  -1  -2 573.549 32.6760   2 
   9   1   2 557.705 31.8184   1 
   9   1   2 526.600 33.4101   3 
  10   1  -2 253.674 16.0725   1 
 -10   1   2 252.772 15.0015   1 
  10  -1   2 265.961 17.6665   2 
  10   1  -2 248.642 16.9819   3 
 -10  -1  -2 263.367 17.8689   2 
  10  -1   2 226.161 16.9651   3 
 -10  -1  -2 245.216 15.6278   1 
  10   1  -2 230.548 18.3305   2 
  10   1   2 257.665 18.0034   3 
  10  -1  -2 242.540 17.2228   2 
 -10  -1   2 253.956 17.7135   2 
 -10  -1   2 292.414 16.5311   1 
  10   1   2 260.277 18.4573   2 
  10   1   2 244.983 16.0125   1 
 -11  -1  -2 67.7013 9.11539   2 
  11  -1   2 68.7388 10.4426   3 
  11   1  -2 60.6393 8.09731   3 
 -11   1   2 61.1574 5.50794   1 
  11  -1   2 59.3299 8.39959   2 
  11   1  -2 72.0300 9.88635   2 
 -11  -1  -2 47.1558 6.28620   1 
  11   1  -2 65.8916 7.58284   1 
  11   1   2 54.5065 6.85878   1 
  11   1   2 74.7556 9.28213   3 
  11   1   2 75.4361 9.82229   2 
 -11   1  -2 64.1455 5.49570   1 
 -11  -1   2 53.7181 6.13790   1 
  11  -1  -2 86.5048 9.73567   2 
  12   1  -2 331.692 24.3323   2 
 -12  -1  -2 344.475 21.7132   1 
  12  -1   2 354.624 23.6200   2 
 -12   1   2 323.509 19.8670   1 
  12   1  -2 326.096 21.1300   1 
  12   1  -2 318.990 22.3966   3 
  12   1   2 363.509 21.4067   1 
 -12   1  -2 328.674 19.6959   1 
  12   1   2 346.418 24.0937   2 
  12  -1  -2 358.626 23.2473   2 
  13  -1   2 -2.2381 7.36396   2 
  13   1  -2 4.50144 8.78615   2 
  13  -1  -2 3.25045 7.03691   2 
 -13   1  -2 -5.3897 2.95590   1 
  13   1   2 7.80998 8.52850   2 
  13   1   2 -3.9274 5.38142   1 
  14  -1   2 8.84219 8.03495   2 
 -14   1   2 2.63001 3.54407   1 
  14   1  -2 13.0333 9.89961   2 
  14   1   2 2.52743 6.05767   1 
  14  -1  -2 10.0903 8.21597   2 
  14   1   2 16.1607 10.4356   2 
 -14   1  -2 3.87839 3.47371   1 
  15  -1   2 7.26367 10.4582   2 
  15   1   2 -2.9281 11.6004   2 
  15  -1  -2 13.9023 12.5395   2 
 -15   1  -2 9.25610 3.81078   1 
  15   1   2 2.88425 6.93542   1 
  16  -1   2 80.8491 13.8503   2 
  16   1  -2 69.1619 13.9912   2 
  16  -1  -2 65.9277 12.9431   2 
  16   1   2 67.6705 14.6793   2 
  16   1   2 80.7152 13.3939   1 
  17   1  -2 85.7663 15.8974   2 
  17  -1   2 99.3581 15.6525   2 
  17   1   2 98.8942 16.9828   2 
  17  -1  -2 111.967 15.6809   2 
  17   1   2 68.7353 10.8573   1 
  18   1  -2 64.1716 15.0735   2 
  18  -1   2 47.3454 13.6349   2 
  18  -1  -2 62.4959 13.8446   2 
  18   1   2 55.5843 15.0783   2 
  19  -1   2 97.4156 20.0006   2 
  19   1   2 56.1062 16.3282   2 
  19  -1  -2 54.9164 16.9467   2 
   0  -2   2 226.465 13.5572   4 
   0   2   2 242.642 13.8542   1 
   0   2   2 203.878 15.4755   4 
   0   2  -2 244.142 13.3633   1 
   0  -2   2 245.319 13.4838   1 
   0  -2  -2 241.490 13.7025   2 
   0  -2  -2 233.753 13.9186   4 
  -1  -2  -2 204.891 12.5993   4 
  -1  -2  -2 219.485 12.8240   3 
   1  -2   2 200.310 11.8830   4 
   1  -2   2 214.224 11.8285   1 
  -1   2   2 190.551 13.1431   4 
   1   2  -2 207.402 12.0219   1 
  -1  -2  -2 214.201 12.6283   2 
  -1   2   2 196.367 12.2209   1 
   1  -2  -2 203.960 12.2018   2 
   1  -2  -2 208.874 12.3919   4 
  -1   2  -2 217.068 11.7179   1 
   1   2   2 204.148 12.5312   4 
   1   2   2 209.358 12.4774   1 
  -1  -2   2 205.640 11.6538   2 
  -1  -2   2 214.935 12.1422   1 
   2   2  -2 218.705 13.2198   1 
  -2  -2  -2 235.052 14.0769   3 
  -2  -2  -2 268.830 14.4419   4 
  -2  -2  -2 230.121 13.9883   2 
   2  -2   2 222.614 12.8456   4 
  -2   2  -2 222.927 12.5604   1 
   2  -2  -2 218.241 13.3782   4 
   2   2   2 232.441 13.4678   2 
  -2  -2   2 226.340 13.0813   2 
  -2  -2   2 217.391 13.2874   1 
   2   2   2 221.457 13.6148   1 
   3  -2   2 487.103 27.4016   4 
  -3  -2  -2 480.697 28.3724   4 
  -3  -2  -2 483.734 28.1453   1 
  -3  -2  -2 485.842 28.1920   2 
   3   2  -2 495.771 28.0242   1 
  -3   2   2 535.558 28.3035   4 
  -3  -2  -2 535.683 28.8867   3 
   3   2   2 491.848 28.2523   1 
   3  -2  -2 497.839 27.9469   4 
   3   2   2 492.595 28.0485   2 
  -3   2  -2 486.000 27.4805   4 
   3   2   2 528.232 28.4399   3 
  -3  -2   2 493.916 27.9744   2 
  -4   2   2 2377.16 128.414   4 
   4   2  -2 2315.20 128.090   3 
   4   2  -2 2436.44 128.561   1 
  -4  -2  -2 2358.23 128.908   4 
  -4  -2  -2 2323.90 128.727   2 
  -4  -2  -2 2251.26 128.593   1 
  -4  -2  -2 2428.90 129.296   3 
   4   2  -2 2415.75 127.996   2 
   4   2   2 2332.71 128.530   2 
   4  -2  -2 2352.09 128.362   4 
  -4  -2   2 2353.11 128.539   1 
   4   2   2 2335.87 128.714   1 
  -4   2  -2 2373.28 127.927   4 
   4   2   2 2401.94 128.963   3 
  -5  -2  -2 93.9497 8.22454   2 
   5   2  -2 107.197 7.40549   1 
  -5   2   2 97.6402 6.84101   4 
   5   2  -2 98.0647 7.25157   2 
  -5  -2  -2 87.9811 7.20172   1 
   5   2  -2 98.1519 7.27140   3 
  -5  -2  -2 96.9588 8.55338   3 
  -5  -2   2 91.2886 6.99452   1 
   5   2   2 91.9866 7.58873   1 
   5   2   2 88.4908 8.25722   3 
  -5   2  -2 92.2905 6.02713   4 
   5   2   2 94.5365 8.09669   2 
  -5  -2   2 97.6737 8.18288   2 
   5  -2  -2 105.827 7.03833   4 
  -6  -2  -2 720.408 40.6243   2 
  -6  -2  -2 666.764 39.9222   1 
   6  -2   2 714.966 39.7538   2 
  -6   2   2 719.361 39.7379   4 
   6   2  -2 738.452 40.0535   2 
  -6  -2  -2 711.787 40.9361   3 
   6   2  -2 752.166 40.2751   3 
   6   2   2 735.569 40.9517   3 
   6   2   2 719.758 41.0509   1 
  -6   2  -2 713.179 39.1242   4 
   6   2   2 673.412 40.3766   2 
  -6  -2   2 684.224 40.4378   2 
  -6  -2   2 707.505 39.9228   1 
   7  -2   2 39.9783 5.65222   3 
   7   2  -2 37.0387 5.42629   3 
  -7  -2  -2 28.2413 5.70003   2 
  -7  -2  -2 29.1308 4.34214   1 
   7  -2   2 35.9333 4.66557   2 
   7   2  -2 30.9901 5.82919   2 
  -7   2   2 37.1236 4.29715   4 
   7   2  -2 31.0868 4.95077   1 
  -7  -2  -2 33.7998 6.34324   3 
  -7   2  -2 31.9604 3.56981   4 
   7  -2  -2 36.4881 4.90684   2 
  -7  -2   2 28.4840 4.28028   1 
  -7  -2   2 36.9621 5.95949   2 
   7   2   2 22.9911 4.47358   1 
   7   2   2 28.1115 6.22667   2 
   7   2   2 30.7814 5.91012   3 
   8   2  -2 52.9946 6.28385   1 
  -8   2   2 46.3894 4.22001   1 
  -8   2   2 62.2283 6.06746   4 
   8  -2   2 47.3515 6.53221   2 
   8   2  -2 55.3002 7.76532   3 
  -8  -2  -2 56.1941 7.53282   1 
   8   2  -2 49.8361 7.08657   2 
   8  -2   2 44.3798 6.22601   3 
  -8  -2  -2 44.1885 7.60414   3 
  -8  -2   2 50.9610 5.81172   1 
  -8  -2   2 44.9808 6.71539   2 
   8   2   2 81.2711 9.68697   1 
   8   2   2 43.8713 7.17528   3 
   8   2   2 51.6636 7.74944   2 
   9  -2   2 94.7228 9.08370   3 
   9   2  -2 91.6391 8.55841   1 
   9  -2   2 92.4045 8.69273   2 
  -9   2   2 114.210 8.18760   4 
   9   2  -2 90.8302 9.27380   3 
  -9  -2  -2 93.0940 10.8024   2 
  -9  -2  -2 95.2957 8.94567   1 
   9   2  -2 97.3664 11.0842   2 
  -9   2  -2 95.1455 7.03994   4 
  -9  -2   2 85.7102 7.79047   1 
  -9  -2   2 80.0792 10.3772   2 
   9   2   2 99.0404 11.2925   2 
   9  -2  -2 93.7361 9.24981   2 
   9   2   2 71.5164 9.81767   3 
   9   2   2 98.0502 8.94553   1 
 -10   2   2 6.14899 2.48233   1 
  10  -2   2 5.72784 4.08568   3 
  10   2  -2 6.02652 4.75686   1 
  10  -2   2 8.45178 4.85113   2 
  10   2  -2 12.5239 7.32970   2 
 -10   2   2 13.5864 4.22332   4 
  10   2  -2 7.52770 4.93169   3 
 -10   2  -2 3.40216 2.92874   4 
  10   2   2 8.95458 6.01107   3 
  10   2   2 9.13468 5.45049   1 
  10   2   2 -1.5771 6.96096   2 
  10  -2  -2 2.52657 4.67607   2 
  11   2  -2 283.643 20.5723   3 
  11  -2   2 305.151 20.1448   2 
  11   2  -2 280.914 22.1695   2 
 -11   2   2 292.828 19.0910   4 
 -11   2   2 314.919 17.5511   1 
  11   2  -2 297.218 19.5117   1 
  11  -2  -2 326.112 20.4517   2 
  11   2   2 305.316 19.6043   1 
 -11   2  -2 312.018 18.4961   4 
  11   2   2 267.956 21.2510   3 
  11   2   2 308.321 22.6020   2 
 -12   2   2 53.0084 5.12297   1 
  12   2  -2 63.0068 11.8330   2 
  12  -2   2 57.3088 8.57758   2 
  12   2  -2 44.2948 7.69558   1 
  12   2  -2 54.5114 9.36180   3 
  12   2   2 39.1188 7.62609   1 
 -12   2  -2 51.2953 6.54701   4 
  12  -2  -2 60.6819 8.29304   2 
  12   2   2 71.9753 11.8298   2 
  13   2  -2 125.323 19.8160   3 
 -13   2   2 190.281 11.1369   1 
  13  -2   2 174.081 15.4457   2 
  13   2  -2 154.742 18.4505   2 
  13   2  -2 163.304 13.8891   1 
  13   2   2 143.011 13.7708   1 
 -13   2  -2 146.616 15.1963   4 
  13  -2  -2 199.575 15.6448   2 
  13   2   2 187.841 19.3520   2 
  14  -2   2 8.67336 8.13128   2 
  14   2  -2 4.02840 10.7209   2 
  14   2  -2 7.17073 9.83583   1 
  14  -2  -2 18.6981 7.99008   2 
 -14   2  -2 7.61876 4.61967   4 
  14   2   2 -4.8730 11.7293   1 
  14   2   2 20.7824 12.7755   2 
  15  -2   2 353.021 26.2801   2 
  15   2   2 305.856 22.2398   1 
  15   2   2 280.233 27.1810   2 
  15  -2  -2 337.686 24.4493   2 
  16   2  -2 18.5513 13.1273   2 
  16  -2   2 67.5328 12.0733   2 
  16   2   2 45.0235 13.2657   2 
  16  -2  -2 59.3415 11.1706   2 
  16   2   2 35.3225 9.82559   1 
  17   2  -2 56.9935 15.6457   2 
  17  -2   2 47.2719 12.0956   2 
  17   2   2 59.7043 11.5143   1 
  17  -2  -2 92.3115 14.3523   2 
  17   2   2 81.7774 16.4613   2 
  18  -2   2 47.3784 13.2851   2 
  18   2  -2 33.3142 13.8042   2 
  18   2   2 16.0210 11.4285   1 
  18  -2  -2 50.8189 18.4041   2 
  18   2   2 15.4570 15.5791   2 
   0   3  -2 0.12024 2.19746   1 
   0  -3   2 -0.1910 2.04353   2 
   0   3   2 1.66218 3.02745   1 
   0  -3  -2 -0.9991 2.87807   4 
   0  -3   2 0.98708 2.71523   4 
   0  -3  -2 -0.7716 2.76039   2 
   0  -3   2 -0.5110 2.52789   1 
   1  -3   2 190.938 11.6609   4 
  -1  -3  -2 187.899 12.1509   2 
  -1  -3  -2 206.118 12.8448   3 
  -1   3   2 171.508 13.1749   4 
  -1   3   2 186.521 11.9381   1 
   1   3  -2 192.446 11.6061   1 
  -1  -3  -2 182.160 12.4801   4 
   1   3   2 187.342 12.2442   1 
  -1   3  -2 190.117 11.1873   1 
   1  -3  -2 193.364 12.2544   4 
  -1  -3   2 195.324 12.2107   4 
  -1  -3   2 195.643 11.9757   1 
  -1  -3   2 203.586 11.2633   3 
   1  -3  -2 185.668 11.9689   2 
  -1  -3   2 186.283 11.4305   2 
   2  -3   2 664.146 36.9769   4 
   2   3  -2 647.639 37.2211   1 
  -2  -3  -2 665.440 37.9581   4 
  -2   3   2 713.432 38.2492   4 
  -2  -3  -2 696.001 38.1196   3 
  -2   3   2 635.521 37.1710   1 
  -2  -3   2 653.077 37.4348   1 
  -2  -3   2 669.203 37.8414   4 
  -2   3  -2 672.137 36.6169   1 
   2   3   2 670.778 37.7267   1 
   2  -3  -2 659.218 37.4672   4 
   2  -3  -2 677.653 37.4247   2 
   3   3  -2 513.501 28.9945   1 
  -3   3   2 461.672 29.8225   4 
  -3   3   2 504.732 28.6900   1 
   3  -3   2 511.663 28.4357   4 
  -3  -3  -2 570.028 30.1964   3 
  -3  -3  -2 502.738 29.3775   2 
   3   3   2 527.039 29.7440   1 
  -3  -3   2 503.097 29.0414   2 
  -3  -3   2 486.793 29.0977   1 
   3  -3  -2 526.664 29.0589   4 
  -4   3   2 295.135 19.5257   4 
   4  -3   2 286.184 16.1625   4 
  -4   3   2 282.126 16.3859   1 
   4   3  -2 271.232 16.9722   1 
  -4  -3  -2 293.074 18.2061   3 
  -4  -3  -2 279.133 17.6428   2 
  -4  -3  -2 277.505 17.8365   4 
  -4  -3  -2 256.398 17.0613   1 
  -4  -3   2 275.193 17.3935   2 
   4  -3  -2 291.940 16.9803   4 
  -4  -3   2 279.174 17.1055   1 
   4   3   2 288.619 17.4885   1 
   4   3   2 282.490 17.1115   2 
   5   3  -2 6.40926 3.77271   1 
  -5  -3  -2 5.12385 3.63877   1 
  -5  -3  -2 5.67244 4.57765   4 
  -5  -3  -2 4.75132 4.76483   2 
  -5  -3  -2 5.16998 4.84331   3 
  -5   3   2 4.23954 3.00262   4 
   5   3   2 8.75002 4.44945   2 
  -5   3  -2 9.52997 2.47896   4 
   5   3   2 4.04858 4.37731   1 
   5  -3  -2 6.26711 3.48967   4 
  -5  -3   2 5.65569 3.53540   1 
  -5  -3   2 8.40840 5.35783   2 
   6   3  -2 10.8530 4.46544   1 
  -6  -3  -2 22.3040 6.84843   4 
   6   3  -2 14.0261 3.57562   2 
  -6  -3  -2 14.5187 6.28546   2 
  -6   3   2 17.2752 3.50324   4 
  -6  -3  -2 13.8764 4.21610   1 
  -6  -3  -2 12.1588 5.66110   3 
  -6  -3   2 16.4309 7.13212   1 
   6   3   2 12.8963 5.21331   3 
  -6   3  -2 20.2233 3.13484   4 
   6  -3  -2 15.4649 4.00943   4 
   6   3   2 13.1031 5.33500   2 
   6   3   2 7.93065 5.08236   1 
  -6  -3   2 15.9241 5.48778   2 
   7   3  -2 74.1018 6.93666   3 
  -7   3   2 78.0331 6.77653   4 
   7  -3   2 76.3736 7.01372   2 
  -7  -3  -2 72.1674 10.1740   2 
  -7  -3  -2 82.1703 9.80815   4 
  -7  -3  -2 83.2612 9.51395   3 
   7   3  -2 78.2729 7.69438   2 
  -7  -3  -2 72.3905 7.59896   1 
   7   3  -2 82.3402 8.10273   1 
   7   3   2 115.753 11.7865   1 
  -7   3  -2 76.4014 7.87525   4 
   7   3   2 73.0639 8.37338   3 
  -7  -3   2 81.5211 7.58772   1 
   7   3   2 71.7888 9.22065   2 
   8   3  -2 64.5643 8.61012   2 
  -8   3   2 76.6070 6.72593   4 
  -8  -3  -2 78.3688 10.6372   3 
  -8  -3  -2 74.4230 9.09157   4 
   8   3  -2 88.0670 9.99394   1 
   8   3  -2 64.5513 7.75395   3 
   8  -3   2 69.5686 7.81617   3 
   8  -3   2 68.6270 7.37159   2 
   8   3   2 70.5431 10.0265   2 
  -8  -3   2 73.3384 9.29860   2 
   8   3   2 53.7417 8.37382   3 
   8   3   2 85.7621 10.4829   1 
  -8   3  -2 71.8696 5.71989   4 
   9   3  -2 313.144 20.5134   1 
   9   3  -2 318.745 20.7942   3 
  -9   3   2 342.490 18.3789   1 
   9  -3   2 341.869 20.2605   2 
  -9  -3  -2 331.454 21.9586   3 
  -9   3   2 379.438 21.4187   4 
  -9   3  -2 326.963 18.7382   4 
   9   3   2 327.568 21.0915   1 
   9   3   2 276.141 21.2581   3 
   9  -3  -2 315.755 20.4948   2 
   9   3   2 290.604 21.9337   2 
  10  -3   2 159.792 12.1813   2 
  10   3  -2 151.186 14.1908   2 
  10   3  -2 133.623 12.7260   3 
 -10   3   2 160.999 9.79767   1 
 -10   3   2 162.060 11.3713   4 
  10   3  -2 174.218 13.0362   1 
  10  -3  -2 160.516 12.7780   2 
  10   3   2 142.875 15.1417   2 
 -10   3  -2 145.545 9.89670   4 
  10   3   2 152.921 12.9673   1 
  11   3  -2 39.0001 8.30599   3 
  11   3  -2 41.1587 7.81839   1 
  11  -3   2 43.5001 6.80635   2 
  11   3  -2 38.8462 9.35997   2 
  11   3   2 40.0982 10.3107   2 
 -11   3  -2 41.7907 4.83039   4 
  11  -3  -2 43.2034 6.86681   2 
  11   3   2 34.9252 7.18389   1 
  11   3   2 23.5363 7.61965   3 
  12   3  -2 172.460 18.1891   2 
  12  -3   2 220.325 15.7642   2 
  12   3  -2 173.310 19.8108   1 
  12   3  -2 179.945 16.5006   3 
  12   3   2 203.852 19.6730   2 
 -12   3  -2 198.648 12.5304   4 
  12  -3  -2 206.574 15.8321   2 
  13   3  -2 35.8556 8.36355   3 
  13   3  -2 17.9161 7.58854   1 
  13   3  -2 11.3363 10.2493   2 
  13  -3   2 7.28664 6.76123   2 
  13   3   2 -4.6130 11.2315   2 
  13   3   2 6.84333 7.32499   1 
  13  -3  -2 -2.3658 6.01000   2 
  14   3  -2 2.16540 10.7132   2 
 -14   3   2 1.01480 1.33085   1 
  14  -3   2 3.36240 7.75929   2 
  14   3  -2 15.2826 8.18736   1 
  14  -3  -2 4.06486 6.62537   2 
  14   3   2 16.2184 12.5388   2 
 -14   3  -2 13.9324 3.51486   4 
  14   3   2 15.4369 9.25836   1 
  15   3  -2 20.1093 12.7373   2 
  15  -3   2 0.80905 7.70819   2 
  15   3  -2 5.59219 8.85369   1 
  15   3   2 0.67187 7.91352   1 
  15  -3  -2 -1.8453 7.12787   2 
  15   3   2 18.6429 13.1157   2 
  16  -3   2 29.6906 9.57722   2 
  16   3  -2 62.2198 12.4582   1 
  16   3  -2 61.7920 13.4016   2 
  16   3   2 34.7023 14.7517   2 
  16  -3  -2 41.5428 9.92444   2 
  16   3   2 25.7598 10.9721   1 
  17   3  -2 40.6596 13.8358   2 
  17  -3   2 90.5380 15.0481   2 
  17   3   2 45.4812 15.5350   2 
  17  -3  -2 59.2519 12.9952   2 
  17   3   2 84.4587 19.7365   1 
   0  -4  -2 91.8977 8.77517   4 
   0  -4   2 84.4606 7.08016   3 
   0   4   2 91.5090 7.98206   1 
   0  -4  -2 99.5167 9.35835   3 
   0  -4   2 85.7701 7.99512   4 
   0   4  -2 88.6878 6.91135   1 
   0  -4   2 78.6902 7.08466   2 
   1   4  -2 63.0529 7.30926   1 
   1  -4   2 65.8264 6.72483   4 
  -1  -4  -2 72.2235 9.08459   3 
  -1  -4  -2 71.9038 8.45982   4 
   1  -4   2 60.1375 5.97996   2 
   1   4   2 66.8643 7.20584   1 
  -1  -4   2 84.2673 9.60729   4 
  -1   4  -2 64.2049 5.57614   1 
  -1  -4   2 63.8372 5.81130   3 
   1  -4  -2 68.7941 7.57290   4 
  -1  -4   2 64.7858 6.79530   2 
  -1  -4   2 59.2461 6.44891   1 
  -2  -4  -2 85.6380 9.10367   4 
  -2   4   2 83.5592 7.22944   1 
  -2  -4  -2 93.6808 8.82514   2 
  -2  -4  -2 87.8610 9.59696   3 
   2   4  -2 83.7696 7.44282   1 
   2  -4   2 86.2492 7.39504   4 
  -2  -4   2 74.0258 7.60881   1 
   2  -4  -2 84.8908 8.34907   4 
   2   4   2 86.4230 8.39650   1 
  -2  -4   2 81.9539 10.2977   2 
  -2  -4   2 88.8386 9.13346   4 
  -2   4  -2 89.9923 6.06736   1 
  -3   4   2 243.257 15.9491   4 
  -3  -4  -2 251.362 16.4461   3 
  -3   4   2 234.698 14.0156   1 
  -3  -4  -2 219.520 15.4203   2 
   3  -4   2 232.615 14.0246   4 
  -3  -4  -2 220.990 15.9540   4 
   3   4  -2 212.858 14.5669   1 
   3  -4  -2 242.124 15.5463   2 
  -3  -4   2 231.393 15.8580   4 
  -3  -4   2 207.727 15.0448   2 
  -3  -4   2 184.373 14.5992   1 
   3  -4  -2 245.317 14.9096   4 
   3   4   2 224.649 15.2195   1 
   4  -4   2 927.050 49.2263   4 
  -4   4   2 927.018 49.1588   1 
   4   4  -2 907.133 49.9683   1 
  -4   4   2 917.234 50.6872   4 
  -4  -4  -2 915.891 50.9983   3 
  -4  -4  -2 918.718 51.1464   4 
  -4  -4  -2 837.026 50.9653   2 
  -4  -4   2 926.560 51.0473   4 
  -4  -4   2 789.914 50.0716   1 
   4  -4  -2 934.179 49.8983   4 
  -4  -4   2 824.653 50.4959   2 
   4   4   2 838.720 50.3520   1 
  -5  -4  -2 24.5085 7.03551   3 
   5   4  -2 33.2979 6.26464   1 
  -5   4   2 38.9167 4.81432   1 
  -5   4   2 45.8402 6.13689   4 
  -5  -4  -2 18.6024 6.97672   4 
   5  -4   2 41.7947 4.74871   4 
   5  -4  -2 37.9519 5.80647   4 
  -5  -4   2 37.1224 8.01062   2 
  -5  -4   2 43.3355 9.38123   1 
  -5  -4   2 38.1838 7.87812   4 
   5   4   2 24.7359 6.51316   1 
  -6  -4  -2 324.767 20.8447   4 
  -6   4   2 290.297 18.4224   4 
  -6  -4  -2 301.999 20.5005   3 
  -6   4   2 305.175 17.2331   1 
   6   4  -2 303.668 19.1967   1 
  -6  -4   2 245.540 20.0352   2 
  -6  -4   2 312.888 21.3389   4 
   6  -4  -2 293.304 18.5364   4 
   6   4   2 304.084 19.5858   1 
  -7  -4  -2 42.4793 15.9693   4 
  -7  -4  -2 24.2206 11.2031   3 
   7   4  -2 24.8070 6.10941   1 
  -7  -4   2 64.9163 9.65454   4 
   7   4   2 10.6327 6.62376   2 
   7   4   2 10.6959 6.20516   1 
  -8   4   2 20.7890 2.80539   1 
   8   4  -2 14.6252 6.77143   1 
   8  -4   2 20.5906 4.68817   2 
  -8   4   2 9.17936 5.11495   4 
  -8  -4  -2 15.6792 7.73834   3 
  -8  -4  -2 14.9191 7.42733   4 
   8   4   2 6.80403 6.43770   1 
   8   4   2 21.9190 7.57686   2 
  -8   4  -2 18.7083 3.52327   4 
   9  -4   2 43.3916 6.14399   2 
  -9  -4  -2 31.7229 8.92528   4 
   9   4  -2 40.8227 8.36669   1 
   9   4   2 35.6434 8.76002   2 
   9   4   2 37.1991 9.00121   1 
   9  -4  -2 33.9316 6.31323   2 
  10   4  -2 -1.5126 1.44291   2 
  10   4  -2 6.82262 6.99146   1 
 -10  -4  -2 -2.1951 11.3877   4 
  10  -4   2 0.73697 4.66177   2 
  10   4   2 3.65311 7.05082   1 
  10   4   2 0.80331 8.75320   2 
  10  -4  -2 0.26766 5.02016   2 
  11   4  -2 111.874 13.2355   1 
  11  -4   2 148.276 12.3945   2 
  11   4   2 107.559 16.4018   3 
  11   4   2 125.607 16.1534   2 
  11  -4  -2 149.942 13.2931   2 
 -12  -4  -2 58.8552 16.9528   4 
  12   4  -2 18.5625 8.63454   1 
  12  -4   2 26.4314 6.58860   2 
  12   4   2 10.7528 10.8727   2 
  12   4   2 9.00682 8.75703   1 
  12  -4  -2 35.8190 9.56934   2 
  13   4  -2 67.8082 11.6442   1 
 -13  -4  -2 117.233 16.2188   4 
  13   4   2 101.731 14.1684   1 
  13   4   2 59.8544 18.5077   2 
  13  -4  -2 104.984 12.2621   2 
 -14  -4  -2 0.51773 11.8175   4 
  14  -4   2 3.28829 6.80827   2 
  14   4  -2 3.99090 2.52256   2 
  14   4  -2 6.35881 9.29756   1 
  14   4   2 6.29232 15.5106   1 
  14   4   2 3.26862 10.8985   2 
  14  -4  -2 0.46250 7.10318   2 
  15   4  -2 143.820 18.0621   1 
  15  -4   2 156.388 15.6362   2 
 -15  -4  -2 97.1932 22.1099   4 
  15   4   2 97.1761 16.1952   2 
  15   4   2 150.857 18.6575   1 
  15  -4  -2 176.066 16.9487   2 
   0   5  -2 -0.3020 4.07974   1 
   0  -5   2 1.27215 4.13535   3 
   0   5   2 1.35360 5.20455   1 
   0  -5  -2 12.2518 6.76461   4 
   0  -5  -2 4.89232 7.69678   3 
   0  -5   2 -3.4397 5.23990   4 
   0  -5   2 1.24505 4.94151   2 
  -1  -5  -2 50.0640 8.44727   4 
  -1   5   2 73.9987 7.75550   1 
  -1  -5  -2 67.6365 10.1205   3 
   1  -5   2 75.6623 7.99699   4 
   1  -5   2 67.5929 7.99362   3 
   1   5  -2 67.3870 7.17035   1 
   1  -5  -2 64.4292 8.79382   4 
  -1  -5   2 58.1175 8.22458   2 
   1   5   2 67.6865 8.55602   1 
   1  -5  -2 66.7098 9.92196   3 
  -1   5  -2 77.0470 9.54663   1 
  -1  -5   2 73.5061 8.44863   4 
  -2  -5  -2 224.600 16.8792   4 
   2  -5   2 200.516 15.4315   2 
   2  -5   2 221.777 14.9735   4 
  -2  -5  -2 256.926 19.3374   3 
   2   5  -2 211.271 14.7688   1 
  -2   5   2 231.235 14.8355   1 
   2  -5  -2 239.675 17.4596   3 
  -2   5  -2 236.683 13.6397   1 
   2  -5  -2 243.679 16.0685   4 
  -2  -5   2 247.449 16.5563   4 
  -2  -5   2 196.533 15.7093   2 
   2   5   2 212.435 15.6471   1 
  -3   5   2 197.696 12.7027   1 
  -3  -5  -2 183.689 15.9635   4 
   3  -5   2 186.101 13.0688   4 
   3   5  -2 192.251 13.4950   1 
   3  -5   2 186.574 12.9680   2 
  -3  -5   2 201.670 15.3401   4 
   3  -5  -2 186.004 14.1046   4 
   3   5   2 185.511 14.3561   1 
   4   5  -2 100.862 10.2513   1 
  -4  -5  -2 123.506 13.2705   4 
   4  -5   2 109.151 9.85393   2 
   4  -5   2 108.861 9.22130   4 
   4  -5  -2 116.748 10.8387   4 
   4   5   2 112.967 11.2118   1 
  -4  -5   2 113.991 12.9676   4 
   5  -5   2 7.33449 4.69310   4 
  -5  -5  -2 19.3473 12.1385   3 
   5   5  -2 9.03166 6.41945   1 
  -5  -5  -2 12.9237 8.61513   4 
   5  -5   2 8.29763 5.90390   3 
   5  -5  -2 3.96005 5.61425   4 
  -5  -5   2 -0.2759 7.54841   4 
   5   5   2 17.4862 7.61954   1 
  -6  -5  -2 10.3348 10.1627   3 
   6   5  -2 8.79063 6.39057   1 
  -6  -5  -2 14.4697 12.5271   4 
   6   5   2 5.93527 11.0533   1 
  -6  -5   2 17.5480 9.19102   4 
   6  -5  -2 3.82939 5.43418   4 
  -7  -5  -2 40.2731 11.1364   4 
  -7  -5  -2 32.0244 9.56130   3 
   7   5  -2 40.0220 8.80028   1 
  -7  -5   2 14.9059 11.1247   4 
   7   5   2 27.6465 8.87037   1 
   8  -5   2 26.9090 5.66498   2 
   8   5  -2 20.8772 7.93351   1 
  -8  -5  -2 36.2830 12.1127   4 
  -8  -5   2 25.9264 9.63225   4 
   8   5   2 21.3312 9.07879   1 
   9   5  -2 159.964 14.1195   1 
   9  -5   2 128.265 11.6375   2 
  -9  -5  -2 94.4942 14.9430   4 
  -9  -5   2 140.467 17.4673   4 
   9  -5  -2 119.731 12.6422   2 
   9   5   2 141.463 15.7035   1 
  10   5  -2 101.874 12.9006   1 
 -10  -5  -2 40.4081 10.7554   4 
  10  -5   2 49.4095 7.61630   2 
 -10  -5   2 102.524 15.8122   4 
  10   5   2 67.6377 11.8614   1 
  10  -5  -2 59.0997 8.73318   2 
 -11  -5  -2 21.0916 12.4949   4 
  11   5  -2 29.3958 10.0772   1 
  11  -5   2 23.5069 7.27235   2 
  11  -5  -2 11.7547 6.91395   2 
 -11  -5   2 -7.3888 11.1832   4 
  11   5   2 9.38280 10.6198   1 
 -12  -5  -2 124.897 21.6927   4 
  12  -5   2 89.3608 11.2273   2 
  12   5  -2 64.9117 14.3470   1 
  12  -5  -2 83.0436 11.6097   2 
 -12  -5   2 58.4694 15.6225   4 
   0   6   2 29.4403 7.35485   1 
   0  -6   2 21.6499 7.67830   4 
   0  -6  -2 19.6051 8.47013   4 
   0  -6  -2 17.3097 9.32828   3 
   1   6  -2 15.2064 4.68643   1 
  -1  -6  -2 10.4287 9.06369   3 
   1  -6   2 12.5939 6.82291   4 
  -1  -6  -2 7.63508 8.49745   4 
   1  -6  -2 10.6951 9.22729   3 
   1   6   2 11.8564 7.28812   1 
  -1  -6   2 9.00222 7.45413   4 
   1  -6  -2 2.20874 7.29143   4 
   2  -6   2 14.2575 6.26173   4 
   2  -6   2 18.6777 6.87889   3 
  -2  -6  -2 13.9297 9.14462   4 
  -2  -6  -2 24.8338 9.63827   3 
   2   6  -2 33.6211 7.34152   1 
  -2  -6   2 32.0269 15.6290   4 
   2   6   2 17.5708 11.7010   1 
   2  -6  -2 19.4134 10.8647   3 
   2  -6  -2 21.0082 7.40514   4 
  -3  -6  -2 54.4609 11.1349   4 
   3  -6   2 70.9770 8.49506   4 
   3  -6   2 81.7041 10.9586   3 
   3   6  -2 73.4542 9.60750   1 
  -3  -6   2 59.8476 9.86955   4 
   3  -6  -2 68.2717 9.61733   4 
   3  -6  -2 103.486 13.5009   3 
   3   6   2 95.4405 11.0888   1 
   4  -6   2 289.468 19.3484   4 
   4   6  -2 292.921 20.3768   1 
  -4  -6  -2 269.352 22.8746   4 
   4  -6   2 331.142 20.8136   3 
  -4  -6   2 298.201 22.0870   4 
   4  -6  -2 296.292 21.1145   4 
   4  -6  -2 336.185 23.7705   3 
   4   6   2 301.214 21.5350   1 
   5   6  -2 7.43086 8.13477   1 
  -5  -6  -2 6.05701 10.3469   4 
  -5  -6   2 7.93610 10.4979   4 
   5  -6  -2 7.56293 6.72464   4 
   5   6   2 12.3083 9.45476   1 
   6   6  -2 86.8817 13.3414   1 
  -6  -6  -2 108.495 15.5108   4 
   6   6   2 107.343 12.3777   1 
   6  -6  -2 95.3436 11.0110   4 
  -6  -6   2 56.7257 11.7547   4 
  -7  -6  -2 28.7213 11.2891   4 
   7   6  -2 13.0900 8.16981   1 
   7   6   2 22.6438 10.1344   1 
  -7  -6   2 21.1406 11.0709   4 
   8   6  -2 28.7128 11.0164   1 
   8  -6   2 1.18114 4.99079   2 
  -8  -6  -2 14.5946 19.0647   4 
  -8  -6   2 7.90644 11.9150   4 
   8   6   2 28.7634 10.6819   1 
   0   0   3 1.64225 1.03209   2 
   0   0  -3 1.12821 0.83342   4 
   0   0   3 1.43347 0.84343   4 
   0   0  -3 -0.4168 0.95628   2 
   0   0  -3 1.00311 1.56338   3 
   1   0   3 257.538 14.8019   4 
  -1   0  -3 266.247 14.9805   2 
  -1   0   3 257.778 14.9327   4 
  -1   0  -3 289.938 15.5519   3 
   1   0   3 279.400 15.4593   3 
   1   0   3 266.486 15.0313   2 
   1   0  -3 268.055 14.9277   2 
  -1   0  -3 263.572 14.8119   4 
   2   0  -3 116.749 7.54913   2 
   2   0   3 125.444 7.71156   2 
   2   0   3 130.741 8.28357   3 
  -2   0  -3 133.104 8.29373   3 
  -2   0  -3 122.269 7.62203   2 
  -2   0  -3 122.821 7.19493   4 
   3   0   3 128.839 8.02941   1 
  -3   0  -3 146.452 9.21910   3 
  -3   0  -3 134.684 8.48167   2 
   3   0   3 141.008 9.11498   3 
   3   0   3 133.463 8.59382   2 
   3   0  -3 127.559 8.44319   2 
   4   0   3 65.7928 5.89747   2 
  -4   0   3 67.7601 4.74075   1 
  -4   0  -3 72.7807 6.26057   3 
   4   0   3 71.3741 4.87190   1 
  -4   0  -3 70.6356 5.76088   2 
   4   0  -3 64.2474 5.62835   2 
   4   0   3 73.4393 6.11963   3 
  -4   0   3 68.8471 5.40484   2 
  -5   0  -3 206.736 12.9958   2 
   5   0   3 212.346 13.1946   2 
   5   0   3 209.612 12.2768   1 
  -5   0  -3 209.328 12.1519   1 
   5   0  -3 197.910 12.9812   2 
  -5   0   3 210.333 12.2908   1 
   5   0   3 211.568 13.6789   3 
  -5   0  -3 218.500 13.6581   3 
   6   0   3 1119.07 60.6577   1 
   6   0  -3 1061.69 61.2968   2 
   6   0   3 1148.28 62.2381   3 
   6   0   3 1092.01 61.3936   2 
  -6   0  -3 1139.36 60.5941   1 
  -6   0   3 1083.16 61.1621   2 
   7   0   3 785.471 45.7458   3 
  -7   0   3 790.301 44.7713   2 
   7   0   3 800.198 45.1242   2 
  -7   0  -3 789.503 44.7867   2 
  -7   0  -3 798.691 43.9734   1 
   7   0   3 805.693 44.0785   1 
  -7   0   3 828.593 44.1728   1 
   7   0  -3 776.733 44.9652   2 
   8   0   3 221.983 13.3597   1 
   8   0   3 203.737 15.0908   2 
  -8   0  -3 225.860 14.4926   2 
   8   0   3 207.799 15.0327   3 
  -8   0   3 216.985 13.1801   1 
  -8   0   3 226.140 14.4564   2 
  -8   0  -3 225.998 13.1198   1 
   8   0  -3 209.417 14.8496   2 
  -9   0   3 30.8271 5.45235   2 
   9   0   3 34.0937 4.58204   1 
   9   0   3 35.4400 7.19991   3 
  -9   0  -3 30.0870 3.92894   1 
   9   0  -3 32.5125 6.46272   2 
  -9   0  -3 29.2941 5.59352   2 
  -9   0   3 27.8350 3.97766   1 
  10   0   3 51.8261 7.79418   2 
  10   0   3 45.1329 5.57346   1 
  10   0  -3 36.9907 7.05653   2 
 -10   0   3 49.8373 8.08700   2 
 -10   0   3 35.2426 4.68063   1 
 -10   0  -3 43.2271 6.74543   2 
  10   0   3 19.7241 8.72178   3 
 -10   0  -3 38.4965 4.73683   1 
 -11   0   3 1272.82 75.7834   2 
  11   0  -3 1415.93 76.6001   2 
 -11   0  -3 1287.63 74.1936   1 
  11   0   3 1374.75 76.3519   2 
  11   0   3 1414.80 74.5985   1 
 -11   0  -3 1281.55 79.9141   2 
 -11   0   3 1389.34 75.0364   1 
 -12   0   3 90.5573 7.44664   1 
 -12   0  -3 90.0231 11.3626   2 
 -12   0  -3 77.4130 7.24562   1 
  12   0   3 92.8442 8.61066   1 
  12   0   3 96.0892 12.8492   2 
  12   0  -3 87.1255 12.4939   2 
  13   0   3 42.5880 9.95644   2 
  13   0  -3 39.5350 9.26528   2 
 -13   0  -3 40.0699 5.73998   1 
  13   0   3 59.7311 7.63533   1 
  14   0  -3 38.8665 10.3258   2 
  14   0   3 29.0751 10.0617   2 
  14   0   3 24.7996 7.12017   1 
  15   0   3 44.8096 15.3796   2 
  15   0  -3 2.28319 14.1530   2 
  15   0   3 41.6888 8.00361   1 
  16   0  -3 41.7829 12.5068   2 
  16   0   3 80.2887 14.7658   2 
  17   0   3 79.1177 15.2214   2 
  17   0  -3 57.0032 14.3404   2 
  18   0  -3 39.9402 14.0957   2 
  18   0   3 70.9685 15.9957   2 
  19   0   3 -1.8437 17.3493   2 
  19   0  -3 10.9364 19.4823   2 
   0  -1   3 2112.89 111.314   1 
   0  -1  -3 1959.49 111.495   4 
   0   1   3 2025.54 111.501   2 
   0  -1  -3 2023.12 111.493   2 
   0  -1   3 2141.14 111.340   3 
   0   1  -3 2221.44 111.440   3 
   0   1   3 1898.11 111.495   4 
   1  -1   3 2050.95 110.176   3 
  -1  -1  -3 1927.86 110.033   4 
  -1  -1  -3 2132.60 110.489   3 
   1   1  -3 2085.97 109.675   3 
  -1  -1  -3 1952.71 110.006   2 
  -1   1   3 1998.38 109.999   4 
   1  -1  -3 1944.85 109.974   4 
   1   1   3 2326.37 110.417   4 
  -1  -1   3 2076.48 109.906   1 
   1   1   3 1976.31 110.014   2 
   1  -1  -3 1946.69 109.963   2 
  -1   1  -3 2067.08 110.085   3 
  -1  -1   3 1869.40 109.617   2 
   2  -1   3 14.2064 2.62190   3 
   2   1  -3 14.0949 1.55057   2 
  -2  -1  -3 14.4048 3.13521   3 
  -2  -1  -3 8.48703 1.89419   4 
   2  -1   3 11.2221 1.61699   2 
  -2  -1  -3 10.8339 2.07189   2 
  -2   1   3 11.4895 1.97497   4 
   2   1   3 11.8278 2.28439   2 
  -2  -1   3 14.5909 2.03637   2 
   2  -1  -3 12.3044 2.11763   4 
   2   1   3 13.4832 2.56804   3 
   2   1   3 13.7651 2.56454   1 
  -2   1  -3 17.9220 2.94631   3 
  -2  -1   3 16.8793 2.15225   1 
  -3  -1  -3 417.347 23.7780   3 
   3  -1   3 397.422 22.5700   2 
  -3  -1  -3 393.182 23.0905   2 
  -3   1   3 407.891 22.8614   4 
  -3  -1  -3 409.090 23.0506   4 
   3  -1   3 425.807 23.5186   3 
   3   1  -3 415.634 22.8580   2 
   3   1  -3 404.605 22.7595   1 
   3   1   3 411.202 23.6433   3 
  -3  -1   3 393.481 22.8772   2 
   3  -1  -3 412.145 22.8899   4 
   3   1   3 412.217 23.0275   1 
  -3  -1   3 435.400 22.8992   1 
   3   1   3 376.552 23.3724   2 
  -4  -1  -3 191.802 11.9869   1 
   4   1  -3 199.609 11.8801   1 
  -4  -1  -3 213.783 13.2778   3 
   4   1  -3 201.155 12.4367   2 
  -4   1   3 210.768 12.0753   4 
   4  -1   3 193.124 11.8384   2 
   4  -1   3 199.350 11.1908   1 
   4  -1   3 212.996 12.7450   3 
  -4  -1   3 208.969 11.9435   1 
   4   1   3 202.912 13.0730   3 
   4   1   3 198.715 12.1661   1 
  -4  -1   3 197.105 12.1933   2 
   4   1   3 190.103 12.5612   2 
  -5  -1  -3 2304.25 130.686   3 
  -5  -1  -3 2256.24 129.959   2 
   5  -1   3 2213.47 129.593   2 
   5   1  -3 2385.46 130.077   2 
   5  -1   3 2362.88 128.997   1 
   5  -1   3 2487.26 131.514   3 
  -5  -1  -3 2419.54 130.112   1 
  -5   1   3 2391.78 129.749   4 
   5   1   3 2467.77 132.190   3 
  -5  -1   3 2680.53 130.605   2 
   5   1   3 2281.51 130.061   2 
  -5  -1   3 2369.47 129.638   1 
  -6  -1  -3 16.5743 4.14315   2 
   6  -1   3 21.5585 4.06786   3 
  -6   1   3 28.1827 3.71188   4 
  -6  -1  -3 11.7627 4.43653   3 
   6   1  -3 18.0957 4.57506   2 
   6   1  -3 29.6809 5.28820   1 
  -6  -1  -3 14.9018 3.32453   1 
   6  -1   3 25.6290 2.49327   1 
   6  -1   3 22.5471 3.58331   2 
   6  -1  -3 21.3385 3.87815   2 
   6   1   3 17.2729 4.48491   3 
  -6  -1   3 26.4257 3.66041   1 
   6   1   3 18.8920 4.18381   2 
   6   1   3 22.5353 4.01983   1 
  -7   1   3 84.0982 6.75116   4 
  -7  -1  -3 74.5314 8.34340   3 
  -7  -1  -3 78.8203 6.42298   1 
   7  -1   3 79.5874 7.47155   3 
   7   1  -3 75.8572 6.59399   1 
   7  -1   3 80.7945 5.59712   1 
  -7   1   3 88.2561 6.14503   1 
   7  -1   3 82.1537 7.64213   2 
   7   1  -3 90.8992 9.08103   2 
  -7  -1   3 80.5973 6.32852   1 
   7   1   3 84.6159 8.26982   3 
  -7  -1   3 84.3638 8.51223   2 
   7   1   3 78.6852 8.55175   2 
   7   1   3 78.6252 6.83968   1 
   7  -1  -3 81.0078 7.75228   2 
  -8  -1  -3 6.47489 8.71203   3 
  -8  -1  -3 1.61957 2.84908   1 
   8   1  -3 -0.5028 3.86710   1 
   8  -1   3 1.04051 3.88837   2 
   8  -1   3 1.85453 2.32552   1 
  -8  -1  -3 2.37431 4.33931   2 
  -8   1   3 3.29743 2.85063   4 
   8   1  -3 2.56885 3.23514   3 
   8   1  -3 -1.8457 5.05930   2 
  -8   1   3 -0.1485 1.99137   1 
   8  -1   3 3.54487 3.53349   3 
  -8  -1   3 -0.2541 2.58702   1 
   8  -1  -3 1.26964 3.74124   2 
   8   1   3 5.80745 10.7540   2 
   8   1   3 -0.1309 3.34342   1 
   8   1   3 -0.3185 4.01078   3 
  -8   1  -3 -0.4728 1.94426   1 
  -8  -1   3 -3.2829 3.67725   2 
  -9  -1  -3 4.28201 5.24952   2 
   9  -1   3 3.38832 3.27630   3 
   9  -1   3 7.67897 3.03174   1 
  -9  -1  -3 3.62444 3.32734   1 
  -9   1   3 5.24847 2.54622   1 
   9   1  -3 8.66296 4.36031   3 
   9   1  -3 8.35004 6.63557   2 
  -9   1   3 7.26009 3.53179   4 
   9   1  -3 7.19150 3.38615   1 
   9  -1   3 6.00747 4.93028   2 
  -9  -1   3 7.96206 3.27872   1 
   9   1   3 8.33683 5.70592   2 
   9   1   3 10.2791 4.42131   1 
   9   1   3 8.94666 4.60736   3 
  -9   1  -3 9.84251 2.55317   1 
   9  -1  -3 4.85373 4.13656   2 
  -9  -1   3 3.81943 4.77423   2 
  10   1  -3 12.2166 4.47966   3 
 -10   1   3 10.8024 2.96384   1 
 -10  -1  -3 5.96408 3.62970   1 
  10  -1   3 10.9540 5.06031   3 
  10  -1   3 15.3295 3.80653   1 
  10  -1   3 10.3836 5.57444   2 
 -10  -1  -3 9.49603 5.77168   2 
 -10   1   3 18.1814 6.07492   4 
  10   1  -3 10.8188 7.08187   2 
 -10  -1   3 10.8835 5.34569   2 
 -10  -1   3 6.21918 3.29542   1 
 -10   1  -3 8.73134 3.32406   1 
  10  -1  -3 13.9997 5.29264   2 
  10   1   3 10.5072 6.58101   3 
  10   1   3 5.35772 6.77619   2 
  10   1   3 8.72621 4.80151   1 
 -11   1   3 229.293 14.4270   4 
  11   1  -3 201.577 15.1244   3 
 -11   1   3 210.185 13.0218   1 
  11  -1   3 208.997 16.4862   2 
  11   1  -3 215.491 17.7657   2 
 -11  -1  -3 190.400 13.5892   1 
 -11  -1  -3 227.287 17.6009   2 
  11   1   3 187.663 15.9312   3 
  11  -1  -3 223.851 16.0724   2 
 -11   1  -3 211.769 12.7127   1 
 -11  -1   3 198.596 13.6458   1 
  11   1   3 214.719 14.4178   1 
  11   1   3 208.727 17.3246   2 
  12   1  -3 322.606 22.3067   3 
  12  -1   3 364.073 23.4453   2 
  12   1  -3 314.926 24.0845   2 
 -12   1   3 334.178 19.9972   1 
  12   1   3 313.291 21.0925   1 
  12  -1  -3 351.777 23.2348   2 
  12   1   3 350.964 24.1621   2 
 -12   1  -3 348.942 19.6943   1 
  13   1  -3 59.0638 11.2710   2 
  13  -1   3 73.8431 10.6256   2 
 -13   1   3 44.3057 5.46313   1 
  13  -1  -3 43.7915 8.52103   2 
  13   1   3 44.3606 8.02386   1 
  13   1   3 63.2378 12.0367   2 
 -13   1  -3 46.5296 5.36808   1 
  14  -1   3 269.448 20.5951   2 
  14   1  -3 218.483 21.0630   2 
  14   1   3 204.657 21.3222   2 
 -14   1  -3 224.695 14.1136   1 
  14  -1  -3 224.922 19.3702   2 
  14   1   3 214.889 16.4526   1 
  15  -1   3 24.3390 13.2352   2 
  15   1   3 2.31355 7.19542   1 
  15   1   3 10.5968 11.5720   2 
  15  -1  -3 22.8474 10.2129   2 
 -15   1  -3 30.0450 6.32020   1 
  16   1  -3 6.95230 11.0269   2 
  16  -1   3 8.42546 10.5980   2 
  16   1   3 6.68373 10.5858   2 
  16  -1  -3 -5.5782 9.34788   2 
  16   1   3 4.96011 7.84765   1 
  17   1  -3 6.63462 11.1965   2 
  17  -1   3 12.0550 11.5491   2 
  17  -1  -3 18.7708 10.9301   2 
  17   1   3 6.89539 13.7746   2 
  17   1   3 13.1875 9.39156   1 
  18  -1   3 63.2216 15.0106   2 
  18   1  -3 48.5831 13.4160   2 
  18  -1  -3 53.0879 13.2957   2 
  18   1   3 54.0372 15.4464   2 
  18   1   3 42.2181 13.4627   1 
  19   1  -3 50.0855 17.2298   2 
  19   1   3 58.6610 15.2381   2 
   0   2   3 2.31740 2.27194   4 
   0  -2  -3 2.72099 2.28289   4 
   0   2  -3 1.93697 1.55194   1 
   0  -2   3 -1.6355 1.51813   1 
   0  -2   3 1.11388 1.37796   3 
   0  -2  -3 2.40752 2.10922   2 
   0   2   3 0.75290 2.36106   1 
   1  -2   3 170.777 10.2243   4 
  -1   2   3 173.919 10.9663   4 
  -1  -2  -3 171.966 10.9154   2 
   1   2  -3 175.118 10.4472   1 
  -1  -2  -3 177.933 11.1334   4 
  -1  -2  -3 189.395 11.6634   3 
   1  -2   3 182.462 10.2473   1 
   1  -2   3 181.019 10.5955   3 
   1   2   3 178.177 11.1529   4 
   1  -2  -3 174.152 10.8601   2 
  -1  -2   3 176.989 10.5770   1 
  -1  -2   3 178.802 9.96431   2 
   1  -2  -3 181.195 11.0452   4 
   1   2   3 176.939 11.0956   1 
   1   2   3 178.792 11.0067   2 
   2   2  -3 68.6211 5.19666   1 
   2  -2   3 68.2680 4.48848   4 
  -2  -2  -3 66.5714 6.06405   4 
  -2   2   3 69.6164 5.47045   4 
  -2  -2  -3 77.8371 6.79662   3 
   2  -2   3 72.5031 4.41222   1 
   2  -2   3 76.3598 5.48877   3 
  -2  -2  -3 73.2487 5.88785   2 
  -2  -2   3 75.0284 5.34917   1 
   2  -2  -3 67.7179 5.63502   4 
   2   2   3 65.2729 5.89622   1 
   2   2   3 71.1530 6.10816   2 
  -2  -2   3 67.9968 5.12324   2 
  -3  -2  -3 75.3279 6.53774   4 
   3  -2   3 82.1227 6.21819   3 
  -3  -2  -3 84.5691 7.56084   3 
  -3   2   3 78.7273 5.87794   4 
  -3  -2  -3 82.8893 6.68689   2 
   3  -2   3 77.3709 4.82323   4 
   3   2  -3 77.7316 5.90121   1 
  -3  -2   3 77.9415 5.94636   1 
   3   2   3 77.5880 6.56054   1 
  -3  -2   3 77.5856 6.18176   2 
   3   2   3 81.3360 6.75800   2 
   3  -2  -3 82.2507 6.26544   4 
   3   2   3 81.4915 6.77413   3 
   4   2  -3 40.1362 3.55280   3 
   4   2  -3 37.9698 4.57747   1 
  -4  -2  -3 43.9069 5.39381   4 
  -4  -2  -3 46.3689 6.43348   3 
  -4  -2  -3 38.3166 4.91184   2 
  -4   2   3 41.5253 4.37333   4 
   4  -2   3 42.3803 4.78358   3 
  -4  -2  -3 40.2958 4.62373   1 
   4   2  -3 48.6442 3.56478   2 
  -4   2  -3 38.7716 3.07465   4 
  -4  -2   3 46.6144 4.52565   1 
   4   2   3 39.2826 4.84088   1 
  -4  -2   3 44.4617 5.99600   2 
   4   2   3 36.3113 4.74286   2 
   4  -2  -3 47.3679 4.81779   4 
   5  -2   3 121.644 8.88071   3 
   5   2  -3 121.841 8.16643   2 
  -5  -2  -3 120.035 9.29823   4 
   5  -2   3 112.110 7.91721   2 
   5   2  -3 122.911 8.46366   1 
  -5   2   3 124.749 8.26288   4 
   5   2  -3 125.991 8.11943   3 
  -5  -2  -3 121.753 10.0967   3 
  -5  -2  -3 117.224 8.55969   1 
  -5  -2   3 122.741 9.34704   2 
   5  -2  -3 118.249 8.41388   4 
   5   2   3 109.712 9.22877   3 
  -5  -2   3 120.346 8.35897   1 
   5   2   3 115.162 9.42843   2 
   5   2   3 125.638 9.09530   1 
  -5   2  -3 120.115 7.10594   4 
   6   2  -3 826.294 44.8123   2 
   6   2  -3 836.943 44.8735   1 
  -6  -2  -3 771.351 45.2390   4 
  -6  -2  -3 753.716 45.3968   2 
   6  -2   3 791.016 44.5112   2 
   6   2  -3 853.398 44.9861   3 
  -6   2   3 831.093 44.8731   4 
  -6  -2  -3 773.554 46.0189   3 
   6  -2   3 763.790 45.4205   3 
  -6  -2   3 818.519 45.3644   2 
   6   2   3 767.562 45.8768   3 
  -6  -2   3 831.496 44.9208   1 
  -6   2  -3 813.474 43.8359   4 
   6   2   3 818.046 45.1544   1 
   6   2   3 779.767 45.3372   2 
  -7  -2  -3 546.557 32.4687   2 
   7   2  -3 579.189 31.6410   1 
   7  -2   3 516.549 32.2354   3 
  -7   2   3 580.274 31.5599   4 
   7   2  -3 592.451 32.0140   3 
  -7  -2  -3 564.568 32.9928   3 
   7   2  -3 557.305 31.9333   2 
  -7  -2  -3 538.580 31.5976   1 
   7  -2   3 565.448 31.4712   2 
  -7   2  -3 554.436 30.4616   4 
   7   2   3 513.808 32.7990   3 
  -7  -2   3 554.151 31.5818   1 
  -7  -2   3 528.509 32.2085   2 
   7   2   3 531.879 31.8488   1 
  -8   2   3 173.251 11.2301   4 
   8  -2   3 165.052 11.5580   2 
  -8  -2  -3 178.528 16.0846   2 
   8   2  -3 175.551 11.6664   1 
  -8   2   3 170.461 10.1207   1 
  -8  -2  -3 145.861 13.1243   3 
  -8  -2  -3 194.231 14.0097   1 
   8   2  -3 158.179 12.9563   3 
   8   2  -3 170.685 13.1232   2 
   8  -2   3 153.582 11.9785   3 
   8   2   3 155.291 11.8207   1 
  -8   2  -3 159.916 9.93915   4 
  -8  -2   3 165.757 12.9489   2 
   8   2   3 152.321 13.1117   3 
   8   2   3 157.334 13.7125   2 
   8  -2  -3 165.320 11.9882   2 
  -9  -2  -3 19.8631 6.70152   2 
   9   2  -3 17.7077 5.41566   3 
  -9  -2  -3 15.6458 6.75431   3 
  -9   2   3 33.9433 5.14872   4 
  -9   2   3 28.8287 3.44915   1 
  -9  -2  -3 11.9082 4.25226   1 
   9  -2   3 20.4662 4.96186   3 
   9   2  -3 15.7398 4.62725   1 
   9  -2   3 22.5975 4.89100   2 
   9   2  -3 30.0942 10.8395   2 
  -9  -2   3 19.4814 6.24628   2 
   9   2   3 14.5532 5.39147   1 
  -9  -2   3 14.9839 4.39840   1 
   9   2   3 18.6516 6.59820   3 
   9  -2  -3 25.0780 5.35840   2 
   9   2   3 24.1599 7.29944   2 
  10  -2   3 21.4420 5.68130   3 
  10   2  -3 21.0331 6.16570   3 
 -10   2   3 37.1318 5.62670   4 
  10   2  -3 33.3292 8.24554   2 
 -10   2   3 37.2267 4.16291   1 
  10  -2   3 31.3305 6.07470   2 
  10   2  -3 29.9506 6.09336   1 
  10  -2  -3 36.3879 6.50176   2 
  10   2   3 20.2445 6.19953   1 
  10   2   3 29.3370 8.10027   2 
 -10   2  -3 35.9386 4.25530   4 
  10   2   3 15.5077 9.85236   3 
 -11   2   3 1178.96 58.8955   4 
  11  -2   3 1047.59 58.7885   2 
  11   2  -3 1020.31 59.9394   2 
  11   2  -3 922.362 57.9531   1 
  11   2  -3 1017.87 59.4244   3 
 -11   2   3 1048.54 56.8435   1 
 -11   2  -3 1048.05 57.2056   4 
  11  -2  -3 1117.37 59.1693   2 
  11   2   3 1001.28 58.3899   1 
  11   2   3 885.261 60.1811   3 
  11   2   3 1048.36 60.0233   2 
  12   2  -3 70.3891 9.46724   1 
  12   2  -3 70.9966 11.5288   2 
  12  -2   3 81.0973 9.74933   2 
 -12   2   3 69.7186 5.99914   1 
  12   2   3 64.7290 11.2337   2 
 -12   2  -3 68.9203 6.82581   4 
  12   2   3 55.9938 7.80031   1 
  12  -2  -3 77.1921 10.4645   2 
 -13   2   3 31.2887 4.55592   1 
  13  -2   3 45.8323 8.69736   2 
  13   2  -3 29.0435 8.55105   3 
  13   2  -3 34.8396 10.7461   2 
  13  -2  -3 46.4378 8.60760   2 
 -13   2  -3 32.1622 5.25392   4 
  13   2   3 27.1938 11.2684   2 
  13   2   3 44.2310 8.41519   1 
  14   2  -3 27.8979 11.6888   2 
  14  -2   3 16.8686 8.72807   2 
 -14   2   3 25.7062 4.24234   1 
  14  -2  -3 16.9273 12.8039   2 
 -14   2  -3 15.8478 4.80178   4 
  15  -2   3 46.6828 15.3703   2 
  15   2   3 44.3225 13.3014   2 
  15   2   3 29.8200 8.74479   1 
  15  -2  -3 30.8820 9.52036   2 
  16   2  -3 37.4300 13.8264   2 
  16  -2   3 45.0142 10.6654   2 
  16  -2  -3 35.7775 10.3820   2 
  16   2   3 53.6629 10.5827   1 
  16   2   3 32.7729 12.8737   2 
  17   2  -3 42.4500 14.0094   2 
  17  -2   3 59.5568 12.9718   2 
  17  -2  -3 49.1780 12.0906   2 
  17   2   3 33.8276 11.3007   1 
  17   2   3 52.5478 15.4850   2 
  18  -2   3 22.7021 12.5478   2 
  18   2  -3 22.2801 14.4454   2 
  18   2   3 21.7098 8.96568   1 
  18   2   3 9.78450 19.1642   2 
   0  -3  -3 936.760 50.7569   2 
   0  -3   3 903.612 50.0446   1 
   0   3   3 899.954 50.7628   4 
   0  -3   3 906.601 49.4742   2 
   0  -3  -3 881.652 50.5754   4 
   0  -3   3 903.071 50.0991   4 
   0   3   3 882.343 50.4447   1 
   0  -3  -3 945.384 51.0164   3 
   0   3  -3 911.192 49.8090   1 
  -1   3   3 811.194 45.0894   1 
  -1   3   3 793.419 45.3158   4 
   1   3  -3 799.776 44.6239   1 
  -1  -3  -3 814.050 45.4302   4 
   1  -3   3 778.422 44.5019   4 
   1  -3   3 808.711 44.5088   1 
  -1  -3  -3 845.318 45.7642   3 
  -1  -3  -3 837.967 45.1990   2 
   1  -3  -3 821.144 45.2728   4 
  -1  -3   3 826.690 44.3360   2 
  -1  -3   3 785.618 44.9978   4 
  -1   3  -3 830.942 44.3284   1 
  -1  -3   3 798.027 44.9620   1 
   1  -3  -3 792.852 45.4790   2 
   1   3   3 789.727 45.2323   1 
   2  -3   3 3.64921 2.27035   4 
  -2   3   3 1.34047 3.21600   1 
   2   3  -3 1.58307 2.88432   1 
  -2  -3  -3 -2.6447 7.15163   4 
  -2   3   3 3.45175 3.19971   4 
  -2  -3  -3 -0.2090 4.37895   3 
  -2  -3   3 4.51904 3.76175   4 
  -2  -3   3 5.53299 3.02833   1 
   2  -3  -3 3.74881 3.49536   4 
   2  -3  -3 3.95747 3.08664   2 
  -2  -3   3 0.79771 2.75699   2 
  -3  -3  -3 188.667 13.3187   3 
  -3   3   3 184.294 11.9206   4 
  -3   3   3 182.445 11.5650   1 
   3  -3   3 181.221 10.7390   4 
  -3  -3  -3 173.248 12.6760   4 
   3   3  -3 181.107 11.5455   1 
  -3  -3  -3 181.883 12.4260   2 
   3   3   3 184.708 12.3683   1 
   3  -3  -3 180.578 11.9165   4 
  -3  -3   3 165.135 11.5968   1 
   3   3   3 180.726 12.0871   2 
  -3  -3   3 188.233 11.8789   2 
   4  -3   3 84.2424 7.32345   3 
  -4  -3  -3 92.1858 9.43477   3 
   4  -3   3 89.4183 5.87971   4 
  -4  -3  -3 90.3765 8.62975   2 
  -4   3   3 94.4330 7.28408   4 
  -4  -3  -3 79.3256 8.35401   4 
   4   3  -3 88.4221 7.27111   1 
  -4  -3   3 83.2327 7.24118   1 
   4   3   3 87.0574 8.27390   1 
  -4  -3   3 81.3673 8.13811   2 
   4  -3  -3 78.4680 7.56526   4 
   4   3   3 83.2573 8.28442   2 
  -5   3   3 1176.24 62.9688   4 
  -5  -3  -3 1047.39 66.2311   2 
   5  -3   3 1116.72 63.4363   3 
   5   3  -3 1140.79 62.9444   1 
  -5  -3  -3 1184.20 63.7424   4 
  -5  -3  -3 1149.33 64.2449   3 
   5   3   3 1138.06 63.2814   2 
   5   3   3 1193.30 63.5084   1 
  -5  -3   3 1075.19 63.0617   1 
   6  -3   3 0.98746 3.43348   3 
   6   3  -3 4.23308 4.02389   1 
  -6  -3  -3 2.16756 5.15010   2 
  -6  -3  -3 5.17021 5.65381   4 
  -6  -3  -3 3.44211 5.69907   3 
  -6   3   3 4.50077 3.10125   4 
  -6  -3  -3 4.48777 3.95713   1 
   6   3   3 1.94222 4.17379   1 
   6   3   3 6.48298 4.68006   3 
  -6  -3   3 1.13483 5.15166   1 
   6   3   3 4.83638 5.36452   2 
  -6   3  -3 6.62248 2.28741   4 
   6  -3  -3 12.3590 4.02120   4 
  -6  -3   3 6.79551 5.08412   2 
   7  -3   3 47.1353 5.85669   2 
   7  -3   3 58.9880 7.78366   3 
   7   3  -3 44.2505 6.45628   1 
  -7   3   3 48.3841 5.69186   4 
  -7  -3  -3 56.4214 7.74534   4 
  -7  -3  -3 44.4548 6.99309   1 
  -7  -3  -3 52.8868 8.37850   3 
  -7  -3  -3 35.4471 8.14932   2 
   7   3  -3 48.2205 6.04724   2 
   7   3  -3 39.4243 5.24286   3 
  -7  -3   3 39.7993 5.75569   1 
   7   3   3 41.2849 7.19075   2 
  -7  -3   3 54.6893 10.1253   2 
  -7   3  -3 48.9356 4.27491   4 
   7   3   3 52.9785 7.30939   1 
   7   3   3 36.2174 7.10640   3 
  -8  -3  -3 -3.4183 6.29938   3 
   8   3  -3 5.76757 4.26348   3 
  -8   3   3 1.90754 3.51240   4 
  -8  -3  -3 -5.3482 5.52690   4 
   8  -3   3 0.53046 3.78620   3 
   8  -3   3 -2.4456 3.25652   2 
   8   3  -3 -1.8660 4.72968   2 
   8   3  -3 -2.2662 4.51862   1 
   8   3   3 -3.4415 5.05648   3 
  -8  -3   3 -10.026 5.75751   2 
   8   3   3 1.38855 5.43057   1 
  -8   3  -3 2.79364 2.30110   4 
   8   3   3 -1.4561 6.42591   2 
  -9   3   3 1.30583 2.46924   1 
  -9   3   3 2.04470 3.39441   4 
  -9  -3  -3 3.40964 6.82328   4 
  -9  -3  -3 5.39970 7.38736   3 
   9   3  -3 2.88809 5.38409   1 
   9   3  -3 -6.0017 6.03788   2 
   9   3  -3 -2.5055 6.67186   3 
   9   3   3 1.70027 5.04180   1 
   9   3   3 1.86311 6.43760   3 
   9  -3  -3 5.86736 4.50112   2 
   9   3   3 5.96601 7.39162   2 
 -10  -3  -3 24.2402 11.4043   4 
  10   3  -3 4.33549 7.12467   2 
 -10   3   3 7.19350 2.57748   1 
 -10  -3  -3 11.8011 8.21891   3 
  10   3  -3 5.11069 5.51267   3 
  10  -3   3 5.29657 4.50376   2 
  10   3  -3 13.3091 6.28980   1 
  10  -3  -3 5.21866 5.11528   2 
 -10   3  -3 2.73332 2.30662   4 
  10   3   3 -0.5767 8.16998   2 
  10   3   3 2.68214 6.23756   3 
  10   3   3 6.94818 6.56686   1 
  11   3  -3 86.9872 13.0835   2 
 -11  -3  -3 120.148 13.7157   4 
  11   3  -3 106.468 11.6348   3 
  11  -3   3 116.295 10.9663   2 
  11   3  -3 116.880 11.6552   1 
 -11   3  -3 116.165 7.68849   4 
  11   3   3 108.491 11.7160   1 
  11   3   3 103.939 15.5248   2 
  11  -3  -3 121.000 11.7350   2 
  12  -3   3 197.481 16.3429   2 
  12   3  -3 239.287 17.1748   1 
  12   3  -3 211.674 16.5855   3 
 -12  -3  -3 254.064 18.9703   4 
  12   3  -3 180.378 18.4588   2 
  12   3   3 183.395 20.3381   2 
  12  -3  -3 219.665 16.7904   2 
  12   3   3 251.723 18.7354   1 
  13   3  -3 22.6967 7.49290   1 
  13  -3   3 22.2351 7.33579   2 
  13   3  -3 19.0282 10.1962   2 
  13   3   3 26.9456 8.80594   1 
  13  -3  -3 13.9844 9.12148   2 
 -13   3  -3 11.7648 2.14061   4 
  13   3   3 23.6603 13.7590   2 
  14   3  -3 137.959 14.2032   1 
  14   3  -3 116.831 15.1025   2 
  14  -3   3 167.262 16.7693   2 
  14   3   3 121.019 17.6665   2 
  14  -3  -3 145.705 15.1142   2 
 -15  -3  -3 20.7944 10.4706   4 
  15  -3   3 9.42543 8.07843   2 
  15   3   3 9.13065 9.63868   1 
  15  -3  -3 10.3480 7.99446   2 
  15   3   3 16.5952 13.1836   2 
  16   3  -3 -4.8716 10.3802   2 
 -16  -3  -3 -1.9531 9.29448   4 
  16  -3   3 5.74980 9.66765   2 
  16   3   3 2.26925 8.38402   1 
  16  -3  -3 6.90496 8.64807   2 
  16   3   3 -7.7483 12.9845   2 
  17  -3   3 10.5979 9.35664   2 
 -17  -3  -3 -4.5763 16.3052   4 
  17   3  -3 21.7759 11.7068   2 
  17   3   3 11.3290 11.7367   1 
  17   3   3 5.26190 15.4282   2 
   0   4   3 0.31915 4.20195   1 
   0  -4   3 2.86454 3.82033   4 
   0  -4  -3 2.25915 3.82496   2 
   0  -4  -3 -0.4070 5.60309   3 
   0  -4   3 -0.8422 2.88678   2 
   0  -4   3 1.66096 2.91609   3 
   0   4  -3 2.45655 3.14854   1 
   0  -4  -3 1.02545 4.93446   4 
   1  -4   3 83.1881 6.47472   2 
  -1  -4  -3 75.0169 8.73456   4 
  -1   4   3 80.3513 7.72441   1 
   1  -4   3 87.7878 7.23415   4 
  -1  -4  -3 72.0387 8.30419   2 
   1   4  -3 79.1769 6.86640   1 
  -1  -4   3 77.8720 6.96139   2 
   1   4   3 82.9392 8.41956   1 
   1  -4  -3 86.3037 8.02573   2 
   1  -4  -3 79.2310 9.73014   3 
  -1  -4   3 78.5199 7.26433   1 
   1  -4  -3 83.8556 8.74767   4 
  -1  -4   3 79.0586 8.41939   4 
  -1   4  -3 83.9040 6.18953   1 
  -2  -4  -3 15.6622 8.82754   3 
   2  -4   3 26.0022 4.25789   3 
   2   4  -3 29.3488 4.64924   1 
  -2   4   3 20.8728 5.06196   1 
  -2   4   3 32.9082 5.90897   4 
   2  -4   3 28.0441 4.36479   4 
  -2  -4  -3 23.9626 6.31481   4 
  -2  -4  -3 14.4237 5.01225   2 
   2  -4  -3 22.9144 4.84577   2 
  -2  -4   3 22.2140 4.75929   2 
  -2  -4   3 32.5768 5.73791   4 
  -2  -4   3 21.9228 4.85645   1 
   2   4   3 25.6021 5.75645   1 
   2  -4  -3 27.5667 5.63037   4 
  -3   4   3 35.6204 5.73900   4 
   3  -4   3 35.9065 5.05596   3 
  -3  -4  -3 19.3600 7.23748   2 
  -3   4   3 29.9800 5.26475   1 
  -3  -4  -3 23.5666 5.77735   4 
  -3  -4  -3 29.1514 9.42118   3 
   3  -4   3 37.0850 4.40663   4 
   3   4  -3 28.7354 5.10063   1 
   3  -4  -3 35.2770 5.58107   2 
  -3  -4   3 29.7100 6.86294   4 
   3  -4  -3 31.1631 5.61002   4 
  -3  -4   3 28.7960 5.88154   2 
  -3  -4   3 28.1559 5.54411   1 
   3   4   3 28.6777 6.26347   1 
   4   4  -3 17.5787 4.73142   1 
  -4   4   3 11.1358 4.26357   4 
   4  -4   3 18.2621 4.51005   3 
  -4  -4  -3 11.7827 5.86770   4 
  -4   4   3 16.5130 4.44384   1 
   4  -4   3 16.8552 3.62779   4 
   4  -4  -3 15.8436 5.95558   2 
  -4  -4   3 18.3205 5.88407   2 
  -4  -4   3 17.1237 5.19511   1 
   4   4   3 17.1991 5.97985   1 
  -4  -4   3 33.3684 6.99564   4 
   4  -4  -3 13.0284 5.22654   4 
   5   4  -3 52.0654 6.68677   1 
   5  -4   3 43.3519 6.37594   3 
  -5   4   3 49.2938 5.60051   1 
  -5  -4  -3 34.9559 8.50046   3 
  -5  -4  -3 69.9425 9.44933   4 
  -5   4   3 47.9189 6.11119   4 
   5  -4  -3 47.5916 6.50459   4 
   5   4   3 42.9645 7.18424   1 
  -5  -4   3 69.6622 10.1662   4 
  -5  -4   3 45.1406 8.30596   1 
  -6   4   3 361.740 20.7197   1 
  -6  -4  -3 371.444 23.8373   3 
  -6  -4  -3 374.246 23.7923   4 
   6   4  -3 359.555 22.0323   1 
  -6   4   3 345.125 22.9262   4 
   6  -4   3 339.910 22.2829   3 
  -6  -4   3 322.532 22.9174   2 
  -6  -4   3 391.008 24.3220   4 
   6   4   3 330.119 22.6395   1 
   6  -4  -3 369.229 21.8997   4 
  -7  -4  -3 338.308 22.5261   4 
   7  -4   3 231.029 17.2231   3 
   7  -4   3 254.908 16.1281   2 
  -7   4   3 265.179 15.5035   1 
   7   4  -3 276.462 17.6011   1 
  -7  -4  -3 254.175 19.0612   3 
   7   4   3 251.941 18.3295   1 
   7   4   3 233.164 18.0828   2 
   8   4  -3 74.5747 9.69600   1 
  -8   4   3 89.2402 6.66303   1 
  -8  -4  -3 88.2678 11.6158   3 
  -8  -4  -3 118.663 13.0462   4 
   8   4   3 75.2965 10.2642   2 
   8   4   3 57.1978 9.67693   1 
   9  -4   3 12.3345 4.56610   2 
  -9  -4  -3 13.2963 8.72093   3 
  -9  -4  -3 -5.8354 8.51400   4 
  -9   4   3 5.54363 1.55279   1 
   9   4  -3 9.52448 6.94038   1 
   9   4   3 4.54955 8.36000   2 
 -10  -4  -3 15.9897 8.04347   4 
  10  -4   3 10.0087 5.08522   2 
  10   4  -3 10.1734 7.47871   1 
  10   4   3 9.37525 9.55834   2 
  10  -4  -3 5.28881 5.40784   2 
  10   4   3 10.8079 7.28804   1 
  11   4  -3 456.624 29.9514   1 
  11  -4   3 486.855 29.2180   2 
 -11  -4  -3 565.709 32.6923   4 
  11   4   3 374.505 29.7188   1 
  11  -4  -3 552.030 31.0756   2 
  11   4   3 409.262 31.6094   2 
 -12  -4  -3 15.6529 8.56766   4 
  12   4  -3 33.8688 9.80788   1 
  12  -4   3 33.8575 6.98261   2 
  12   4   3 16.5723 11.0100   1 
  12   4   3 28.2271 13.2991   2 
 -13  -4  -3 17.7368 10.4187   4 
  13   4  -3 26.2017 8.66139   1 
  13  -4   3 19.9785 11.3681   2 
  13   4   3 17.1742 11.9600   2 
  13   4   3 19.7885 9.57812   1 
  13  -4  -3 19.2301 7.61934   2 
  14   4  -3 4.26887 8.75296   1 
  14  -4   3 2.96470 7.15908   2 
 -14  -4  -3 11.4291 11.9017   4 
  14   4   3 8.41885 10.3606   1 
  14  -4  -3 18.1856 8.07440   2 
  14   4   3 12.9778 12.1363   2 
  15   4  -3 43.9147 10.4733   1 
  15  -4   3 20.3127 8.65477   2 
 -15  -4  -3 48.6519 15.0374   4 
  15  -4  -3 18.2254 8.88838   2 
  15   4   3 10.3074 17.2171   1 
  15   4   3 7.69496 12.5710   2 
   0  -5  -3 362.212 23.8571   3 
   0  -5   3 320.316 21.1101   2 
   0  -5   3 336.653 21.1912   4 
   0   5   3 346.864 21.3949   1 
   0   5  -3 325.679 20.3572   1 
   0  -5  -3 368.890 22.5893   4 
  -1  -5  -3 281.085 20.2690   3 
   1  -5   3 281.878 17.7500   4 
  -1  -5  -3 276.650 19.6523   4 
   1   5  -3 276.251 17.1359   1 
   1  -5   3 253.930 17.1889   2 
  -1   5   3 283.507 17.8929   1 
   1  -5  -3 281.968 18.9708   4 
   1   5   3 263.839 18.2710   1 
  -1  -5   3 272.043 18.4378   4 
   1  -5  -3 306.497 20.2451   3 
  -2  -5  -3 -3.6349 8.10029   3 
   2  -5   3 0.70556 3.95140   3 
   2   5  -3 2.46987 4.96931   1 
  -2  -5  -3 6.34189 7.20355   4 
   2  -5   3 -3.9094 3.79825   2 
  -2   5   3 -1.5491 4.93513   1 
   2  -5   3 5.26109 4.81679   4 
  -2  -5   3 6.48635 6.08337   4 
   2  -5  -3 2.70433 5.97026   4 
   2  -5  -3 -0.4996 8.33312   3 
  -2  -5   3 -0.1881 5.36262   2 
   2   5   3 2.98570 6.18315   1 
  -3   5   3 57.1254 7.13710   1 
   3  -5   3 64.2470 8.17030   4 
  -3  -5  -3 47.8026 9.12300   4 
   3  -5   3 61.5676 8.03429   2 
   3  -5   3 52.9205 6.38509   3 
  -3  -5  -3 50.8877 9.88150   3 
   3   5  -3 68.5893 7.87276   1 
   3   5   3 53.8311 8.58692   1 
  -3  -5   3 29.5521 9.28949   2 
  -3  -5   3 55.8146 8.46382   4 
   3  -5  -3 50.9058 7.99162   4 
  -4  -5  -3 24.8595 9.05304   3 
   4  -5   3 21.5309 4.91074   3 
   4  -5   3 31.4763 5.81058   4 
  -4   5   3 24.0599 5.34476   1 
   4   5  -3 31.9774 6.76718   1 
   4  -5   3 30.5297 6.14420   2 
  -4  -5  -3 7.63375 6.95201   4 
   4  -5  -3 25.4106 7.12556   4 
   4   5   3 20.2733 7.69727   1 
  -4  -5   3 23.9467 8.39436   4 
   5   5  -3 327.078 23.6952   1 
  -5   5   3 383.308 22.6686   1 
  -5  -5  -3 396.178 26.2303   3 
   5  -5   3 372.901 24.1203   3 
   5   5   3 398.023 24.9715   1 
   5  -5  -3 429.779 24.4903   4 
  -5  -5   3 397.044 25.9507   4 
  -6  -5  -3 3.03213 7.70602   4 
   6   5  -3 -5.6603 6.64707   1 
   6  -5   3 1.34981 4.17851   3 
  -6  -5  -3 -2.5608 8.47472   3 
  -6   5   3 -1.9403 1.32429   1 
  -6  -5   3 -2.6029 8.50114   4 
   6  -5  -3 -2.0952 5.78037   4 
   6   5   3 2.85685 7.60247   1 
   7   5  -3 39.1853 8.06996   1 
  -7  -5  -3 33.7630 9.50863   3 
  -7  -5  -3 27.7160 9.49465   4 
   7   5   3 21.6281 8.77949   1 
  -7  -5   3 26.4504 16.0382   4 
   8   5  -3 9.32653 7.82325   1 
   8  -5   3 -5.1805 4.27092   2 
  -8  -5  -3 -7.2695 8.58160   3 
  -8   5   3 0.17876 0.93653   1 
  -8  -5  -3 0.37496 9.31872   4 
  -8  -5   3 5.81509 9.53405   4 
   8   5   3 -3.4217 7.86698   1 
   9   5  -3 14.5947 8.34625   1 
   9  -5   3 1.91121 4.63987   2 
  -9  -5  -3 -8.0623 8.82564   4 
  -9  -5   3 23.4162 11.0458   4 
  10  -5   3 4.08438 5.38168   2 
  10   5  -3 15.1450 9.38687   1 
 -10  -5  -3 6.47316 11.0492   4 
  10   5   3 -1.2275 8.64621   1 
 -10  -5   3 13.7114 12.5987   4 
  10  -5  -3 1.96448 5.96606   2 
  11   5  -3 31.4399 9.33555   1 
  11  -5   3 47.6512 7.99185   2 
 -11  -5  -3 21.9317 12.4166   4 
 -11  -5   3 29.5409 13.0287   4 
  11  -5  -3 45.5723 8.56191   2 
  11   5   3 11.8374 10.0791   1 
  12   5  -3 59.2705 15.7633   1 
  12  -5   3 89.8495 10.8434   2 
 -12  -5  -3 46.2732 16.9937   4 
  12   5   3 85.0630 14.7467   1 
  12  -5  -3 61.2929 9.52149   2 
 -12  -5   3 63.9341 15.1253   4 
   0  -6  -3 -0.8693 7.84505   4 
   0   6   3 0.10515 7.33219   1 
   0  -6  -3 -5.6434 9.24581   3 
   0  -6   3 0.12795 6.42578   4 
  -1   6   3 30.3447 7.20525   1 
   1  -6   3 17.3816 6.48920   4 
  -1  -6  -3 15.9653 10.5518   3 
  -1  -6  -3 18.2785 8.89200   4 
   1  -6  -3 21.9435 10.7485   3 
   1  -6  -3 15.4643 8.45278   4 
  -1  -6   3 31.7279 8.11661   4 
  -2  -6  -3 8.72305 9.42845   4 
  -2  -6  -3 3.55563 9.37709   3 
   2  -6   3 13.0612 5.62895   4 
   2  -6  -3 12.6110 7.67544   4 
   2  -6  -3 13.6027 11.1151   3 
   2   6   3 3.25945 7.78539   1 
  -2  -6   3 10.7537 7.43365   4 
   3  -6   3 16.3736 5.48649   4 
   3   6  -3 12.4343 7.31477   1 
  -3  -6  -3 5.61578 9.76481   3 
  -3  -6  -3 9.52538 9.77633   4 
   3  -6  -3 13.4725 11.0379   3 
  -3  -6   3 13.9701 9.25527   4 
   3   6   3 5.68784 8.03659   1 
   3  -6  -3 -6.6811 6.91933   4 
  -4  -6  -3 0.81316 9.12760   3 
   4   6  -3 30.0988 8.13526   1 
   4  -6   3 -2.1746 4.79666   4 
  -4   6   3 1.02428 1.97286   1 
   4  -6   3 4.99602 10.1824   3 
  -4  -6  -3 1.92827 9.36454   4 
   4  -6  -3 4.18371 7.03445   4 
   4   6   3 19.4187 9.38569   1 
   4  -6  -3 5.78677 11.7843   3 
  -4  -6   3 14.7462 8.40748   4 
  -5  -6  -3 16.5692 11.3437   4 
  -5  -6  -3 17.9079 9.23059   3 
   5   6  -3 4.00722 7.78884   1 
   5  -6  -3 10.3478 7.21649   4 
  -5  -6   3 14.3888 8.91947   4 
   5   6   3 16.1598 11.3334   1 
   5  -6  -3 18.8546 12.5149   3 
  -6  -6  -3 93.3078 13.0918   3 
  -6  -6  -3 113.318 15.5589   4 
   6   6  -3 158.085 19.9384   1 
   6  -6  -3 116.836 11.8451   4 
   6   6   3 74.0451 12.7022   1 
  -6  -6   3 114.815 15.0094   4 
   7   6  -3 91.2753 11.4148   1 
  -7  -6  -3 76.8447 13.5233   4 
   7  -6   3 70.7569 8.70139   2 
   7   6   3 54.3679 11.4418   1 
  -7  -6   3 46.9154 11.6761   4 
   8   6  -3 38.0664 10.7778   1 
  -8  -6  -3 2.78847 11.1533   4 
   8  -6   3 21.3183 5.99555   2 
  -8  -6   3 15.8578 10.9606   4 
   8   6   3 8.59283 14.2283   1 
   0   0  -4 58.2850 4.43158   4 
   0   0   4 63.6807 4.26545   4 
   0   0  -4 73.9758 5.13366   3 
   0   0  -4 71.1944 4.49841   2 
   0   0   4 69.7743 4.59360   2 
  -1   0  -4 166.969 9.36396   4 
   1   0  -4 166.890 9.43494   2 
  -1   0   4 158.956 9.39079   4 
   1   0   4 164.003 9.57084   2 
  -1   0  -4 177.158 10.2618   3 
   1   0   4 170.079 10.0407   3 
   1   0   4 151.405 9.21705   4 
   1   0  -4 150.765 9.40141   4 
  -1   0  -4 158.194 9.45977   2 
  -2   0   4 1857.22 101.555   4 
  -2   0  -4 1858.30 101.560   2 
   2   0  -4 1811.49 101.408   2 
   2   0   4 1997.02 102.306   3 
   2   0   4 1804.66 101.316   4 
  -2   0  -4 1976.14 102.339   3 
   2   0   4 1786.79 101.581   2 
  -3   0  -4 140.543 8.44996   4 
  -3   0  -4 144.443 9.14766   2 
   3   0   4 147.814 9.28220   2 
   3   0  -4 144.559 9.17541   2 
  -4   0  -4 2.68300 2.68633   3 
   4   0   4 1.25525 1.89948   1 
  -4   0  -4 0.15893 1.55751   4 
  -4   0  -4 3.03990 2.43932   2 
   4   0   4 2.38340 2.12729   3 
   4   0  -4 2.75766 2.12848   2 
   4   0   4 3.26046 2.65040   2 
   5   0   4 518.399 29.5246   3 
   5   0  -4 482.024 28.3933   2 
  -5   0  -4 506.999 29.1752   3 
   5   0   4 475.755 28.4511   2 
   5   0   4 496.557 27.7559   1 
  -5   0  -4 504.881 28.3559   2 
  -6   0   4 82.1354 6.01782   1 
  -6   0  -4 82.5648 8.03272   3 
   6   0   4 79.6452 7.90585   2 
   6   0  -4 80.1736 7.28605   2 
   6   0   4 85.3874 7.86315   3 
   6   0   4 83.7219 6.14095   1 
   7   0   4 4.83769 3.60614   3 
   7   0   4 8.60475 4.38397   2 
  -7   0  -4 8.00445 3.68129   2 
  -7   0  -4 7.04356 2.99723   1 
  -7   0  -4 13.0599 5.24254   3 
   7   0  -4 6.95004 3.70536   2 
   7   0   4 10.7515 2.98264   1 
  -7   0   4 10.5989 2.80749   1 
   8   0   4 384.820 22.5596   3 
  -8   0  -4 316.911 19.6852   2 
   8   0   4 307.195 20.2342   2 
  -8   0   4 314.411 18.7076   1 
   8   0   4 320.073 18.7090   1 
   8   0  -4 308.331 20.1325   2 
  -8   0  -4 297.274 18.4031   1 
   9   0  -4 77.2327 9.54287   2 
   9   0   4 84.3301 9.89184   2 
   9   0   4 85.1938 7.21582   1 
   9   0   4 72.4351 8.84560   3 
  -9   0  -4 90.4053 6.58082   1 
  -9   0   4 83.8371 6.75498   1 
  -9   0  -4 94.1704 8.97641   2 
  10   0   4 63.4833 6.94007   1 
  10   0   4 71.9611 8.97380   3 
 -10   0  -4 70.9961 6.18053   1 
 -10   0  -4 76.4109 9.48916   2 
  10   0   4 80.1212 9.37905   2 
  10   0  -4 77.8911 9.14933   2 
 -10   0   4 72.5992 6.53193   1 
 -11   0   4 693.688 41.2713   1 
 -11   0  -4 755.592 47.6453   2 
  11   0  -4 750.016 43.6029   2 
  11   0   4 748.521 41.4112   1 
 -11   0  -4 698.130 41.0380   1 
  11   0   4 762.267 43.7699   2 
  12   0   4 13.6609 8.04391   2 
 -12   0   4 10.7846 4.02659   1 
  12   0   4 7.88255 5.07698   1 
  12   0  -4 12.7741 7.73946   2 
 -12   0  -4 17.4923 6.67418   2 
 -12   0  -4 11.4988 4.01105   1 
  13   0   4 340.047 20.8738   1 
  13   0  -4 343.869 24.4645   2 
  13   0   4 343.307 24.9335   2 
 -13   0  -4 308.627 19.9575   1 
  14   0   4 31.6485 7.40188   1 
  14   0  -4 40.3378 10.6960   2 
  14   0   4 32.8537 10.7357   2 
  15   0   4 350.735 22.8359   1 
  15   0  -4 359.447 32.9633   2 
  15   0   4 352.656 32.1009   2 
  16   0   4 61.9466 9.91903   1 
  16   0  -4 62.3480 13.3307   2 
  16   0   4 48.9362 11.2862   2 
  17   0  -4 16.8813 11.8266   2 
  17   0   4 -7.3148 10.8012   2 
  18   0   4 27.1765 14.0181   2 
  18   0  -4 18.6232 13.1557   2 
  19   0  -4 174.211 22.2374   2 
  19   0   4 148.364 22.1631   2 
   0   1  -4 0.91662 1.74636   3 
   0  -1  -4 2.19524 2.38869   3 
   0  -1  -4 1.07023 1.78819   2 
   0  -1   4 1.20439 1.59901   3 
   0  -1  -4 0.58196 2.26012   4 
   0  -1   4 0.20289 0.91291   2 
   0   1   4 0.33273 1.38604   4 
   0  -1   4 0.58618 0.75767   2 
   0   1   4 -0.2432 1.94376   2 
  -1   1   4 751.581 45.9571   4 
   1  -1   4 881.885 46.3173   3 
  -1  -1  -4 863.488 46.6678   3 
   1   1  -4 898.631 45.8666   3 
   1  -1   4 815.918 45.4771   2 
  -1  -1  -4 856.406 46.1202   2 
  -1  -1  -4 805.552 46.0446   4 
  -1  -1   4 854.722 45.9287   1 
   1   1   4 806.763 46.0861   2 
   1  -1  -4 833.459 46.0381   2 
  -1  -1   4 818.044 45.6492   2 
  -1   1  -4 920.107 46.4130   3 
   1  -1  -4 797.633 46.0000   4 
   2  -1   4 500.167 32.1979   2 
   2   1  -4 623.001 31.9235   2 
   2  -1   4 605.881 32.9560   3 
  -2  -1  -4 583.294 32.4815   4 
  -2   1   4 579.551 32.4040   4 
  -2  -1  -4 631.270 33.3295   3 
  -2  -1  -4 581.487 32.5346   2 
   2   1  -4 593.311 31.8773   2 
  -2   1  -4 614.812 32.8896   3 
   2  -1  -4 582.719 32.4249   4 
   2   1   4 562.813 32.4674   4 
  -2  -1   4 563.616 32.1772   2 
   2   1   4 530.684 32.4672   2 
  -2  -1   4 604.499 32.3816   1 
   2   1   4 617.979 33.1004   3 
  -3  -1  -4 81.7358 6.00209   4 
  -3   1   4 77.5344 7.30691   4 
   3   1  -4 87.6449 6.16071   2 
  -3  -1  -4 83.9073 7.38991   3 
   3  -1   4 80.8424 5.72227   2 
   3  -1   4 84.3822 6.66952   3 
  -3  -1  -4 89.4698 6.95331   2 
   3   1   4 76.3992 6.47589   2 
  -3  -1   4 84.2517 5.94243   2 
   3   1   4 90.3962 6.98833   3 
   3   1   4 83.2637 6.21792   1 
   3  -1  -4 82.8059 6.00530   4 
  -3   1  -4 86.0506 6.80544   3 
  -4  -1  -4 252.737 15.8412   3 
   4  -1   4 241.999 13.7464   1 
   4   1  -4 251.822 14.8904   2 
   4  -1   4 228.400 14.3845   2 
   4  -1   4 250.789 15.4208   3 
  -4  -1  -4 240.393 14.5890   4 
  -4  -1  -4 240.573 14.9244   2 
  -4   1   4 243.713 14.5009   4 
   4   1   4 250.285 14.6872   1 
   4   1   4 228.421 15.0360   2 
   4   1   4 272.529 16.9965   3 
  -4   1  -4 260.939 15.4514   3 
  -4  -1   4 242.479 14.6000   2 
   5  -1   4 312.968 18.6286   2 
   5  -1   4 312.848 17.6839   1 
  -5  -1  -4 311.230 18.5919   4 
  -5  -1  -4 340.000 20.0326   3 
   5  -1   4 327.202 19.6044   3 
  -5  -1  -4 325.116 19.1315   2 
  -5   1   4 315.491 18.5535   4 
   5   1  -4 332.342 19.1766   2 
  -5  -1   4 317.514 18.4317   1 
   5   1   4 285.366 19.0495   2 
  -5  -1   4 316.121 18.7654   2 
   5   1   4 313.653 18.6289   1 
   5   1   4 324.393 19.9026   3 
   6  -1   4 17.6062 4.27373   3 
   6  -1   4 14.8233 2.37729   1 
  -6  -1  -4 8.95437 4.56528   3 
  -6   1   4 16.1665 3.28409   4 
  -6  -1  -4 9.32749 3.91104   2 
   6   1  -4 15.7264 4.55200   2 
   6  -1   4 19.3209 3.79737   2 
  -6  -1  -4 14.6282 3.20289   1 
   6  -1  -4 13.5920 3.45088   2 
   6   1   4 15.1261 3.67025   1 
   6   1   4 5.89823 4.29359   3 
  -6  -1   4 14.1550 3.59020   2 
   6   1   4 12.8779 4.58403   2 
  -6  -1   4 14.2596 3.14679   1 
   7  -1   4 773.982 42.9405   1 
   7  -1   4 774.461 44.1120   2 
   7   1  -4 804.545 44.7750   2 
  -7  -1  -4 756.204 43.6075   1 
   7  -1   4 738.469 45.0300   3 
  -7  -1  -4 765.791 45.1742   3 
  -7  -1  -4 876.251 45.6826   2 
   7   1   4 764.499 45.5389   3 
   7   1   4 801.229 43.9436   1 
   7  -1  -4 766.407 44.3145   2 
  -7   1  -4 799.719 43.8106   2 
  -7  -1   4 775.406 43.6932   1 
   7   1   4 788.583 44.6932   2 
  -7  -1   4 780.869 47.0499   2 
  -8  -1  -4 222.190 14.9395   1 
  -8   1   4 239.554 14.5945   1 
  -8  -1  -4 239.452 17.0937   3 
  -8   1   4 270.284 15.6040   4 
   8   1  -4 242.311 17.2068   2 
   8  -1   4 258.870 16.4019   2 
   8  -1   4 249.372 14.3628   1 
  -8  -1  -4 237.349 16.6369   2 
   8  -1   4 235.057 16.7033   3 
   8   1   4 227.147 17.2302   3 
   8  -1  -4 248.020 16.7394   2 
   8   1   4 270.639 17.2591   2 
   8   1   4 255.949 15.7479   1 
  -8  -1   4 236.488 16.1937   2 
  -8   1  -4 294.460 17.6535   2 
  -8  -1   4 221.816 15.0023   1 
  -9  -1  -4 6.86819 3.39365   1 
  -9  -1  -4 2.91572 6.19448   3 
   9  -1   4 8.13454 4.09921   3 
   9  -1   4 7.95833 5.24038   2 
  -9  -1  -4 9.85888 5.49099   2 
   9   1  -4 8.03140 6.23411   2 
  -9   1   4 7.07123 2.72507   1 
  -9   1   4 6.30855 3.51132   4 
   9  -1   4 8.88487 3.22623   1 
   9   1   4 5.99468 4.66110   3 
   9  -1  -4 8.79901 4.57346   2 
   9   1   4 9.63684 4.31951   1 
  -9  -1   4 7.12837 3.39583   1 
   9   1   4 7.27077 5.93206   2 
  -9   1  -4 8.44419 4.70167   2 
  10  -1   4 254.676 19.8169   3 
 -10   1   4 305.104 17.5632   1 
  10   1  -4 322.228 21.2263   2 
 -10  -1  -4 288.564 20.0547   2 
  10  -1   4 312.149 20.0252   2 
  10  -1   4 325.056 17.5228   1 
 -10   1   4 323.240 18.7085   4 
  10   1  -4 294.742 19.1062   3 
 -10  -1  -4 281.173 17.9622   1 
  10   1   4 312.661 18.6766   1 
  10  -1  -4 312.635 19.7992   2 
 -10  -1   4 256.659 17.9005   1 
 -10  -1   4 277.406 19.9362   2 
  10   1   4 312.610 20.9173   2 
  10   1   4 249.357 20.0963   3 
  11  -1   4 50.1753 8.30638   2 
  11  -1   4 41.4729 5.27046   1 
  11   1  -4 35.9926 8.68776   2 
 -11   1   4 36.6696 7.38294   4 
  11   1  -4 24.9739 5.98516   3 
 -11  -1  -4 15.9878 4.48171   1 
 -11   1   4 29.9249 4.36641   1 
  11   1   4 31.4294 6.32460   1 
  11   1   4 22.8675 7.23887   2 
  11  -1  -4 30.8600 6.95007   2 
  12   1  -4 35.2915 9.63701   2 
  12  -1   4 43.6987 5.97468   1 
  12   1  -4 32.4565 6.97090   3 
  12  -1   4 37.9170 8.87344   2 
 -12   1   4 28.9457 4.62031   1 
  12   1   4 19.8547 7.70878   2 
  12  -1  -4 30.9184 7.56689   2 
  12   1   4 25.5805 6.85554   1 
  13  -1   4 46.5726 9.92555   2 
 -13   1   4 37.4282 5.73040   1 
  13   1  -4 32.7704 10.2896   2 
  13   1   4 33.0355 7.27776   1 
  13   1   4 17.7551 8.74134   2 
  13  -1  -4 26.2208 7.95230   2 
  14  -1   4 283.353 22.2309   2 
  14   1  -4 228.152 22.1813   2 
  14   1   4 235.239 17.8036   1 
  14  -1  -4 256.206 20.8528   2 
  14   1   4 259.153 22.3390   2 
  15  -1  -4 226.340 19.7203   2 
  15   1   4 208.606 16.5731   1 
  16   1  -4 4.22779 11.7659   2 
  16  -1   4 19.1764 11.3729   2 
  16  -1  -4 25.5535 10.8524   2 
  16   1   4 19.1141 12.1118   2 
  16   1   4 3.17878 8.26041   1 
  17  -1   4 10.9134 12.0505   2 
  17   1  -4 8.61703 13.2495   2 
  17  -1  -4 12.2772 11.0490   2 
  17   1   4 9.68927 8.58729   1 
  17   1   4 13.2824 13.1131   2 
  18  -1   4 23.6147 13.3458   2 
  18   1  -4 25.0976 14.3127   2 
  18   1   4 24.5642 14.8609   2 
  18   1   4 0.26340 16.2046   1 
  18  -1  -4 4.73552 12.0722   2 
   0  -2   4 36.3895 3.17062   3 
   0  -2  -4 34.0207 4.44699   2 
   0  -2   4 40.3151 3.52827   1 
   0  -2  -4 39.2627 5.44915   3 
   0  -2  -4 36.3525 4.49954   4 
   1  -2   4 110.828 6.80589   1 
  -1  -2  -4 105.552 7.75703   2 
  -1  -2  -4 107.621 7.89222   4 
  -1   2   4 112.872 7.67865   4 
   1  -2   4 103.378 6.62299   4 
   1  -2   4 114.671 7.39453   3 
  -1  -2  -4 129.815 8.86449   3 
  -1  -2   4 111.122 7.20380   1 
   1  -2  -4 112.075 7.79896   2 
   1   2   4 110.443 8.03947   2 
   1  -2  -4 113.112 7.80794   4 
  -1  -2   4 111.565 6.40288   2 
   1   2   4 101.592 7.72083   4 
   1   2   4 107.759 8.35599   1 
   2  -2   4 1131.82 62.5187   4 
  -2   2   4 1136.62 63.4426   4 
  -2  -2  -4 1149.72 63.6327   4 
  -2  -2  -4 1251.50 64.3971   3 
   2  -2   4 1182.23 62.7036   1 
  -2  -2  -4 1112.09 63.4622   2 
   2  -2   4 1214.44 63.6785   3 
  -2  -2   4 1138.06 62.9156   2 
   2   2   4 1101.34 63.6126   4 
   2  -2  -4 1099.01 63.3141   2 
   2   2   4 1153.66 63.6352   1 
  -2  -2   4 1183.64 63.3193   1 
   2  -2  -4 1123.72 63.4005   4 
   2   2   4 1183.00 63.5195   2 
  -3  -2  -4 79.1691 7.92342   3 
  -3   2   4 82.6148 6.13176   4 
   3  -2   4 84.7536 6.60887   3 
  -3  -2  -4 73.4983 6.84610   4 
   3   2  -4 76.7734 5.94534   1 
  -3  -2   4 84.4900 6.14145   1 
  -3  -2   4 71.5305 6.23921   2 
   3  -2  -4 79.2632 6.50229   4 
   3   2   4 74.7006 7.11950   2 
   3   2   4 78.6660 6.79055   1 
   4   2  -4 2.11479 2.59197   1 
  -4  -2  -4 -2.7929 2.55987   4 
   4  -2   4 1.83138 1.70634   2 
  -4  -2  -4 -0.7246 4.35764   3 
   4  -2   4 2.03935 2.73743   3 
  -4   2   4 -1.6403 2.36249   4 
   4   2   4 5.58704 3.58982   1 
   4  -2  -4 1.43971 2.65787   4 
   4   2   4 0.81470 3.38743   2 
   4   2   4 1.81895 3.69403   3 
  -4  -2   4 3.13269 2.56770   1 
  -5  -2  -4 300.142 19.4694   4 
   5  -2   4 312.232 19.7727   3 
   5   2  -4 315.810 19.0020   1 
   5   2  -4 344.140 18.6700   3 
   5  -2   4 324.077 18.5801   2 
   5   2  -4 351.048 18.4889   2 
  -5  -2  -4 322.599 20.7050   3 
  -5  -2  -4 335.267 19.9693   2 
   5   2   4 303.210 20.6779   1 
  -5  -2   4 338.676 19.1519   1 
   5   2   4 311.707 19.7255   2 
  -5  -2   4 333.905 19.5701   2 
   5  -2  -4 322.582 19.1183   4 
   5   2   4 297.863 19.9288   3 
  -6  -2  -4 44.7948 7.04854   3 
  -6  -2  -4 46.7506 5.46697   1 
  -6  -2  -4 31.6792 10.1243   4 
  -6   2   4 57.7929 5.58889   4 
   6   2  -4 60.2435 5.56938   3 
  -6  -2  -4 53.9069 7.69132   2 
   6  -2   4 52.1125 6.27573   3 
   6   2  -4 49.9901 5.85233   1 
   6  -2   4 54.8563 5.41918   2 
   6   2  -4 48.7790 6.12628   2 
   6   2   4 52.7988 6.66462   1 
  -6   2  -4 56.6954 3.64516   4 
   6   2   4 55.9250 7.31059   2 
   6   2   4 44.6716 6.86558   3 
  -6  -2   4 54.6018 7.29177   2 
  -6  -2   4 57.4958 5.62867   1 
  -7   2   4 12.7991 3.40234   4 
   7   2  -4 9.22560 3.90160   3 
   7  -2   4 9.26370 4.24532   3 
  -7  -2  -4 8.10915 3.58131   1 
  -7  -2  -4 10.0733 5.26784   2 
   7   2  -4 10.8708 4.13793   1 
  -7  -2  -4 12.3047 4.79719   4 
  -7  -2  -4 8.76806 6.18862   3 
   7  -2   4 8.04256 3.42202   2 
   7   2  -4 6.78654 4.78502   2 
  -7   2  -4 11.7592 1.86469   4 
   7   2   4 5.74959 4.20464   1 
  -7  -2   4 8.90569 4.53554   2 
   7   2   4 0.24767 5.08036   2 
   7   2   4 5.91168 5.10893   3 
  -7  -2   4 11.9388 3.56373   1 
   8   2  -4 238.346 15.9381   2 
   8  -2   4 233.454 14.5901   2 
  -8  -2  -4 203.407 16.1955   2 
   8  -2   4 201.815 15.2356   3 
  -8  -2  -4 220.657 15.2422   4 
  -8   2   4 234.887 14.5613   4 
  -8  -2  -4 216.969 16.4981   3 
   8   2  -4 240.403 14.9872   3 
  -8  -2  -4 197.068 14.2767   1 
   8   2  -4 236.789 14.5674   1 
   8  -2  -4 228.032 15.1253   2 
  -8  -2   4 215.734 14.2955   1 
  -8   2  -4 225.592 12.7529   4 
   8   2   4 211.005 16.2625   3 
  -8  -2   4 211.817 15.7297   2 
   8   2   4 214.643 16.3930   2 
   8   2   4 236.495 15.1336   1 
   9   2  -4 67.0974 7.38977   1 
   9  -2   4 50.5844 7.43360   3 
   9  -2   4 66.2362 7.94455   2 
  -9  -2  -4 66.9678 9.33957   2 
   9   2  -4 50.6586 14.6095   2 
  -9  -2  -4 67.1796 10.1551   3 
  -9   2   4 68.9115 5.56742   1 
  -9   2   4 68.1500 7.14312   4 
  -9  -2  -4 68.7758 6.87668   1 
   9   2  -4 73.2997 7.95321   3 
   9   2   4 58.3709 9.58154   3 
  -9  -2   4 59.7069 6.88028   1 
  -9  -2   4 66.1020 9.41579   2 
   9  -2  -4 70.2285 9.00384   2 
   9   2   4 61.0173 8.93613   2 
   9   2   4 66.6683 8.19417   1 
  -9   2  -4 67.4475 5.04926   4 
  10  -2   4 74.9817 8.23666   2 
  10   2  -4 52.7875 7.82149   3 
 -10   2   4 54.4426 5.00962   1 
  10   2  -4 45.9481 6.54423   1 
 -10  -2  -4 54.6576 9.41235   3 
  10   2  -4 60.1711 9.73255   2 
  10  -2  -4 63.4748 8.69651   2 
  10   2   4 36.0095 8.11448   3 
  10   2   4 43.3020 7.28763   1 
  10   2   4 40.9859 9.10251   2 
  11   2  -4 559.360 36.0061   2 
  11  -2   4 590.663 34.7402   2 
 -11   2   4 593.602 32.6011   1 
  11   2  -4 562.075 34.9579   3 
  11  -2  -4 594.759 34.9857   2 
  11   2   4 546.693 34.2578   1 
 -11   2  -4 561.398 32.4265   4 
  11   2   4 596.249 36.2066   2 
  12   2  -4 11.0797 9.41197   2 
 -12   2   4 13.1105 3.39388   1 
  12   2  -4 3.74502 6.17341   3 
  12  -2   4 9.98772 6.81476   2 
  12  -2  -4 9.03859 6.32442   2 
  12   2   4 -2.7385 8.63892   2 
  12   2   4 4.76653 6.05269   1 
 -12   2  -4 10.9985 4.18120   4 
 -13   2   4 263.888 15.3543   1 
  13   2  -4 234.402 21.6761   2 
  13   2  -4 203.919 18.4381   3 
  13  -2   4 304.030 19.9348   2 
  13  -2  -4 237.135 18.7957   2 
  13   2   4 221.198 21.7126   2 
  13   2   4 239.852 18.2317   1 
 -13   2  -4 252.596 15.5472   4 
 -14   2   4 14.7783 5.15381   1 
  14  -2   4 18.1618 8.39363   2 
  14   2  -4 5.58622 10.5960   2 
  14   2   4 28.9156 9.59350   1 
  14  -2  -4 33.7398 9.94361   2 
  14   2   4 19.7768 12.3398   2 
 -14   2  -4 21.0726 5.46594   4 
  15   2  -4 182.632 32.9833   2 
  15  -2   4 394.726 29.6220   2 
  15   2   4 279.849 25.8500   2 
  15   2   4 260.977 21.1825   1 
 -15   2  -4 308.000 18.4984   4 
  15  -2  -4 308.129 23.0839   2 
  16  -2   4 39.3707 10.9834   2 
  16   2  -4 40.0808 13.2030   2 
  16   2   4 33.2854 13.4454   2 
  16   2   4 23.7314 10.0313   1 
  16  -2  -4 55.7813 11.4746   2 
  17  -2   4 11.9920 11.0581   2 
  17   2  -4 0.38510 12.7368   2 
  17   2   4 8.44891 8.67613   1 
  17   2   4 11.8359 13.6172   2 
  17  -2  -4 5.47915 9.85025   2 
  18  -2   4 26.8318 15.5682   2 
  18   2  -4 5.58594 13.1367   2 
  18  -2  -4 18.2342 11.8135   2 
  18   2   4 12.0786 22.0992   2 
  18   2   4 35.9123 11.7283   1 
   0  -3  -4 -0.4588 3.16322   2 
   0   3   4 5.57805 3.78421   1 
   0   3   4 -1.4303 3.03262   4 
   0  -3  -4 2.93484 4.13555   4 
   0  -3   4 4.51804 2.79771   4 
   0  -3   4 0.45112 2.61035   1 
   0  -3  -4 0.26196 4.42411   3 
   1  -3   4 347.560 20.4213   4 
   1  -3   4 374.539 20.7543   3 
   1   3  -4 362.952 20.6374   1 
  -1  -3  -4 398.449 22.4067   3 
  -1  -3  -4 342.956 21.3768   2 
  -1  -3  -4 368.415 21.7748   4 
  -1   3   4 348.826 21.3469   1 
  -1   3   4 347.021 21.4243   4 
   1  -3   4 365.894 20.5393   1 
  -1  -3   4 366.133 20.2056   2 
   1   3   4 370.826 23.0512   1 
  -1  -3   4 366.087 21.1971   4 
   1  -3  -4 354.244 21.2388   2 
  -1  -3   4 358.983 20.9433   1 
   1   3   4 353.685 21.6424   4 
  -2  -3  -4 279.285 17.2161   3 
  -2   3   4 253.867 15.8424   4 
   2  -3   4 248.491 14.5742   4 
  -2  -3  -4 256.683 16.2528   4 
  -2   3   4 247.953 15.6516   1 
   2  -3   4 268.386 15.5169   3 
   2  -3   4 257.412 14.5678   1 
   2   3  -4 241.916 15.1380   1 
  -2  -3  -4 253.429 16.0549   2 
   2   3   4 253.389 16.1412   1 
  -2  -3   4 262.770 15.5023   1 
   2  -3  -4 215.913 18.2700   4 
  -2  -3   4 270.094 15.1034   2 
   2  -3  -4 245.285 15.7433   2 
  -3   3   4 48.1034 5.60360   4 
   3   3  -4 36.9622 4.62047   1 
   3  -3   4 33.0176 4.97551   3 
  -3  -3  -4 45.5262 6.69191   4 
   3  -3   4 33.7245 3.46698   4 
  -3  -3  -4 41.5413 7.20762   3 
  -3  -3   4 32.7524 5.70179   2 
   3   3   4 21.5076 5.48016   2 
   3   3   4 38.8947 5.76228   1 
   3  -3  -4 46.5375 5.57158   4 
  -3  -3   4 38.1683 4.89525   1 
   3  -3  -4 39.3298 5.06759   2 
  -4  -3  -4 131.059 10.9332   4 
   4   3  -4 138.503 9.57651   1 
  -4  -3  -4 109.583 12.5721   2 
  -4   3   4 143.470 9.89697   4 
   4  -3   4 143.993 9.96982   3 
  -4  -3  -4 138.472 12.0693   3 
   4   3   4 144.730 10.7116   1 
   4   3   4 123.725 11.9282   2 
  -4  -3   4 123.381 10.3428   2 
  -4  -3   4 131.203 9.70349   1 
   4  -3  -4 139.517 10.0911   4 
  -5  -3  -4 203.519 13.5676   4 
   5   3  -4 177.680 12.2610   1 
  -5  -3  -4 153.254 13.4752   2 
  -5  -3  -4 191.834 19.8087   3 
  -5   3   4 190.404 12.3168   4 
   5  -3   4 192.873 12.8124   3 
   5   3   4 190.937 13.4458   2 
  -5  -3   4 173.487 12.3458   1 
   5  -3  -4 178.796 12.5862   4 
   5   3   4 194.012 13.3462   1 
  -6  -3  -4 3.48167 5.85441   3 
  -6  -3  -4 8.09861 5.68354   4 
   6  -3   4 8.73279 2.91420   2 
   6   3  -4 2.77504 4.05868   1 
   6  -3   4 11.4080 4.13343   3 
  -6  -3  -4 -1.7092 5.58539   2 
   6   3   4 2.19637 5.39592   2 
  -6  -3   4 4.28482 3.66534   1 
   6  -3  -4 4.95858 4.14754   4 
   6   3   4 5.12650 5.09733   1 
  -6  -3   4 6.95073 5.07363   2 
   6   3   4 3.86978 5.41425   3 
  -7   3   4 449.275 25.1863   4 
  -7  -3  -4 460.748 26.4343   4 
   7  -3   4 431.844 26.1510   3 
   7  -3   4 431.172 24.5408   2 
  -7  -3  -4 425.525 27.1808   3 
   7   3  -4 450.330 25.4083   1 
   7   3  -4 396.195 23.4507   2 
   7   3   4 379.420 26.2501   3 
  -7  -3   4 382.655 25.2495   1 
   7   3   4 437.550 26.0060   1 
   7   3   4 431.197 26.3621   2 
   8   3  -4 136.171 10.9460   1 
  -8   3   4 144.025 10.4982   4 
   8   3  -4 136.015 9.72093   3 
  -8  -3  -4 154.188 13.8810   3 
   8   3  -4 136.108 9.93521   2 
   8  -3   4 130.774 10.0020   2 
  -8  -3  -4 145.424 12.6362   4 
   8  -3   4 137.566 11.5034   3 
  -8   3  -4 142.133 8.20179   4 
   8   3   4 107.379 12.4788   3 
   8   3   4 128.994 13.0114   2 
  -8  -3   4 122.848 12.6433   2 
   8   3   4 121.836 11.4885   1 
  -9  -3  -4 2.29384 6.83893   4 
  -9  -3  -4 6.80917 7.59354   3 
   9   3  -4 4.73424 4.70259   3 
   9   3  -4 9.32742 5.59046   1 
   9  -3   4 2.74560 5.23476   2 
   9   3  -4 1.35294 5.50690   2 
   9   3   4 5.75923 7.85133   2 
   9   3   4 8.55167 6.43778   3 
   9   3   4 2.89059 5.74977   1 
   9  -3  -4 1.82233 4.60204   2 
  -9   3  -4 6.74045 2.17643   4 
  10   3  -4 213.047 15.8130   3 
 -10  -3  -4 181.523 16.2298   4 
 -10  -3  -4 190.922 17.1401   3 
 -10   3   4 217.830 12.3469   1 
  10   3  -4 223.409 15.4807   1 
  10  -3   4 187.633 14.2018   2 
  10   3   4 152.133 17.2493   2 
  10   3   4 185.339 15.2814   1 
 -10   3  -4 192.845 11.5958   4 
  10  -3  -4 208.198 15.3290   2 
  11   3  -4 11.2552 7.19186   1 
 -11  -3  -4 15.8458 9.45333   3 
  11   3  -4 34.0632 6.04773   3 
  11  -3   4 16.4607 6.13113   2 
  11   3  -4 9.29022 7.50089   2 
 -11   3   4 19.9235 3.45464   1 
 -11  -3  -4 9.11208 7.32026   4 
  11   3   4 8.06534 7.47614   1 
  11   3   4 9.02902 9.70792   2 
  11  -3  -4 17.5695 6.40360   2 
  12   3  -4 12.8882 8.83507   2 
 -12  -3  -4 7.29250 13.3222   4 
  12  -3   4 19.7888 7.04847   2 
  12   3  -4 18.8349 7.14510   1 
  12   3   4 13.8694 11.1691   2 
  12  -3  -4 8.17080 6.31794   2 
  12   3   4 1.85661 7.34845   1 
  13   3  -4 17.6547 9.08665   2 
  13  -3   4 21.1376 7.72964   2 
 -13  -3  -4 14.3986 10.5730   4 
  13  -3  -4 19.6856 7.32490   2 
  13   3   4 17.8603 13.7105   2 
  13   3   4 18.6829 7.90521   1 
  14  -3   4 170.579 17.2856   2 
 -14  -3  -4 171.374 17.6638   4 
  14   3  -4 115.395 16.5495   2 
  14  -3  -4 162.296 15.2699   2 
  14   3   4 139.006 20.4844   2 
  14   3   4 125.293 14.4055   1 
  15  -3   4 183.284 18.0647   2 
 -15  -3  -4 171.262 18.9647   4 
  15  -3  -4 164.704 16.8398   2 
  15   3   4 145.280 20.0149   2 
  16  -3   4 2.21563 8.45345   2 
 -16  -3  -4 8.58366 13.0806   4 
  16   3   4 11.4971 11.0972   1 
  16   3   4 26.7330 15.0124   2 
  16  -3  -4 16.8896 9.49349   2 
 -17  -3  -4 6.93125 12.3721   4 
  17  -3   4 11.6483 9.81531   2 
  17  -3  -4 9.30631 10.7680   2 
  17   3   4 1.46567 10.5507   1 
   0  -4   4 18.7076 4.35312   4 
   0  -4   4 15.2843 3.96467   2 
   0  -4  -4 13.8624 5.55599   4 
   0  -4  -4 4.65696 6.35277   2 
   0  -4   4 11.9196 3.99077   1 
   0   4   4 10.5399 5.27689   1 
   0  -4  -4 11.0352 6.47858   3 
   1  -4   4 66.8808 5.74783   3 
   1   4  -4 70.6988 6.46449   1 
   1  -4   4 65.6146 6.42308   4 
  -1  -4  -4 44.1584 8.19541   2 
  -1   4   4 71.1063 7.67017   1 
  -1  -4  -4 71.1346 8.70121   4 
  -1  -4  -4 76.0574 10.2539   3 
   1  -4  -4 67.2371 7.88145   4 
  -1  -4   4 69.9284 7.50867   4 
   1  -4  -4 69.7122 8.43349   2 
  -1  -4   4 63.6857 6.57576   2 
  -1  -4   4 65.7963 6.75444   1 
   1   4   4 66.4698 8.03729   1 
   1  -4  -4 74.6368 9.71146   3 
   2   4  -4 446.601 26.0442   1 
  -2  -4  -4 481.489 28.3878   3 
   2  -4   4 449.282 25.6246   4 
  -2  -4  -4 451.628 27.5443   4 
   2  -4   4 452.863 26.1531   3 
  -2   4   4 470.590 26.5705   1 
  -2  -4   4 436.049 27.9586   4 
  -2  -4   4 441.880 26.2587   2 
   2   4   4 440.937 27.0867   1 
  -2  -4   4 446.380 26.5983   1 
   2  -4  -4 452.738 26.9374   4 
  -3  -4  -4 15.7925 7.42001   3 
  -3   4   4 14.0610 4.89618   1 
   3   4  -4 20.9870 4.90712   1 
   3  -4   4 18.6345 3.43945   4 
  -3  -4  -4 23.7204 6.98018   4 
   3   4   4 15.1352 5.88197   1 
  -3  -4   4 25.1886 6.28249   4 
  -3  -4   4 22.1005 5.20881   1 
   3  -4  -4 20.4981 5.57941   4 
   4   4  -4 -2.0304 4.30706   1 
  -4   4   4 0.63850 4.26838   1 
   4  -4   4 0.66352 3.54234   3 
   4  -4   4 -1.8133 2.66232   4 
  -4  -4  -4 1.32422 6.83395   3 
  -4  -4  -4 3.84295 6.31933   4 
  -4  -4   4 0.51357 4.27260   1 
  -4  -4   4 -2.2451 5.19558   2 
   4   4   4 -2.2763 5.59362   1 
  -4  -4   4 -10.565 5.97466   4 
   4  -4  -4 2.32917 4.83038   4 
  -5  -4  -4 111.184 12.0547   4 
   5  -4   4 115.408 9.59756   3 
  -5  -4  -4 122.503 12.6945   3 
  -5   4   4 116.572 11.2556   1 
   5   4  -4 111.193 9.93542   1 
  -5  -4   4 87.4441 12.6140   2 
   5  -4  -4 110.976 10.1525   4 
  -5  -4   4 121.441 12.3569   4 
   5   4   4 115.158 11.0033   1 
  -6  -4  -4 26.7347 8.42906   3 
   6   4  -4 30.2859 6.46395   1 
  -6  -4  -4 34.5123 9.14268   4 
  -6   4   4 25.0806 8.24140   1 
   6  -4   4 34.9661 6.62736   3 
   6   4   4 25.3107 7.27204   2 
   6   4   4 23.1164 7.18878   1 
   6  -4  -4 30.8963 6.33385   4 
  -6  -4   4 34.4586 7.18549   2 
  -7   4   4 6.28128 5.53614   1 
  -7  -4  -4 3.19525 7.75745   3 
   7   4  -4 13.0415 5.89343   1 
  -7  -4  -4 8.23261 7.48001   4 
   7  -4   4 8.55175 3.72016   2 
   7  -4   4 14.9973 5.70938   3 
   7  -4  -4 7.19179 5.27713   4 
   7   4   4 -1.3947 7.00715   2 
   7   4   4 3.88620 6.23012   1 
  -8  -4  -4 103.121 12.8333   4 
   8  -4   4 89.1326 8.39008   2 
   8   4  -4 98.8920 10.4619   1 
  -8  -4  -4 95.1398 12.8589   3 
   8   4   4 90.1730 10.9046   1 
   8   4   4 74.7628 10.8661   2 
   9  -4   4 42.3089 6.19819   2 
  -9  -4  -4 51.2671 14.8971   4 
   9   4  -4 44.0304 8.82500   1 
  -9  -4  -4 47.3930 10.3820   3 
   9   4   4 27.4048 9.93487   2 
   9   4   4 39.8884 8.16446   1 
 -10  -4  -4 29.9461 10.6233   4 
  10   4  -4 20.9638 8.32642   1 
  10  -4   4 30.4374 6.16715   2 
 -10  -4  -4 32.6097 11.0145   3 
  10  -4  -4 22.2093 6.38071   2 
  10   4   4 8.34737 10.3136   2 
  10   4   4 25.5734 9.49825   1 
 -11  -4  -4 280.548 21.1038   4 
  11  -4   4 274.011 18.5277   2 
  11   4  -4 285.510 19.5577   1 
  11   4   4 205.598 22.1102   2 
 -12  -4  -4 13.2137 11.0577   4 
  12  -4   4 6.02536 6.07706   2 
  12  -4  -4 9.79828 6.75593   2 
  12   4   4 11.4219 12.5406   1 
  12   4   4 -8.4447 13.0373   2 
  13  -4   4 153.923 15.6038   2 
 -13  -4  -4 144.836 17.7358   4 
  13   4  -4 150.411 14.8253   1 
  13  -4  -4 136.586 15.1916   2 
  13   4   4 86.8685 16.0100   2 
  13   4   4 129.915 15.7836   1 
 -14  -4  -4 14.1769 10.0279   4 
  14  -4   4 8.62813 7.42821   2 
  14   4   4 27.0194 13.8898   2 
  14   4   4 11.7296 10.0886   1 
  14  -4  -4 20.8790 8.48802   2 
 -15  -4  -4 148.442 17.5649   4 
  15  -4   4 159.578 15.6696   2 
  15   4   4 116.582 18.0689   2 
  15   4   4 149.364 18.0117   1 
   0  -5  -4 -3.5107 9.09982   3 
   0   5   4 0.10733 6.20229   1 
   0  -5  -4 -3.6741 7.07089   4 
   0  -5   4 5.83899 5.10820   4 
   0  -5   4 -3.7911 4.08168   2 
   1  -5   4 126.328 9.97648   4 
  -1  -5  -4 129.684 13.9057   3 
   1  -5   4 114.019 9.40916   2 
  -1   5   4 125.613 10.7142   1 
  -1  -5  -4 133.432 13.0472   4 
   1  -5  -4 107.226 13.5576   3 
  -1  -5   4 100.933 10.0962   2 
   1   5   4 111.474 11.0602   1 
  -1  -5   4 129.348 10.9742   4 
   1  -5  -4 124.349 12.2264   4 
  -2  -5  -4 88.4112 12.8659   3 
  -2  -5  -4 96.7716 11.8861   4 
   2  -5   4 90.3859 7.77205   2 
  -2   5   4 91.5269 9.28618   1 
   2   5  -4 88.1798 8.61040   1 
   2  -5   4 114.836 11.5124   4 
   2  -5   4 86.4131 7.20958   3 
   2  -5  -4 101.993 11.1642   4 
   2  -5  -4 94.0486 12.9507   3 
  -2  -5   4 69.8793 8.46366   1 
   2   5   4 95.2918 10.6176   1 
  -2  -5   4 88.7210 10.2835   4 
  -3   5   4 12.5492 5.73701   1 
   3   5  -4 26.5478 6.24964   1 
  -3  -5  -4 13.6867 9.38833   3 
   3  -5   4 17.0698 4.22265   2 
  -3  -5  -4 10.8033 7.48178   4 
   3  -5   4 14.1469 4.45016   4 
   3   5   4 15.0546 7.50672   1 
   3  -5  -4 19.4784 10.3301   3 
  -3  -5   4 7.03313 6.40263   2 
  -3  -5   4 15.0041 7.02171   4 
   3  -5  -4 9.03510 6.47173   4 
   4   5  -4 52.6390 7.79336   1 
  -4   5   4 55.3034 6.92426   1 
  -4  -5  -4 41.0494 14.3375   4 
   4  -5   4 37.8537 6.54616   3 
   4  -5   4 57.6807 6.09767   4 
  -4  -5  -4 58.2469 11.0195   3 
   4   5   4 49.5764 9.26450   1 
  -4  -5   4 51.4100 8.94662   4 
   4  -5  -4 47.4093 8.00042   4 
   5   5  -4 99.0039 9.69821   1 
   5  -5   4 66.6085 8.30979   3 
  -5  -5  -4 65.3414 11.8146   3 
  -5   5   4 68.2927 7.72100   1 
  -5  -5  -4 71.0997 11.7397   4 
  -5  -5   4 112.008 12.5107   4 
   5  -5  -4 70.9426 9.03690   4 
   5   5   4 47.0438 15.4219   1 
   6  -5   4 -2.4529 4.57246   3 
   6   5  -4 8.33651 6.64224   1 
  -6  -5  -4 4.65266 9.05996   4 
  -6  -5  -4 7.78587 9.66746   3 
  -6  -5   4 -3.7503 8.93838   4 
   6  -5  -4 2.30880 6.02330   4 
   6   5   4 3.94180 7.42110   1 
  -7  -5  -4 201.413 18.6607   4 
  -7  -5  -4 172.013 17.6288   3 
   7  -5   4 232.077 15.1027   2 
   7   5  -4 156.969 14.5469   1 
  -7  -5   4 142.424 23.8150   4 
   7   5   4 191.065 16.6917   1 
   7  -5  -4 180.019 14.6207   4 
   8  -5   4 59.4823 7.93123   2 
   8   5  -4 75.2367 10.9718   1 
  -8  -5  -4 62.7125 12.2951   3 
  -8  -5  -4 55.5552 11.0493   4 
   8   5   4 47.5671 10.8349   1 
  -8  -5   4 66.9259 12.6715   4 
   9   5  -4 4.10325 8.02830   1 
  -9  -5  -4 9.37591 10.9768   4 
  -9   5   4 2.02173 1.40895   1 
  -9  -5  -4 2.77639 10.4338   3 
   9  -5   4 1.59337 4.82722   2 
   9   5   4 4.39539 9.15747   1 
  -9  -5   4 -5.5152 11.1197   4 
  10  -5   4 82.3210 10.1300   2 
 -10  -5  -4 94.0461 15.3471   4 
  10   5  -4 96.8180 12.5353   1 
  10  -5  -4 93.3896 12.2323   2 
  10   5   4 85.5558 13.5693   1 
 -10  -5   4 54.1959 14.4569   4 
  11   5  -4 -5.3313 8.11826   1 
  11  -5   4 9.84483 5.58478   2 
 -11  -5  -4 -0.1911 9.31630   4 
  11   5   4 6.70509 9.18073   1 
  11  -5  -4 -2.7924 6.32556   2 
 -11  -5   4 2.39503 12.9378   4 
  12  -5   4 2.28627 6.76320   2 
  12   5  -4 8.41610 16.1609   1 
 -12  -5  -4 1.91702 12.5817   4 
  12  -5  -4 3.63186 7.04754   2 
  12   5   4 6.14708 10.0920   1 
  12   5   4 -1.1193 2.81447   2 
 -12  -5   4 8.65262 13.9449   4 
   0  -6  -4 -4.3467 8.28091   4 
   0  -6   4 3.10350 6.18271   4 
   0  -6  -4 0.14669 10.3025   3 
  -1  -6  -4 35.5597 12.7555   3 
  -1   6   4 14.3734 7.61035   1 
  -1  -6  -4 15.0373 9.68044   4 
   1  -6   4 29.7688 6.41564   4 
   1  -6  -4 15.1867 8.20688   4 
  -1  -6   4 21.2998 7.28563   4 
   1   6   4 20.9184 8.39623   1 
   1  -6  -4 26.1851 11.9363   3 
  -2  -6  -4 143.313 16.3038   4 
  -2  -6  -4 146.709 16.3604   3 
   2  -6   4 133.438 11.3343   4 
  -2   6   4 171.272 12.1645   1 
   2  -6  -4 147.925 14.1430   4 
   2  -6  -4 142.109 17.7174   3 
  -2  -6   4 118.575 13.2202   4 
   2   6   4 129.092 13.4098   1 
  -3  -6  -4 -2.4432 10.0809   3 
   3  -6   4 -4.8071 4.41755   4 
  -3   6   4 -0.0277 2.02408   1 
  -3  -6  -4 -7.2043 9.33081   4 
   3  -6  -4 -9.9300 14.9288   3 
  -3  -6   4 10.2912 13.4636   4 
   3   6   4 -4.7650 8.09575   1 
   3  -6  -4 2.39715 7.31746   4 
  -4   6   4 5.37709 2.11425   1 
  -4  -6  -4 1.28257 9.41619   4 
  -4  -6  -4 0.45589 10.3592   3 
   4  -6  -4 13.8281 12.0840   3 
  -4  -6   4 -5.1418 7.17863   4 
   4  -6  -4 -2.5551 6.89636   4 
   4   6   4 2.15572 12.6141   1 
  -5  -6  -4 24.4466 12.2335   4 
  -5  -6  -4 15.6043 10.8601   3 
   5  -6  -4 17.5294 7.94463   4 
  -5  -6   4 12.1883 9.79662   4 
   5   6   4 47.0771 11.2269   1 
   5  -6  -4 28.4310 13.8377   3 
  -6   6   4 -5.4453 2.64483   1 
  -6  -6  -4 12.2941 10.8160   3 
  -6  -6  -4 5.90433 10.7132   4 
   6   6   4 12.2933 9.83550   1 
  -6  -6   4 0.18499 8.83485   4 
   6  -6  -4 3.69669 6.84969   4 
  -7  -6  -4 6.24982 10.8956   3 
   7  -6   4 3.55204 6.29234   2 
  -7  -6  -4 -14.693 15.7999   4 
  -7  -6   4 3.71837 10.5894   4 
   7   6   4 15.6513 10.4861   1 
   0   0   5 0.74789 1.74717   2 
   0   0   5 0.48374 1.20945   4 
   0   0  -5 2.47488 1.42333   4 
   0   0  -5 3.11119 2.53028   3 
   0   0  -5 -0.2170 1.46921   2 
   1   0  -5 41.0512 4.23672   3 
  -1   0  -5 37.2830 4.61416   3 
   1   0  -5 32.5892 3.25036   4 
   1   0   5 35.0431 2.96143   4 
  -1   0   5 36.2316 3.13974   4 
   1   0   5 38.1139 3.75977   2 
   1   0   5 35.4340 4.00845   3 
  -1   0  -5 42.1530 3.58731   2 
  -1   0   5 39.4706 3.67020   2 
   1   0  -5 36.2752 3.42521   2 
  -1   0  -5 34.8607 3.00218   4 
   2   0   5 2119.77 108.479   3 
   2   0   5 1922.34 107.635   2 
  -2   0   5 1948.07 107.558   4 
   2   0  -5 1923.34 107.435   2 
   2   0   5 1864.21 107.292   4 
  -2   0  -5 2187.09 108.608   3 
  -2   0  -5 1973.92 107.566   2 
  -2   0  -5 1903.46 107.297   4 
  -3   0  -5 1147.63 63.2253   4 
   3   0   5 1224.38 64.6096   3 
  -3   0  -5 1161.59 63.6098   2 
   3   0   5 1131.41 63.7063   2 
  -3   0   5 1135.32 63.5649   4 
   3   0  -5 1095.62 63.6236   2 
  -3   0  -5 1235.37 64.6649   3 
  -4   0  -5 124.425 7.55727   4 
  -4   0   5 124.943 8.02872   4 
   4   0  -5 116.740 8.54480   2 
   4   0   5 122.951 7.91743   1 
  -4   0  -5 132.795 9.65582   3 
   4   0   5 111.223 8.73747   2 
  -4   0  -5 120.584 8.48862   2 
   5   0   5 309.576 19.6376   3 
   5   0   5 310.741 18.8987   2 
  -5   0  -5 315.743 18.5779   2 
   5   0  -5 295.353 18.6278   2 
   5   0   5 302.893 17.9395   1 
  -5   0  -5 311.677 17.7815   4 
  -5   0  -5 334.544 19.7378   3 
   6   0   5 19.6701 5.36257   3 
   6   0  -5 19.8075 4.02751   2 
  -6   0  -5 17.2230 4.79826   2 
   6   0   5 17.5329 4.23019   2 
  -6   0   5 22.7990 3.44247   1 
   6   0   5 17.3472 3.52058   1 
  -6   0  -5 20.6854 5.68014   3 
   7   0   5 282.726 16.9090   1 
  -7   0  -5 306.122 17.8891   2 
   7   0   5 259.992 18.6727   3 
   7   0  -5 274.689 17.9747   2 
  -7   0   5 280.440 16.8674   1 
   7   0   5 309.453 18.5227   2 
  -8   0  -5 96.1806 8.82056   2 
  -8   0   5 86.3309 6.93229   1 
   8   0   5 91.7737 9.25768   3 
   8   0   5 88.3115 9.83544   2 
   8   0   5 99.6324 7.40913   1 
   9   0   5 235.425 16.9022   2 
  -9   0   5 231.315 14.4510   1 
   9   0  -5 235.289 16.5149   2 
   9   0   5 233.425 14.5819   1 
  -9   0  -5 224.982 16.0198   2 
  10   0  -5 101.906 11.3485   2 
 -10   0  -5 119.927 11.0851   2 
  10   0   5 96.1005 10.6918   3 
  10   0   5 118.103 12.1941   2 
 -10   0   5 101.425 10.5708   1 
  11   0   5 138.750 14.1669   2 
  11   0  -5 140.818 13.8674   2 
 -11   0   5 134.746 9.78856   1 
  11   0   5 131.201 10.2731   1 
 -11   0  -5 132.652 18.0191   2 
  12   0  -5 238.317 18.4163   2 
  12   0   5 222.082 18.4143   2 
 -12   0  -5 211.155 17.1704   2 
  12   0   5 207.914 14.5810   1 
  13   0   5 69.4012 8.77481   1 
  13   0   5 71.1791 11.1228   2 
  13   0  -5 95.4515 12.4290   2 
  14   0  -5 176.038 18.6865   2 
  14   0   5 184.026 13.7550   1 
  14   0   5 186.535 18.9836   2 
  15   0   5 161.632 13.8739   1 
  15   0   5 172.784 19.4650   2 
  15   0  -5 174.798 19.1330   2 
  16   0   5 4.02137 7.61751   1 
  16   0   5 9.13996 11.1193   2 
  16   0  -5 8.72975 10.3436   2 
  17   0   5 15.2091 8.85488   1 
  17   0   5 22.5058 12.8320   2 
  17   0  -5 20.1587 12.3499   2 
  18   0   5 99.4110 16.0354   2 
  18   0  -5 154.029 19.1890   2 
   0   1   5 56.2972 5.21469   2 
   0   1   5 49.5676 4.41347   4 
   0  -1  -5 63.2198 5.79225   3 
   0  -1  -5 58.0885 4.73500   4 
   0  -1   5 61.5432 4.61128   3 
   0  -1  -5 59.2756 4.89763   2 
   0   1  -5 61.9449 4.97190   3 
   0  -1   5 56.6991 3.96702   2 
  -1  -1  -5 757.991 44.4729   4 
   1   1  -5 805.320 44.4460   3 
   1  -1   5 778.611 44.0653   2 
   1  -1   5 838.232 44.8196   3 
  -1  -1  -5 850.542 45.3994   3 
   1  -1   5 730.450 43.8326   4 
  -1  -1  -5 883.438 45.0983   2 
   1   1   5 780.844 44.6179   2 
   1  -1  -5 868.405 44.9646   2 
  -1   1  -5 858.023 44.9905   3 
  -1  -1   5 759.390 44.0123   2 
   1   1   5 798.188 44.5399   4 
   2   1  -5 48.4617 4.11631   3 
   2   1  -5 50.3329 3.33264   2 
  -2   1   5 42.2583 4.09747   4 
   2  -1   5 45.5182 4.10342   2 
  -2  -1  -5 47.4289 5.81064   3 
   2   1  -5 45.4035 3.59333   2 
  -2  -1  -5 43.6828 4.28443   4 
   2  -1   5 46.3550 4.95032   3 
   2  -1  -5 46.0770 4.46054   4 
   2  -1  -5 52.9649 5.26466   2 
   2   1   5 43.7648 5.04550   2 
   2   1   5 50.9199 5.29371   3 
  -2   1  -5 52.9915 5.32885   3 
  -2  -1   5 44.2920 4.04896   2 
  -2  -1   5 47.6959 3.99283   1 
   2   1   5 46.5299 4.20510   4 
   3  -1   5 1606.38 85.4427   3 
   3  -1   5 1531.96 84.3345   2 
  -3  -1  -5 1514.79 84.5928   4 
   3   1  -5 1501.98 83.9557   2 
   3   1  -5 1563.61 84.3857   2 
  -3   1   5 1497.19 84.5352   4 
  -3  -1  -5 1605.37 84.7877   2 
  -3  -1   5 1437.56 84.9456   1 
   3   1   5 1683.98 85.9355   3 
  -3   1  -5 1640.80 85.3322   3 
   3   1   5 1431.09 84.6823   2 
   3   1   5 1566.11 84.6814   1 
  -3  -1   5 1532.32 84.4380   2 
   3  -1  -5 1566.48 84.5991   4 
   4  -1   5 497.176 28.8314   3 
   4   1  -5 483.962 27.8033   2 
  -4  -1  -5 455.605 27.5304   4 
  -4  -1  -5 495.342 27.9775   2 
   4  -1   5 482.384 27.5564   2 
  -4   1   5 486.613 27.6097   4 
  -4  -1  -5 515.499 29.0798   3 
   4   1   5 482.356 28.0468   2 
   4   1   5 501.141 27.7701   1 
  -4   1  -5 517.456 28.6042   3 
   4   1   5 438.414 28.5578   3 
  -4  -1   5 507.940 27.6057   1 
   5   1  -5 976.788 53.2265   2 
   5  -1   5 980.480 54.0996   3 
  -5  -1  -5 898.576 52.7355   4 
  -5  -1  -5 940.668 54.1584   3 
   5  -1   5 925.064 52.7926   2 
  -5  -1  -5 978.584 53.2373   2 
   5  -1   5 942.337 52.0884   1 
  -5   1   5 966.041 52.8971   4 
   5   1   5 992.355 52.9483   1 
  -5  -1   5 949.309 52.7461   1 
   5   1   5 933.291 54.0933   3 
  -5  -1   5 947.233 52.9137   2 
  -5   1  -5 951.465 51.8301   4 
   5   1   5 936.443 53.3083   2 
  -5   1  -5 999.337 53.9269   3 
  -6   1   5 688.568 40.2052   4 
  -6  -1  -5 680.899 37.9777   4 
   6  -1   5 672.871 38.0909   2 
   6  -1   5 630.489 39.0782   3 
  -6  -1  -5 709.220 38.6190   2 
  -6  -1  -5 684.178 39.5049   3 
   6  -1   5 657.451 37.0421   1 
   6   1  -5 695.024 38.6148   2 
   6   1   5 684.441 37.9890   1 
  -6  -1   5 697.326 38.2046   2 
  -6  -1   5 692.837 37.8831   1 
   6  -1  -5 634.183 38.0990   2 
  -6   1  -5 672.385 37.5363   2 
   6   1   5 636.893 38.5069   2 
   7  -1   5 643.881 39.4033   3 
   7  -1   5 675.076 37.0986   1 
  -7   1   5 661.146 38.0462   4 
  -7  -1  -5 699.217 38.7556   2 
  -7  -1  -5 689.586 38.0438   4 
   7   1  -5 664.198 38.8983   2 
  -7  -1  -5 660.352 39.6641   3 
   7  -1   5 688.685 38.4136   2 
  -7   1  -5 685.215 37.8863   2 
   7   1   5 725.552 38.4536   1 
  -7  -1   5 669.633 38.4114   2 
   7   1   5 669.934 40.1852   2 
   7  -1  -5 646.876 40.0893   2 
   7   1   5 627.583 39.6870   3 
  -8  -1  -5 862.631 48.5311   2 
  -8   1   5 867.280 47.8499   4 
  -8   1   5 832.204 47.0767   1 
  -8  -1  -5 854.033 49.3465   3 
   8  -1   5 884.026 48.3119   2 
   8  -1   5 755.573 49.0255   3 
   8   1  -5 842.234 48.7479   2 
   8  -1   5 864.759 46.7818   1 
   8   1   5 855.125 48.7373   2 
  -8  -1   5 824.252 47.4860   1 
   8   1   5 888.863 47.8234   1 
  -8  -1   5 868.338 48.2974   2 
   8   1   5 754.015 49.3858   3 
  -8   1  -5 928.250 48.0059   2 
   8  -1  -5 851.943 48.2499   2 
   9   1  -5 299.909 21.8735   2 
  -9   1   5 333.239 20.1740   4 
   9  -1   5 327.239 23.8719   2 
   9  -1   5 318.982 18.9220   1 
  -9  -1  -5 315.289 23.7026   2 
  -9   1   5 304.151 19.1451   1 
  -9  -1  -5 382.002 24.3689   3 
  -9   1  -5 331.669 20.7375   2 
   9  -1  -5 330.007 21.1912   2 
   9   1   5 317.824 21.8567   2 
  -9  -1   5 351.129 20.4064   1 
   9   1   5 326.905 20.1654   1 
  -9  -1   5 331.459 21.2411   2 
 -10   1   5 86.8497 7.02383   1 
  10  -1   5 84.1432 11.1330   2 
 -10  -1  -5 102.692 11.9850   3 
  10  -1   5 82.8128 9.80225   3 
  10   1  -5 98.5131 12.4089   2 
  10  -1   5 105.614 7.54910   1 
 -10   1   5 99.3254 8.63206   4 
 -10  -1  -5 94.4183 11.2336   2 
 -10   1  -5 108.256 10.3199   2 
  10   1   5 87.5635 12.1392   2 
 -10  -1   5 90.6077 13.1266   2 
  10   1   5 94.7821 8.85756   1 
 -10  -1   5 72.8471 7.57485   1 
  10   1   5 87.5981 10.8451   3 
  10  -1  -5 98.8666 10.5914   2 
  11   1  -5 6.60519 7.80062   2 
 -11   1   5 10.6632 3.60391   1 
  11   1  -5 10.4479 4.84719   3 
  11  -1   5 8.38121 6.89546   2 
 -11  -1  -5 9.16367 3.97720   1 
  11  -1   5 8.52160 4.16534   1 
  11   1   5 8.20383 7.53077   2 
  11   1   5 15.9614 5.69578   1 
  11  -1  -5 12.7532 6.15468   2 
  12   1  -5 11.8359 8.61218   2 
  12  -1   5 12.5332 7.72419   2 
  12  -1   5 8.27976 4.87111   1 
 -12   1   5 10.3612 3.65448   1 
  12   1  -5 9.98276 5.73865   3 
  12  -1  -5 11.1608 6.80285   2 
  12   1   5 12.7121 9.10410   2 
  12   1   5 15.7016 6.41937   1 
  13  -1   5 27.4554 9.11920   2 
  13   1  -5 3.94506 9.38486   2 
  13   1   5 17.5603 6.76440   1 
  13  -1  -5 31.9544 8.55080   2 
  13   1   5 18.5562 10.0670   2 
  14  -1   5 -3.8074 8.39903   2 
  14   1  -5 0.41917 9.67640   2 
  14  -1  -5 -4.3501 8.44314   2 
  14   1   5 3.34235 6.59111   1 
  14   1   5 8.16127 10.8001   2 
  15  -1   5 92.6275 17.3707   2 
  15   1  -5 77.2271 19.4297   2 
  15   1   5 77.0325 13.3447   2 
  15  -1  -5 82.7060 12.4051   2 
  15   1   5 96.5313 11.5884   1 
  16  -1   5 9.77589 10.7705   2 
  16   1  -5 4.88267 11.3008   2 
  16   1   5 4.78009 7.68993   1 
  16  -1  -5 5.23170 9.68737   2 
  16   1   5 3.35880 11.7467   2 
  17   1  -5 -12.527 11.7260   2 
  17  -1   5 -2.9722 10.8380   2 
  17   1   5 -2.0331 8.49778   1 
  17  -1  -5 -1.4503 10.7852   2 
  17   1   5 5.13987 11.5112   2 
  18   1  -5 99.6901 16.1202   2 
  18  -1   5 94.9793 15.5643   2 
  18   1   5 136.869 14.4271   1 
  18  -1  -5 172.978 23.6054   2 
   0  -2  -5 -0.6642 2.71659   4 
   0  -2   5 0.51630 1.75996   3 
   0  -2  -5 -0.1354 2.54620   2 
   0  -2  -5 5.23944 4.15606   3 
   0   2   5 0.64829 1.97165   4 
   0  -2   5 0.11349 1.87507   1 
   1  -2   5 31.7156 3.74395   3 
   1  -2   5 23.8932 2.93449   1 
  -1  -2  -5 20.1323 3.26377   4 
  -1  -2  -5 23.7051 3.87268   2 
  -1   2   5 24.6685 3.54971   4 
  -1  -2  -5 25.5148 5.17742   3 
  -1  -2   5 34.1098 3.50450   1 
   1   2   5 21.2006 3.98720   1 
   1   2   5 25.3195 3.65606   4 
   1  -2  -5 21.9525 3.59426   2 
  -1  -2   5 21.0550 2.81123   2 
   1  -2  -5 21.8972 3.75538   4 
  -2  -2  -5 1508.10 72.9006   4 
   2  -2   5 1285.26 71.2554   1 
   2  -2   5 1306.39 72.2151   3 
  -2   2   5 1297.68 72.0416   4 
  -2  -2  -5 1366.82 73.0743   3 
  -2  -2   5 1220.17 71.3949   2 
  -2  -2   5 1375.57 72.0997   1 
   2  -2  -5 1229.58 71.9451   4 
   2   2   5 1260.36 72.2361   4 
   2  -2  -5 1307.90 72.0122   2 
   2   2   5 1304.38 72.2142   1 
   2   2   5 1284.61 72.0921   2 
  -3  -2  -5 698.937 42.0615   4 
  -3  -2  -5 757.287 43.0891   3 
   3  -2   5 746.585 40.8967   1 
   3  -2   5 766.741 42.4563   3 
  -3   2   5 786.515 42.9124   4 
  -3  -2   5 763.073 41.8513   1 
   3  -2  -5 736.230 41.9152   4 
   3   2   5 755.613 42.1744   2 
  -3  -2   5 750.749 41.5981   2 
   3   2   5 750.016 42.1894   1 
   4  -2   5 85.3836 5.91533   2 
  -4  -2  -5 93.9467 9.34395   3 
  -4  -2  -5 77.4450 7.57311   4 
  -4  -2  -5 75.7582 7.67730   2 
  -4   2   5 86.8746 6.80039   4 
   4   2   5 81.1548 7.89895   3 
   4   2   5 77.7565 8.17533   2 
   4  -2  -5 90.8582 7.31341   4 
   4   2   5 85.2141 10.3164   1 
  -4  -2   5 85.9689 6.72701   1 
  -4  -2   5 96.3441 8.40043   2 
   5  -2   5 209.707 14.6073   3 
   5  -2   5 215.485 13.1139   2 
  -5  -2  -5 214.752 14.6821   2 
  -5  -2  -5 213.554 14.2346   4 
   5   2  -5 228.598 13.0044   3 
  -5   2   5 222.549 13.7888   4 
   5   2  -5 246.619 12.7011   2 
  -5  -2  -5 220.367 15.8529   3 
   5  -2  -5 209.084 13.8915   4 
  -5  -2   5 205.763 13.9535   2 
   5   2   5 229.856 14.3839   1 
  -5  -2   5 217.811 13.7000   1 
   5   2   5 183.087 14.6341   3 
   5   2   5 245.762 16.0147   2 
  -6  -2  -5 8.86405 4.79162   4 
   6   2  -5 12.7266 3.35831   3 
  -6  -2  -5 11.6121 6.21498   3 
   6   2  -5 15.7291 3.90831   2 
   6  -2   5 14.7490 4.99075   3 
  -6   2   5 19.4403 3.87877   4 
  -6  -2  -5 11.5249 4.98741   2 
   6  -2   5 13.1336 3.37176   2 
   6   2   5 13.1722 5.38329   2 
   6   2   5 9.64384 4.35894   3 
  -6  -2   5 14.6760 3.80899   1 
   6   2   5 9.52543 4.47925   1 
  -7  -2  -5 228.406 17.8600   2 
   7  -2   5 204.891 14.8680   3 
   7   2  -5 206.758 13.3219   3 
   7   2  -5 215.735 14.1594   2 
   7  -2   5 212.573 13.4910   2 
  -7  -2  -5 204.988 15.9166   3 
  -7  -2  -5 215.505 14.3497   4 
  -7   2   5 206.338 13.5300   4 
   7   2   5 212.037 14.2741   1 
  -7  -2   5 214.716 13.6210   1 
   7   2   5 183.380 15.0675   2 
   7   2   5 183.361 15.1219   3 
  -7  -2   5 203.735 14.2694   2 
  -8  -2  -5 63.0280 8.38256   2 
  -8   2   5 72.3699 7.09937   4 
   8  -2   5 66.3740 7.94841   2 
   8   2  -5 70.7220 9.26785   2 
   8   2  -5 63.4536 7.14940   3 
   8  -2   5 61.0896 8.00344   3 
  -8  -2  -5 46.9669 8.01854   3 
  -8  -2  -5 80.0125 8.79222   4 
   8  -2  -5 67.0654 8.24726   2 
  -8   2  -5 71.3993 4.41356   4 
  -8  -2   5 59.5282 6.75495   1 
   8   2   5 63.6449 9.18332   3 
   8   2   5 74.6357 8.22472   1 
   8   2   5 64.5841 8.63877   2 
  -9  -2  -5 174.772 15.0537   3 
   9  -2   5 196.709 13.2433   2 
   9  -2   5 158.673 13.6012   3 
  -9  -2  -5 165.568 13.4585   4 
   9   2  -5 146.890 16.7976   2 
   9   2  -5 180.506 12.6884   3 
  -9   2   5 190.487 12.4367   4 
   9   2   5 173.231 15.1246   2 
   9   2   5 155.358 14.4230   3 
  -9  -2   5 157.447 13.9349   2 
   9   2   5 170.368 12.9948   1 
  -9   2  -5 165.762 10.0504   4 
   9  -2  -5 183.990 13.7964   2 
 -10  -2  -5 86.8238 10.3175   4 
  10   2  -5 81.8507 9.05325   3 
 -10   2   5 86.1098 6.78387   1 
  10   2  -5 90.5169 10.7209   2 
  10  -2   5 84.1569 10.2127   2 
 -10  -2  -5 79.6926 12.0720   3 
 -10   2  -5 85.9598 5.94321   4 
  10   2   5 108.763 12.4745   2 
  10  -2  -5 101.460 10.4553   2 
  10   2   5 40.7111 13.7199   3 
  10   2   5 68.4216 9.20167   1 
 -11  -2  -5 97.8171 13.5625   3 
 -11   2   5 103.556 7.53849   1 
  11  -2   5 122.989 12.1807   2 
 -11  -2  -5 124.833 11.6172   4 
  11   2  -5 91.2737 10.3997   3 
  11   2  -5 96.2015 13.7360   2 
  11   2   5 84.5713 10.2141   1 
  11   2   5 102.957 12.5019   2 
 -11   2  -5 80.6455 8.64979   4 
  11  -2  -5 104.089 11.4600   2 
  12   2  -5 176.377 14.7744   3 
  12   2  -5 131.673 17.0483   2 
 -12   2   5 173.619 11.1807   1 
  12  -2   5 176.393 15.1279   2 
 -12  -2  -5 174.796 15.1758   4 
  12   2   5 170.558 17.7117   2 
 -12   2  -5 167.508 10.6437   4 
  12   2   5 135.608 13.6242   1 
  12  -2  -5 178.939 14.7748   2 
  13  -2   5 53.1350 9.01904   2 
  13   2  -5 43.5946 9.08145   3 
  13   2  -5 58.4613 11.6270   2 
  13   2   5 58.2831 9.79986   1 
  13   2   5 33.0181 11.3158   2 
  13  -2  -5 54.5776 8.93661   2 
  14  -2   5 123.473 14.7038   2 
  14   2  -5 122.968 17.2064   2 
 -14   2  -5 74.2031 6.78388   4 
  14   2   5 101.452 14.1312   2 
  14   2   5 104.304 11.7532   1 
  15  -2   5 182.707 20.2437   2 
 -15  -2  -5 146.766 16.1246   4 
  15  -2  -5 148.911 16.2844   2 
  15   2   5 135.721 14.7244   1 
  15   2   5 147.593 21.1166   2 
 -16  -2  -5 -6.9007 8.91779   4 
  16   2  -5 -9.3045 12.0447   2 
  16  -2   5 -1.8790 9.69963   2 
  16  -2  -5 4.42665 8.73139   2 
  16   2   5 -9.1706 11.9473   2 
  17  -2   5 16.9971 10.7526   2 
  17   2  -5 0.96523 12.4204   2 
 -17  -2  -5 15.6203 12.7083   4 
  17   2   5 24.8327 14.2327   2 
  17   2   5 9.81216 9.39351   1 
  17  -2  -5 14.2979 10.4819   2 
 -18  -2  -5 71.6896 13.9288   4 
  18   2  -5 87.3899 15.9986   2 
  18   2   5 83.2829 18.4123   2 
  18   2   5 129.694 18.8990   1 
   0  -3  -5 20.2070 4.85148   4 
   0  -3   5 25.0907 3.74764   1 
   0  -3  -5 18.4824 4.04854   2 
   0  -3  -5 17.5402 5.99514   3 
   0  -3   5 20.8097 3.51013   4 
   0   3   5 20.7482 4.85439   1 
   0   3   5 16.7575 3.86672   4 
  -1  -3  -5 382.629 23.1018   4 
   1  -3   5 393.318 21.9670   3 
  -1  -3  -5 372.318 22.8494   2 
   1  -3   5 390.675 21.8638   1 
  -1  -3  -5 392.992 26.7709   3 
  -1   3   5 399.797 24.4304   1 
  -1   3   5 374.281 22.8982   4 
   1  -3   5 367.645 21.5995   4 
  -1  -3   5 383.861 21.4460   2 
  -1  -3   5 384.712 22.2376   1 
   1   3   5 392.747 23.0793   1 
   1  -3  -5 375.646 22.6861   2 
   1  -3  -5 386.838 23.0145   4 
   1   3   5 403.015 23.2119   4 
   2  -3   5 30.8271 3.35483   1 
  -2  -3  -5 22.1832 4.45440   4 
  -2   3   5 35.6614 5.49566   4 
  -2  -3  -5 33.7008 9.88185   3 
  -2  -3  -5 28.9439 5.19838   2 
   2  -3   5 24.9721 3.20863   4 
   2  -3   5 34.6209 4.53543   3 
   2   3   5 27.6867 5.54867   1 
  -2  -3   5 30.0121 3.95057   2 
  -2  -3   5 24.6913 4.23675   1 
   2  -3  -5 22.5345 4.62328   2 
   2  -3  -5 28.4762 4.91142   4 
   3  -3   5 796.446 43.9892   3 
  -3   3   5 844.131 44.2027   4 
  -3  -3  -5 735.431 44.0684   4 
  -3  -3  -5 749.520 45.3348   3 
   3   3   5 747.176 44.6480   2 
  -3  -3   5 729.633 43.5488   1 
   3  -3  -5 854.000 45.1022   2 
   3  -3  -5 768.356 43.7597   4 
   3   3   5 773.732 44.1352   1 
  -4  -3  -5 276.738 17.6603   4 
  -4  -3  -5 239.267 17.4147   2 
  -4  -3  -5 280.053 19.0746   3 
   4  -3   5 262.475 17.1862   3 
   4  -3  -5 262.564 17.0145   4 
   4   3   5 276.435 17.6930   2 
  -4  -3   5 238.134 16.8251   2 
   4  -3  -5 315.430 17.8778   2 
   4   3   5 283.436 17.6281   1 
  -4  -3   5 268.726 16.6663   1 
   5   3  -5 459.432 26.7257   1 
  -5   3   5 471.386 27.1313   4 
  -5  -3  -5 444.741 27.8643   2 
   5  -3   5 440.877 25.8824   2 
   5  -3   5 473.653 27.8298   3 
  -5  -3  -5 455.455 27.7957   4 
  -5  -3  -5 485.767 29.1427   3 
   5   3   5 437.422 27.5593   2 
   5   3   5 482.752 27.7319   1 
  -5  -3   5 456.641 27.1389   1 
   5  -3  -5 473.416 27.1848   4 
   6  -3   5 344.112 20.1274   2 
   6   3  -5 355.113 20.9524   1 
  -6  -3  -5 334.092 22.0050   4 
  -6   3   5 364.051 21.1035   4 
   6  -3   5 360.107 22.1635   3 
  -6  -3  -5 367.705 23.6380   3 
   6   3   5 344.412 22.2722   2 
   6  -3  -5 357.405 21.2706   4 
  -6  -3   5 321.338 21.0858   1 
   6   3   5 359.168 22.0215   1 
  -6  -3   5 311.023 21.7366   2 
   7  -3   5 337.956 20.1900   2 
   7  -3   5 333.650 22.0167   3 
  -7   3   5 348.816 20.9409   4 
  -7  -3  -5 352.908 22.0823   4 
   7   3  -5 358.394 20.9226   1 
  -7  -3  -5 336.263 23.3784   3 
   7   3   5 258.348 25.9889   3 
   7   3   5 411.503 22.3151   1 
   7   3   5 308.338 22.2382   2 
   8   3  -5 467.580 27.3393   1 
  -8  -3  -5 485.468 28.5560   4 
   8   3  -5 452.970 25.5588   2 
  -8  -3  -5 501.736 30.1963   3 
   8  -3   5 454.811 28.9715   3 
   8  -3   5 484.319 26.9304   2 
   8   3  -5 421.287 25.8946   3 
   8   3   5 460.289 28.9132   2 
   8   3   5 380.737 28.5371   3 
  -8  -3   5 453.166 28.6804   2 
   8   3   5 503.273 28.4430   1 
  -9  -3  -5 173.267 14.2679   4 
   9  -3   5 168.905 12.4872   2 
   9   3  -5 157.857 11.5808   2 
  -9  -3  -5 163.425 15.5251   3 
   9   3  -5 164.639 11.1365   3 
   9  -3  -5 162.485 13.0050   2 
   9   3   5 129.596 15.2961   2 
   9   3   5 142.095 13.1756   1 
 -10  -3  -5 51.2299 10.9850   3 
  10  -3   5 58.4256 7.61197   2 
 -10  -3  -5 72.5272 10.6707   4 
  10   3  -5 53.5541 7.61208   2 
 -10   3   5 60.1298 5.63679   1 
  10   3   5 42.7480 8.43450   1 
  10  -3  -5 56.5404 8.09822   2 
  10   3   5 42.5717 10.3999   2 
  11  -3   5 12.0657 6.06513   2 
 -11  -3  -5 12.2844 7.57095   4 
 -11  -3  -5 2.11231 9.66691   3 
  11   3  -5 8.24704 6.87474   2 
  11   3  -5 3.46620 2.81169   3 
 -11   3   5 11.7871 3.36747   1 
  11  -3  -5 9.49257 6.06802   2 
  11   3   5 11.8849 11.3662   1 
  11   3   5 9.99663 10.0195   2 
  12   3  -5 26.7525 7.62114   2 
 -12  -3  -5 10.8702 11.6314   4 
  12  -3   5 6.49213 6.35023   2 
  12   3  -5 -0.5885 3.54311   3 
 -12   3   5 14.4245 4.83461   1 
  12   3   5 -0.9224 11.2460   2 
  12  -3  -5 2.41207 10.2560   2 
  12   3   5 10.9957 7.88304   1 
  13   3  -5 -4.7743 4.76497   3 
  13   3  -5 30.6955 7.89699   2 
  13  -3   5 6.12488 7.22020   2 
 -13  -3  -5 4.64271 8.84775   4 
  13  -3  -5 10.2477 7.34021   2 
  13   3   5 6.38059 9.00272   1 
  13   3   5 7.53991 12.5611   2 
  14  -3   5 -1.6186 11.9127   2 
 -14  -3  -5 3.65283 8.75759   4 
  14   3   5 4.85406 13.0664   2 
  14  -3  -5 -6.0542 6.82102   2 
  15   3  -5 50.0504 8.83968   2 
  15  -3   5 87.4178 12.5072   2 
 -15  -3  -5 56.4909 11.3879   4 
  15   3   5 51.8706 11.2275   1 
  15  -3  -5 75.3792 11.3746   2 
  15   3   5 66.9378 15.4758   2 
  16  -3   5 2.79883 8.82951   2 
 -16  -3  -5 4.26449 10.4465   4 
  16  -3  -5 2.92899 8.67369   2 
  16   3   5 -2.4614 13.9917   2 
  16   3   5 -3.1698 10.4732   1 
   0  -4  -5 -0.2461 6.31331   3 
   0  -4   5 1.68380 3.63888   1 
   0   4   5 1.07416 5.18201   1 
   0  -4  -5 -5.7428 5.29166   4 
   0  -4   5 1.34920 3.78861   4 
   0  -4   5 0.58000 2.89428   2 
  -1  -4  -5 10.1221 6.25345   4 
   1  -4   5 8.80105 2.60941   2 
  -1   4   5 11.3119 5.15149   1 
  -1  -4  -5 8.31510 7.37939   3 
   1  -4   5 12.7117 3.72461   4 
  -1  -4   5 8.76704 4.62945   4 
   1  -4  -5 16.0957 5.78251   4 
   1   4   5 4.62198 5.22580   1 
   1  -4  -5 9.66887 7.38117   3 
  -1  -4   5 7.46479 4.19709   1 
  -1  -4   5 5.89203 4.36393   2 
   2  -4   5 539.807 29.2466   4 
  -2  -4  -5 551.821 32.3347   3 
   2  -4   5 520.042 29.8127   3 
  -2  -4  -5 534.543 31.4025   4 
  -2   4   5 529.108 30.5051   1 
  -2  -4   5 512.476 34.0578   4 
   2   4   5 542.842 31.1701   1 
  -2  -4   5 440.635 30.0989   1 
  -2  -4   5 501.673 30.0100   2 
   2  -4  -5 554.842 30.9805   4 
   3  -4   5 316.491 19.1094   3 
  -3  -4  -5 318.578 20.3563   4 
  -3  -4  -5 315.588 21.4495   3 
  -3   4   5 283.499 18.7925   1 
   3  -4   5 312.461 17.3300   4 
   3   4   5 307.073 19.8690   1 
  -3  -4   5 322.409 19.9665   4 
  -3  -4   5 276.571 20.0061   1 
  -3  -4   5 269.169 20.4033   2 
   3  -4  -5 304.042 19.6316   4 
  -4   4   5 54.4919 6.78298   1 
   4  -4   5 41.2711 6.24892   3 
  -4  -4  -5 45.7183 9.47676   3 
   4   4  -5 31.8515 5.70960   1 
  -4  -4  -5 34.6411 7.37613   4 
  -4  -4   5 33.5473 6.53194   2 
  -4  -4   5 47.9971 8.14314   4 
  -4  -4   5 26.7187 5.82023   1 
   4   4   5 35.0228 7.29454   1 
   4  -4  -5 37.4680 6.56828   4 
  -5  -4  -5 118.999 14.8942   4 
   5  -4   5 108.767 9.81085   3 
  -5  -4  -5 105.407 12.9276   3 
  -5   4   5 95.1943 8.88843   1 
   5   4  -5 99.4647 9.36663   1 
   5  -4  -5 112.694 10.1716   4 
   5   4   5 102.116 11.1151   1 
  -5  -4   5 90.4173 11.0316   2 
   6  -4   5 15.1684 5.72754   3 
   6  -4   5 6.77580 3.14593   2 
  -6  -4  -5 4.14856 6.38684   4 
   6   4  -5 4.40620 5.45968   1 
  -6   4   5 9.19022 4.94419   1 
  -6  -4  -5 0.08658 7.48445   3 
   6  -4  -5 4.56862 5.32763   4 
  -6  -4   5 15.7408 6.45038   2 
   6   4   5 1.06265 7.21196   2 
   6   4   5 5.81827 6.30172   1 
   7  -4   5 100.430 7.89709   2 
  -7  -4  -5 107.991 13.3881   3 
   7  -4   5 82.4282 9.76507   3 
   7   4  -5 107.414 10.4252   1 
  -7  -4  -5 74.9913 10.4830   4 
   7  -4  -5 92.3575 9.89303   4 
   7   4   5 90.8113 11.0267   1 
   7   4   5 82.9036 10.6744   2 
   8  -4   5 35.8037 5.36375   2 
  -8  -4  -5 22.1392 9.98530   3 
  -8  -4  -5 21.4416 8.95706   4 
   8   4  -5 33.4908 7.00595   1 
   8   4   5 53.7746 16.6706   1 
   8   4   5 23.9423 9.35011   2 
   9  -4   5 97.4624 8.96236   2 
  -9  -4  -5 72.6783 11.9467   4 
   9   4  -5 52.6889 13.6285   1 
  -9  -4  -5 83.2641 12.8607   3 
   9   4   5 90.6184 12.0580   1 
   9   4   5 61.8604 11.6712   2 
 -10  -4  -5 40.2142 11.0718   3 
 -10  -4  -5 29.4903 9.04557   4 
  10   4  -5 27.6443 7.60325   1 
  10  -4   5 42.7195 6.69439   2 
  10   4   5 29.1987 10.9139   2 
  10  -4  -5 34.5038 8.19224   2 
  10   4   5 27.3139 8.00474   1 
 -11  -4  -5 53.5149 12.7734   3 
 -11  -4  -5 50.9955 12.2840   4 
  11  -4   5 57.8669 8.10654   2 
  11  -4  -5 37.9339 8.24167   2 
  11   4   5 36.8292 10.6861   1 
 -12  -4  -5 68.7509 10.8635   4 
  12   4   5 47.2573 13.1279   2 
  12   4   5 44.5251 9.17690   1 
  13  -4   5 28.4033 9.10212   2 
 -13  -4  -5 15.1091 10.5359   4 
  13   4   5 26.2561 11.4218   1 
  13  -4  -5 38.2109 8.75170   2 
  13   4   5 9.35976 13.4041   2 
 -14  -4  -5 61.1700 16.4212   4 
  14  -4   5 61.7185 9.39312   2 
  14   4   5 35.7726 11.3503   1 
  14  -4  -5 58.0604 10.1772   2 
  14   4   5 32.3265 14.3991   2 
   0  -5   5 6.60943 4.60414   2 
   0  -5   5 4.47869 4.97558   4 
   0  -5  -5 6.23618 7.53578   4 
   0   5   5 12.1702 6.85213   1 
   0  -5  -5 3.63403 9.96837   3 
   1  -5   5 118.245 11.2530   4 
   1  -5   5 95.7320 11.1187   2 
  -1  -5  -5 111.533 14.3410   3 
  -1  -5  -5 140.977 13.6239   4 
  -1   5   5 121.694 10.9413   1 
   1   5   5 112.077 11.6972   1 
   1  -5  -5 125.606 14.1941   3 
  -1  -5   5 107.773 10.2137   2 
   1  -5  -5 127.256 12.4290   4 
  -1  -5   5 121.013 10.4650   4 
  -2  -5  -5 6.45040 9.29721   3 
  -2   5   5 20.1769 6.72681   1 
   2  -5   5 8.37466 4.30020   4 
  -2  -5  -5 8.41740 7.55741   4 
  -2  -5   5 10.8088 6.05967   4 
   2  -5  -5 7.92429 6.68507   4 
   2  -5  -5 11.3568 9.40261   3 
   2   5   5 4.52315 7.23083   1 
  -2  -5   5 8.46824 4.84728   1 
  -2  -5   5 7.70914 5.85440   2 
  -3  -5  -5 286.439 21.5111   3 
  -3   5   5 255.652 17.5691   1 
   3  -5   5 252.052 16.6308   3 
   3  -5   5 279.075 16.0495   4 
   3  -5   5 255.112 16.2591   2 
  -3  -5   5 234.225 18.5513   2 
   3  -5  -5 295.500 21.4636   3 
  -3  -5   5 284.014 18.8453   4 
   3   5   5 279.414 19.1359   1 
   3  -5  -5 274.478 19.3821   4 
  -4  -5  -5 96.8362 14.3607   3 
   4  -5   5 78.9382 8.58976   3 
  -4  -5  -5 116.790 13.3701   4 
  -4   5   5 87.1625 9.17464   1 
   4  -5  -5 102.365 11.3188   4 
  -4  -5   5 91.6961 11.4214   4 
   4   5   5 107.415 17.5374   1 
  -5  -5  -5 157.742 16.5914   4 
   5  -5   5 150.947 12.6372   3 
  -5   5   5 165.319 12.0536   1 
  -5  -5  -5 161.614 16.9172   3 
   5  -5  -5 170.113 13.9759   4 
   5   5   5 173.768 14.9461   1 
  -5  -5   5 156.993 15.0263   4 
  -6  -5  -5 131.523 15.6090   4 
  -6  -5  -5 128.876 16.0830   3 
   6  -5   5 130.928 10.1942   2 
  -6   5   5 163.019 10.6345   1 
   6   5   5 108.270 13.8812   1 
  -6  -5   5 134.425 15.1290   4 
   6  -5  -5 157.233 13.0614   4 
  -7  -5  -5 143.030 15.3001   4 
  -7  -5  -5 117.922 16.2295   3 
   7  -5   5 104.257 10.3460   2 
   7   5   5 105.724 13.3128   1 
   8  -5   5 199.290 14.1752   2 
  -8  -5  -5 196.258 19.4469   3 
  -8  -5  -5 195.397 18.8388   4 
  -8  -5   5 197.039 20.1587   4 
  -9  -5  -5 61.1740 13.5701   3 
  -9  -5  -5 79.5770 14.6062   4 
   9  -5   5 69.7685 8.73701   2 
   9   5   5 38.9979 10.6416   1 
  -9  -5   5 76.2289 14.6732   4 
 -10  -5  -5 35.1520 13.3142   3 
 -10  -5  -5 -2.2114 9.54840   4 
  10  -5   5 23.5963 6.48811   2 
 -10  -5   5 32.0382 12.7027   4 
  10   5   5 3.48170 14.0870   1 
  10  -5  -5 18.4563 6.99626   2 
 -11  -5  -5 9.51827 12.7626   4 
  11  -5   5 8.93188 5.71305   2 
 -11  -5   5 2.28918 12.6794   4 
  11  -5  -5 3.38807 6.87130   2 
  11   5   5 10.6344 12.2219   1 
 -12  -5  -5 11.9798 11.3913   4 
  12  -5   5 7.92278 8.32065   2 
  12   5   5 -3.7355 9.23249   1 
 -12  -5   5 -2.4903 19.1029   4 
  12   5   5 -3.4453 3.26264   2 
  12  -5  -5 -2.9162 6.85304   2 
   0  -6  -5 -0.4858 11.2641   3 
   0  -6   5 3.14279 5.72137   4 
   0   6   5 -10.506 7.26480   1 
   0  -6  -5 -0.7026 8.33201   4 
  -1   6   5 14.6359 10.8602   1 
  -1  -6  -5 -3.5161 11.8317   3 
  -1  -6  -5 10.5443 9.54128   4 
   1  -6   5 -6.4495 5.01204   4 
  -1  -6   5 10.0659 6.59329   4 
   1   6   5 8.59837 8.51993   1 
   1  -6  -5 -8.2895 7.84895   4 
   1  -6  -5 -2.1921 14.2518   3 
  -2  -6  -5 175.434 19.0785   3 
  -2  -6  -5 162.396 17.3436   4 
  -2   6   5 164.262 14.1547   1 
   2  -6   5 148.481 11.7620   4 
   2  -6  -5 167.651 15.6788   4 
   2   6   5 194.869 15.6303   1 
   2  -6  -5 177.678 21.2898   3 
  -2  -6   5 174.565 13.9649   4 
  -3  -6  -5 118.091 14.8727   4 
  -3  -6  -5 117.004 15.9670   3 
  -3   6   5 97.5254 8.83496   1 
   3   6   5 120.979 14.9737   1 
   3  -6  -5 125.414 16.9345   3 
   3  -6  -5 108.624 13.6863   4 
  -3  -6   5 108.166 12.5993   4 
  -4  -6  -5 -6.1253 9.38789   4 
  -4   6   5 2.55602 2.03179   1 
  -4  -6  -5 13.3003 11.7486   3 
   4  -6  -5 0.29746 12.6625   3 
   4  -6  -5 4.76755 7.54209   4 
  -4  -6   5 5.24735 7.51071   4 
   4   6   5 21.1803 10.8512   1 
  -5  -6  -5 27.0998 11.7453   4 
  -5  -6  -5 13.0672 12.6335   3 
  -5  -6   5 15.9839 8.60921   4 
   5  -6  -5 31.1149 8.54203   4 
   5   6   5 19.5000 9.78862   1 
   5  -6  -5 34.1074 14.6910   3 
  -6   6   5 1.71888 2.76213   1 
  -6  -6  -5 -9.3242 10.8578   4 
  -6  -6  -5 1.74421 11.2297   3 
   6   6   5 -4.3684 9.61683   1 
  -6  -6   5 -11.851 8.59040   4 
   6  -6  -5 12.3120 19.3822   3 
   6  -6  -5 -11.546 6.58454   4 
  -7  -6  -5 26.3156 13.2325   4 
  -7  -6  -5 21.4963 11.9442   3 
  -7  -6   5 19.0866 10.3119   4 
   7   6   5 32.4186 12.9060   1 
   0   0  -6 998.680 49.7412   3 
   0   0  -6 888.665 48.7848   2 
   0   0   6 882.437 48.8750   2 
   0   0  -6 849.891 48.7289   4 
   0   0   6 836.805 48.6961   4 
  -1   0   6 4.18252 1.77590   4 
   1   0  -6 6.06401 3.39016   3 
  -1   0   6 5.85286 2.23539   2 
  -1   0  -6 4.59472 3.05530   3 
  -1   0  -6 7.12601 2.21598   2 
   1   0  -6 4.84663 1.90949   4 
  -1   0  -6 5.22301 1.70405   4 
   1   0  -6 4.68551 1.93295   2 
   1   0   6 4.72292 1.71348   4 
   1   0   6 6.03500 2.30805   2 
   1   0   6 10.0059 3.31767   3 
  -2   0  -6 27.2706 4.76175   3 
  -2   0  -6 26.4614 3.82114   2 
   2   0   6 26.2049 3.37971   2 
   2   0  -6 24.9287 2.94344   2 
  -2   0   6 21.6707 2.83149   4 
   2   0   6 35.0660 4.90066   3 
  -2   0  -6 23.8106 2.62794   4 
   2   0   6 22.3325 2.68211   4 
   3   0  -6 5.07772 2.41822   2 
  -3   0  -6 8.01492 3.30567   3 
   3   0   6 5.40030 2.93706   2 
   3   0   6 8.13799 4.65868   3 
  -3   0  -6 4.18801 2.61641   2 
  -3   0  -6 5.15895 1.91037   4 
  -3   0   6 4.96575 2.13310   4 
   3   0  -6 4.06783 2.19526   2 
  -4   0  -6 540.786 28.8009   2 
  -4   0  -6 511.871 28.0966   4 
   4   0   6 496.419 29.7671   3 
   4   0  -6 492.286 28.7984   2 
  -4   0   6 482.549 28.5156   4 
   4   0   6 507.320 28.9273   2 
  -5   0  -6 698.338 39.4139   2 
  -5   0  -6 712.608 38.5743   4 
   5   0   6 723.138 38.8715   1 
   5   0  -6 672.988 39.3093   2 
   5   0   6 672.180 40.5014   3 
  -5   0   6 678.301 39.0211   4 
  -5   0  -6 715.753 40.5599   3 
   5   0   6 708.874 39.5356   2 
  -6   0  -6 3.59840 4.69928   3 
  -6   0  -6 1.11846 2.34216   4 
  -6   0  -6 3.74560 3.58271   2 
   6   0  -6 0.26683 3.28205   2 
   6   0   6 -0.5162 4.94477   3 
   6   0   6 -0.0106 2.90121   1 
   6   0   6 0.47882 4.09070   2 
   7   0   6 779.758 44.7445   2 
  -7   0  -6 797.330 45.5171   3 
  -7   0  -6 827.574 43.5133   4 
  -7   0  -6 835.064 44.3870   2 
   7   0   6 734.637 45.6624   3 
  -7   0   6 780.549 43.6598   1 
   7   0  -6 727.076 44.3538   2 
   7   0   6 772.942 43.5680   1 
  -8   0  -6 68.5167 9.73826   3 
   8   0  -6 54.6518 8.25144   2 
  -8   0  -6 75.1190 7.99806   2 
  -8   0   6 55.1011 5.76494   1 
   8   0   6 60.2965 8.22157   3 
   8   0   6 67.1893 6.46110   1 
   9   0   6 630.469 35.6537   2 
   9   0   6 605.546 33.9418   1 
   9   0  -6 598.435 35.3339   2 
  -9   0   6 580.188 34.5459   1 
  -9   0  -6 602.408 36.2978   3 
   9   0   6 502.158 35.9242   3 
  -9   0  -6 648.227 35.2129   2 
  10   0  -6 10.1212 6.01868   2 
  10   0   6 22.2437 4.91028   1 
  10   0   6 8.79941 8.50340   3 
 -10   0  -6 13.2167 5.68602   2 
  10   0   6 19.0260 7.00643   2 
 -10   0   6 18.1924 4.27737   1 
  11   0   6 1.48317 4.55847   1 
  11   0  -6 0.56906 6.07862   2 
  11   0   6 -2.1965 6.80554   2 
  12   0   6 124.010 10.5461   1 
  12   0  -6 130.120 14.4095   2 
  12   0   6 128.368 14.7763   2 
 -12   0  -6 127.540 13.5071   2 
  13   0  -6 103.144 12.9387   2 
  13   0   6 83.0690 9.41102   1 
  13   0   6 106.158 14.9692   2 
  14   0   6 17.2611 7.12364   1 
  14   0  -6 11.7246 9.66137   2 
  14   0   6 12.5470 8.97763   2 
  15   0   6 74.9431 9.90324   1 
  15   0  -6 90.6419 13.9042   2 
  15   0   6 99.3731 14.8590   2 
  16   0  -6 23.1654 11.0328   2 
  16   0   6 8.06398 10.3828   2 
  16   0   6 18.7057 8.07853   1 
  17   0   6 423.729 30.7298   2 
  17   0  -6 306.418 29.0435   2 
  17   0   6 333.241 25.4767   1 
  18   0  -6 40.4483 14.3163   2 
  18   0   6 16.3778 15.1467   2 
   0   1  -6 1.36978 2.91981   3 
   0  -1  -6 0.85443 2.33391   2 
   0   1   6 1.75085 2.58588   2 
   0  -1   6 1.16571 1.32481   4 
   0  -1  -6 -0.5204 2.04502   4 
   0  -1   6 0.18978 1.60244   2 
   0  -1  -6 -1.0243 3.03691   3 
   0   1   6 2.34247 1.93645   4 
  -1   1   6 686.048 38.6138   4 
  -1  -1  -6 754.258 39.8597   3 
   1  -1   6 693.428 38.2343   2 
   1  -1   6 728.289 38.9548   3 
   1  -1   6 647.301 37.9085   4 
  -1  -1  -6 671.723 38.6398   4 
  -1  -1  -6 709.990 38.7880   2 
   1   1  -6 730.625 38.7714   3 
  -1   1  -6 720.330 39.2268   3 
   1  -1  -6 674.632 38.6474   2 
   1  -1  -6 662.038 38.6041   4 
   1   1   6 696.965 38.8132   2 
  -1  -1   6 670.060 38.1540   2 
   1   1   6 712.121 38.6832   4 
   2   1  -6 55.4549 3.82962   2 
  -2  -1  -6 51.4990 4.91035   4 
  -2  -1  -6 48.8020 5.62708   2 
   2  -1   6 55.6110 3.53399   4 
   2   1  -6 54.6296 4.40383   2 
   2   1  -6 54.7165 4.95732   3 
   2  -1   6 51.0209 4.86965   2 
  -2   1   6 59.5931 4.83863   4 
  -2  -1  -6 62.6602 6.83331   3 
   2  -1   6 57.4476 5.62592   3 
   2  -1  -6 62.8232 5.39232   2 
   2   1   6 56.0834 5.90676   2 
   2   1   6 54.7366 4.80605   4 
   2  -1  -6 57.1995 5.17892   4 
  -2   1  -6 64.5651 6.13307   3 
   2   1   6 53.8240 5.93470   3 
   3   1  -6 172.443 10.0169   2 
  -3  -1  -6 176.102 10.8034   4 
   3  -1   6 188.070 11.9701   3 
  -3   1   6 165.974 10.7397   4 
   3   1  -6 174.879 10.8748   2 
   3  -1   6 168.547 10.7842   2 
  -3  -1  -6 176.421 11.2721   2 
   3   1   6 166.302 10.7366   4 
   3   1   6 175.742 11.9369   3 
   3  -1  -6 160.776 10.8593   2 
   3   1   6 177.414 11.5781   2 
   3  -1  -6 169.199 10.9544   4 
  -3  -1   6 174.749 10.7016   1 
  -3   1  -6 181.644 12.0211   3 
  -3  -1   6 160.153 10.6253   2 
  -4   1   6 159.673 9.80470   4 
  -4  -1  -6 125.035 9.43580   2 
   4  -1   6 128.131 9.04296   2 
   4  -1   6 138.097 10.0787   3 
  -4  -1  -6 142.672 11.0157   3 
  -4  -1  -6 126.762 8.87655   4 
   4   1  -6 117.894 7.98035   2 
   4   1  -6 126.869 9.32644   2 
  -4  -1   6 122.872 8.69794   2 
   4   1   6 125.079 9.77480   2 
  -4  -1   6 126.710 8.53943   1 
  -4   1  -6 131.821 10.0502   3 
   4   1   6 131.741 9.08973   1 
   4   1   6 103.630 9.57469   3 
  -5  -1  -6 55.2241 5.81418   4 
   5  -1   6 60.2556 4.81601   1 
  -5  -1  -6 53.3783 6.71379   2 
   5  -1   6 60.2747 6.93838   3 
   5  -1   6 57.3509 6.50616   2 
  -5  -1  -6 53.2437 8.08172   3 
  -5   1   6 56.5341 6.78459   4 
   5   1  -6 62.8749 7.18342   2 
  -5  -1   6 62.3469 5.50883   1 
   5   1   6 54.7984 7.38983   3 
   5   1   6 66.5425 6.25344   1 
  -5  -1   6 57.8419 6.00237   2 
   5   1   6 54.0782 7.36346   2 
  -5   1  -6 64.3501 7.76686   3 
  -5   1  -6 60.2589 3.79096   4 
  -6  -1  -6 13.1303 5.04103   2 
   6  -1   6 12.5511 4.69706   3 
  -6  -1  -6 15.6629 6.26402   3 
  -6  -1  -6 16.7452 3.62389   4 
   6   1  -6 19.5284 5.14678   2 
   6  -1   6 16.0884 4.32482   2 
   6  -1   6 18.8243 3.06347   1 
  -6   1   6 14.5619 3.52678   4 
   6   1   6 14.4714 4.30770   1 
  -6  -1   6 11.4377 3.01566   1 
   6  -1  -6 14.1080 4.04511   2 
  -6   1  -6 14.5484 2.05352   4 
   6   1   6 14.8724 5.26394   2 
  -6   1  -6 17.4573 5.39174   3 
   6   1   6 5.80603 4.63085   3 
  -6   1  -6 15.6039 3.29211   2 
   7  -1   6 192.799 14.9483   3 
  -7   1   6 235.878 13.8121   4 
   7  -1   6 217.417 14.4489   2 
  -7  -1  -6 207.605 14.7951   2 
   7   1  -6 195.262 15.1049   2 
  -7  -1  -6 215.285 13.5602   4 
   7  -1   6 193.684 12.4445   1 
  -7  -1  -6 205.784 15.9876   3 
  -7   1  -6 213.782 13.4750   2 
  -7  -1   6 206.736 14.0765   2 
  -7  -1   6 205.835 13.3421   1 
   7   1   6 223.875 13.8805   1 
   7  -1  -6 198.574 14.4719   2 
  -7   1  -6 211.397 12.1956   4 
   7   1   6 226.442 15.4869   2 
   7   1   6 202.081 15.4523   3 
  -8  -1  -6 36.9179 5.94707   4 
   8   1  -6 27.2169 6.60463   2 
  -8  -1  -6 41.4064 8.57107   3 
   8  -1   6 33.2487 4.32529   1 
   8  -1   6 34.9294 6.32573   2 
  -8  -1  -6 34.4902 6.41654   2 
   8   1   6 34.1378 7.18780   2 
   8  -1  -6 30.6708 5.60991   2 
   8   1   6 30.4626 5.68662   1 
  -8  -1   6 37.6835 6.03015   2 
  -8  -1   6 29.7086 5.18954   1 
   8   1   6 23.4798 6.56777   3 
  -8   1  -6 36.2705 5.48323   2 
   9  -1   6 38.9471 5.09373   1 
  -9   1   6 45.9973 5.19933   1 
  -9  -1  -6 42.0340 6.24800   4 
   9   1  -6 46.7001 8.18472   2 
  -9  -1  -6 27.4785 6.42531   3 
  -9  -1  -6 27.0656 8.25879   2 
  -9   1   6 42.2241 5.52955   4 
   9  -1   6 43.0757 9.29264   3 
   9   1   6 43.8438 6.22437   1 
   9   1   6 45.7376 8.32291   2 
   9  -1  -6 49.6214 7.20643   2 
   9   1   6 26.9884 7.12157   3 
  -9  -1   6 47.5242 5.84412   1 
  -9  -1   6 40.5032 6.49394   2 
  -9   1  -6 41.0233 9.14496   2 
  10  -1   6 20.1500 4.17297   1 
  10   1  -6 22.5493 7.70249   2 
  10  -1   6 22.7160 6.74625   2 
 -10  -1  -6 23.3533 8.47381   3 
 -10  -1  -6 19.8587 5.63900   4 
 -10   1   6 18.1935 4.10750   1 
 -10  -1  -6 11.1800 6.25231   2 
  10  -1  -6 24.7850 6.33448   2 
  10   1   6 16.3069 6.97650   2 
  10   1   6 19.0413 5.53650   1 
 -10   1  -6 23.9623 6.09271   2 
  11   1  -6 895.982 56.4785   2 
  11  -1   6 1046.45 56.1197   2 
 -11   1   6 868.354 53.9282   1 
 -11  -1  -6 949.283 57.0352   3 
  11  -1   6 1010.23 53.8725   1 
  11   1   6 1056.56 56.6932   2 
  11  -1  -6 1000.53 55.9124   2 
  11   1   6 936.809 54.7675   1 
  12   1  -6 220.561 17.2498   3 
  12  -1   6 257.342 15.5887   1 
  12  -1   6 264.271 19.6181   2 
  12   1  -6 231.288 20.2892   2 
  12   1   6 263.161 17.0597   1 
  12  -1  -6 236.665 18.6028   2 
  12   1   6 239.533 19.9475   2 
  13  -1   6 7.74758 8.50410   2 
  13   1  -6 3.11305 9.33221   2 
  13  -1  -6 14.5134 7.55570   2 
  13   1   6 9.29929 9.45257   2 
  13   1   6 13.0348 6.30435   1 
  14  -1   6 132.184 11.0235   1 
  14  -1   6 139.463 16.8124   2 
  14   1  -6 151.617 16.4631   2 
  14  -1  -6 121.307 16.0219   2 
  14   1   6 114.779 12.1510   1 
  14   1   6 139.181 19.9402   2 
  15  -1   6 155.367 17.9467   2 
  15   1  -6 153.592 17.7978   2 
  15   1   6 137.228 13.3734   1 
  15  -1  -6 140.106 17.5334   2 
  15   1   6 140.332 18.7811   2 
  16   1  -6 -9.0030 10.7777   2 
  16  -1   6 7.80452 10.0872   2 
 -16  -1  -6 7.91895 8.48544   4 
  16  -1  -6 0.81108 9.38789   2 
  16   1   6 9.45006 11.4994   2 
  16   1   6 7.97500 9.29156   1 
  17  -1   6 14.9180 11.6231   2 
 -17  -1  -6 19.6521 9.03312   4 
  17   1  -6 20.7138 12.9390   2 
  17   1   6 29.9507 10.3823   1 
  17   1   6 20.5041 13.4717   2 
  17  -1  -6 35.1452 11.9494   2 
  18  -1   6 -5.3465 12.5617   2 
  18   1  -6 8.19398 12.5978   2 
 -18  -1  -6 -2.3240 8.93445   4 
  18   1   6 -1.9679 10.1950   1 
   0   2   6 550.938 32.7153   4 
   0  -2  -6 581.935 32.7711   2 
   0  -2  -6 527.216 31.7775   4 
   0  -2  -6 581.889 32.8470   3 
   0  -2   6 561.662 31.2767   1 
   1  -2   6 5.85144 2.25313   1 
  -1  -2  -6 9.81719 4.14906   3 
  -1   2   6 6.03404 2.86063   4 
   1  -2   6 9.09179 2.94944   3 
  -1  -2  -6 5.18545 3.35617   4 
   1  -2  -6 3.76730 3.15781   4 
   1  -2  -6 8.13239 3.52959   2 
   1   2   6 6.79093 3.88865   2 
  -1  -2   6 4.73632 1.79904   2 
   1   2   6 4.26216 3.05493   4 
  -2  -2  -6 13.6025 3.86284   2 
  -2   2   6 21.5828 3.91549   4 
   2  -2   6 15.1773 1.71510   2 
   2  -2   6 15.2663 3.80446   3 
   2  -2   6 17.5215 2.53592   1 
  -2  -2  -6 13.4528 5.23198   3 
  -2  -2  -6 9.23052 3.02805   4 
   2   2   6 16.3748 4.02574   4 
  -2  -2   6 11.8940 2.47967   2 
   2   2   6 12.1694 4.41518   1 
   2  -2  -6 10.5923 3.40605   4 
   2  -2  -6 15.1805 3.67334   2 
  -2  -2   6 17.1962 3.26148   1 
   2   2   6 12.7418 4.33160   2 
  -3  -2  -6 2.46005 2.92547   4 
   3  -2   6 1.98691 1.97946   2 
   3  -2   6 1.73402 3.12515   3 
  -3   2   6 7.39135 2.98542   4 
  -3  -2  -6 1.56444 5.00495   3 
   3  -2   6 3.66808 1.85186   1 
   3   2   6 -0.5895 3.97234   2 
   3  -2  -6 3.81428 3.30564   4 
  -3  -2   6 1.41015 2.40675   2 
  -3  -2   6 3.23603 2.79167   1 
   3  -2  -6 3.02234 3.05271   2 
   3   2   6 2.57127 3.58171   1 
   4  -2   6 344.169 19.0180   2 
  -4   2   6 346.127 19.8143   4 
   4   2  -6 312.216 18.5358   3 
   4  -2   6 336.844 20.5633   3 
  -4  -2  -6 321.962 20.2034   2 
  -4  -2  -6 361.086 20.3336   4 
  -4  -2   6 344.300 19.6672   1 
   4   2   6 331.369 20.1551   1 
   4  -2  -6 323.685 21.1388   4 
  -4  -2   6 333.282 19.5025   2 
   4   2   6 318.682 20.7540   3 
   4  -2  -6 318.617 19.7710   2 
  -5   2   6 552.405 31.1789   4 
  -5  -2  -6 543.571 31.7764   2 
   5  -2   6 534.585 30.5171   2 
   5  -2   6 529.012 32.1038   3 
  -5  -2  -6 569.153 33.0551   3 
  -5  -2  -6 557.738 31.7856   4 
  -5  -2   6 545.465 31.0863   2 
  -5  -2   6 546.938 31.0532   1 
   5  -2  -6 561.868 31.1760   4 
   5   2   6 524.524 31.7149   2 
   5   2   6 559.358 31.4816   1 
   5   2   6 484.368 32.0846   3 
   6  -2   6 2.93853 3.59315   2 
  -6  -2  -6 -3.8654 5.66245   3 
  -6  -2  -6 -0.1433 3.91676   4 
  -6   2   6 -1.4602 2.91830   4 
   6   2  -6 4.83349 3.42345   2 
   6  -2   6 1.31442 4.03288   3 
   6   2   6 -2.1642 5.17867   2 
  -6  -2   6 4.65544 3.46823   1 
   6   2   6 -0.3725 4.44393   1 
   6   2   6 3.57109 4.73224   3 
  -6  -2   6 3.26215 3.99994   2 
  -7  -2  -6 560.351 33.5721   3 
  -7   2   6 568.537 31.4905   4 
  -7  -2  -6 511.007 31.4961   4 
   7  -2   6 515.952 32.6214   3 
   7  -2   6 572.595 31.2348   2 
   7   2  -6 550.121 30.8407   3 
   7   2  -6 529.813 31.0493   2 
  -7  -2  -6 504.257 32.1362   2 
  -7  -2   6 492.625 31.7327   2 
  -7  -2   6 537.562 31.2869   1 
   7   2   6 560.962 32.6063   2 
   7   2   6 573.707 31.7703   1 
   8   2  -6 56.9320 6.66828   3 
  -8  -2  -6 61.7451 10.0453   3 
   8   2  -6 64.2996 7.73042   2 
   8  -2   6 63.3596 7.01291   2 
  -8  -2  -6 39.3104 7.56384   2 
  -8   2   6 54.7556 6.77817   4 
  -8  -2  -6 56.6634 7.05581   4 
   8   2   6 48.3472 7.08976   1 
   8  -2  -6 58.9894 7.11388   2 
   8   2   6 55.1026 8.46980   2 
  -8  -2   6 46.1985 6.36055   1 
  -8  -2   6 60.7482 8.70916   2 
  -9  -2  -6 438.161 26.3787   4 
   9  -2   6 360.028 27.0046   3 
   9   2  -6 436.394 25.8568   3 
  -9  -2  -6 402.995 27.9877   3 
   9   2  -6 476.936 27.7901   2 
   9  -2   6 466.532 26.8406   2 
   9   2   6 406.725 26.0103   1 
  -9   2  -6 416.803 23.3631   4 
   9   2   6 365.174 27.7743   3 
  -9  -2   6 505.705 29.2663   2 
   9  -2  -6 439.308 26.6545   2 
   9   2   6 423.786 27.7724   2 
 -10  -2  -6 6.75740 6.67128   3 
  10   2  -6 7.70615 5.16433   3 
  10  -2   6 7.48705 5.73789   2 
 -10  -2  -6 14.9586 6.52255   4 
  10   2  -6 8.95949 7.47229   2 
 -10   2  -6 12.6352 2.02559   4 
  10   2   6 13.0138 6.34736   1 
  10  -2  -6 11.5063 5.83791   2 
  10   2   6 13.2209 8.08929   2 
 -11  -2  -6 2.19226 8.78454   3 
  11  -2   6 4.94522 6.12696   2 
  11   2  -6 -3.7931 4.78033   3 
 -11  -2  -6 -1.4610 6.59681   4 
 -11   2   6 5.90851 3.32819   1 
  11   2  -6 12.2934 7.50825   2 
  11   2   6 -4.3081 5.46771   1 
  11   2   6 5.52559 9.17667   2 
 -11   2  -6 2.82753 1.84400   4 
  11  -2  -6 -0.2937 5.47903   2 
  12   2  -6 91.3207 11.6473   3 
  12  -2   6 101.123 12.8736   2 
 -12  -2  -6 111.338 12.3947   4 
  12   2  -6 112.495 13.3669   2 
 -12  -2  -6 92.6317 14.1025   3 
  12  -2  -6 110.153 12.6458   2 
  12   2   6 84.7708 11.2513   1 
  12   2   6 100.280 13.9918   2 
  13  -2   6 71.4894 10.4839   2 
  13   2  -6 40.3266 9.20339   3 
  13   2  -6 64.0639 11.8202   2 
 -13  -2  -6 51.2825 9.36388   4 
  13   2   6 62.9148 9.29714   1 
 -14  -2  -6 14.6904 13.8518   4 
  14   2  -6 7.53306 10.4094   2 
  14  -2   6 13.8539 9.09702   2 
  14   2   6 11.4415 7.52308   1 
  14   2   6 18.7997 12.1759   2 
  14  -2  -6 24.6365 8.64785   2 
  15  -2   6 75.8715 12.8995   2 
  15   2  -6 28.8936 20.8439   2 
 -15  -2  -6 59.5520 10.5552   4 
  15  -2  -6 75.3465 11.4992   2 
  15   2   6 45.2983 13.9141   2 
  15   2   6 58.4644 10.2741   1 
  16  -2   6 24.0508 11.9354   2 
  16   2  -6 26.0004 12.6559   2 
 -16  -2  -6 8.66791 9.24604   4 
  16   2   6 13.2905 10.6894   1 
  16  -2  -6 12.1455 9.66924   2 
  16   2   6 12.6340 13.8273   2 
 -17  -2  -6 274.051 22.3835   4 
  17   2  -6 216.475 25.5458   2 
  17  -2   6 323.974 24.9882   2 
  17   2   6 219.894 21.0756   1 
  17  -2  -6 315.048 27.4957   2 
  17   2   6 304.307 27.7403   2 
   0   3   6 4.05108 4.39005   1 
   0  -3   6 3.97994 2.85476   4 
   0   3   6 1.87505 3.72292   4 
   0  -3  -6 -2.1346 6.50765   2 
   0  -3   6 -0.1625 3.00764   1 
   0  -3  -6 2.76797 5.34050   3 
   0  -3  -6 -0.9130 4.37900   4 
   1  -3   6 356.735 21.5499   4 
  -1  -3  -6 401.564 24.4210   3 
  -1  -3  -6 402.551 23.4552   2 
  -1   3   6 382.967 23.1677   4 
   1  -3   6 388.369 21.8815   3 
   1  -3   6 380.825 22.0025   1 
  -1  -3  -6 386.877 23.3628   4 
  -1   3   6 373.624 22.9572   1 
  -1  -3   6 381.186 21.5976   2 
   1   3   6 386.308 23.3680   1 
  -1  -3   6 380.155 22.4417   1 
   1  -3  -6 388.860 23.2588   4 
   1  -3  -6 400.584 23.5281   2 
   1  -3  -6 400.847 24.3417   3 
  -2  -3  -6 37.7448 7.48553   3 
   2  -3   6 37.3024 3.95738   1 
   2  -3   6 36.4487 4.90049   3 
  -2  -3  -6 24.5268 5.31125   4 
  -2  -3  -6 24.1534 4.96675   2 
  -2   3   6 34.4216 4.78896   4 
   2  -3   6 34.5083 3.06369   4 
   2  -3  -6 44.3065 5.60308   2 
  -2  -3   6 38.3091 4.98118   1 
  -2  -3   6 36.2831 5.03129   2 
   2  -3  -6 37.8219 5.54492   4 
   2   3   6 43.2585 6.68511   1 
  -3   3   6 96.7638 8.53395   4 
  -3  -3  -6 107.181 10.7689   4 
  -3  -3  -6 103.543 11.0599   3 
   3  -3   6 98.2724 8.37934   3 
   3  -3   6 97.6684 6.15910   1 
  -3  -3  -6 83.0674 9.16408   2 
  -3  -3   6 94.9032 8.05000   1 
   3   3   6 99.4325 9.82021   2 
   3  -3  -6 102.836 9.11532   4 
   3   3   6 105.899 9.53136   1 
   3  -3  -6 100.211 8.82598   2 
  -3  -3   6 90.0443 9.33242   2 
   4  -3   6 59.2894 7.18650   3 
  -4  -3  -6 58.6788 9.52176   3 
  -4   3   6 56.2625 6.87016   4 
  -4  -3  -6 67.1227 8.29114   4 
  -4  -3  -6 49.8721 7.00511   2 
   4  -3   6 62.7037 4.77650   2 
  -4  -3   6 59.1829 6.66875   1 
   4   3   6 93.8018 11.5429   1 
  -4  -3   6 57.5649 7.27364   2 
   4  -3  -6 72.9551 7.79231   2 
   4   3   6 64.9244 8.90855   2 
   4  -3  -6 69.1511 7.87495   4 
   5  -3   6 22.8131 5.17829   3 
  -5  -3  -6 30.7961 7.66054   3 
  -5   3   6 37.1738 6.04311   4 
   5  -3   6 28.1668 4.11467   2 
  -5  -3  -6 35.7656 7.82334   4 
   5  -3  -6 27.3098 5.60063   4 
   5   3   6 20.4439 6.35737   2 
  -5  -3   6 35.9820 8.41795   2 
  -5  -3   6 35.8862 8.58794   1 
   5  -3  -6 37.8720 7.51481   2 
   5   3   6 23.9335 5.84539   1 
  -6  -3  -6 5.80964 7.18361   3 
  -6  -3  -6 13.6814 5.85706   4 
   6  -3   6 9.44325 4.59484   3 
   6  -3   6 8.97543 3.17948   2 
  -6  -3   6 7.03900 4.20955   1 
   6   3   6 4.97641 5.35112   1 
   6  -3  -6 4.21252 4.68255   4 
   6   3   6 3.62470 6.39346   2 
  -6  -3   6 10.2930 5.10757   2 
   7  -3   6 133.466 9.43302   2 
  -7  -3  -6 131.656 13.8681   3 
   7  -3   6 115.090 11.0237   3 
  -7  -3  -6 124.441 11.8134   4 
  -7  -3   6 125.228 11.7464   2 
   7   3   6 103.782 11.6761   3 
   7   3   6 130.379 11.6190   1 
   7   3   6 108.338 12.6611   2 
   8  -3   6 29.2215 5.08414   2 
  -8  -3  -6 12.2659 6.56455   4 
   8  -3   6 13.8151 5.22541   3 
  -8  -3  -6 5.66356 8.18989   3 
   8   3   6 9.41393 7.84178   2 
   8   3   6 20.5316 6.19906   1 
  -8  -3   6 12.0414 8.27065   2 
   9   3  -6 23.2944 3.62562   2 
   9  -3   6 41.2540 7.07613   2 
  -9  -3  -6 29.7730 9.56629   3 
  -9  -3  -6 30.6797 7.76955   4 
   9   3   6 17.0632 8.74006   2 
   9  -3  -6 32.4479 6.68290   2 
   9   3   6 16.4123 6.41427   1 
  10   3  -6 -0.7772 4.10814   2 
 -10  -3  -6 7.12515 8.51320   3 
 -10  -3  -6 12.9198 8.12337   4 
  10  -3   6 8.25951 5.73307   2 
  10   3   6 12.2583 7.15103   1 
  10   3   6 7.41433 9.63126   2 
  10  -3  -6 12.7850 5.96890   2 
 -11  -3  -6 635.182 38.8776   4 
 -11  -3  -6 622.363 40.6937   3 
 -11   3   6 643.410 36.2835   1 
  11  -3   6 654.972 38.1455   2 
  11   3   6 621.573 38.8391   1 
  11  -3  -6 643.735 38.6775   2 
 -12  -3  -6 172.005 18.8221   3 
  12  -3   6 171.517 15.1055   2 
 -12  -3  -6 174.262 16.1930   4 
  12  -3  -6 178.198 15.2366   2 
  12   3   6 163.593 20.3511   2 
  12   3   6 120.954 14.4380   1 
  13   3  -6 -1.9561 5.31955   3 
  13   3  -6 -0.4429 2.60854   2 
 -13  -3  -6 -0.2001 7.60634   4 
  13  -3   6 15.0237 7.29678   2 
  13   3   6 1.62598 11.9551   2 
  13   3   6 9.45248 8.28287   1 
  13  -3  -6 3.34566 7.32587   2 
 -14  -3  -6 49.2444 10.2678   4 
  14  -3  -6 83.1236 11.5689   2 
  14   3   6 55.5563 10.1316   1 
  14   3   6 71.8845 15.6818   2 
 -15  -3  -6 51.7008 11.2335   4 
  15   3   6 60.5078 15.7020   2 
  15  -3  -6 94.4091 12.8102   2 
  15   3   6 101.899 13.8921   1 
  16  -3   6 -4.1189 8.89755   2 
  16   3  -6 -0.3217 3.02671   2 
 -16  -3  -6 8.74271 8.76263   4 
  16   3   6 5.14092 14.5761   2 
  16  -3  -6 -2.9890 14.1201   2 
   0  -4  -6 214.911 15.4351   4 
   0   4   6 205.388 14.8050   1 
   0  -4   6 194.799 13.3028   1 
   0  -4   6 211.822 12.4529   2 
   0  -4  -6 221.662 16.6072   3 
   0  -4   6 197.012 13.0888   4 
  -1   4   6 6.62069 5.44688   1 
   1  -4   6 5.92752 2.31394   2 
  -1  -4  -6 9.04970 8.30739   3 
   1  -4   6 6.51244 3.37706   4 
  -1  -4  -6 4.04817 5.99614   4 
   1   4   6 6.50620 5.86997   1 
   1  -4  -6 13.8658 8.19695   3 
  -1  -4   6 9.37569 4.40887   4 
   1  -4  -6 10.1654 5.78102   4 
  -1  -4   6 5.71195 4.29283   1 
   2  -4   6 12.5410 3.59312   3 
  -2  -4  -6 5.49654 6.21441   4 
   2  -4   6 8.69952 2.86020   4 
  -2  -4  -6 11.5951 7.88420   3 
  -2   4   6 13.0365 5.86179   1 
  -2  -4   6 10.1304 5.35517   4 
   2  -4  -6 9.68954 5.98066   4 
   2   4   6 8.47443 6.14354   1 
  -2  -4   6 6.94525 4.49517   1 
  -2  -4   6 7.24590 4.51883   2 
   2  -4  -6 2.85563 7.47084   3 
  -3  -4  -6 -5.4686 5.97328   4 
  -3   4   6 4.09020 5.01183   1 
  -3  -4  -6 1.57640 7.70803   3 
   3  -4   6 1.21780 3.81889   3 
  -3  -4   6 2.66862 4.90874   2 
   3  -4  -6 3.62593 5.40815   4 
  -3  -4   6 -3.9848 4.47922   1 
  -3  -4   6 1.79787 5.63435   4 
   3   4   6 -0.9153 5.94806   1 
  -4   4   6 135.568 10.6393   1 
  -4  -4  -6 137.287 14.5495   3 
  -4  -4  -6 131.956 12.8998   4 
   4  -4   6 135.922 10.6922   3 
  -4  -4   6 116.133 11.2490   2 
   4   4   6 135.935 12.2037   1 
   4  -4  -6 146.464 11.7495   4 
  -4  -4   6 98.2789 10.1083   1 
  -5   4   6 267.705 17.3020   1 
  -5  -4  -6 270.069 20.9616   3 
  -5  -4  -6 280.205 19.3647   4 
   5  -4   6 256.926 17.9736   3 
   5  -4   6 263.247 15.8008   2 
   5   4   6 301.983 19.3949   1 
  -5  -4   6 239.197 18.6118   2 
   5  -4  -6 288.987 18.5013   4 
  -6  -4  -6 6.83617 8.66565   3 
   6  -4   6 0.30545 2.97366   2 
  -6  -4  -6 -4.0201 6.81200   4 
   6  -4   6 -0.0886 4.83338   3 
   6  -4  -6 1.04071 5.68152   4 
   6   4   6 3.26631 7.28607   1 
   6   4   6 2.14475 7.54763   2 
  -6  -4   6 3.87626 5.79034   2 
  -7  -4  -6 218.599 17.5250   4 
   7  -4   6 220.976 14.3075   2 
  -7  -4  -6 217.333 19.2894   3 
   7  -4   6 216.512 16.2665   3 
   7   4   6 191.651 17.8331   2 
   7   4   6 244.755 17.3906   1 
   7  -4  -6 231.772 16.0173   4 
  -8  -4  -6 40.9419 14.2936   4 
   8  -4   6 33.6701 5.53098   2 
  -8  -4  -6 33.6608 10.5419   3 
   8   4   6 23.1675 8.87199   1 
   8   4   6 22.1655 9.77288   2 
  -9  -4  -6 183.889 19.1203   3 
   9  -4   6 235.532 15.3150   2 
  -9  -4  -6 181.880 17.4135   4 
   9   4   6 201.951 17.0369   1 
   9   4   6 165.953 18.5195   2 
 -10  -4  -6 0.55267 8.90935   4 
 -10  -4  -6 7.80489 11.2075   3 
  10  -4   6 5.10869 5.29154   2 
  10  -4  -6 4.88873 6.51262   2 
  10   4   6 6.72357 12.9749   2 
  10   4   6 6.27795 8.39793   1 
 -11  -4  -6 -4.3033 8.93248   4 
  11  -4   6 7.85375 6.19757   2 
 -11  -4  -6 -4.1108 13.7636   3 
  11  -4  -6 -2.3957 6.00545   2 
  11   4   6 -2.2282 11.3399   2 
  12  -4   6 57.1087 8.38563   2 
 -12  -4  -6 25.2368 12.7651   3 
 -12  -4  -6 46.4859 12.2234   4 
  12   4   6 57.0003 11.7923   1 
  12   4   6 31.0906 13.3208   2 
  12  -4  -6 38.1954 8.97385   2 
 -13  -4  -6 30.1404 12.1119   4 
  13  -4   6 20.8472 9.02106   2 
  13  -4  -6 22.5077 8.34581   2 
  13   4   6 7.92039 13.6223   2 
  13   4   6 6.49950 10.1071   1 
  14  -4   6 9.00509 7.77852   2 
 -14  -4  -6 7.60583 19.5445   4 
  14   4   6 8.18246 14.2705   2 
  14   4   6 0.01838 9.91561   1 
  14  -4  -6 14.0407 8.69569   2 
   0  -5   6 2.83366 5.77980   2 
   0   5   6 5.42826 6.98102   1 
   0  -5  -6 -8.8749 8.05511   4 
   0  -5  -6 -2.9239 9.86428   3 
   1  -5   6 120.421 9.64609   2 
   1  -5   6 147.412 9.96731   4 
  -1   5   6 132.178 12.1873   1 
  -1  -5  -6 130.429 15.8932   3 
  -1  -5   6 122.539 11.3181   2 
   1  -5  -6 163.803 14.6952   4 
   1  -5  -6 119.184 15.3594   3 
   1   5   6 150.891 12.7634   1 
  -1  -5   6 134.840 10.9590   4 
   2  -5   6 14.0760 3.71339   2 
  -2  -5  -6 -5.8006 7.93226   4 
  -2   5   6 4.70375 6.69640   1 
   2  -5   6 10.4171 3.77830   4 
  -2  -5  -6 9.45429 10.1621   3 
  -2  -5   6 9.35562 5.26074   1 
   2  -5  -6 10.7211 10.4376   3 
   2  -5  -6 6.54587 7.22242   4 
   2   5   6 6.30092 8.00293   1 
  -2  -5   6 0.98066 5.68328   4 
  -2  -5   6 5.24549 5.58707   2 
  -3  -5  -6 42.7648 11.9546   3 
  -3  -5  -6 37.6452 9.92729   4 
  -3   5   6 35.4375 7.64646   1 
   3  -5   6 40.2711 4.85680   2 
   3  -5  -6 46.7014 12.0564   3 
   3  -5  -6 50.1377 10.3719   4 
   3   5   6 37.4897 12.9030   1 
  -3  -5   6 34.0610 7.77785   4 
  -4  -5  -6 18.8693 9.31323   4 
  -4   5   6 22.6653 6.81754   1 
  -4  -5  -6 32.3599 11.2826   3 
  -4  -5   6 31.0035 8.36231   4 
   4   5   6 10.7870 8.16204   1 
   4  -5  -6 28.2434 11.5576   3 
  -4  -5   6 21.0027 8.06445   2 
  -5  -5  -6 6.20371 10.4677   3 
  -5   5   6 11.7947 6.22760   1 
   5  -5   6 10.4270 5.21979   3 
  -5  -5  -6 1.43207 8.82813   4 
   5  -5  -6 17.8754 11.0999   4 
   5   5   6 11.7969 8.93184   1 
  -5  -5   6 11.3957 8.22483   4 
  -6  -5  -6 -0.1106 7.24074   4 
  -6  -5  -6 -3.7587 10.3008   3 
  -6   5   6 5.35640 5.82699   1 
   6  -5   6 5.38679 3.60763   2 
   6  -5  -6 7.90440 7.22901   4 
  -6  -5   6 8.47854 8.83033   4 
   6   5   6 -0.7359 8.07693   1 
  -7  -5  -6 29.1927 10.0767   4 
  -7   5   6 75.2264 6.56508   1 
  -7  -5  -6 63.1687 13.7334   3 
   7  -5   6 65.5432 7.30916   2 
   7   5   6 35.3144 10.6013   1 
   7  -5  -6 60.3921 9.36500   4 
   8  -5   6 9.34408 5.42978   2 
  -8  -5  -6 4.50039 11.6736   3 
  -8  -5  -6 -2.3188 8.86855   4 
   8   5   6 5.74223 9.25970   1 
  -8  -5   6 6.93055 10.6336   4 
  -9  -5  -6 1.44872 8.12127   4 
  -9  -5  -6 24.8605 18.9575   3 
   9  -5   6 11.0314 5.58723   2 
   9   5   6 12.5227 9.97854   1 
  -9  -5   6 8.06236 11.3448   4 
 -10   5   6 2.41967 2.12435   1 
 -10  -5  -6 0.72082 12.7406   3 
 -10  -5  -6 5.88407 10.6096   4 
  10  -5   6 0.36093 5.26574   2 
 -10  -5   6 -15.475 10.8568   4 
  10   5   6 -0.8627 9.72680   1 
  10  -5  -6 -4.7311 6.24510   2 
 -11  -5  -6 269.077 23.9272   3 
  11  -5   6 264.471 18.3266   2 
  11   5   6 226.461 20.9640   1 
 -11  -5   6 226.199 24.3112   4 
   0   6   6 74.8981 10.5255   1 
   0  -6  -6 65.1273 14.8706   3 
   0  -6  -6 80.7016 11.9176   4 
   0  -6   6 61.3001 7.57004   4 
  -1  -6  -6 -5.3096 9.13636   4 
  -1   6   6 0.74806 7.76605   1 
   1  -6   6 2.46353 4.58482   4 
  -1  -6  -6 0.64462 15.3656   3 
   1   6   6 6.41309 8.40454   1 
  -1  -6   6 -1.6664 5.98106   4 
   1  -6  -6 7.96944 12.3798   3 
   1  -6  -6 5.56072 8.66488   4 
  -2  -6  -6 -4.3882 9.76061   4 
  -2  -6  -6 17.5843 17.8611   3 
  -2   6   6 0.05264 7.35693   1 
   2  -6  -6 26.5150 14.0447   3 
   2   6   6 -4.1072 9.18710   1 
   2  -6  -6 2.81768 8.38479   4 
  -2  -6   6 6.90715 6.47862   4 
  -3  -6  -6 -19.522 18.9095   3 
  -3   6   6 32.8608 10.7120   1 
  -3  -6  -6 -1.4232 9.83882   4 
   3  -6  -6 -12.034 12.5463   3 
   3   6   6 6.50655 9.60481   1 
   3  -6  -6 -0.0102 8.14140   4 
  -3  -6   6 4.92714 6.64393   4 
  -4  -6  -6 2.21426 10.0368   4 
  -4  -6  -6 56.4781 19.7674   3 
   4  -6  -6 46.6520 16.5116   3 
   4   6   6 37.4061 11.2510   1 
  -4  -6   6 27.3174 8.49124   4 
   4  -6  -6 37.8942 9.18236   4 
  -5  -6  -6 119.432 19.5487   4 
  -5  -6  -6 88.7069 19.6511   3 
  -5  -6   6 83.4641 11.4869   4 
   5  -6  -6 59.5077 10.6615   4 
   5   6   6 81.5292 13.4360   1 
   5  -6  -6 105.569 22.2956   3 
  -6  -6  -6 -5.4174 12.2076   4 
  -6  -6  -6 -7.6792 12.3943   3 
  -6   6   6 0.81537 2.89331   1 
   6  -6  -6 3.33228 14.3011   3 
   6   6   6 8.90250 12.8200   1 
   6  -6  -6 0.99101 7.38426   4 
  -6  -6   6 -3.5055 8.18797   4 
   0   0  -7 1.35150 1.89810   4 
   0   0   7 -0.0495 2.47672   2 
   0   0  -7 -0.6302 3.53618   3 
   0   0  -7 0.93197 2.13488   2 
   0   0   7 -0.7957 1.65459   4 
  -1   0   7 703.063 38.7227   4 
   1   0   7 594.057 41.1511   3 
   1   0  -7 763.733 39.6452   3 
  -1   0   7 684.948 38.8295   2 
   1   0   7 700.167 38.5569   4 
  -1   0  -7 692.502 38.7398   2 
  -1   0  -7 684.925 38.5650   4 
   1   0  -7 711.612 38.7009   2 
  -1   0  -7 757.322 39.9911   3 
   1   0   7 703.324 38.9068   2 
   2   0   7 467.960 26.3408   4 
   2   0   7 472.438 26.8812   2 
  -2   0  -7 498.975 28.1560   3 
  -2   0  -7 490.255 26.7589   2 
  -2   0  -7 457.614 26.3046   4 
   2   0   7 474.135 27.6103   3 
  -2   0   7 443.094 26.5382   4 
   2   0  -7 483.710 26.5485   2 
   3   0   7 1.71990 3.18282   2 
   3   0   7 2.37091 2.58860   3 
  -3   0   7 3.59289 2.26218   4 
   3   0   7 1.77764 1.95855   4 
  -3   0  -7 2.09258 2.82370   2 
  -3   0  -7 0.05435 3.47510   3 
   3   0  -7 -0.1704 2.42730   2 
  -3   0  -7 1.16776 1.99513   4 
   3   0  -7 3.85078 2.38802   2 
  -4   0  -7 86.6073 6.13289   4 
  -4   0   7 91.7803 6.84645   4 
   4   0  -7 86.9695 6.84212   2 
   4   0   7 87.3854 7.93437   2 
  -4   0  -7 88.0184 9.08191   3 
   4   0  -7 89.5862 7.64250   2 
   4   0   7 96.5937 8.53407   3 
  -4   0  -7 91.2509 7.66361   2 
   5   0   7 440.511 28.0733   3 
  -5   0  -7 467.620 28.3781   3 
  -5   0  -7 473.200 26.0854   4 
   5   0   7 471.964 26.4716   1 
   5   0  -7 455.068 26.9812   2 
   5   0   7 476.082 27.2589   2 
   6   0   7 83.8820 7.10589   1 
   6   0   7 84.1833 8.86116   2 
   6   0   7 107.823 11.5544   3 
  -6   0  -7 78.1158 6.50608   4 
   6   0  -7 83.1281 8.41677   2 
  -6   0  -7 95.7255 8.47687   2 
  -6   0  -7 86.2693 9.90536   3 
  -6   0   7 81.0143 7.11026   4 
  -7   0  -7 157.129 13.2779   3 
  -7   0   7 163.729 10.8378   4 
   7   0   7 125.215 12.4957   3 
  -7   0   7 140.791 10.1733   1 
  -7   0  -7 160.585 10.0997   4 
   7   0   7 164.947 12.5725   2 
  -7   0  -7 165.383 11.9842   2 
   7   0   7 157.892 10.6242   1 
   8   0   7 -5.6112 3.66619   1 
  -8   0   7 -1.1849 3.31200   4 
   8   0   7 -4.9876 5.61675   2 
   8   0  -7 1.93960 4.42087   2 
   8   0   7 -3.0847 7.52515   3 
  -8   0  -7 2.51872 3.20290   4 
  -8   0  -7 -3.5986 4.84748   2 
  -8   0  -7 -3.8185 7.20781   3 
  -8   0   7 2.56904 3.45835   1 
   9   0  -7 849.865 50.2789   2 
   9   0   7 913.416 50.8345   2 
  -9   0  -7 955.387 50.1521   2 
  -9   0  -7 931.695 48.9595   4 
  -9   0   7 761.161 48.9312   1 
  -9   0   7 870.023 49.5682   4 
  -9   0  -7 893.496 51.5648   3 
   9   0   7 843.623 50.0176   1 
  10   0   7 17.2434 7.69716   2 
  10   0  -7 8.11155 6.28146   2 
  10   0   7 10.1193 4.61734   1 
 -10   0  -7 0.95325 6.99671   3 
 -10   0  -7 7.92451 4.29165   4 
 -10   0  -7 4.43161 5.60295   2 
  11   0  -7 6.77019 6.73050   2 
  11   0   7 3.23106 4.72137   1 
 -11   0  -7 12.5787 11.3834   2 
 -11   0  -7 0.47824 5.71540   4 
  11   0   7 2.43966 7.69102   2 
  12   0   7 95.4668 9.47471   1 
  12   0   7 103.995 14.0539   2 
 -12   0  -7 93.9535 9.33436   4 
  12   0  -7 95.2108 11.7777   2 
 -12   0  -7 87.9174 12.3487   2 
 -13   0  -7 170.082 13.1702   4 
  13   0   7 156.149 13.0312   1 
  13   0   7 177.333 17.8641   2 
  13   0  -7 182.726 17.6489   2 
  14   0   7 105.515 17.6025   2 
  14   0   7 124.419 11.7193   1 
 -14   0  -7 138.083 11.9933   4 
  14   0  -7 153.953 20.1866   2 
  15   0   7 287.841 24.6063   2 
  15   0  -7 263.687 23.6551   2 
  15   0   7 273.180 19.1904   1 
 -15   0  -7 283.251 19.2612   4 
  16   0   7 4.99783 12.1722   2 
 -16   0  -7 19.4796 6.82116   4 
  16   0   7 -5.5307 7.26757   1 
  16   0  -7 8.79666 10.8388   2 
  17   0   7 40.9717 16.6702   1 
  17   0  -7 53.4877 13.6424   2 
  17   0   7 46.5045 14.2245   2 
 -18   0  -7 1.74992 2.35944   4 
  18   0   7 -4.7051 21.8004   2 
  18   0  -7 -0.0678 19.0762   2 
  18   0   7 -4.6466 8.83907   1 
   0  -1   7 152.563 9.60772   4 
   0  -1   7 166.111 9.99170   2 
   0   1   7 153.163 10.2857   4 
   0  -1  -7 171.185 11.9594   3 
   0   1  -7 169.118 11.1837   3 
   0   1   7 163.098 10.9855   2 
   0  -1  -7 168.260 10.4814   4 
   0  -1  -7 177.078 10.7838   2 
   1  -1   7 1504.24 82.3259   3 
  -1  -1  -7 1565.54 83.3420   3 
  -1  -1  -7 1529.20 82.1214   2 
   1  -1   7 1493.82 81.6062   2 
  -1  -1  -7 1504.73 81.9891   4 
   1  -1   7 1417.09 81.2832   4 
  -1   1   7 1439.56 81.9651   4 
   1   1  -7 1443.73 82.1810   3 
   1   1   7 1513.04 82.0289   4 
   1  -1  -7 1491.59 82.0276   4 
   1  -1  -7 1498.46 82.0284   2 
  -1   1  -7 1568.48 82.7067   3 
  -1  -1   7 1429.41 81.5601   4 
   1  -1  -7 1634.23 83.0621   3 
  -1  -1   7 1447.53 81.5445   2 
   1   1   7 1506.68 82.1936   2 
  -2  -1  -7 458.165 26.2743   3 
   2  -1   7 450.232 25.5213   3 
  -2  -1  -7 430.296 24.9355   2 
  -2  -1  -7 437.274 24.6994   4 
   2   1  -7 429.689 24.1159   2 
  -2   1   7 413.189 24.6822   4 
   2  -1   7 428.291 23.7619   4 
   2  -1   7 439.374 24.4315   2 
   2   1  -7 433.439 24.7459   3 
   2   1  -7 439.479 23.8173   2 
   2   1   7 430.860 25.0846   2 
   2   1   7 408.575 24.5745   4 
  -2   1  -7 447.303 25.6844   3 
   2  -1  -7 430.103 24.7733   4 
   2  -1  -7 418.307 24.6790   2 
   3  -1   7 1354.31 72.1203   3 
   3   1  -7 1282.58 70.2789   2 
  -3  -1  -7 1357.72 71.3187   2 
  -3  -1  -7 1393.16 72.7288   3 
   3  -1   7 1315.31 70.8714   2 
   3   1  -7 1254.54 70.7939   2 
  -3  -1  -7 1235.24 70.9074   4 
  -3   1   7 1275.52 71.0854   4 
  -3   1  -7 1356.60 72.1594   3 
   3   1   7 1242.77 72.0810   3 
   3   1   7 1252.94 71.0011   4 
   3  -1  -7 1260.78 71.0691   4 
   3  -1  -7 1224.44 70.9551   2 
   3   1   7 1300.80 71.3349   2 
   4   1  -7 282.941 18.0395   2 
  -4   1   7 318.684 17.9507   4 
   4  -1   7 291.453 19.0402   3 
  -4  -1  -7 305.951 17.7403   4 
   4   1  -7 294.682 17.0237   2 
  -4  -1  -7 311.460 18.4775   2 
   4  -1   7 309.988 18.0206   2 
  -4  -1   7 295.163 17.6965   1 
   4   1   7 304.829 18.1058   1 
   4   1   7 256.645 18.7104   3 
   4   1   7 296.952 18.5869   2 
   4  -1  -7 319.331 18.5596   2 
  -4   1  -7 297.540 19.1044   3 
   5   1  -7 83.9874 6.61199   2 
   5   1  -7 85.0382 8.65991   2 
  -5  -1  -7 88.5872 7.34476   4 
   5  -1   7 87.8561 8.71614   3 
   5  -1   7 90.2550 8.13969   2 
  -5   1   7 83.9008 7.10220   4 
  -5  -1  -7 85.5678 9.89625   3 
   5   1   7 85.4693 9.03637   2 
   5   1   7 80.7511 9.05269   1 
   5   1   7 128.253 13.6846   3 
  -5   1  -7 89.3457 5.28122   4 
  -5   1  -7 86.0190 9.10135   3 
  -5  -1   7 93.8000 7.09814   1 
   6   1  -7 13.6593 4.97201   2 
   6  -1   7 14.5653 4.61580   2 
  -6   1   7 20.0649 4.17364   4 
  -6  -1  -7 9.79886 7.64876   3 
   6  -1   7 12.4694 4.75563   3 
  -6  -1  -7 19.7370 4.80327   2 
  -6  -1  -7 16.9618 4.50826   4 
   6  -1   7 18.2618 3.38747   1 
  -6   1  -7 15.8355 2.01780   4 
   6  -1  -7 15.4318 4.26850   2 
  -6   1  -7 11.2950 5.56847   3 
   6   1   7 14.3011 5.87641   2 
   6   1   7 13.2579 4.52392   1 
  -6   1  -7 13.6238 3.41619   2 
  -6  -1   7 16.4556 3.86927   1 
   6   1   7 14.2513 5.24285   3 
   7  -1   7 572.768 31.8631   2 
  -7  -1  -7 519.180 33.1786   3 
   7  -1   7 548.257 30.3289   1 
   7   1  -7 540.636 32.2751   2 
  -7  -1  -7 536.697 32.0251   2 
   7  -1   7 506.674 32.8782   3 
  -7  -1  -7 554.327 31.1415   4 
  -7  -1   7 532.032 31.5129   2 
  -7   1  -7 567.371 30.8984   2 
  -7  -1   7 540.151 31.1466   1 
   7   1   7 541.070 32.5020   2 
   7   1   7 502.127 33.1046   3 
   7  -1  -7 535.996 31.8313   2 
  -7   1  -7 557.720 32.9893   3 
   7   1   7 550.870 31.3524   1 
  -7   1  -7 547.733 29.8400   4 
   8  -1   7 140.500 12.0331   2 
  -8   1   7 140.503 10.4705   4 
  -8  -1  -7 129.174 12.0677   2 
   8  -1   7 136.361 9.21622   1 
  -8  -1  -7 130.679 13.2616   3 
   8   1  -7 206.801 21.1869   2 
   8   1   7 139.680 10.7913   1 
  -8   1  -7 134.257 8.52359   4 
   8   1   7 135.984 13.0658   2 
  -8  -1   7 131.777 9.99522   1 
   8  -1  -7 126.603 11.5878   2 
  -8  -1   7 155.147 12.1111   2 
  -8   1  -7 136.696 10.6534   2 
   8   1   7 117.903 12.3763   3 
   9  -1   7 187.898 17.0926   3 
  -9   1   7 228.629 14.8948   1 
   9  -1   7 259.763 14.8178   1 
  -9  -1  -7 248.677 17.3657   2 
   9   1  -7 232.671 17.8854   2 
  -9  -1  -7 226.918 18.4386   3 
  -9  -1  -7 247.569 15.9150   4 
   9  -1   7 270.679 17.6591   2 
  -9   1  -7 246.306 14.2626   4 
   9   1   7 239.707 16.0981   1 
   9   1   7 271.165 18.5110   2 
  -9  -1   7 242.393 17.2305   2 
  -9  -1   7 250.833 18.1832   1 
   9   1   7 213.589 18.8282   3 
   9  -1  -7 246.730 17.0699   2 
 -10   1   7 137.461 10.5757   1 
  10  -1   7 162.421 14.1680   2 
  10   1  -7 134.387 14.4998   2 
  10  -1   7 157.746 10.7679   1 
 -10  -1  -7 154.012 15.4451   3 
 -10  -1  -7 150.823 14.5154   2 
 -10  -1  -7 166.181 12.3421   4 
  10   1   7 171.217 15.4438   2 
 -10   1  -7 171.907 12.8045   2 
  10   1   7 145.146 12.1220   1 
 -10   1  -7 162.757 10.3686   4 
  10  -1  -7 167.933 13.8754   2 
 -11  -1  -7 56.0996 7.87487   4 
 -11  -1  -7 70.7066 14.2337   3 
  11  -1   7 73.5257 9.63058   2 
  11   1  -7 53.9234 9.85510   2 
  11  -1   7 54.9202 6.75121   1 
  11   1   7 50.9596 10.3727   2 
  11  -1  -7 72.3356 9.50183   2 
  11   1   7 58.1819 8.39265   1 
 -11   1  -7 60.1749 6.42452   4 
 -12  -1  -7 6.72752 6.27184   4 
  12  -1   7 -1.6546 7.53066   2 
  12   1  -7 -9.8349 7.94792   2 
  12  -1   7 0.91354 4.77141   1 
 -12   1  -7 0.84585 3.96528   4 
  12  -1  -7 1.04326 6.55167   2 
  12   1   7 3.56220 5.60394   1 
  12   1   7 4.06278 8.04774   2 
  13  -1   7 32.2778 9.56626   2 
 -13  -1  -7 31.4268 7.75774   4 
  13  -1   7 28.3440 6.68833   1 
  13   1  -7 40.9328 10.7953   2 
  13   1   7 32.0556 8.48879   1 
  13   1   7 22.9047 10.0070   2 
  13  -1  -7 35.6702 9.07194   2 
 -14  -1  -7 51.7210 9.31130   4 
  14  -1   7 72.2738 8.50024   1 
  14   1  -7 75.4246 12.9725   2 
  14  -1   7 65.4220 11.8038   2 
  14   1   7 44.7575 11.5840   2 
  14  -1  -7 74.8433 11.3761   2 
  14   1   7 62.5622 9.76091   1 
  15  -1   7 25.9650 9.99923   2 
 -15  -1  -7 17.8277 8.42273   4 
  15   1  -7 27.5841 11.4923   2 
  15  -1  -7 22.3515 9.66892   2 
  15   1   7 18.2935 10.8459   2 
 -16  -1  -7 89.4299 11.5607   4 
  16  -1   7 108.275 14.7261   2 
  16   1  -7 80.2689 14.3721   2 
  16  -1  -7 104.907 14.8171   2 
  16   1   7 67.3366 11.1105   1 
  16   1   7 81.6521 15.0704   2 
  17   1  -7 -0.6263 11.4032   2 
  17  -1   7 1.31749 13.4124   2 
 -17  -1  -7 10.3043 9.00217   4 
  17  -1  -7 5.32433 11.1168   2 
  17   1   7 -16.885 12.8019   2 
  17   1   7 0.35754 9.65052   1 
 -17   1  -7 -3.7370 1.80306   4 
  18   1  -7 91.8364 16.6705   2 
 -18  -1  -7 45.9344 10.5087   4 
  18  -1  -7 68.2408 14.0661   2 
  18   1   7 58.5170 12.0219   1 
  18   1   7 39.8484 14.1049   2 
   0  -2  -7 -0.5182 3.27275   2 
   0   2   7 0.08592 2.78513   4 
   0  -2   7 0.17485 1.80980   2 
   0  -2  -7 -2.1646 3.33494   4 
   0  -2  -7 0.06210 4.81754   3 
   0   2  -7 0.88783 2.94020   3 
  -1  -2  -7 518.326 29.8819   4 
   1   2  -7 540.089 29.0987   3 
  -1   2   7 500.955 29.7028   4 
  -1  -2  -7 578.719 31.6451   3 
  -1  -2  -7 495.778 29.7844   2 
   1  -2   7 518.762 29.1281   1 
   1  -2   7 506.111 29.3333   3 
  -1   2  -7 546.763 29.6458   3 
   1   2   7 550.976 30.2576   2 
  -1  -2   7 512.146 29.3456   1 
   1  -2  -7 529.345 30.0009   4 
   1  -2  -7 487.780 29.6659   2 
  -1  -2   7 489.830 28.6648   2 
   1  -2  -7 533.670 30.9374   3 
   1   2   7 481.985 29.6527   4 
   2  -2   7 289.466 19.1260   2 
   2   2  -7 375.037 19.3840   3 
  -2  -2  -7 351.222 20.4873   4 
   2  -2   7 343.889 20.3258   3 
  -2  -2  -7 336.548 20.5312   2 
   2  -2   7 360.945 19.4226   1 
  -2   2   7 354.292 20.2220   4 
   2   2   7 342.635 20.3451   4 
   2  -2  -7 319.319 20.0969   2 
   2   2   7 322.397 20.3437   1 
  -2  -2   7 337.070 19.3119   2 
  -2  -2   7 340.195 19.8787   1 
   3  -2   7 3.03382 5.69666   3 
  -3  -2  -7 4.39044 3.89983   2 
  -3  -2  -7 1.38958 5.50050   3 
   3   2  -7 0.66050 2.61460   3 
   3  -2   7 1.59710 2.66700   2 
  -3   2   7 2.70535 5.67725   4 
   3   2   7 1.81673 4.43092   2 
   3   2   7 -0.8403 5.34025   1 
   3  -2  -7 -0.5733 3.48466   4 
   3   2   7 -2.0190 2.84982   4 
   3  -2  -7 3.96930 3.58797   2 
  -3  -2   7 6.04562 3.12137   1 
  -4  -2  -7 65.7716 6.90903   4 
  -4   2   7 73.4136 7.32203   4 
   4   2  -7 52.6158 5.16579   3 
  -4  -2  -7 62.4619 9.55123   3 
   4  -2   7 59.9464 7.22234   3 
  -4  -2  -7 49.9548 7.65440   2 
   4  -2   7 61.8447 6.10338   2 
  -4  -2   7 75.6486 6.28707   1 
   4   2   7 62.8369 7.35545   1 
   4   2   7 49.9748 6.94201   2 
   4   2   7 55.4808 7.61660   3 
  -4  -2   7 66.0027 6.16767   2 
   4  -2  -7 63.0982 7.13663   4 
   4  -2  -7 58.6674 6.77475   2 
  -5  -2  -7 343.653 20.8518   4 
  -5  -2  -7 352.749 22.9500   3 
   5  -2   7 346.264 21.7170   3 
  -5  -2  -7 291.021 24.2762   2 
   5  -2   7 347.292 20.1036   2 
   5   2   7 343.835 21.5232   2 
  -5  -2   7 353.129 20.6610   2 
   5   2   7 353.786 21.0218   1 
  -5  -2   7 349.765 20.4479   1 
   5  -2  -7 341.665 20.6736   4 
   5   2   7 300.844 21.7099   3 
   6  -2   7 57.2300 7.03238   2 
  -6  -2  -7 53.2196 7.40669   2 
   6  -2   7 53.5655 7.50936   3 
   6   2  -7 60.1695 4.48536   2 
  -6  -2  -7 42.8374 6.42448   4 
  -6  -2  -7 57.3774 9.44452   3 
   6  -2   7 56.5628 3.97362   1 
  -6   2   7 50.2168 6.37168   4 
   6   2  -7 65.8154 5.55468   2 
   6   2   7 33.0184 7.74948   3 
   6   2   7 50.4521 7.56493   2 
  -6  -2   7 53.9810 7.19798   2 
   6   2   7 67.1244 7.57655   1 
  -7  -2  -7 128.059 10.1971   4 
  -7   2   7 122.966 9.38011   4 
   7  -2   7 126.291 9.96688   2 
  -7  -2  -7 112.502 12.5832   3 
   7   2  -7 107.683 9.13257   2 
   7  -2   7 110.615 10.6037   3 
  -7  -2  -7 98.1057 11.0898   2 
  -7  -2   7 106.052 9.02920   1 
  -7  -2   7 108.711 10.0081   2 
   7   2   7 86.4839 10.5770   3 
   7   2   7 106.946 11.9885   2 
   7   2   7 114.853 10.3681   1 
   8   2  -7 1.72777 4.15226   3 
   8   2  -7 -3.4756 5.29637   2 
  -8  -2  -7 1.42171 5.05154   4 
   8  -2   7 2.34893 5.17874   2 
   8  -2   7 6.65449 5.28857   3 
  -8  -2  -7 -0.9321 6.74696   3 
   8  -2  -7 5.90513 4.85361   2 
   8   2   7 5.75780 6.95854   2 
  -8  -2   7 -1.8451 5.18468   2 
   8   2   7 3.71708 5.53921   3 
   8   2   7 1.93499 5.25802   1 
   9   2  -7 673.842 39.3348   2 
   9   2  -7 689.386 38.5668   3 
   9  -2   7 671.412 41.1967   2 
  -9  -2  -7 599.649 40.8040   3 
  -9  -2  -7 670.373 38.9461   4 
   9   2   7 714.635 40.6842   2 
   9  -2  -7 655.362 39.4105   2 
   9   2   7 669.467 39.1827   1 
 -10   2   7 7.48727 3.56971   1 
  10  -2   7 4.00217 6.35922   2 
  10   2  -7 10.3999 7.20462   2 
 -10  -2  -7 6.45101 7.61615   3 
 -10  -2  -7 4.27366 5.93820   4 
  10   2  -7 2.67838 4.77291   3 
  10  -2  -7 5.98602 5.81900   2 
  10   2   7 3.45804 8.34757   2 
  10   2   7 5.06810 6.09480   1 
  11  -2   7 3.88594 6.90477   2 
  11   2  -7 -0.2272 4.93380   3 
 -11  -2  -7 1.21019 5.92282   4 
 -11  -2  -7 -0.9928 8.52596   3 
  11   2  -7 -3.4146 7.21384   2 
  11  -2  -7 6.16274 5.90172   2 
  11   2   7 2.90499 6.95545   1 
  11   2   7 -0.2224 9.15272   2 
  12  -2   7 75.9927 10.4176   2 
 -12  -2  -7 57.4130 13.1343   3 
  12   2  -7 75.3258 11.3039   2 
 -12  -2  -7 83.1908 10.7251   4 
  12   2  -7 78.3852 11.4675   3 
  12   2   7 70.5297 10.2489   1 
  12  -2  -7 73.8169 10.1941   2 
  12   2   7 56.0056 12.0361   2 
 -13  -2  -7 139.078 13.6638   4 
  13  -2   7 145.024 14.9003   2 
  13   2  -7 123.245 12.7900   3 
  13   2  -7 108.147 14.6536   2 
  13  -2  -7 125.306 14.7163   2 
  13   2   7 114.069 13.0207   1 
  13   2   7 144.527 18.3185   2 
 -14  -2  -7 115.229 13.2623   4 
  14   2  -7 92.7628 13.5958   2 
  14  -2   7 119.972 14.4112   2 
  14  -2  -7 93.0650 14.1018   2 
  14   2   7 114.367 15.5820   2 
  14   2   7 99.9001 13.1755   1 
 -15  -2  -7 247.217 19.1432   4 
  15  -2   7 249.715 22.3968   2 
  15   2   7 207.222 18.6658   1 
  15  -2  -7 232.309 20.5696   2 
  15   2   7 236.862 24.0533   2 
  16   2  -7 4.61302 11.6850   2 
  16  -2   7 -3.5809 10.7791   2 
 -16  -2  -7 -0.9352 8.46565   4 
 -16   2  -7 -1.8181 1.56275   4 
  16   2   7 3.73307 10.0518   1 
  16  -2  -7 3.20975 9.01404   2 
  16   2   7 -1.1638 12.1645   2 
  17  -2   7 49.5587 13.6944   2 
 -17  -2  -7 54.9596 13.9806   4 
  17   2  -7 22.3353 12.5578   2 
  17  -2  -7 57.2847 13.7130   2 
  17   2   7 45.4228 12.4625   1 
  17   2   7 30.2144 19.7183   2 
   0  -3   7 74.9223 6.59752   1 
   0  -3  -7 82.3213 10.0986   3 
   0  -3  -7 100.315 11.2992   4 
   0   3   7 75.6546 7.86103   4 
   0  -3  -7 75.8776 8.28370   2 
   0   3   7 74.5109 8.33946   1 
  -1  -3  -7 728.394 43.4667   2 
  -1   3   7 769.551 43.5747   4 
   1  -3   7 828.107 42.6895   1 
  -1  -3  -7 768.109 44.8622   3 
   1  -3   7 715.498 41.8573   4 
   1  -3  -7 730.089 43.3243   2 
   1   3   7 764.632 43.7681   4 
   1  -3  -7 773.464 43.5504   4 
   1   3   7 786.336 43.7513   1 
  -1  -3   7 753.334 42.0333   2 
  -1  -3   7 776.959 42.9601   1 
   1  -3  -7 798.874 44.7960   3 
  -2  -3  -7 169.916 13.5551   2 
  -2   3   7 202.506 13.5196   4 
   2  -3   7 202.110 12.6765   3 
   2  -3   7 206.364 11.8302   1 
  -2  -3  -7 182.140 15.3155   3 
  -2  -3   7 193.101 12.0928   2 
  -2  -3   7 197.155 12.8218   1 
   2   3   7 197.194 13.6644   4 
   2   3   7 192.995 14.0072   1 
   2  -3  -7 192.664 13.6255   4 
   2  -3  -7 190.740 13.4086   2 
  -3  -3  -7 743.780 40.8810   4 
   3  -3   7 666.562 40.6298   3 
  -3  -3  -7 674.624 42.0563   3 
   3  -3   7 714.648 38.9619   1 
  -3  -3  -7 783.883 42.8079   2 
   3  -3   7 705.364 38.9571   2 
  -3   3   7 680.313 40.5461   4 
  -3  -3   7 689.699 40.2547   1 
  -3  -3   7 632.972 39.5994   2 
   3   3   7 714.296 40.9397   2 
   3  -3  -7 809.379 41.3472   2 
   3  -3  -7 733.716 40.6583   4 
   3   3   7 689.493 40.8447   1 
   4  -3   7 172.920 10.4189   2 
  -4  -3  -7 178.632 13.3123   4 
  -4  -3  -7 165.559 15.1665   3 
   4  -3   7 173.877 12.6643   3 
   4   3   7 189.195 14.0012   2 
  -4  -3   7 159.237 11.8274   2 
   4  -3  -7 175.396 12.8712   4 
   4   3   7 169.052 13.2055   1 
  -4  -3   7 163.011 12.1239   1 
  -5  -3  -7 80.8431 10.0498   4 
  -5  -3  -7 50.6821 10.0616   3 
   5  -3   7 53.8217 5.78331   2 
   5  -3   7 62.0913 7.74650   3 
  -5  -3   7 53.1860 6.74755   2 
  -5  -3   7 59.6588 7.17512   1 
   5  -3  -7 77.7141 8.21731   4 
   5   3   7 57.8760 8.26860   2 
   5   3   7 66.9225 10.1242   1 
  -6  -3  -7 8.29649 5.63133   4 
   6  -3   7 6.98735 3.76485   2 
  -6  -3  -7 3.59021 7.46065   3 
   6  -3   7 10.0008 4.90821   3 
   6   3   7 4.30472 6.76541   2 
  -6  -3   7 -0.2199 4.67095   2 
   6   3   7 1.41094 5.74686   1 
   6  -3  -7 6.55256 5.28052   4 
  -7  -3  -7 317.752 20.0737   4 
  -7  -3  -7 309.901 21.9831   3 
   7  -3   7 316.922 18.1769   2 
   7  -3   7 256.346 25.0330   3 
   7   3   7 305.174 19.6675   1 
   7   3   7 268.086 20.6756   2 
  -7  -3   7 243.460 19.4125   2 
   8  -3   7 52.6496 8.79044   3 
   8  -3   7 75.3385 8.55631   2 
  -8  -3  -7 59.9139 11.6886   3 
  -8  -3  -7 77.8165 9.71952   4 
   8   3   7 63.9363 10.1383   2 
   8   3   7 73.7849 9.53178   1 
  -9  -3  -7 151.303 13.6902   4 
   9  -3   7 117.391 13.2449   2 
  -9  -3  -7 132.267 15.7528   3 
   9   3   7 127.307 15.3290   2 
   9   3   7 160.569 14.9787   1 
   9  -3  -7 147.913 13.1925   2 
 -10  -3  -7 97.0971 11.6894   4 
 -10  -3  -7 84.8648 13.2009   3 
  10  -3   7 95.8713 10.7299   2 
  10   3   7 49.5561 11.9123   2 
  10  -3  -7 97.2185 11.0728   2 
  10   3   7 66.8378 12.9516   1 
 -11  -3  -7 28.6768 11.3775   4 
 -11  -3  -7 24.4436 10.9067   3 
  11  -3   7 38.4033 7.37154   2 
  11   3   7 2.06821 18.0076   2 
  11   3   7 35.7353 9.23103   1 
  12   3  -7 -2.9934 3.66619   3 
  12  -3   7 4.89515 6.88321   2 
 -12  -3  -7 -5.2810 11.0743   3 
 -12  -3  -7 -4.5945 8.20075   4 
  12   3   7 0.64592 7.38479   1 
  12  -3  -7 0.58144 6.23262   2 
  12   3   7 -5.6503 10.7442   2 
 -13  -3  -7 7.82260 8.09898   4 
  13  -3   7 34.3036 8.93992   2 
 -13  -3  -7 23.1867 14.2582   3 
  13   3   7 2.80465 7.28620   1 
  13  -3  -7 22.2880 8.25048   2 
  13   3   7 11.2267 12.5488   2 
 -14  -3  -7 37.3548 10.4009   4 
  14   3   7 25.5265 10.6989   1 
  14  -3  -7 35.5571 9.41273   2 
  14   3   7 39.6045 14.8796   2 
  15  -3   7 8.83310 9.07827   2 
 -15  -3  -7 8.88272 10.3205   4 
  15   3   7 13.5315 11.5025   1 
  15  -3  -7 16.9841 8.92549   2 
  15   3   7 13.8352 14.0417   2 
 -16  -3  -7 34.8467 13.9156   4 
  16  -3   7 37.0605 10.2869   2 
  16   3   7 37.4830 13.8954   1 
  16   3   7 29.0842 20.1729   2 
  16  -3  -7 46.1615 11.2553   2 
   0  -4   7 -0.5980 3.85775   1 
   0   4   7 1.97739 5.88340   1 
   0  -4   7 -0.3922 2.98055   2 
   0  -4  -7 2.91794 6.37779   4 
   0  -4   7 0.44131 3.46760   4 
   0  -4  -7 -2.2208 7.34516   3 
   1  -4   7 211.674 13.3699   1 
   1  -4   7 199.599 12.6486   4 
  -1   4   7 214.923 15.4541   1 
  -1  -4  -7 229.430 16.3743   4 
  -1  -4  -7 230.496 18.1975   3 
   1  -4  -7 222.960 17.3562   3 
   1   4   7 220.720 15.7418   1 
  -1  -4   7 212.654 13.7833   4 
  -1  -4   7 202.060 13.6271   2 
   1  -4  -7 217.199 15.5407   4 
  -1  -4   7 199.519 13.9698   1 
  -2  -4  -7 162.568 15.0367   3 
   2  -4   7 149.729 9.29036   1 
  -2   4   7 144.242 12.0225   1 
   2  -4   7 133.747 8.38335   4 
  -2  -4   7 140.361 11.1089   4 
   2   4   7 142.727 12.7232   1 
   2  -4  -7 158.112 12.6118   4 
  -2  -4   7 131.328 10.3926   2 
   2  -4  -7 156.106 14.7730   3 
  -2  -4   7 128.385 10.6600   1 
   3  -4   7 4.84232 4.01383   3 
  -3  -4  -7 -5.3830 6.15341   4 
  -3  -4  -7 3.25259 8.55055   3 
  -3   4   7 -6.4678 5.38951   1 
  -3  -4   7 1.48933 4.89914   2 
  -3  -4   7 4.98194 5.81894   4 
  -3  -4   7 4.51637 4.49597   1 
   3  -4  -7 3.22152 5.93468   4 
   3   4   7 -0.3174 5.91470   1 
   4  -4   7 28.9797 5.91076   3 
  -4  -4  -7 22.9677 9.86845   3 
  -4   4   7 38.9775 6.89761   1 
  -4  -4  -7 32.5828 8.32510   4 
   4  -4  -7 38.3558 7.54020   4 
  -4  -4   7 35.1426 6.08089   2 
   4   4   7 23.0161 7.72188   1 
   5  -4   7 152.463 9.84659   2 
  -5  -4  -7 156.031 14.6338   4 
  -5  -4  -7 142.782 16.4080   3 
   5  -4   7 157.440 12.4421   3 
   5  -4  -7 153.674 13.1138   4 
   5   4   7 146.126 13.6675   1 
  -6  -4  -7 28.5532 8.82815   4 
   6  -4   7 29.9255 6.64960   3 
  -6  -4  -7 19.4916 9.84074   3 
   6  -4   7 31.0214 4.32852   2 
   6   4   7 35.7594 13.1253   1 
   6  -4  -7 27.5773 7.24456   4 
  -6  -4   7 23.4404 6.54913   2 
   6   4   7 21.7319 8.91941   2 
   7  -4   7 64.9278 7.11924   2 
  -7  -4  -7 46.7355 11.6667   3 
  -7  -4  -7 59.5525 10.2722   4 
   7  -4   7 52.4664 8.85575   3 
   7   4   7 43.8350 10.2414   2 
   7   4   7 53.1783 11.0590   1 
   7  -4  -7 67.8030 8.69960   4 
   8  -4   7 5.53922 4.65760   2 
  -8  -4  -7 6.13499 10.2708   3 
  -8  -4  -7 7.24426 7.48342   4 
   8   4   7 6.37003 8.02379   1 
   8   4   7 -8.0068 9.36723   2 
   9  -4   7 401.620 24.4031   2 
  -9  -4  -7 391.713 25.9459   4 
  -9  -4  -7 331.315 27.2391   3 
   9   4   7 388.280 25.6127   1 
   9   4   7 300.177 27.8498   2 
 -10  -4  -7 0.65692 15.7578   3 
 -10  -4  -7 8.93284 9.96069   4 
  10  -4   7 -0.3401 5.68984   2 
  10  -4  -7 0.63355 6.61043   2 
  10   4   7 2.48542 10.1967   2 
  10   4   7 -0.3400 9.29170   1 
 -11  -4  -7 -1.9684 10.9080   3 
  11  -4   7 5.47695 6.15423   2 
 -11  -4  -7 10.2223 9.64647   4 
  11  -4  -7 0.46376 6.74554   2 
  11   4   7 -10.323 10.3814   2 
  11   4   7 5.76661 7.92664   1 
 -12  -4  -7 35.2542 11.8842   4 
  12  -4   7 27.8809 7.70297   2 
 -12  -4  -7 45.0813 15.5044   3 
  12   4   7 31.8875 13.9129   2 
  12   4   7 38.2981 11.8911   1 
  12  -4  -7 36.0611 8.68658   2 
  13  -4   7 86.7719 13.4646   2 
 -13  -4  -7 40.2879 10.4287   4 
  13  -4  -7 42.7514 9.36375   2 
  13   4   7 33.0106 14.7438   2 
  13   4   7 33.8618 12.1557   1 
 -14  -4  -7 37.1445 13.5726   4 
  14  -4   7 41.8275 9.25164   2 
  14   4   7 36.0870 15.2087   2 
  14   4   7 44.4301 12.1298   1 
   0  -5  -7 27.6714 11.4385   3 
   0   5   7 24.6573 8.09275   1 
   0  -5   7 16.8191 4.87860   4 
   0  -5   7 26.7145 5.33259   2 
   0  -5  -7 18.1135 8.47175   4 
   1  -5   7 250.402 16.7904   2 
  -1  -5  -7 292.336 23.3005   3 
  -1  -5  -7 287.704 21.1817   4 
   1  -5   7 289.939 16.6785   4 
  -1   5   7 284.964 19.4550   1 
   1   5   7 261.097 19.7199   1 
  -1  -5   7 267.522 17.6563   4 
   1  -5  -7 304.220 22.6170   3 
   1  -5  -7 301.905 20.8134   4 
  -2  -5  -7 75.9678 13.3692   3 
  -2  -5  -7 60.2131 10.9928   4 
   2  -5   7 60.9519 5.90526   2 
   2  -5   7 68.1012 5.32762   4 
  -2   5   7 81.1654 9.79185   1 
   2  -5  -7 69.5828 13.4487   3 
   2   5   7 59.1870 15.1413   1 
  -2  -5   7 65.4259 8.54755   2 
  -2  -5   7 67.0272 8.04251   4 
   2  -5  -7 57.8779 9.93959   4 
  -3  -5  -7 240.662 20.2068   4 
  -3  -5  -7 282.704 22.8609   3 
   3  -5   7 250.861 15.6772   2 
  -3   5   7 261.727 18.4203   1 
  -3  -5   7 256.323 18.3343   4 
   3  -5  -7 300.612 26.0584   3 
   3   5   7 277.457 20.1216   1 
   3  -5  -7 305.548 20.0879   4 
  -4  -5  -7 68.9443 13.8086   3 
  -4  -5  -7 41.8304 9.62034   4 
   4  -5   7 75.0712 7.60885   3 
  -4   5   7 78.7418 9.83021   1 
   4  -5  -7 77.7591 14.8765   3 
  -4  -5   7 57.9612 9.49777   2 
  -4  -5   7 72.8603 9.25214   4 
   4  -5  -7 84.9571 10.4344   4 
   4   5   7 61.1887 10.9146   1 
   5  -5   7 11.5409 6.37110   3 
  -5  -5  -7 13.1428 11.5601   3 
  -5  -5  -7 37.6607 14.4179   4 
  -5   5   7 24.9061 7.38400   1 
   5  -5   7 21.1745 3.68025   2 
   5   5   7 13.9284 8.88891   1 
  -5  -5   7 18.5308 8.26197   4 
   5  -5  -7 26.5161 7.99351   4 
  -6  -5  -7 -3.2623 11.5688   3 
  -6   5   7 -2.5870 6.38939   1 
  -6  -5  -7 1.98063 9.32657   4 
   6  -5   7 -1.6654 3.66113   2 
  -6  -5   7 -2.8347 8.46385   4 
   6   5   7 -2.8850 8.95095   1 
   6  -5  -7 -2.7586 7.04986   4 
  -7  -5  -7 78.7622 12.8358   4 
  -7  -5  -7 79.0037 18.5270   3 
   7  -5   7 109.738 9.34685   2 
  -7   5   7 120.302 10.3530   1 
  -7  -5   7 83.4451 18.9228   4 
   7  -5  -7 93.3107 11.4987   4 
   7   5   7 117.498 14.7075   1 
  -8  -5  -7 16.0989 10.1367   4 
  -8   5   7 -1.5567 3.00791   1 
  -8  -5  -7 22.6764 13.5087   3 
   8   5   7 8.02813 9.68940   1 
  -8  -5   7 9.62000 10.3296   4 
  -9  -5  -7 31.2000 14.5522   3 
   9  -5   7 58.4235 7.51085   2 
  -9  -5  -7 46.9521 12.6396   4 
   9   5   7 35.0540 11.6090   1 
  -9  -5   7 60.0418 12.9896   4 
 -10  -5  -7 33.8294 15.7534   4 
 -10  -5  -7 37.4302 14.5726   3 
  10  -5   7 32.3595 7.03129   2 
  10   5   7 11.6362 16.0007   1 
  10  -5  -7 22.9543 7.79870   2 
 -11   5   7 -7.6336 3.36386   1 
 -11  -5  -7 4.44121 8.78034   4 
  11  -5   7 13.9437 6.60457   2 
  11  -5  -7 1.56921 8.44749   2 
  11   5   7 19.4865 10.9515   1 
   0   6   7 -21.692 8.41877   1 
   0  -6  -7 7.75982 12.9823   3 
   0  -6   7 -2.4096 5.69948   4 
   0  -6  -7 -0.4313 9.13988   4 
  -1   6   7 61.9743 10.1468   1 
  -1  -6  -7 70.8266 15.8839   3 
  -1  -6  -7 64.5856 11.5749   4 
   1  -6  -7 87.3242 16.5796   3 
   1  -6  -7 32.0948 10.8305   4 
  -1  -6   7 63.2172 7.61563   4 
  -2  -6  -7 32.8645 11.3677   4 
  -2   6   7 53.4582 9.28110   1 
  -2  -6  -7 41.2933 15.1547   3 
   2  -6  -7 26.8487 10.3647   4 
   2  -6  -7 48.6687 15.8106   3 
  -2  -6   7 39.4360 7.19592   4 
   2   6   7 57.2228 11.5476   1 
  -3  -6  -7 6.51603 13.6894   3 
  -3   6   7 5.28901 7.57406   1 
  -3  -6  -7 -12.694 9.42422   4 
   3   6   7 6.96662 9.94069   1 
   3  -6  -7 -2.0164 8.36832   4 
  -3  -6   7 -6.5118 5.85903   4 
  -4  -6  -7 3.34993 10.7711   4 
  -4  -6  -7 19.3870 12.9693   3 
  -4  -6   7 1.61311 8.00314   4 
   4   6   7 -3.9053 9.67733   1 
   4  -6  -7 12.6577 8.43246   4 
   4  -6  -7 8.89371 13.7989   3 
  -5  -6  -7 33.6700 12.9271   4 
  -5  -6  -7 61.4236 15.2070   3 
   5  -6  -7 69.6471 17.3742   3 
   5  -6  -7 40.2077 9.69812   4 
   5   6   7 45.2822 12.2390   1 
  -5  -6   7 55.0343 9.71466   4 
   0   0  -8 846.914 44.9871   3 
   0   0  -8 795.800 43.5552   2 
   0   0   8 774.562 43.7540   2 
   0   0  -8 736.273 43.4543   4 
   1   0  -8 172.869 10.8558   2 
   1   0  -8 175.084 12.1171   3 
   1   0   8 180.746 11.3920   2 
  -1   0   8 174.149 10.6489   4 
  -1   0  -8 174.347 13.6829   3 
  -1   0  -8 175.356 10.9003   2 
  -1   0   8 167.708 11.1803   2 
   1   0   8 162.879 10.4416   4 
  -1   0  -8 175.834 10.6187   4 
  -2   0  -8 598.071 32.9582   2 
   2   0   8 620.072 34.0979   3 
  -2   0  -8 565.628 32.5097   4 
  -2   0   8 546.669 32.7292   4 
  -2   0  -8 596.407 34.4531   3 
   2   0  -8 585.915 33.6971   3 
   2   0   8 583.631 33.1349   2 
   2   0  -8 591.007 32.8597   2 
   2   0   8 591.464 32.5735   4 
  -3   0   8 81.6507 6.62385   4 
   3   0  -8 94.3650 6.85113   2 
  -3   0  -8 82.6266 7.34343   2 
  -3   0  -8 88.7079 6.20584   4 
   3   0   8 81.5796 6.13836   4 
   3   0   8 74.9816 7.81136   3 
   3   0  -8 85.4676 7.23562   2 
  -3   0  -8 97.9172 9.34010   3 
   3   0   8 89.1801 7.77818   2 
   4   0  -8 135.163 9.18836   2 
  -4   0  -8 138.771 8.70195   4 
   4   0   8 135.128 10.3422   2 
  -4   0  -8 137.201 11.7935   3 
  -4   0  -8 152.330 12.4844   2 
   4   0  -8 132.262 9.99801   2 
   4   0   8 113.925 10.5520   3 
  -5   0  -8 71.0657 5.58585   4 
  -5   0  -8 59.0316 8.91423   3 
   5   0   8 64.1299 6.36177   1 
  -5   0   8 65.5126 6.33879   4 
   5   0  -8 71.6280 6.50250   2 
  -5   0  -8 59.3636 7.53154   2 
   5   0  -8 72.1754 7.44694   2 
   5   0   8 72.8264 8.15162   2 
   5   0   8 70.8604 8.29254   3 
  -6   0  -8 22.7908 3.66599   4 
  -6   0   8 38.3029 4.98934   4 
   6   0   8 24.3679 5.61371   2 
   6   0  -8 27.7838 5.24097   2 
  -6   0  -8 17.7338 6.26310   3 
  -6   0  -8 25.9963 5.24876   2 
   6   0   8 20.0261 5.29581   3 
   6   0   8 31.3293 4.68339   1 
  -7   0   8 18.8151 5.18199   1 
   7   0   8 11.3011 4.43416   1 
  -7   0  -8 15.2434 3.54554   4 
  -7   0  -8 16.9746 6.31348   3 
   7   0   8 23.1132 8.45689   2 
   7   0  -8 14.1869 5.24114   2 
  -7   0  -8 16.8007 5.38710   2 
   7   0   8 25.0760 10.0781   3 
  -7   0   8 19.3992 6.98877   4 
  -8   0  -8 1839.40 94.4402   4 
   8   0   8 1873.09 95.9983   2 
   8   0  -8 1784.54 95.7186   2 
  -8   0   8 1670.65 94.7922   1 
   8   0   8 1514.82 96.9931   3 
   8   0   8 1706.22 95.4932   1 
  -8   0   8 1756.65 95.1999   4 
  -8   0  -8 1645.86 96.7458   3 
   9   0  -8 3.63643 5.24792   2 
   9   0   8 6.62349 6.92562   2 
  -9   0  -8 1.52503 5.34224   2 
  -9   0  -8 0.98854 3.63342   4 
   9   0   8 0.85290 4.48262   1 
  -9   0   8 5.10199 3.74180   1 
  -9   0  -8 -0.4617 7.33136   3 
 -10   0  -8 0.09111 5.53057   2 
 -10   0  -8 0.32059 3.86249   4 
  10   0   8 -0.7513 6.57342   2 
 -10   0  -8 2.93546 7.70060   3 
  10   0   8 5.96166 4.80748   1 
  10   0  -8 0.21148 5.73175   2 
  11   0  -8 1.14977 6.42419   2 
 -11   0  -8 10.6045 11.3860   2 
 -11   0  -8 4.98397 5.68897   4 
  11   0   8 1.31195 4.99002   1 
  11   0   8 8.47843 8.44611   2 
  12   0  -8 12.3416 8.19072   2 
  12   0   8 23.4815 9.75270   2 
  12   0   8 9.66648 5.55521   1 
 -12   0  -8 6.13160 5.26629   4 
 -12   0  -8 -10.525 6.80443   2 
 -13   0  -8 666.142 37.1657   4 
  13   0   8 632.814 37.3755   1 
  13   0  -8 617.013 40.3204   2 
  13   0   8 647.939 40.6195   2 
 -14   0  -8 8.10446 6.19316   4 
  14   0  -8 22.3064 11.0644   2 
  14   0   8 12.7223 7.05412   1 
  14   0   8 52.3833 12.2997   2 
  15   0   8 10.4500 7.52417   1 
  15   0  -8 16.4725 10.6077   2 
 -15   0  -8 33.9952 6.44622   4 
  15   0   8 14.6183 10.4017   2 
  16   0   8 3.26534 8.00794   1 
  16   0  -8 -0.0936 10.7457   2 
  16   0   8 2.71160 12.1034   2 
  17   0  -8 45.4586 13.0909   2 
  17   0   8 43.2646 9.79845   1 
  17   0   8 31.0528 13.5124   2 
  18   0   8 97.1868 18.1303   2 
  18   0  -8 106.319 22.2758   2 
   0  -1   8 1.79199 2.54724   2 
   0  -1  -8 -0.5923 2.71296   4 
   0  -1  -8 0.21947 2.99614   2 
   0   1   8 2.93776 2.67166   4 
   0  -1  -8 3.17795 5.14783   3 
   0  -1   8 0.56121 1.73278   4 
   0   1   8 -4.3201 3.37438   2 
   0   1  -8 4.40903 4.06730   3 
  -1  -1  -8 192.765 12.4714   2 
  -1   1   8 187.015 11.9289   4 
   1  -1   8 200.811 11.8094   2 
   1   1  -8 196.151 12.7029   3 
  -1  -1  -8 195.527 14.1310   3 
  -1  -1  -8 189.031 12.0546   4 
   1  -1   8 179.750 11.0076   4 
   1  -1   8 195.363 13.4899   3 
   1  -1  -8 194.823 13.7630   3 
  -1  -1   8 187.414 11.3518   4 
   1   1   8 196.511 12.8924   2 
  -1  -1   8 185.686 11.6989   2 
  -1   1  -8 186.679 13.0975   3 
   1  -1  -8 196.106 12.2154   2 
   1  -1  -8 187.422 12.1827   4 
   1   1   8 187.898 11.9964   4 
   2  -1   8 295.812 17.1213   2 
   2  -1   8 288.229 16.2860   4 
  -2  -1  -8 290.666 20.4864   3 
  -2  -1  -8 296.143 17.3318   4 
   2   1  -8 274.583 16.6852   2 
   2   1  -8 301.770 16.3648   2 
   2   1  -8 284.238 17.6446   3 
  -2  -1  -8 295.298 17.7053   2 
   2  -1   8 280.986 17.9351   3 
  -2   1  -8 296.727 18.5451   3 
   2   1   8 277.107 17.1385   4 
   2  -1  -8 290.146 17.5008   4 
  -2  -1   8 283.716 16.8528   4 
   2  -1  -8 311.716 17.5617   2 
   2   1   8 294.304 18.0433   2 
  -3  -1  -8 14.7837 3.68569   4 
   3   1  -8 16.2041 4.43041   3 
   3  -1   8 19.8191 5.13803   3 
  -3  -1  -8 14.3111 4.17306   2 
   3  -1   8 16.2628 3.80469   2 
   3   1  -8 12.3625 3.44537   2 
  -3  -1  -8 13.3158 5.80465   3 
   3   1  -8 12.9186 2.55240   2 
  -3   1   8 12.0859 3.45122   4 
   3  -1  -8 18.4549 3.83463   4 
  -3   1  -8 19.3413 5.38020   3 
   3   1   8 8.73740 4.05326   3 
   3   1   8 15.7627 3.58901   4 
   3   1   8 14.6865 4.45075   2 
  -3  -1   8 13.5288 2.94193   4 
   4  -1   8 627.798 34.9896   2 
  -4   1   8 646.247 35.1166   4 
   4   1  -8 579.104 34.9616   2 
  -4  -1  -8 640.375 37.0533   3 
  -4  -1  -8 623.699 34.8602   4 
   4   1  -8 631.443 34.2191   2 
   4  -1   8 594.797 36.1777   3 
   4   1   8 629.264 35.1715   1 
   4  -1  -8 604.791 34.9231   2 
   4   1   8 657.515 35.8484   2 
  -4  -1   8 617.132 34.9262   1 
  -4   1  -8 672.787 36.6121   3 
   4   1   8 515.029 35.9610   3 
   5   1  -8 314.919 20.4930   2 
  -5  -1  -8 335.582 19.8937   4 
   5  -1   8 346.673 20.4332   2 
  -5  -1  -8 343.841 20.7141   2 
   5  -1   8 304.215 21.3524   3 
   5   1  -8 342.297 19.2660   2 
  -5   1   8 350.652 20.1631   4 
  -5   1  -8 306.751 18.4113   4 
   5   1   8 346.163 20.3749   1 
  -5  -1   8 317.034 19.8441   1 
   5   1   8 390.748 21.9917   2 
   5  -1  -8 328.669 19.9575   2 
  -6  -1  -8 121.940 12.7709   3 
   6  -1   8 138.425 11.2406   2 
   6  -1   8 134.235 9.18228   1 
   6   1  -8 141.155 11.5755   2 
   6  -1   8 113.442 11.5390   3 
  -6  -1  -8 142.243 11.2667   2 
  -6  -1  -8 146.871 10.0502   4 
  -6   1  -8 143.830 12.2422   3 
  -6   1  -8 137.183 7.99677   4 
  -6   1  -8 142.514 9.14914   2 
   6  -1  -8 134.652 10.9060   2 
  -6  -1   8 142.030 9.83949   1 
   6   1   8 143.291 12.1173   2 
   6   1   8 153.114 10.6625   1 
   6   1   8 103.965 11.4870   3 
   7  -1   8 450.185 29.6131   3 
  -7  -1  -8 555.703 32.2606   3 
  -7   1   8 468.829 27.6506   4 
   7   1  -8 456.364 28.4110   2 
  -7  -1  -8 474.872 28.3707   2 
  -7  -1  -8 474.114 27.3864   4 
   7  -1   8 487.233 28.2046   2 
   7  -1   8 454.556 26.5319   1 
  -7  -1   8 394.526 27.0407   1 
   7   1   8 469.494 28.9017   2 
   7  -1  -8 464.728 28.1497   2 
  -7   1  -8 465.615 25.8257   4 
  -7   1  -8 485.942 26.8819   2 
   7   1   8 481.592 27.6930   1 
  -7   1  -8 460.632 29.3306   3 
  -8  -1  -8 262.350 20.5510   3 
  -8  -1  -8 280.817 17.5788   4 
   8  -1   8 303.907 24.2398   2 
  -8   1   8 262.650 19.1239   4 
   8  -1   8 276.824 16.6039   1 
   8  -1   8 253.996 19.5911   3 
  -8   1  -8 279.057 15.8458   4 
   8  -1  -8 293.122 18.8842   2 
   8   1   8 293.654 18.0484   1 
   8   1   8 292.984 20.1802   2 
   8   1   8 222.160 19.6425   3 
  -8   1  -8 303.915 17.5368   2 
  -8   1  -8 288.875 20.2389   3 
  -9   1   8 5.57644 3.20352   1 
  -9  -1  -8 9.13349 4.90590   4 
  -9  -1  -8 1.58976 6.11607   2 
   9  -1   8 6.36239 3.93839   1 
  -9  -1  -8 8.69690 7.11111   3 
   9   1  -8 2.47539 6.59637   2 
   9  -1   8 4.01123 6.37939   2 
   9  -1  -8 3.75752 5.03920   2 
  -9   1  -8 8.96312 2.86818   4 
   9   1   8 7.16502 5.19109   1 
   9   1   8 10.9153 7.74760   2 
  -9   1  -8 8.00372 5.55901   2 
 -10  -1  -8 5.80117 6.66903   3 
 -10  -1  -8 6.93356 5.39258   4 
  10  -1   8 16.9198 7.51803   2 
  10  -1   8 12.0028 4.40928   1 
  10   1  -8 14.4873 7.59606   2 
  10   1   8 8.60638 6.15094   1 
 -10   1  -8 10.5363 3.16086   4 
 -10   1  -8 10.5571 7.14492   2 
  10  -1  -8 10.6594 5.93198   2 
  10   1   8 4.31139 7.99764   2 
  11  -1   8 14.8102 8.03498   2 
 -11  -1  -8 4.69192 9.05591   3 
  11  -1   8 12.8276 4.88746   1 
  11   1  -8 3.25133 7.93181   2 
 -11  -1  -8 4.70668 5.47214   4 
  11  -1  -8 5.90774 6.21380   2 
  11   1   8 4.36770 8.28196   2 
 -11   1  -8 7.62407 3.26521   4 
  11   1   8 6.20911 5.72036   1 
  12  -1   8 11.6169 8.44332   2 
 -12  -1  -8 7.00510 5.76129   4 
  12   1  -8 6.75916 8.96670   2 
  12  -1   8 4.85199 7.56747   1 
 -12  -1  -8 3.56170 9.79525   3 
 -12   1  -8 14.8975 3.10597   4 
  12   1   8 16.8259 7.43144   1 
  12   1   8 14.7838 9.72411   2 
  12  -1  -8 9.71701 6.86781   2 
 -13  -1  -8 38.4493 7.96342   4 
  13  -1   8 57.8386 7.53794   1 
  13  -1   8 45.2616 9.65129   2 
  13   1  -8 60.0160 12.1347   2 
  13   1   8 51.2942 8.59278   1 
  14  -1   8 303.830 18.0422   1 
 -14  -1  -8 272.088 19.3108   4 
  14   1  -8 258.689 24.2873   2 
  14   1   8 231.588 19.2728   1 
  14  -1  -8 270.150 21.9274   2 
  14   1   8 286.869 23.9908   2 
  15  -1   8 13.6348 6.85239   1 
  15  -1   8 14.7168 9.72332   2 
  15   1  -8 17.4346 11.3185   2 
 -15  -1  -8 6.38736 7.90322   4 
  15  -1  -8 19.7270 9.97143   2 
  15   1   8 11.7048 12.8368   2 
  15   1   8 14.6364 8.72801   1 
 -16  -1  -8 74.8101 11.2227   4 
  16   1  -8 85.3309 14.5665   2 
  16  -1   8 141.147 18.8975   2 
  16   1   8 104.830 12.9309   1 
  16   1   8 105.530 16.6905   2 
  16  -1  -8 114.566 15.1501   2 
  17   1  -8 28.4842 12.5771   2 
  17  -1   8 29.6521 12.7285   2 
 -17  -1  -8 33.6265 8.92097   4 
  17   1   8 49.7469 11.6056   1 
  17   1   8 55.3264 23.6400   2 
  17  -1  -8 38.3963 13.6312   2 
   0  -2  -8 545.934 31.7145   4 
   0  -2   8 509.560 30.3887   4 
   0   2   8 552.392 31.7451   4 
   0  -2   8 545.590 30.4681   2 
   0  -2   8 565.007 31.2934   1 
   0  -2  -8 545.185 31.8164   2 
   0  -2  -8 553.694 33.0688   3 
   0   2  -8 604.692 31.6677   3 
  -1   2   8 134.522 10.2555   4 
   1   2  -8 156.464 10.0290   3 
   1  -2   8 126.646 8.29011   4 
   1  -2   8 148.674 9.00495   2 
  -1  -2  -8 142.290 10.7338   4 
   1  -2   8 146.161 9.98270   3 
  -1  -2  -8 136.520 10.7109   2 
  -1  -2  -8 159.454 12.9634   3 
   1  -2  -8 154.865 12.5550   3 
  -1   2  -8 163.608 10.7089   3 
   1   2   8 138.766 10.2483   4 
   1   2   8 140.585 11.4621   2 
   1  -2  -8 139.158 10.5166   2 
  -1  -2   8 149.552 9.85497   1 
   1  -2  -8 136.305 10.4967   4 
  -2  -2  -8 434.573 27.4644   3 
   2  -2   8 447.504 24.6398   2 
  -2  -2  -8 427.338 25.8323   4 
   2  -2   8 413.387 25.8172   3 
  -2   2   8 452.305 25.6969   4 
   2   2  -8 446.944 25.1520   3 
  -2  -2  -8 438.277 26.0596   2 
   2  -2  -8 446.215 25.8071   4 
   2  -2  -8 436.690 25.7167   2 
   2   2   8 434.420 25.7467   4 
  -2  -2   8 452.741 25.4761   1 
  -2   2  -8 473.219 26.1744   3 
   2   2   8 395.358 26.1358   2 
  -3  -2  -8 68.9304 8.09106   2 
  -3  -2  -8 68.5045 9.84398   3 
   3  -2   8 58.8731 6.07037   2 
   3  -2   8 64.8517 7.21586   3 
  -3  -2  -8 65.3581 7.30711   4 
   3   2  -8 58.5981 6.01976   3 
   3   2   8 61.8266 8.22226   2 
   3   2   8 62.3042 7.61560   1 
   3  -2  -8 102.911 10.1932   4 
  -3  -2   8 54.5839 5.76556   2 
   3  -2  -8 63.5990 7.89149   2 
  -3  -2   8 64.0690 6.18372   1 
   3   2   8 53.3763 6.59623   4 
  -4  -2  -8 100.436 8.93213   4 
   4  -2   8 88.8572 7.71216   2 
  -4  -2  -8 84.4092 11.2925   3 
  -4   2   8 95.7253 7.96699   4 
   4  -2   8 84.7337 8.75251   3 
   4   2  -8 83.8437 7.08050   3 
   4   2   8 93.8378 10.0468   2 
   4  -2  -8 93.9150 9.05498   2 
  -4  -2   8 93.7086 7.54428   2 
   4  -2  -8 90.2140 8.65024   4 
   4   2   8 90.2618 8.96924   1 
  -4  -2   8 87.6710 7.78168   1 
  -5  -2  -8 40.4507 7.85154   3 
   5  -2   8 52.4365 7.81667   3 
  -5   2   8 56.9654 6.75268   4 
   5  -2   8 53.2532 7.02393   2 
   5   2  -8 52.8406 5.78649   3 
  -5  -2  -8 68.8042 7.67010   4 
  -5  -2  -8 61.0894 7.74027   2 
   5  -2  -8 55.9912 7.29034   2 
   5   2   8 66.1074 7.95755   1 
   5  -2  -8 62.1351 6.83528   4 
   5   2   8 47.4504 8.27385   3 
  -5  -2   8 63.9644 6.74609   2 
  -5  -2   8 65.0289 8.72531   1 
   5   2   8 63.5766 8.12230   2 
  -6   2   8 21.7401 6.57039   4 
   6  -2   8 18.4608 5.03185   2 
  -6  -2  -8 14.8985 6.00921   2 
   6  -2   8 15.5599 5.97993   3 
  -6  -2  -8 6.33266 6.64571   3 
  -6  -2  -8 17.0240 5.75356   4 
   6  -2   8 17.8698 2.92755   1 
   6   2   8 14.0603 5.67173   1 
   6   2   8 17.0563 6.60734   2 
  -6  -2   8 9.98997 4.11961   1 
   6  -2  -8 21.8937 5.17108   2 
  -6  -2   8 13.7545 4.60696   2 
   6   2   8 19.1647 8.42287   3 
   7   2  -8 11.1325 4.34266   2 
  -7  -2  -8 5.23001 6.30208   3 
   7   2  -8 15.6033 3.14514   2 
   7  -2   8 13.5258 2.57136   1 
  -7  -2  -8 10.8638 5.64595   4 
   7  -2   8 7.45509 5.80239   3 
   7  -2   8 17.0566 5.34741   2 
   7   2   8 -1.6493 6.48881   3 
   7   2   8 10.2546 6.91360   2 
   7   2   8 12.9116 5.91897   1 
  -7  -2   8 21.5115 7.11632   2 
   8   2  -8 1265.32 73.7613   2 
   8  -2   8 1394.24 74.4383   2 
  -8  -2  -8 1406.76 74.5946   4 
   8  -2   8 1307.97 72.3967   1 
  -8  -2  -8 1353.77 76.7842   3 
   8  -2   8 1159.32 75.8260   3 
   8   2   8 1356.98 74.7091   1 
   8  -2  -8 1403.30 75.1115   2 
  -8  -2   8 1336.85 75.0715   2 
   8   2   8 1354.82 75.6969   2 
   9   2  -8 0.28177 6.10673   2 
  -9  -2  -8 3.47203 8.64087   3 
   9  -2   8 1.32765 6.13663   2 
  -9  -2  -8 6.94692 5.70007   4 
   9   2   8 8.04929 8.49094   2 
   9   2   8 2.14888 5.91720   1 
   9  -2  -8 0.38768 5.05510   2 
  10   2  -8 -1.7068 6.40383   2 
  10   2  -8 3.80326 5.00669   3 
 -10  -2  -8 1.19014 7.44509   3 
 -10  -2  -8 0.25230 5.81284   4 
  10  -2   8 -2.0203 6.44384   2 
  10   2   8 3.50147 6.47066   1 
  10   2   8 4.11974 8.91546   2 
  10  -2  -8 -2.3589 5.77796   2 
 -11  -2  -8 2.29959 7.04363   4 
 -11  -2  -8 -1.1950 8.39081   3 
  11   2  -8 17.3197 5.68614   3 
  11  -2   8 0.62419 6.92657   2 
  11   2  -8 5.43386 7.29127   2 
  11   2   8 1.96024 6.37417   1 
  11   2   8 7.30313 9.83139   2 
  11  -2  -8 0.60594 6.08036   2 
 -12  -2  -8 5.31609 7.00848   4 
 -12  -2  -8 -10.676 15.7395   3 
  12  -2   8 1.62159 7.79257   2 
  12   2  -8 8.12152 8.37764   2 
  12   2   8 4.34442 15.1155   2 
  12   2   8 7.89250 8.40076   1 
  13   2  -8 372.113 29.2709   2 
 -13  -2  -8 492.913 28.8727   4 
  13   2  -8 398.964 28.6840   3 
 -13  -2  -8 444.636 31.7243   3 
  13  -2   8 497.241 29.7759   2 
  13  -2  -8 445.419 29.3118   2 
  13   2   8 410.839 27.9906   1 
  13   2   8 444.522 32.5293   2 
  14   2  -8 20.5655 10.2021   2 
 -14  -2  -8 14.9924 8.60182   4 
  14  -2  -8 23.9078 8.84053   2 
  14   2   8 6.85052 12.4042   2 
  14   2   8 20.3526 9.87520   1 
  15  -2   8 18.2754 10.2150   2 
 -15  -2  -8 17.8341 8.73166   4 
  15   2   8 8.81005 13.2071   2 
  15  -2  -8 4.70286 8.46471   2 
  16   2  -8 15.5687 10.5894   2 
 -16  -2  -8 1.60369 8.53211   4 
  16  -2   8 4.02554 10.6024   2 
  16   2   8 2.10265 13.7009   2 
  16  -2  -8 5.35810 9.81846   2 
  16   2   8 15.1940 10.3240   1 
 -17  -2  -8 18.1976 10.8899   4 
  17   2  -8 60.8604 12.3047   2 
  17  -2   8 18.8275 11.1720   2 
  17  -2  -8 32.9958 11.8439   2 
  17   2   8 23.5548 15.6434   2 
  17   2   8 24.5718 13.6044   1 
   0  -3  -8 2.61889 5.94634   3 
   0  -3  -8 -0.5774 8.34007   4 
   0  -3   8 -0.1283 3.35642   1 
   0   3   8 -2.8411 4.85642   1 
  -1  -3  -8 109.703 12.4675   3 
   1  -3   8 106.132 7.87695   1 
   1  -3   8 99.5319 6.49110   4 
  -1  -3  -8 154.627 13.1467   4 
  -1  -3   8 97.8796 8.31500   1 
   1  -3  -8 91.3484 9.72257   4 
  -1  -3   8 99.9304 6.95299   2 
   1  -3  -8 103.822 11.9870   3 
   1   3   8 111.081 10.1180   1 
   2  -3   8 163.741 10.5695   1 
  -2  -3  -8 164.950 14.9336   3 
  -2  -3  -8 173.895 13.0558   4 
   2  -3   8 161.288 11.1946   3 
   2   3   8 165.990 12.9526   1 
  -2  -3   8 158.684 11.5386   1 
   2  -3  -8 171.318 14.2512   3 
   2  -3  -8 167.543 12.7123   4 
  -3  -3  -8 4.43478 7.13246   3 
   3  -3   8 10.4744 4.93180   2 
   3  -3   8 7.29169 2.85552   1 
  -3  -3  -8 6.26048 5.57332   4 
  -3  -3   8 10.2339 3.48293   2 
   3   3   8 6.79497 6.09438   2 
  -3  -3   8 9.40802 4.35714   1 
   3   3   8 6.25335 5.47506   1 
   3  -3  -8 3.33038 5.08797   4 
   4  -3   8 363.945 22.4982   3 
  -4  -3  -8 374.758 22.6652   4 
   4  -3   8 343.539 19.7219   1 
   4  -3   8 364.674 20.4674   2 
  -4  -3  -8 364.377 24.6983   3 
  -4  -3   8 337.204 21.8783   2 
   4   3   8 356.506 23.1966   2 
   4   3   8 359.209 22.7175   1 
  -4  -3   8 345.666 21.8550   1 
  -5  -3  -8 233.609 16.6713   4 
   5  -3   8 206.211 12.7407   2 
   5  -3   8 200.005 14.8060   3 
  -5  -3  -8 186.447 17.1291   3 
   5   3   8 193.730 14.9753   1 
  -5  -3   8 177.293 13.8527   1 
  -5  -3   8 198.612 13.6793   2 
   5   3   8 189.421 15.9629   2 
   5  -3  -8 196.210 14.7431   4 
   6  -3   8 90.9099 7.90621   2 
   6  -3   8 76.8960 8.90044   3 
  -6  -3  -8 85.9618 12.4499   3 
  -6  -3  -8 56.8420 7.94916   4 
  -6  -3   8 70.3091 10.0242   2 
   6  -3  -8 79.0690 9.29014   4 
   6   3   8 62.2375 9.56476   2 
   6   3   8 66.3349 9.43385   1 
   7  -3   8 292.827 17.2862   2 
   7  -3   8 226.549 18.9380   3 
  -7  -3  -8 267.611 18.8636   4 
  -7  -3  -8 257.879 21.2951   3 
   7   3   8 315.858 21.1994   1 
  -7  -3   8 253.628 17.9336   2 
   7   3   8 263.845 20.3831   2 
  -8  -3  -8 164.620 16.9114   3 
  -8  -3  -8 157.765 14.3570   4 
   8  -3   8 183.387 12.9805   2 
   8   3   8 137.800 13.7827   1 
   8   3   8 153.768 16.7560   2 
  -9  -3  -8 5.37998 7.46140   4 
  -9  -3  -8 1.12922 9.64593   3 
   9  -3  -8 4.52654 6.00975   2 
   9   3   8 8.43157 7.65348   1 
   9   3   8 4.36442 9.63512   2 
 -10  -3  -8 1.19761 8.07681   4 
 -10  -3  -8 11.4857 9.85352   3 
  10  -3   8 7.75201 6.66593   2 
  10   3   8 6.31046 10.8231   2 
  10   3   8 0.81934 7.36331   1 
  10  -3  -8 4.34469 9.72137   2 
 -11  -3  -8 -0.9180 8.08605   4 
  11   3  -8 -5.7294 2.98246   3 
  11  -3   8 4.91084 7.22020   2 
 -11  -3  -8 5.76956 15.4076   3 
  11  -3  -8 5.35874 7.31877   2 
  11   3   8 13.1726 11.2207   2 
  11   3   8 -0.7556 7.46518   1 
  12  -3   8 -0.2824 7.40713   2 
  12   3  -8 10.4362 5.25958   3 
 -12  -3  -8 11.2225 12.2960   3 
 -12  -3  -8 6.51952 8.64908   4 
  12   3  -8 -1.8343 1.47968   2 
  12   3   8 3.19393 7.29391   1 
  12  -3  -8 2.59929 7.12449   2 
  12   3   8 -0.5402 10.8143   2 
  13  -3   8 30.9465 9.00724   2 
 -13  -3  -8 41.3960 14.9798   3 
 -13  -3  -8 26.9081 9.08049   4 
  13   3   8 32.5890 13.3150   2 
  13   3   8 20.3691 10.1319   1 
  13  -3  -8 36.0305 9.19255   2 
 -14  -3  -8 164.320 17.9941   4 
  14  -3   8 208.200 20.7569   2 
  14   3   8 162.400 24.2453   2 
  14   3   8 191.725 18.0965   1 
  14  -3  -8 179.487 17.9649   2 
  15   3  -8 1.02699 3.14563   2 
 -15  -3  -8 1.56492 11.6457   4 
  15  -3   8 12.3582 8.61246   2 
  15  -3  -8 9.94863 14.1570   2 
  15   3   8 23.5814 13.2517   1 
  15   3   8 4.99287 14.0541   2 
   0  -4   8 200.354 12.6967   4 
   0  -4   8 202.019 13.4907   1 
   0   4   8 226.881 15.7585   1 
   0  -4  -8 198.686 17.8778   3 
   0  -4  -8 203.183 15.7354   4 
   1  -4   8 63.2284 6.59961   1 
  -1  -4  -8 83.4165 12.7346   3 
  -1  -4  -8 83.1843 9.85929   4 
   1  -4   8 72.6901 5.42115   4 
  -1   4   8 83.1463 10.1675   1 
   1  -4  -8 74.0022 11.7710   3 
   1   4   8 74.3441 9.73326   1 
  -1  -4   8 64.2666 7.39752   1 
  -1  -4   8 74.2647 7.26280   4 
  -1  -4   8 66.7156 6.75331   2 
   1  -4  -8 66.0211 8.75052   4 
   2  -4   8 171.373 11.0869   1 
  -2   4   8 191.935 14.1413   1 
  -2  -4  -8 171.157 16.8143   3 
   2  -4  -8 203.009 14.6685   4 
   2   4   8 193.388 14.8562   1 
  -2  -4   8 165.458 11.7402   2 
  -2  -4   8 178.177 12.7927   4 
  -2  -4   8 148.175 16.6049   1 
   2  -4  -8 171.616 16.7958   3 
   3  -4   8 21.6180 4.88011   3 
  -3  -4  -8 18.2297 7.63820   4 
  -3   4   8 13.1362 6.78291   1 
  -3  -4  -8 9.26140 9.63904   3 
   3   4   8 20.2556 7.53483   1 
  -3  -4   8 17.3007 5.27425   1 
  -3  -4   8 23.9814 6.47287   2 
   3  -4  -8 23.4762 9.81287   3 
   3  -4  -8 16.3337 7.10821   4 
   4  -4   8 44.6308 6.40017   3 
  -4  -4  -8 29.1784 10.9310   3 
   4  -4   8 38.0881 4.61600   2 
  -4  -4  -8 23.1787 7.06860   4 
   4   4   8 24.8892 8.26702   1 
  -4  -4   8 36.3173 6.16198   2 
   4  -4  -8 34.3837 7.44241   4 
  -5  -4  -8 42.8394 9.20192   4 
   5  -4   8 38.7285 4.56207   2 
  -5  -4  -8 35.6152 11.3588   3 
   5  -4   8 34.4653 7.05874   3 
   5  -4  -8 36.1462 7.79469   4 
   5   4   8 23.6476 8.09834   1 
  -6  -4  -8 0.67208 9.45949   3 
  -6  -4  -8 19.6691 11.1705   4 
   6  -4   8 1.04130 5.28931   3 
   6  -4   8 4.11071 3.98957   2 
   6   4   8 2.52116 10.8667   1 
   6  -4  -8 8.41926 6.38956   4 
   6   4   8 -0.9536 8.56539   2 
  -7  -4  -8 6.09394 7.57596   4 
   7  -4   8 22.7948 6.28067   3 
   7  -4   8 6.13618 4.77406   2 
  -7  -4  -8 11.4266 10.8178   3 
   7   4   8 12.5660 8.00062   1 
   7  -4  -8 11.2732 6.43525   4 
   7   4   8 8.29748 9.48696   2 
  -8  -4  -8 623.478 41.3029   3 
  -8  -4  -8 629.823 38.8692   4 
   8  -4   8 642.614 36.2684   2 
   8   4   8 583.971 45.1006   2 
  -9  -4  -8 4.98996 16.9122   3 
   9  -4   8 3.76915 7.15808   2 
  -9  -4  -8 -1.1108 8.07230   4 
   9   4   8 1.63797 10.9363   2 
   9   4   8 6.34557 9.25461   1 
  10  -4   8 -6.5430 5.61376   2 
 -10  -4  -8 5.23249 8.29261   4 
 -10  -4  -8 0.45567 11.5734   3 
  10   4   8 -8.2477 10.0055   1 
  10   4   8 -2.5920 10.8003   2 
  10  -4  -8 3.47074 7.01238   2 
 -11  -4  -8 0.70931 11.8852   3 
 -11  -4  -8 0.94801 10.1245   4 
  11  -4   8 5.77426 6.59766   2 
  11  -4  -8 4.29909 7.51228   2 
  11   4   8 4.85067 11.7161   2 
  11   4   8 2.44039 7.79280   1 
 -12  -4  -8 8.04280 8.46068   4 
 -12  -4  -8 11.2814 23.1564   3 
  12  -4   8 9.20465 7.33366   2 
  12  -4  -8 1.65090 7.17932   2 
  12   4   8 0.91625 12.6410   2 
  12   4   8 -4.3577 9.57411   1 
 -13  -4  -8 223.361 23.6976   3 
 -13  -4  -8 307.034 26.5164   4 
  13   4   8 186.506 25.6252   2 
  13   4   8 240.229 24.0017   1 
   0  -5   8 -1.7302 3.82617   2 
   0  -5   8 -3.0829 3.90264   4 
   0  -5  -8 -4.0740 11.9754   3 
   0  -5  -8 5.89766 8.41352   4 
   0   5   8 -20.304 11.1676   1 
   0  -5   8 -3.6507 4.10779   1 
  -1  -5  -8 28.1378 9.62718   4 
   1  -5   8 36.5906 4.27882   4 
  -1   5   8 36.0445 10.1024   1 
  -1  -5  -8 41.1681 12.7454   3 
  -1  -5   8 47.2291 5.50665   2 
   1  -5  -8 25.7024 8.73562   4 
   1  -5  -8 27.3030 19.7310   3 
   1   5   8 41.5289 9.54733   1 
  -1  -5   8 21.8389 6.20675   1 
  -2  -5  -8 57.4206 10.7553   4 
  -2  -5  -8 59.1538 13.6248   3 
  -2   5   8 70.8367 9.90213   1 
   2   5   8 36.2676 9.86730   1 
   2  -5  -8 49.2477 9.75738   4 
  -2  -5   8 64.6741 7.55353   4 
  -2  -5   8 49.9035 7.24470   2 
   2  -5  -8 59.2776 13.8678   3 
  -3   5   8 4.16749 7.45413   1 
  -3  -5  -8 -1.6514 12.3086   3 
  -3  -5  -8 -4.1460 8.69283   4 
   3  -5  -8 -2.5033 7.84692   4 
   3   5   8 -8.0488 7.66103   1 
   3  -5  -8 -2.0147 11.8192   3 
  -3  -5   8 2.82204 6.09190   4 
  -4   5   8 157.593 13.4589   1 
  -4  -5  -8 122.475 16.2014   4 
  -4  -5  -8 118.469 21.0633   3 
   4  -5   8 142.205 9.32076   2 
   4  -5  -8 142.905 14.5183   4 
  -4  -5   8 122.765 12.7668   4 
   4  -5  -8 175.836 18.9317   3 
   4   5   8 159.907 15.3369   1 
   5  -5   8 79.7214 7.14808   2 
  -5  -5  -8 118.054 20.9149   3 
  -5   5   8 94.6855 10.8852   1 
   5  -5  -8 91.0140 11.1930   4 
   5  -5  -8 98.0575 16.3884   3 
   5   5   8 61.5675 12.0535   1 
  -5  -5   8 79.6075 11.3071   4 
  -6  -5  -8 19.3960 10.9234   4 
  -6  -5  -8 15.0953 12.6072   3 
  -6   5   8 32.4673 8.20459   1 
   6  -5   8 32.0945 4.81629   2 
   6  -5  -8 32.4981 8.27981   4 
  -6  -5   8 24.8771 9.13445   4 
   6   5   8 27.4930 11.5398   1 
   7  -5   8 101.626 9.59195   2 
  -7   5   8 95.7819 11.3916   1 
  -7  -5  -8 97.7993 16.9040   3 
  -7  -5  -8 134.194 19.2163   4 
   7   5   8 146.815 15.6032   1 
  -7  -5   8 110.122 15.1591   4 
   7  -5  -8 109.058 12.9465   4 
  -8  -5  -8 69.8022 14.4886   4 
  -8   5   8 94.8913 9.01165   1 
   8  -5   8 63.4143 8.14786   2 
  -8  -5  -8 72.6694 15.8681   3 
   8   5   8 41.4744 12.0676   1 
  -8  -5   8 60.3021 13.1065   4 
   9  -5   8 4.35595 5.70522   2 
  -9  -5  -8 -0.5396 12.8123   3 
  -9  -5  -8 -7.5818 9.83915   4 
   9   5   8 1.86868 11.3300   1 
 -10   5   8 4.10280 2.57792   1 
 -10  -5  -8 7.37884 8.97801   4 
 -10  -5  -8 -0.5409 17.3411   3 
  10   5   8 4.84558 9.86562   1 
  10  -5  -8 -1.1389 6.92954   2 
   0   6   8 66.6360 11.5552   1 
   0  -6  -8 63.3411 11.8768   4 
  -1  -6  -8 6.96688 19.8560   3 
  -1   6   8 27.4581 13.1644   1 
  -1  -6  -8 7.60458 10.2496   4 
   1  -6  -8 53.9712 19.5830   3 
   1   6   8 21.1768 9.68458   1 
   1  -6  -8 7.07125 9.69584   4 
  -2  -6  -8 43.5023 14.0090   4 
  -2  -6  -8 43.7094 18.7499   3 
  -2   6   8 35.3499 14.1181   1 
   2   6   8 35.3630 9.94808   1 
  -2  -6   8 27.5942 6.51926   4 
   2  -6  -8 45.0335 15.4250   3 
   2  -6  -8 40.1468 10.5736   4 
  -3  -6  -8 0.14857 17.6320   3 
  -3   6   8 7.28988 8.11255   1 
  -3  -6  -8 -4.2207 13.4015   4 
  -3  -6   8 5.71654 5.72952   4 
   3  -6  -8 5.71150 10.0839   4 
   3  -6  -8 5.01533 14.8715   3 
   3   6   8 13.1891 9.78419   1 
  -4  -6  -8 1.95950 10.8850   4 
  -4  -6  -8 -22.955 19.7844   3 
  -4   6   8 25.4992 7.67113   1 
   4   6   8 24.1420 12.6503   1 
   4  -6  -8 4.24350 11.4098   4 
   4  -6  -8 5.49069 13.5013   3 
   0   0   9 4.17839 3.55147   2 
   0   0  -9 2.17240 4.70397   3 
   0   0   9 1.70415 2.37943   4 
   0   0  -9 -0.1569 2.56137   4 
   0   0  -9 -1.3897 2.91549   2 
   1   0  -9 516.018 29.6251   3 
  -1   0   9 480.904 28.2368   4 
  -1   0   9 522.345 28.7744   2 
  -1   0  -9 525.743 30.0789   3 
  -1   0  -9 493.006 28.2185   4 
   1   0   9 516.086 28.8153   2 
   1   0   9 471.687 28.0515   4 
  -1   0  -9 490.383 28.4854   2 
   2   0   9 46.2268 6.47508   2 
  -2   0  -9 50.2608 7.49102   3 
   2   0   9 40.3096 6.33597   3 
   2   0   9 49.5290 4.67086   4 
  -2   0  -9 39.5690 4.72373   4 
   2   0  -9 50.4149 7.02936   3 
  -2   0  -9 39.8652 5.23651   2 
   2   0  -9 43.9744 5.73366   2 
  -2   0   9 41.7515 4.80610   4 
   3   0   9 270.531 16.6583   4 
  -3   0  -9 286.010 16.1720   4 
   3   0  -9 276.286 16.9279   2 
   3   0  -9 278.871 16.4803   2 
   3   0  -9 323.839 18.0095   3 
   3   0   9 287.809 17.4178   2 
  -3   0  -9 205.793 22.3351   3 
   3   0   9 248.444 17.7535   3 
   4   0   9 213.552 13.8980   2 
  -4   0  -9 197.339 15.2558   3 
   4   0   9 174.857 14.0243   3 
  -4   0   9 197.530 12.8440   4 
  -4   0  -9 211.717 12.2253   4 
   4   0  -9 202.610 13.4684   2 
   4   0  -9 198.522 12.5869   2 
  -4   0  -9 192.899 13.9775   2 
   5   0  -9 51.6755 7.32685   2 
  -5   0  -9 61.1323 7.49545   2 
  -5   0  -9 80.8267 11.9500   3 
   5   0  -9 59.5748 6.33048   2 
  -5   0   9 66.3743 6.38097   4 
   5   0   9 49.1841 6.64500   2 
   5   0   9 52.8674 8.05376   3 
  -5   0  -9 57.7446 5.57183   4 
  -6   0  -9 356.569 25.1354   3 
   6   0  -9 395.503 23.9070   2 
   6   0   9 358.342 27.9268   2 
  -6   0  -9 390.903 22.2748   4 
   6   0   9 370.480 26.1871   3 
   6   0  -9 398.174 22.8895   2 
  -6   0  -9 424.529 23.7209   2 
   7   0  -9 61.1616 7.55684   2 
   7   0   9 67.3605 9.85826   2 
  -7   0  -9 66.4820 6.22728   4 
  -7   0  -9 77.2187 9.09367   2 
   7   0   9 64.3550 7.33411   1 
   7   0   9 64.7223 9.26527   3 
  -7   0  -9 44.1906 7.90033   3 
  -7   0   9 67.3924 7.16515   4 
  -8   0  -9 116.538 16.9257   2 
   8   0   9 101.836 9.01962   1 
   8   0   9 115.662 12.2008   2 
   8   0  -9 100.646 10.6858   2 
  -8   0  -9 102.407 8.20662   4 
  -8   0  -9 110.424 12.4528   3 
  -9   0  -9 267.922 20.7645   3 
  -9   0  -9 215.357 14.0753   4 
   9   0  -9 209.473 16.3764   2 
   9   0   9 227.778 17.7134   2 
  -9   0  -9 226.293 16.1886   2 
   9   0   9 204.698 14.7318   1 
  10   0  -9 3.45733 6.17374   2 
  10   0   9 2.00882 7.48409   2 
 -10   0  -9 5.24137 6.07922   2 
  10   0   9 4.77648 5.29953   1 
 -10   0  -9 2.24438 4.17288   4 
 -10   0  -9 6.09190 8.10985   3 
  11   0  -9 164.824 15.2910   2 
 -11   0  -9 141.421 17.8982   2 
  11   0   9 161.378 12.3106   1 
 -11   0  -9 148.951 16.5785   3 
 -11   0  -9 157.398 12.1108   4 
  11   0   9 174.380 16.2765   2 
  12   0  -9 350.875 24.1386   2 
  12   0   9 350.392 24.5635   2 
 -12   0  -9 320.845 20.1690   4 
 -12   0  -9 296.906 23.2761   2 
  12   0   9 321.794 20.7573   1 
  13   0   9 21.4739 10.5587   2 
  13   0  -9 7.42678 8.69541   2 
 -13   0  -9 15.3551 5.78062   4 
  13   0   9 14.9499 7.03228   1 
  14   0   9 55.2974 9.09688   1 
  14   0   9 68.7848 13.8831   2 
 -14   0  -9 85.4056 8.09059   4 
  14   0  -9 66.6611 12.2589   2 
  15   0   9 21.3547 8.64081   1 
  15   0  -9 26.0774 11.0070   2 
  15   0   9 34.8427 12.4043   2 
  16   0   9 5.27971 9.24050   1 
  16   0  -9 20.5125 11.3187   2 
 -16   0  -9 1.08036 1.58398   4 
  16   0   9 5.03037 11.0266   2 
  17   0  -9 20.0585 12.3748   2 
  17   0   9 22.0425 8.95667   1 
  17   0   9 27.1741 16.0502   2 
   0   1   9 894.713 48.1787   4 
   0  -1   9 768.835 47.2862   4 
   0  -1  -9 830.820 48.0593   4 
   0   1  -9 875.946 48.9749   3 
   0  -1  -9 865.914 49.5295   3 
   0   1   9 911.689 48.6601   2 
   0  -1   9 898.986 47.7763   2 
  -1  -1  -9 18.9756 5.76356   3 
   1  -1   9 20.7536 3.85135   2 
  -1  -1  -9 21.5534 4.09823   4 
   1   1  -9 19.6776 5.27997   3 
   1  -1   9 16.9906 2.56463   4 
  -1   1   9 17.0811 3.63919   4 
  -1   1  -9 15.0451 5.18525   3 
   1   1   9 18.5396 5.84314   4 
   1  -1  -9 26.6440 6.53855   3 
   1   1   9 17.2197 4.78485   2 
   1  -1  -9 17.4203 3.93527   4 
  -1  -1   9 21.5841 3.20792   4 
   2   1  -9 162.388 11.3869   2 
   2  -1   9 188.050 11.0417   4 
   2  -1   9 195.356 12.2952   2 
   2  -1   9 183.278 13.0566   3 
   2   1  -9 185.050 12.9621   3 
  -2  -1  -9 187.758 12.2316   4 
  -2  -1  -9 184.057 14.5118   3 
  -2   1   9 188.872 12.2085   4 
   2   1  -9 197.796 11.1124   2 
   2   1   9 200.829 14.5195   2 
   2  -1  -9 203.843 14.2103   3 
   2  -1  -9 183.512 12.5247   4 
   2  -1  -9 204.761 12.5525   2 
  -2   1  -9 188.748 13.8570   3 
  -2  -1   9 182.308 11.5978   4 
  -3  -1  -9 488.063 29.3365   3 
  -3  -1  -9 490.871 27.5784   2 
   3  -1   9 483.180 26.8993   2 
   3   1  -9 452.912 27.1540   3 
   3  -1   9 438.315 27.7698   3 
  -3   1   9 466.238 26.9940   4 
   3   1  -9 495.577 26.0675   2 
   3   1  -9 405.600 26.4224   2 
  -3  -1  -9 494.272 26.9427   4 
   3  -1  -9 477.557 26.9714   2 
   3  -1  -9 525.030 28.1503   4 
  -3  -1   9 483.548 26.5739   4 
   3   1   9 401.392 27.8682   3 
   3   1   9 451.441 28.7576   4 
   3   1   9 381.282 29.1806   2 
  -3   1  -9 519.953 28.6689   3 
  -4  -1  -9 1.41404 5.90056   3 
   4  -1   9 3.52614 4.14203   2 
   4   1  -9 6.80533 2.81947   2 
  -4   1   9 4.31647 3.29816   4 
  -4  -1  -9 2.32004 3.49891   4 
   4  -1   9 0.83509 4.28905   3 
   4   1  -9 9.38377 4.77161   3 
  -4  -1  -9 -10.492 4.46470   2 
   4   1  -9 0.66173 3.76927   2 
   4  -1  -9 4.51894 3.57429   2 
  -4  -1   9 8.54089 3.09641   4 
   4   1   9 4.64316 5.00323   2 
   4   1   9 0.67979 4.02711   3 
  -4   1  -9 5.66439 10.7842   3 
   5  -1   9 502.069 27.6581   2 
   5  -1   9 421.111 28.5447   3 
  -5  -1  -9 477.325 27.0384   4 
   5   1  -9 424.333 27.3867   2 
  -5  -1  -9 458.674 29.6182   3 
   5   1  -9 475.692 26.4087   2 
  -5   1   9 525.153 28.8153   4 
  -5  -1  -9 472.254 27.8261   2 
   5   1   9 476.699 28.3446   2 
  -5   1  -9 453.003 28.8497   3 
  -5  -1   9 489.180 27.4482   1 
   5   1   9 477.615 27.5631   1 
   5  -1  -9 449.308 27.1016   2 
  -5  -1   9 442.584 26.8859   4 
   6  -1   9 35.7553 5.97957   2 
  -6  -1  -9 23.8353 7.27269   3 
   6  -1   9 13.5860 5.53983   3 
  -6  -1  -9 32.0768 5.02778   4 
   6  -1   9 34.5221 4.68900   1 
  -6   1   9 37.1515 5.52947   4 
  -6  -1  -9 32.0161 6.07289   2 
   6   1  -9 25.2352 5.97794   2 
  -6  -1   9 23.8796 4.40246   1 
   6   1   9 25.9293 6.79997   2 
   6   1   9 31.5934 6.18291   1 
  -6   1  -9 29.8241 7.51993   3 
   6  -1  -9 23.6883 5.28327   2 
  -6   1  -9 25.7394 2.79229   4 
   6   1   9 11.0438 5.50636   3 
  -7  -1  -9 16.3243 4.77184   4 
  -7   1   9 27.2612 5.28855   4 
   7  -1   9 22.0065 4.45633   1 
   7   1  -9 26.1370 6.49070   2 
   7  -1   9 30.5331 6.63742   2 
   7   1  -9 23.3906 4.22264   2 
   7  -1   9 22.5858 7.02943   3 
  -7  -1  -9 16.0533 6.53150   3 
  -7  -1  -9 29.5408 7.26354   2 
  -7   1  -9 25.1338 4.13678   2 
  -7   1  -9 21.2173 2.46182   4 
  -7  -1   9 21.6500 4.41461   1 
  -7   1  -9 22.3955 7.79739   3 
   7   1   9 31.5375 6.10841   1 
   7   1   9 5.89510 5.01027   3 
   7   1   9 13.9591 6.57257   2 
   7  -1  -9 23.3672 5.64905   2 
   8  -1   9 425.269 24.9038   2 
  -8  -1  -9 341.862 26.1151   3 
   8   1  -9 376.216 24.9542   2 
  -8  -1  -9 369.023 23.1673   4 
   8  -1   9 392.745 22.4891   1 
  -8  -1  -9 367.290 24.5572   2 
   8  -1   9 350.938 26.8617   3 
   8   1   9 397.259 25.5791   2 
   8  -1  -9 380.502 24.4964   2 
   8   1   9 392.142 23.7147   1 
  -8   1  -9 388.328 25.8925   3 
  -8   1  -9 385.669 21.5399   4 
  -8   1  -9 429.363 22.9406   2 
   9  -1   9 132.285 13.1699   2 
   9  -1   9 132.253 9.42584   1 
  -9  -1  -9 135.942 10.7190   4 
  -9  -1  -9 105.722 12.9330   2 
  -9  -1  -9 176.318 21.2733   3 
   9   1  -9 119.252 13.4313   2 
  -9   1  -9 115.906 7.99029   4 
   9   1   9 132.798 14.4989   2 
   9  -1  -9 113.989 12.1026   2 
  -9   1  -9 130.876 10.5280   2 
   9   1   9 121.721 11.1656   1 
  10  -1   9 0.44243 4.48539   1 
 -10  -1  -9 -0.5401 7.68951   3 
  10   1  -9 -0.9695 7.06621   2 
  10  -1   9 7.42718 7.35471   2 
 -10  -1  -9 0.35074 5.39312   4 
  10   1   9 -2.2127 5.62680   1 
  10   1   9 0.68168 8.64236   2 
  10  -1  -9 -2.9372 5.76424   2 
 -10   1  -9 7.82783 2.65691   4 
  11  -1   9 26.6593 8.48174   1 
 -11  -1  -9 15.5023 10.4264   3 
 -11  -1  -9 8.68648 5.80589   4 
  11  -1   9 25.9421 8.19378   2 
  11   1  -9 30.4883 8.93984   2 
  11   1   9 18.8054 6.92739   1 
  11   1   9 24.2977 9.41155   2 
  11  -1  -9 30.1596 7.60421   2 
 -12  -1  -9 88.4073 18.3074   3 
  12  -1   9 146.489 15.9675   2 
  12  -1   9 123.185 10.1477   1 
 -12  -1  -9 122.739 11.8573   4 
  12   1  -9 138.911 15.9941   2 
  12   1   9 153.350 16.8545   2 
  12  -1  -9 132.895 14.2849   2 
  12   1   9 112.858 12.1318   1 
  13   1  -9 3.48427 10.0498   2 
  13  -1   9 -0.8209 8.79516   2 
 -13  -1  -9 1.79517 6.80989   4 
  13  -1   9 -5.7656 5.59698   1 
  13  -1  -9 2.34408 7.58052   2 
 -13   1  -9 0.72690 0.95681   4 
  13   1   9 5.75157 7.11618   1 
  13   1   9 2.99607 10.5692   2 
  14  -1   9 186.545 13.2820   1 
  14  -1   9 244.810 22.4140   2 
 -14  -1  -9 170.083 14.7753   4 
  14   1   9 161.059 20.4539   2 
  14  -1  -9 136.850 17.2866   2 
  15   1  -9 12.3756 11.2616   2 
  15  -1   9 8.77624 6.56677   1 
  15  -1   9 12.5443 9.69879   2 
 -15  -1  -9 20.4878 8.78972   4 
  15   1   9 17.9121 9.46952   1 
  15  -1  -9 11.9350 9.85235   2 
  15   1   9 10.5497 11.8237   2 
  16  -1   9 -0.8935 11.7643   2 
 -16  -1  -9 -6.2028 7.05705   4 
  16   1  -9 0.19679 11.1410   2 
 -16   1  -9 0.54406 1.69243   4 
  16  -1  -9 0.11909 9.95586   2 
  16   1   9 -0.2128 7.73714   1 
  16   1   9 -5.4077 12.7160   2 
  17  -1   9 166.320 23.3615   2 
  17   1  -9 161.638 20.5509   2 
 -17  -1  -9 160.289 13.9245   4 
  17   1   9 114.553 14.4213   1 
  17  -1  -9 95.7231 23.0357   2 
  17   1   9 172.584 21.9849   2 
   0  -2   9 -0.1332 1.93061   4 
   0  -2  -9 3.64787 4.02431   4 
   0   2  -9 4.75398 4.47768   3 
   0  -2   9 2.40629 3.11262   1 
   0  -2  -9 -0.2760 6.38451   3 
   0   2   9 3.13489 6.16027   4 
   0  -2   9 1.35800 2.76322   2 
   1  -2   9 369.154 21.1060   2 
  -1  -2  -9 359.944 22.4138   4 
   1   2  -9 394.872 22.3441   3 
   1  -2   9 343.724 20.5253   4 
  -1  -2  -9 386.150 24.5749   3 
  -1  -2   9 351.129 21.1316   4 
   1  -2  -9 368.174 24.0460   3 
  -1  -2   9 383.893 22.0169   1 
  -1   2  -9 401.413 22.8086   3 
   1   2   9 368.401 22.9393   2 
  -2  -2  -9 40.2639 6.19871   4 
   2   2  -9 34.3819 5.27704   3 
  -2  -2  -9 28.9547 6.24695   2 
   2  -2   9 39.6612 5.85632   3 
   2  -2   9 37.2758 5.11676   2 
  -2  -2  -9 32.9591 8.20284   3 
   2  -2  -9 37.4997 5.82067   2 
  -2  -2   9 36.0892 5.02899   1 
   2  -2  -9 43.5244 7.78033   3 
  -2   2  -9 46.6087 6.69482   3 
   2   2   9 36.7386 6.65434   2 
   2   2   9 45.7052 9.07219   4 
   2  -2  -9 46.7440 6.26030   4 
  -3  -2  -9 226.797 15.3355   4 
   3  -2   9 229.854 15.6792   3 
   3  -2   9 233.682 14.2629   2 
  -3  -2  -9 215.505 17.6143   3 
  -3   2   9 220.663 14.8718   4 
   3   2  -9 223.999 14.6512   3 
  -3  -2  -9 223.257 15.8175   2 
   3  -2  -9 213.978 15.2218   4 
   3  -2  -9 223.558 15.1322   2 
   3   2   9 220.102 16.1079   2 
   3   2   9 282.888 17.0514   1 
  -3  -2   9 231.151 14.7835   1 
   3   2   9 234.622 15.2649   4 
  -3   2  -9 258.784 16.3462   3 
  -4  -2  -9 143.217 12.4230   2 
  -4  -2  -9 147.996 14.6986   3 
  -4  -2  -9 154.209 11.8375   4 
   4   2  -9 134.261 10.5742   3 
  -4   2   9 162.985 11.3301   4 
   4  -2   9 164.199 10.9280   2 
   4  -2   9 151.126 12.1482   3 
  -4  -2   9 158.278 11.6284   1 
   4   2   9 150.827 12.1505   1 
   4   2   9 165.000 13.2604   2 
  -4   2  -9 175.409 13.0922   3 
   4  -2  -9 144.593 11.6449   2 
   4  -2  -9 150.189 11.7830   4 
   5  -2   9 42.7287 7.49120   3 
  -5  -2  -9 42.6768 7.23947   2 
   5  -2   9 51.4960 7.30808   2 
  -5  -2  -9 31.9984 8.48339   3 
   5   2  -9 46.5704 5.91912   3 
  -5  -2  -9 32.3420 6.25356   4 
   5  -2  -9 55.6986 6.93815   4 
   5   2   9 42.5043 7.35867   2 
   5  -2  -9 60.3647 8.46137   2 
   5   2   9 22.9484 6.77423   3 
   5   2   9 50.5756 7.59023   1 
  -5  -2   9 42.1782 6.03979   1 
  -6  -2  -9 290.845 22.3080   3 
   6  -2   9 287.660 17.4824   1 
  -6  -2  -9 294.514 19.4221   4 
   6   2  -9 293.743 18.5011   3 
   6  -2   9 275.418 20.6647   3 
   6  -2   9 330.997 19.4665   2 
   6   2   9 333.769 21.2222   2 
  -6  -2   9 338.661 21.3580   1 
   6   2   9 321.232 20.0621   1 
   7  -2   9 58.1822 7.34312   2 
  -7  -2  -9 54.8775 7.35626   4 
   7   2  -9 53.8071 5.50997   2 
   7  -2   9 46.0727 4.76985   1 
   7   2  -9 73.6337 7.75901   2 
  -7  -2  -9 56.9228 11.0367   3 
   7  -2   9 40.5965 8.02892   3 
  -7  -2   9 55.2519 8.08983   2 
   7   2   9 46.7009 8.02804   1 
   7   2   9 43.8762 8.74392   2 
   8  -2   9 85.5434 6.10660   1 
   8   2  -9 97.9052 7.12754   2 
   8  -2   9 76.9063 10.4052   2 
  -8  -2  -9 49.8463 10.6451   3 
  -8  -2  -9 89.8807 9.77970   4 
   8   2  -9 75.9509 8.66161   2 
   8   2   9 88.2629 10.3843   1 
   8  -2  -9 85.9494 10.8078   2 
   8   2   9 79.8987 11.0663   2 
   9   2  -9 143.710 12.7172   2 
  -9  -2  -9 157.239 13.4382   4 
  -9  -2  -9 159.348 17.1367   3 
   9  -2   9 167.381 14.1197   2 
   9  -2   9 155.935 9.71884   1 
   9   2  -9 185.267 12.4702   2 
   9  -2  -9 160.649 14.1573   2 
   9   2   9 151.973 13.4099   1 
   9   2   9 167.423 16.9855   2 
  10   2  -9 2.12387 9.12056   2 
 -10  -2  -9 -2.7327 8.09072   3 
 -10  -2  -9 1.35531 6.55924   4 
  10  -2   9 -0.3509 6.49323   2 
  10   2   9 -8.0244 9.52652   2 
  10   2   9 -6.9593 6.41154   1 
  10  -2  -9 3.45706 6.41373   2 
 -11  -2  -9 110.480 19.4338   3 
  11   2  -9 98.7513 13.0209   2 
 -11  -2  -9 129.497 13.4249   4 
  11   2  -9 142.878 11.1908   3 
  11  -2   9 131.901 14.2700   2 
  11   2   9 171.050 21.1567   2 
  11  -2  -9 139.576 15.7833   2 
  11   2   9 127.947 13.0962   1 
 -12  -2  -9 261.403 18.8562   4 
  12  -2   9 241.033 19.9328   2 
  12   2  -9 201.303 18.9096   2 
 -12  -2  -9 219.861 22.2921   3 
  12  -2  -9 276.542 20.6162   2 
  12   2   9 265.483 19.1861   1 
  12   2   9 311.274 23.8281   2 
 -13  -2  -9 7.84718 11.5520   4 
 -13  -2  -9 8.82040 12.0518   3 
  13   2  -9 29.0821 8.94244   2 
  13  -2   9 27.6254 9.61143   2 
  13   2   9 12.5356 11.8376   2 
  13   2   9 4.53091 8.18591   1 
  13  -2  -9 13.7741 8.42712   2 
  14  -2   9 38.8275 9.95057   2 
 -14  -2  -9 24.1788 9.37269   4 
  14  -2  -9 48.4482 10.5656   2 
  14   2   9 40.9005 11.0432   1 
  14   2   9 26.9221 13.6212   2 
  15  -2   9 12.1182 9.07905   2 
 -15  -2  -9 -4.9968 8.65757   4 
  15  -2  -9 19.7202 9.79998   2 
  15   2   9 16.2527 13.8493   2 
  15   2   9 10.4558 10.4747   1 
  16  -2   9 14.8346 11.8131   2 
 -16  -2  -9 6.34180 9.83520   4 
  16   2  -9 13.2273 7.63216   2 
  16   2   9 4.77466 10.2867   1 
   0  -3  -9 513.780 30.3940   4 
   0  -3   9 507.669 29.4179   1 
   0  -3  -9 505.565 32.0361   3 
  -1  -3  -9 8.77987 6.09219   4 
  -1  -3  -9 11.9937 8.38588   3 
   1  -3   9 6.13547 3.45229   1 
   1  -3  -9 11.1078 5.42519   4 
   1   3   9 6.71870 5.50863   1 
  -1  -3   9 10.0287 4.03409   1 
   1  -3  -9 13.3653 7.93297   3 
   2  -3   9 87.1354 7.68091   3 
   2  -3   9 77.3544 7.21032   2 
  -2  -3  -9 83.4339 12.1863   3 
  -2  -3  -9 103.201 10.3766   4 
   2  -3   9 73.8358 9.86614   1 
   2  -3  -9 88.0466 11.9667   3 
   2  -3  -9 99.2291 10.0669   4 
  -2  -3   9 92.4772 8.03500   1 
   2   3   9 74.9635 9.82359   1 
   3  -3   9 276.623 18.2873   3 
  -3  -3  -9 251.924 20.9860   3 
   3  -3   9 280.261 16.7734   1 
   3  -3   9 312.223 16.7384   2 
   3   3   9 287.233 20.0935   2 
  -3  -3   9 276.336 17.1198   2 
   3  -3  -9 290.322 19.0250   4 
  -3  -3   9 281.359 19.1147   1 
   3   3   9 293.113 19.3327   1 
   4  -3   9 1.78678 3.71038   2 
   4  -3   9 3.05611 4.83879   3 
  -4  -3  -9 4.43313 8.56794   3 
   4  -3   9 -0.5690 2.37961   1 
  -4  -3  -9 1.78211 5.96008   4 
  -4  -3   9 0.91709 3.78494   2 
   4  -3  -9 6.30070 5.71196   4 
  -4  -3   9 0.23242 4.01067   1 
   4   3   9 5.85610 6.75480   2 
   4   3   9 2.28276 6.06206   1 
  -5  -3  -9 291.369 18.9915   4 
   5  -3   9 263.260 18.7969   3 
   5  -3   9 283.734 17.0669   2 
  -5  -3  -9 269.278 21.6409   3 
  -5  -3   9 260.677 17.5223   2 
   5  -3  -9 296.244 18.8219   4 
   5   3   9 292.826 20.1957   2 
   5   3   9 257.562 19.1168   1 
   6  -3   9 11.1239 4.88832   2 
  -6  -3  -9 -0.0216 5.90362   4 
   6  -3   9 10.8644 5.86993   3 
  -6  -3  -9 8.41729 8.31995   3 
  -6  -3   9 14.5121 5.43571   2 
   6   3   9 8.20103 7.73526   2 
   6  -3  -9 10.6442 5.90557   4 
   6   3   9 5.37980 6.79406   1 
  -7  -3  -9 13.9388 7.83805   4 
   7  -3   9 18.9077 5.58724   2 
  -7  -3  -9 5.55496 9.18310   3 
   7  -3   9 12.6211 6.76904   3 
   7   3   9 9.56771 7.00134   1 
   7   3   9 8.62486 9.13380   2 
  -8  -3  -9 227.953 16.8034   4 
   8  -3   9 227.967 15.4583   2 
  -8  -3  -9 190.033 19.3185   3 
   8   3   9 201.025 18.8656   2 
   8   3   9 194.100 16.4899   1 
   9  -3   9 79.6511 10.2813   2 
  -9  -3  -9 63.4347 12.3603   3 
  -9  -3  -9 85.5273 10.8655   4 
   9   3   9 46.0294 9.60242   1 
   9   3   9 59.8665 12.2706   2 
   9  -3  -9 67.6581 11.3089   2 
 -10  -3  -9 -8.2721 11.1995   3 
  10  -3   9 1.78335 6.59569   2 
  10  -3  -9 3.74818 6.72916   2 
  10   3   9 8.25309 11.2967   2 
  10   3   9 4.58376 7.93429   1 
 -11  -3  -9 8.46617 8.37098   4 
 -11  -3  -9 0.00250 11.0556   3 
  11   3  -9 3.50323 2.88215   3 
  11  -3   9 28.2511 7.82537   2 
  11   3   9 14.4669 8.21655   1 
  11  -3  -9 11.9049 7.98485   2 
  11   3   9 16.1566 11.6225   2 
 -12  -3  -9 75.8472 14.9233   3 
 -12  -3  -9 67.3738 11.2498   4 
  12  -3   9 86.3910 10.7447   2 
  12  -3  -9 73.7710 11.3690   2 
  12   3   9 58.7795 15.9305   1 
  12   3   9 66.5908 13.7280   2 
 -13  -3  -9 1.17990 14.8655   3 
 -13  -3  -9 2.13487 8.80766   4 
  13  -3   9 -2.6823 7.86437   2 
  13   3   9 -0.0416 13.1349   2 
  13   3   9 -2.7125 8.22629   1 
  13  -3  -9 -3.7318 7.61639   2 
 -14  -3  -9 73.7385 16.1652   3 
  14  -3   9 109.915 15.4765   2 
 -14  -3  -9 80.2935 13.9393   4 
  14   3   9 92.4522 14.0859   1 
  14   3   9 101.343 17.2251   2 
  14  -3  -9 110.167 14.7671   2 
 -15  -3  -9 9.54780 11.0342   4 
  15  -3   9 20.0944 10.0348   2 
  15   3   9 -4.3650 18.7215   2 
  15  -3  -9 5.02228 8.34795   2 
  15   3   9 -0.0536 10.9477   1 
   0  -4  -9 -3.6690 9.23820   3 
   0  -4   9 -1.2475 3.86193   1 
   0   4   9 2.08821 6.60842   1 
   0  -4  -9 3.06455 6.44972   4 
   0  -4   9 2.01292 3.16072   4 
   1  -4   9 150.930 11.1196   1 
  -1  -4  -9 173.013 17.2794   3 
  -1   4   9 176.124 14.2650   1 
  -1  -4  -9 186.048 15.0617   4 
  -1  -4   9 149.619 11.9569   1 
   1   4   9 182.740 14.5167   1 
   1  -4  -9 165.590 16.5618   3 
   1  -4  -9 172.972 14.6101   4 
  -1  -4   9 156.942 11.1473   4 
  -2   4   9 8.93777 7.06666   1 
  -2  -4  -9 14.3612 9.82446   3 
  -2  -4  -9 18.8560 7.83698   4 
   2  -4  -9 12.8141 7.41166   4 
  -2  -4   9 13.5296 5.41580   1 
  -2  -4   9 16.3234 5.69373   4 
   2   4   9 3.57416 7.10170   1 
  -2  -4   9 20.6889 3.85822   2 
   2  -4  -9 13.1849 8.96611   3 
  -3  -4  -9 117.910 13.4614   4 
  -3   4   9 113.411 11.6774   1 
  -3  -4  -9 99.5872 15.2885   3 
   3  -4  -9 116.771 15.2567   3 
   3  -4  -9 113.393 12.6485   4 
   3   4   9 114.422 12.6246   1 
   4  -4   9 67.2869 8.33231   3 
  -4  -4  -9 53.4223 13.0063   3 
  -4  -4  -9 73.2527 11.1056   4 
   4  -4   9 73.7067 6.47409   2 
   4  -4  -9 73.0575 9.91638   4 
  -4  -4   9 65.0272 7.48522   2 
   4   4   9 70.6218 11.7777   1 
   4  -4  -9 56.9186 11.4498   3 
  -5  -4  -9 17.9015 11.1445   3 
   5  -4   9 31.3976 4.87318   2 
   5  -4   9 34.5163 6.68627   3 
   5   4   9 8.90150 8.00339   1 
  -5  -4   9 23.7891 5.32548   2 
   5  -4  -9 23.9338 7.89679   4 
  -6  -4  -9 157.332 15.0039   4 
   6  -4   9 128.206 13.2073   3 
   6  -4   9 145.830 10.8042   2 
  -6  -4  -9 127.475 17.1003   3 
   6   4   9 142.894 16.0747   2 
   6  -4  -9 126.330 17.6858   4 
   6   4   9 156.679 14.9622   1 
   7  -4   9 25.1470 7.35975   3 
  -7  -4  -9 16.4608 13.8933   3 
   7  -4   9 26.2391 5.98653   2 
  -7  -4  -9 31.6434 10.1201   4 
   7   4   9 11.2119 8.50353   1 
  -8  -4  -9 39.1174 13.0313   3 
   8  -4   9 43.4628 7.09277   2 
  -8  -4  -9 57.9078 11.7303   4 
   8   4   9 32.1861 9.72482   1 
   8   4   9 22.5161 11.8313   2 
  -9  -4  -9 72.4385 12.5838   4 
  -9  -4  -9 63.2137 15.0971   3 
   9  -4   9 87.5799 12.1227   2 
   9   4   9 50.3153 12.6159   2 
 -10  -4  -9 3.46832 12.3062   3 
 -10  -4  -9 4.99427 8.55271   4 
  10  -4   9 6.52614 7.02846   2 
  10   4   9 -1.9908 12.8812   1 
  10   4   9 3.45273 11.9463   2 
  10  -4  -9 4.02469 7.45829   2 
  11  -4   9 69.5928 9.44252   2 
 -11  -4  -9 49.2580 10.7386   4 
  11   4   9 49.2030 14.0691   2 
  11   4   9 38.5288 9.80156   1 
  11  -4  -9 34.8299 9.38764   2 
 -12  -4  -9 125.906 19.3184   3 
  12  -4   9 149.056 13.8447   2 
 -12  -4  -9 109.782 15.5264   4 
  12   4   9 86.6360 16.6310   2 
  12  -4  -9 127.225 15.3278   2 
  12   4   9 116.147 17.3101   1 
 -13  -4  -9 -2.0025 11.0005   4 
  13  -4   9 -2.2709 9.50857   2 
 -13  -4  -9 -0.1048 14.1352   3 
  13   4   9 10.8000 12.0186   1 
  13  -4  -9 11.1289 8.51326   2 
  13   4   9 -2.3072 20.7024   2 
   0   5   9 261.653 18.5502   1 
   0  -5  -9 229.579 18.5933   4 
   0  -5  -9 216.160 21.6007   3 
   0  -5   9 226.156 13.9121   4 
  -1   5   9 -3.1646 7.93522   1 
  -1  -5  -9 0.29275 11.5324   3 
  -1  -5  -9 11.0676 9.39768   4 
   1   5   9 0.77385 8.69601   1 
   1  -5  -9 3.27921 8.03423   4 
   1  -5  -9 -6.9304 12.6901   3 
  -1  -5   9 1.98432 4.46040   4 
  -2   5   9 19.4801 8.61620   1 
  -2  -5  -9 19.6843 8.77441   4 
  -2  -5  -9 24.7150 13.6283   3 
  -2  -5   9 23.6421 5.67453   4 
   2   5   9 18.4866 9.23985   1 
   2  -5  -9 29.3213 13.3369   3 
   2  -5  -9 24.4861 8.84203   4 
  -3   5   9 104.227 12.7637   1 
  -3  -5  -9 95.5249 16.2153   3 
  -3  -5  -9 119.822 18.0495   4 
  -3  -5   9 96.4316 10.1043   4 
   3   5   9 91.4801 12.6070   1 
   3  -5  -9 75.5419 11.3211   4 
   3  -5  -9 105.633 16.5519   3 
  -4   5   9 -0.2681 8.49144   1 
  -4  -5  -9 -5.6724 14.5778   4 
  -4  -5  -9 -4.0346 13.1132   3 
   4   5   9 12.0003 10.4483   1 
  -4  -5   9 0.70005 6.18720   4 
   4  -5  -9 2.00839 7.67112   4 
   4  -5  -9 0.17837 13.4158   3 
   5  -5   9 101.981 9.03040   2 
  -5  -5  -9 98.5579 13.9635   4 
  -5  -5  -9 93.8410 16.3860   3 
  -5   5   9 115.584 14.3908   1 
  -5  -5   9 97.5924 11.7721   4 
   5  -5  -9 157.898 24.4273   3 
   5   5   9 147.191 16.5470   1 
   5  -5  -9 106.755 13.5441   4 
  -6  -5  -9 -5.8158 12.7123   3 
  -6  -5  -9 -6.7561 8.51199   4 
  -6   5   9 -5.7461 7.97552   1 
   6  -5  -9 4.87041 16.0025   3 
  -6  -5   9 -7.0683 8.20328   4 
   6   5   9 -3.8557 9.67511   1 
   6  -5  -9 2.03420 7.59915   4 
  -7   5   9 3.18386 8.14869   1 
  -7  -5  -9 6.39086 18.0315   4 
  -7  -5  -9 7.25899 12.7653   3 
   7   5   9 12.9464 10.6141   1 
  -7  -5   9 19.7391 9.00606   4 
  -8  -5  -9 39.8683 10.0806   4 
  -8  -5  -9 59.7014 19.6927   3 
   8   5   9 48.0419 12.2574   1 
  -9  -5  -9 22.5250 14.4305   3 
  -9  -5  -9 3.04283 11.4827   4 
  -9   5   9 16.7383 5.68643   1 
   9   5   9 31.9620 13.0152   1 
   0   6   9 -4.3285 9.02084   1 
   0  -6  -9 6.91592 13.3679   4 
   0  -6  -9 -2.5813 13.9247   3 
  -1  -6  -9 49.4183 12.8637   4 
  -1  -6  -9 47.4285 17.3151   3 
  -1   6   9 69.4454 11.9220   1 
   1  -6  -9 84.6942 16.7443   3 
   1  -6  -9 57.0375 12.2555   4 
   1   6   9 51.5894 11.1301   1 
  -2   6   9 7.68570 9.33065   1 
  -2  -6  -9 -13.027 13.6547   3 
   2  -6  -9 8.30744 14.4526   3 
   2   6   9 -9.9573 8.98771   1 
   0   0  10 18.6266 4.52029   2 
   0   0 -10 19.0091 11.4469   3 
   0   0 -10 14.4621 4.22243   2 
   0   0  10 15.7271 3.15929   4 
  -1   0 -10 136.053 12.1394   3 
   1   0 -10 143.419 9.84490   2 
   1   0  10 147.567 9.17976   4 
  -1   0  10 139.382 9.39379   4 
  -1   0 -10 128.235 9.35970   4 
   1   0  10 134.261 10.5697   2 
   2   0  10 1233.04 71.5429   2 
  -2   0 -10 1425.25 73.4599   2 
  -2   0 -10 1238.64 73.0263   3 
  -2   0 -10 1248.22 70.9727   4 
   2   0 -10 1294.70 71.1234   2 
  -2   0  10 1374.05 71.5352   4 
   2   0  10 1256.73 70.9461   4 
  -3   0 -10 335.080 21.9297   3 
   3   0 -10 305.806 19.5636   2 
  -3   0 -10 314.115 20.4907   2 
   3   0  10 319.156 18.8283   4 
  -3   0 -10 321.981 18.8807   4 
   3   0  10 349.045 20.2178   2 
  -3   0  10 310.343 19.1977   4 
   3   0 -10 356.469 21.5039   3 
   3   0 -10 331.132 19.1885   2 
   3   0  10 299.065 20.8036   3 
   4   0  10 1362.17 70.3792   2 
  -4   0  10 1293.35 69.6372   4 
   4   0 -10 1242.30 69.3495   2 
   4   0  10 1054.27 70.7770   3 
  -4   0 -10 1219.65 71.5418   3 
   4   0 -10 1277.63 69.9376   2 
  -4   0 -10 1340.58 69.9232   2 
  -4   0 -10 1281.90 69.0813   4 
  -5   0 -10 103.303 12.2261   3 
   5   0 -10 94.5712 11.9039   2 
  -5   0 -10 134.132 8.52560   4 
  -5   0  10 89.9675 12.0607   4 
   5   0  10 143.271 14.1114   2 
   5   0  10 82.7186 16.7004   3 
  -5   0 -10 138.941 10.4426   2 
  -6   0 -10 102.349 12.5491   3 
   6   0  10 113.005 11.4773   2 
  -6   0 -10 116.863 8.42053   4 
  -6   0 -10 109.718 10.5862   2 
  -6   0  10 122.251 9.25964   4 
   6   0  10 108.761 9.47958   1 
   6   0 -10 111.842 9.18806   2 
   6   0 -10 113.778 10.6044   2 
   7   0 -10 72.7853 7.62249   2 
  -7   0 -10 64.2121 9.53885   2 
   7   0  10 67.6322 7.75087   1 
  -7   0 -10 71.0269 6.55239   4 
   7   0  10 71.6646 9.38162   2 
   7   0 -10 76.3293 9.44822   2 
  -7   0 -10 55.6418 10.1107   3 
  -8   0 -10 49.8424 6.07755   4 
  -8   0 -10 53.5115 10.4613   2 
   8   0 -10 49.0342 7.46217   2 
   8   0  10 60.1741 7.06411   1 
   8   0  10 53.0743 8.89328   2 
  -8   0 -10 46.7696 10.0779   3 
   9   0 -10 3.95280 5.87890   2 
  -9   0 -10 5.65792 5.94138   2 
   9   0  10 1.68553 7.46812   2 
  -9   0 -10 -0.1766 3.81911   4 
  -9   0 -10 -2.3071 6.64472   3 
   9   0  10 0.59873 5.01767   1 
 -10   0 -10 37.1364 5.55877   4 
  10   0  10 44.9717 7.19520   1 
  10   0 -10 31.6755 7.77301   2 
 -10   0 -10 35.3857 7.36798   2 
 -10   0 -10 11.3926 8.24547   3 
  10   0  10 46.5886 10.0745   2 
  11   0  10 -5.9437 7.76778   2 
  11   0 -10 -4.4045 6.87686   2 
  11   0  10 -0.0625 5.64078   1 
 -11   0 -10 5.23592 9.64947   2 
 -11   0 -10 4.30632 4.59988   4 
 -11   0 -10 2.45924 8.19428   3 
  12   0  10 267.920 18.2471   1 
  12   0 -10 280.502 21.7261   2 
  12   0  10 289.321 22.6077   2 
 -12   0 -10 248.751 21.8908   2 
 -12   0 -10 272.981 17.4052   4 
 -13   0 -10 -4.1041 2.87558   4 
  13   0  10 5.74475 11.8585   2 
  13   0  10 13.8689 7.04229   1 
  14   0  10 60.7852 13.7930   2 
  14   0 -10 79.8128 12.9433   2 
  14   0  10 78.9971 10.6071   1 
  15   0  10 -6.1535 12.4189   2 
  15   0  10 3.10151 7.58840   1 
  15   0 -10 -4.5111 10.0740   2 
 -15   0 -10 0.74853 1.36687   4 
  16   0  10 149.762 20.8603   2 
  16   0  10 111.279 13.1085   1 
  16   0 -10 136.737 16.8596   2 
  17   0  10 1.36119 12.3228   2 
 -17   0 -10 -6.5870 2.31818   4 
  17   0  10 17.3225 8.43223   1 
  17   0 -10 22.8990 17.1400   2 
   0   1  10 1.06541 3.17685   4 
   0  -1 -10 -1.1563 3.63488   2 
   0   1  10 3.39253 4.77519   2 
   0  -1  10 0.55614 3.55227   2 
   0  -1 -10 3.25544 4.13983   4 
   0   1 -10 0.43414 4.84268   3 
   0  -1 -10 -6.1541 5.32766   3 
   0  -1  10 0.67252 2.78460   4 
  -1   1  10 30.7402 4.47876   4 
  -1  -1 -10 36.6456 5.41513   2 
   1  -1  10 34.5039 3.71243   4 
  -1  -1 -10 46.6574 13.3956   3 
  -1  -1 -10 38.0127 5.18578   4 
   1   1 -10 36.4771 6.60881   3 
   1  -1  10 34.8673 4.86706   2 
   1  -1 -10 35.7921 5.19889   2 
  -1  -1  10 33.1100 3.80934   4 
   1  -1 -10 33.1103 6.03997   4 
   1  -1 -10 37.3989 7.16474   3 
   1   1  10 26.5766 4.20436   4 
   1   1  10 23.7557 5.60649   2 
  -1   1 -10 27.7358 6.48010   3 
   2   1 -10 111.745 6.91992   2 
  -2  -1 -10 89.1935 11.0892   3 
   2   1 -10 90.3114 7.08377   2 
  -2   1  10 104.808 8.05135   4 
  -2  -1 -10 89.9050 8.24397   4 
   2  -1  10 96.4098 6.64636   4 
  -2  -1 -10 92.2097 9.12378   2 
   2  -1  10 105.893 8.66223   2 
   2   1 -10 101.895 9.33875   3 
   2  -1  10 97.0572 9.10218   3 
   2  -1 -10 98.0035 8.67390   4 
   2   1  10 100.936 9.79724   2 
   2  -1 -10 100.788 8.64627   2 
   2  -1 -10 96.7816 10.7749   3 
  -2  -1  10 93.7131 7.26160   4 
  -2   1 -10 102.592 10.3684   3 
   2   1  10 103.930 7.87474   4 
   3  -1  10 27.3811 5.89746   3 
  -3   1  10 49.6151 5.90802   4 
  -3  -1 -10 30.2486 5.00065   4 
   3   1 -10 32.6448 4.49971   2 
   3  -1  10 33.9802 5.25564   2 
   3   1 -10 37.0835 4.74833   2 
  -3  -1 -10 27.3226 5.61141   2 
   3   1 -10 39.8515 6.42518   3 
  -3  -1 -10 32.0775 8.13678   3 
   3  -1 -10 36.5875 7.06543   3 
   3  -1 -10 29.1572 4.84151   2 
   3   1  10 39.4644 5.04108   4 
   3   1  10 37.6629 6.36630   2 
  -3   1 -10 14.9232 7.11033   3 
  -4  -1 -10 406.721 24.0090   2 
  -4  -1 -10 386.480 26.0522   3 
  -4   1  10 385.483 23.3889   4 
   4   1 -10 415.557 22.4408   2 
   4  -1  10 415.014 23.6418   2 
  -4  -1 -10 397.036 23.3185   4 
   4   1 -10 368.032 23.0850   2 
   4  -1  10 361.510 24.4923   3 
   4   1 -10 405.767 23.7975   3 
   4   1  10 400.377 24.5035   2 
  -4  -1  10 374.439 22.8512   4 
   4  -1 -10 384.445 23.3162   2 
  -4   1 -10 389.997 25.2157   3 
  -5  -1 -10 98.1681 12.4681   3 
   5  -1  10 114.029 10.2295   2 
   5   1 -10 108.693 7.83243   2 
   5  -1  10 97.5912 10.4376   3 
   5   1 -10 105.505 9.72937   2 
  -5  -1 -10 110.111 10.0965   2 
  -5   1  10 102.660 8.91299   4 
   5   1  10 113.958 11.4222   2 
   5   1  10 80.9544 10.3651   3 
  -5  -1  10 92.8948 8.35243   1 
   5   1  10 115.349 9.94292   1 
  -5  -1  10 106.113 8.39860   4 
  -5   1 -10 112.367 11.4790   3 
   6  -1  10 102.829 11.0703   3 
  -6  -1 -10 110.791 9.40090   4 
  -6  -1 -10 113.144 11.3465   2 
   6  -1  10 119.769 8.86463   1 
   6  -1  10 120.661 11.0766   2 
  -6  -1 -10 108.435 13.3560   3 
   6   1 -10 110.133 11.1186   2 
   6   1  10 110.730 12.4028   2 
  -6  -1  10 125.014 9.96142   1 
   6   1  10 116.485 10.4124   1 
   6  -1 -10 113.151 9.74907   2 
  -6   1 -10 121.318 12.3097   3 
   6  -1 -10 112.463 10.7299   2 
  -6  -1  10 119.458 9.02451   4 
  -7  -1 -10 15.4773 8.34152   3 
   7  -1  10 18.1886 4.67962   1 
   7   1 -10 27.5093 7.97810   2 
   7  -1  10 5.80053 5.32410   3 
  -7  -1 -10 13.8148 4.94101   4 
   7   1 -10 19.8017 4.32681   2 
   7  -1  10 20.0252 8.32997   2 
  -7  -1 -10 17.6749 6.75908   2 
   7   1  10 17.3215 7.47531   2 
  -7   1 -10 16.1672 7.23993   3 
   7  -1 -10 16.1703 4.97665   2 
  -7   1 -10 16.3162 2.26670   4 
   7   1  10 10.9512 5.77267   1 
  -7  -1  10 9.60550 4.32485   4 
   7  -1 -10 21.3725 5.83875   2 
   8   1 -10 162.516 14.8152   2 
   8  -1  10 184.482 11.9312   1 
   8  -1  10 191.430 14.8325   2 
  -8  -1 -10 150.962 16.6671   3 
  -8  -1 -10 177.501 14.5971   2 
  -8  -1 -10 182.924 12.6889   4 
   8   1  10 196.060 13.7009   1 
   8   1  10 178.146 16.2686   2 
  -8   1 -10 162.414 10.2512   4 
   8  -1 -10 175.280 14.5743   2 
  -8   1 -10 183.162 16.2684   3 
  -9  -1 -10 446.027 30.9201   3 
   9   1 -10 378.490 23.6666   2 
   9  -1  10 379.110 23.5932   1 
   9   1 -10 362.457 25.7268   2 
   9  -1  10 426.679 26.0566   2 
  -9  -1 -10 409.920 23.9995   4 
  -9   1 -10 366.719 22.0999   4 
   9   1  10 422.428 27.1021   2 
  -9   1 -10 391.113 27.1141   3 
   9   1  10 391.700 24.5255   1 
   9  -1 -10 385.339 25.4256   2 
  10  -1  10 800.408 47.8677   1 
 -10  -1 -10 732.669 50.2417   3 
  10  -1  10 886.783 49.3420   2 
  10   1 -10 798.522 49.0011   2 
 -10  -1 -10 846.474 47.4521   4 
  10  -1 -10 844.560 49.2950   2 
  10   1  10 888.027 50.2340   2 
  10   1  10 863.503 48.0290   1 
 -11  -1 -10 0.34109 5.76018   4 
  11  -1  10 -3.4719 5.10454   1 
  11   1 -10 -0.6834 7.94702   2 
 -11  -1 -10 0.99235 9.38678   3 
  11  -1  10 5.90519 8.63731   2 
  11  -1 -10 4.77338 7.01997   2 
  11   1  10 -2.8383 9.37649   2 
  11   1  10 -3.1793 6.97598   1 
 -11   1 -10 0.91085 0.62733   4 
  12   1 -10 86.9562 12.6137   2 
  12  -1  10 107.378 13.2450   2 
  12  -1  10 94.7724 8.88027   1 
 -12  -1 -10 61.1808 12.4228   3 
 -12  -1 -10 73.6966 9.04241   4 
  12   1  10 69.3066 9.92523   1 
  12  -1 -10 67.3850 14.8290   2 
  12   1  10 94.6371 15.0157   2 
 -13  -1 -10 26.0246 11.9634   3 
 -13  -1 -10 35.1639 8.30480   4 
  13  -1  10 60.9945 15.3924   2 
  13   1 -10 35.5847 11.5906   2 
  13  -1  10 39.4956 7.29339   1 
  13   1  10 52.1589 10.7070   1 
  13   1  10 42.6169 12.4323   2 
  13  -1 -10 38.2589 9.39729   2 
  14  -1  10 33.2484 7.02754   1 
  14  -1  10 20.5080 10.9612   2 
 -14  -1 -10 23.2372 7.48047   4 
  14   1 -10 13.6145 13.2969   2 
  14  -1 -10 27.1895 10.2206   2 
  14   1  10 33.5813 13.5935   2 
  14   1  10 12.3078 8.26433   1 
  15   1 -10 20.8960 11.3131   2 
  15  -1  10 6.70131 10.1106   2 
  15  -1  10 16.7752 6.46461   1 
  15   1  10 7.09902 9.51841   1 
  15  -1 -10 6.18435 9.76953   2 
  15   1  10 23.7653 14.1430   2 
  16  -1  10 1.49927 12.0013   2 
  16  -1  10 9.05781 7.02709   1 
  16   1 -10 8.36179 11.1607   2 
  16   1  10 13.0020 15.8117   2 
 -16   1 -10 3.22481 2.12556   4 
  16   1  10 25.6971 16.7994   1 
  16  -1 -10 6.69851 10.7783   2 
   0   2 -10 17.9618 5.42430   3 
   0  -2 -10 5.45561 4.65120   2 
   0   2  10 16.3110 4.40384   4 
   0  -2  10 14.3426 3.94982   1 
   0  -2 -10 14.4983 5.03369   4 
   0  -2  10 11.3341 2.49275   4 
   0  -2 -10 7.77581 7.31808   3 
   0  -2  10 15.5834 3.55721   2 
  -1   2  10 116.807 9.27493   4 
   1  -2  10 102.988 6.56569   4 
   1  -2  10 106.114 7.99405   2 
  -1  -2 -10 114.025 9.69046   4 
   1   2 -10 99.6733 9.59303   3 
  -1  -2 -10 104.232 12.0309   3 
  -1  -2 -10 81.0493 9.79959   2 
  -1  -2  10 101.841 7.30318   4 
  -1  -2  10 108.153 8.50680   1 
   1   2  10 118.524 11.0951   2 
   1   2  10 99.4146 8.86314   4 
   1  -2 -10 112.243 9.94796   4 
   1  -2 -10 106.198 11.9982   3 
  -1   2 -10 114.551 10.1290   3 
   1  -2 -10 93.2301 9.71091   2 
   2  -2  10 969.451 51.2193   2 
  -2   2  10 957.214 52.1918   4 
  -2  -2 -10 860.307 52.3054   2 
  -2  -2 -10 926.479 52.2055   4 
   2   2 -10 914.897 51.9865   3 
  -2  -2 -10 918.791 54.1796   3 
   2  -2  10 906.369 52.2071   3 
  -2   2 -10 1014.70 52.9298   3 
   2   2  10 912.907 52.1447   4 
  -2  -2  10 878.053 51.0010   4 
   2   2  10 974.173 52.8336   2 
   2  -2 -10 962.312 52.3348   4 
   2  -2 -10 943.307 53.7819   3 
  -2  -2  10 882.171 51.9011   1 
   2  -2 -10 869.541 52.0701   2 
  -3  -2 -10 240.866 17.3146   2 
  -3  -2 -10 265.778 16.7889   4 
   3   2 -10 236.523 16.1482   3 
  -3  -2 -10 234.411 19.3398   3 
   3  -2  10 259.665 15.5079   2 
   3  -2  10 229.260 16.4576   3 
   3   2  10 256.137 16.7471   1 
   3  -2 -10 248.241 16.4073   2 
   3   2  10 255.331 17.6286   2 
   3  -2 -10 253.755 18.5285   3 
  -3   2 -10 256.171 17.6359   3 
   3  -2 -10 248.558 16.6663   4 
   3   2  10 240.691 16.3857   4 
  -4  -2 -10 995.525 56.2850   2 
  -4  -2 -10 926.184 56.8281   3 
   4  -2  10 931.785 55.3123   3 
   4  -2  10 1003.67 53.7631   2 
   4   2 -10 874.853 53.8149   3 
  -4  -2 -10 1020.18 54.5832   4 
   4   2  10 983.167 55.2881   2 
  -4   2 -10 1030.15 56.2299   3 
  -4  -2  10 928.915 54.2708   1 
   5   2 -10 86.0419 8.57041   3 
  -5  -2 -10 92.6728 9.58813   4 
   5  -2  10 112.314 9.37208   2 
  -5  -2 -10 90.4233 13.1502   3 
   5  -2  10 85.8553 9.97143   3 
  -5  -2  10 74.8153 8.52919   1 
   5   2  10 84.6259 11.8772   2 
   5   2  10 103.720 10.3420   1 
   6  -2  10 86.1766 11.8253   3 
  -6  -2 -10 79.0736 12.4861   3 
   6  -2  10 80.0067 6.50463   1 
   6  -2  10 81.0860 9.52535   2 
   6   2 -10 73.3011 8.22703   3 
  -6  -2 -10 78.0911 9.31446   4 
   6   2  10 86.9756 10.1863   1 
   6   2  10 88.1685 12.3772   2 
  -7  -2 -10 33.5624 9.98992   3 
   7   2 -10 56.4607 7.61024   3 
   7  -2  10 55.6693 7.71076   2 
   7  -2  10 46.0340 8.33688   3 
  -7  -2 -10 42.2119 7.52390   4 
   7  -2  10 52.2796 5.20566   1 
   7   2  10 61.2919 8.87992   1 
   7   2  10 46.8539 9.50009   2 
   8  -2  10 35.1215 4.32548   1 
  -8  -2 -10 23.6368 9.49325   3 
  -8  -2 -10 33.2184 7.20407   4 
   8  -2 -10 33.5607 7.17032   2 
   8   2  10 27.3389 7.20484   1 
   8   2  10 28.3713 9.22722   2 
  -9  -2 -10 -1.4822 8.80169   3 
   9   2 -10 -1.9441 1.83264   2 
   9  -2  10 -2.1120 3.18209   1 
   9  -2  10 6.82167 6.93909   2 
  -9  -2 -10 3.95079 5.98568   4 
   9   2  10 1.70754 8.96649   2 
   9  -2 -10 4.40555 6.13629   2 
   9   2  10 2.16717 6.92865   1 
  10  -2  10 26.8791 4.01458   1 
 -10  -2 -10 35.8981 7.83109   4 
 -10  -2 -10 35.1838 13.4688   3 
  10  -2  10 34.8805 8.20116   2 
  10  -2 -10 47.2630 8.87960   2 
  10   2  10 34.7932 11.3318   2 
  10   2  10 45.7124 9.03458   1 
 -11  -2 -10 3.80831 9.47230   3 
  11  -2  10 1.77159 7.56646   2 
 -11  -2 -10 5.88559 7.25175   4 
  11   2 -10 14.3573 5.30504   2 
  11   2  10 -3.1728 8.19391   1 
  11   2  10 6.15899 10.8423   2 
  11  -2 -10 -1.7861 6.83199   2 
 -12  -2 -10 200.525 21.5624   3 
  12  -2  10 225.754 18.5985   2 
 -12  -2 -10 195.243 16.5783   4 
  12   2  10 198.901 17.3481   1 
  12   2  10 204.715 21.9403   2 
  12  -2 -10 205.309 18.4817   2 
 -13  -2 -10 18.5388 17.6277   3 
  13  -2  10 8.98175 9.26735   2 
 -13  -2 -10 0.38944 7.57977   4 
  13   2  10 5.48792 12.4480   2 
  13  -2 -10 6.81181 8.34851   2 
  13   2  10 8.07134 9.30282   1 
 -14  -2 -10 43.5665 9.66861   4 
  14  -2  10 65.9368 12.7788   2 
 -14  -2 -10 36.2275 14.5242   3 
  14   2  10 40.7098 14.4421   1 
  14   2  10 38.3096 13.0174   2 
  14  -2 -10 64.3586 11.6541   2 
  15  -2  10 -5.7060 8.95722   2 
 -15  -2 -10 -3.6454 8.59525   4 
  15   2  10 -4.7879 9.98640   1 
  15   2  10 -6.1790 13.3854   2 
  15  -2 -10 3.57888 9.26674   2 
  16  -2  10 117.446 16.6249   2 
 -16  -2 -10 67.9768 12.1050   4 
  16   2  10 97.2757 18.0666   2 
  16   2  10 126.517 15.6949   1 
  16  -2 -10 125.010 17.7940   2 
   0  -3 -10 1.87435 5.64145   4 
   0  -3 -10 -4.2414 6.69897   3 
   0  -3  10 -0.3686 2.14813   4 
   0  -3  10 -0.2783 3.47228   1 
   1  -3  10 16.4776 4.25653   1 
  -1  -3 -10 18.6229 9.47406   3 
  -1  -3 -10 13.3229 6.20231   4 
   1  -3  10 19.2442 3.37936   2 
   1  -3 -10 26.1484 7.01111   4 
  -1  -3  10 15.3050 4.66660   1 
   1   3  10 26.0493 7.21154   1 
   1  -3 -10 20.1852 9.13352   3 
  -2  -3 -10 50.4925 7.89308   4 
   2  -3  10 53.3175 6.02374   1 
   2  -3  10 55.1202 5.67960   2 
  -2  -3 -10 54.3535 10.8278   3 
   2  -3 -10 58.1945 10.3962   3 
   2   3  10 63.4146 9.25820   1 
   2  -3 -10 78.2342 8.71574   4 
   3  -3  10 22.3947 5.41747   3 
   3  -3  10 24.9529 4.32539   2 
  -3  -3 -10 20.6397 6.92962   4 
  -3  -3 -10 19.4277 9.13108   3 
   3  -3 -10 16.5901 6.40907   4 
   3  -3 -10 10.0690 7.55442   3 
  -3  -3  10 9.82640 4.77444   1 
   3   3  10 12.5513 7.63406   2 
   3   3  10 17.1550 7.28645   1 
   4  -3  10 211.341 14.3304   1 
   4  -3  10 235.040 16.9767   3 
  -4  -3 -10 215.563 20.0974   3 
  -4  -3 -10 239.524 17.7773   4 
   4  -3  10 258.765 15.1834   2 
   4  -3 -10 266.574 17.7094   4 
   4   3  10 249.168 18.6481   2 
   4   3  10 295.507 20.2097   1 
   5  -3  10 60.9937 4.89320   1 
  -5  -3 -10 83.9599 9.96746   4 
  -5  -3 -10 52.7860 11.5239   3 
   5  -3  10 66.2024 9.23355   3 
   5  -3  10 74.2586 7.98969   2 
   5   3  10 66.0098 10.1435   1 
   5  -3 -10 76.8445 9.13021   4 
   5   3  10 72.9605 10.6020   2 
   6  -3  10 75.7862 12.2005   3 
  -6  -3 -10 55.7739 8.44880   4 
  -6  -3 -10 48.5688 11.3597   3 
   6  -3  10 76.4251 8.61506   2 
  -6  -3  10 57.6480 8.21324   2 
   6   3  10 61.0828 9.80226   1 
   6   3  10 71.3270 11.2342   2 
  -7  -3 -10 14.3487 8.13703   4 
   7  -3  10 5.07465 7.04923   3 
  -7  -3 -10 0.25839 9.35141   3 
   7  -3  10 7.42174 5.82296   2 
   7   3  10 5.39336 8.82749   2 
   7   3  10 27.7153 11.2539   1 
  -8  -3 -10 100.567 12.8418   4 
  -8  -3 -10 131.253 17.0063   3 
   8  -3  10 106.810 11.7292   2 
   8   3  10 123.532 18.6300   2 
   8   3  10 131.642 15.6337   1 
  -9  -3 -10 225.015 21.8145   3 
  -9  -3 -10 203.028 22.2804   4 
   9  -3  10 266.967 17.9221   2 
   9   3  10 207.025 18.3009   1 
   9   3  10 267.698 21.8977   2 
   9  -3 -10 238.317 18.5975   2 
  10  -3  10 579.401 32.5205   2 
 -10  -3 -10 478.010 32.5555   4 
 -10  -3 -10 539.899 36.7137   3 
  10   3  10 469.397 33.0195   1 
  10   3  10 535.154 35.5800   2 
 -11  -3 -10 4.48431 8.35797   4 
  11  -3  10 -5.4743 6.88020   2 
 -11  -3 -10 6.66135 11.2294   3 
  11   3  10 0.51579 8.80616   1 
  11  -3 -10 2.28369 8.21226   2 
  11   3  10 3.31299 11.5701   2 
 -12  -3 -10 20.9962 22.1235   3 
  12  -3  10 68.1020 10.1387   2 
 -12  -3 -10 58.6564 10.8811   4 
  12  -3 -10 40.7031 9.83736   2 
  12   3  10 29.6425 13.4324   2 
  12   3  10 29.4664 9.87837   1 
 -13  -3 -10 22.9615 9.36509   4 
 -13  -3 -10 19.0294 14.2141   3 
  13   3  10 8.74181 13.8213   2 
  13   3  10 8.11762 8.44204   1 
  13  -3 -10 12.0395 8.74683   2 
  14  -3  10 13.1960 8.85219   2 
 -14  -3 -10 32.0014 11.3280   4 
 -14  -3 -10 7.93304 11.7492   3 
  14   3  10 5.17313 8.69581   1 
  14   3  10 22.0005 21.8757   2 
   0   4  10 -0.6192 7.38667   1 
   0  -4  10 3.94182 2.77979   4 
   0  -4  10 3.77798 4.28047   1 
   0  -4 -10 3.05846 10.5225   3 
   0  -4 -10 -0.7119 7.03775   4 
  -1  -4 -10 45.0353 11.4171   3 
  -1  -4 -10 62.1211 10.6363   4 
  -1   4  10 55.8741 9.51885   1 
   1  -4  10 42.8781 5.85762   1 
   1  -4 -10 31.6591 8.45023   4 
   1  -4 -10 45.6659 11.6686   3 
  -1  -4  10 47.8340 5.85588   4 
   1   4  10 49.0525 9.31297   1 
  -1  -4  10 48.3420 8.02675   1 
  -2   4  10 441.903 26.9078   1 
  -2  -4 -10 409.107 30.0505   4 
  -2  -4 -10 427.157 29.6191   3 
   2  -4  10 395.995 24.7047   1 
  -2  -4  10 363.824 25.4577   1 
   2   4  10 368.603 27.7963   1 
   2  -4 -10 452.145 30.4862   3 
   2  -4 -10 486.281 28.4322   4 
  -2  -4  10 396.027 24.5825   4 
   3  -4  10 104.627 7.04968   1 
  -3   4  10 106.486 11.9993   1 
  -3  -4 -10 60.7060 11.8259   4 
  -3  -4 -10 133.697 16.5581   3 
   3  -4 -10 53.3138 18.2921   3 
  -3  -4  10 106.227 8.29613   2 
   3   4  10 159.791 17.9144   1 
  -4  -4 -10 501.041 30.3237   4 
   4  -4  10 426.305 26.0761   2 
   4  -4  10 399.478 27.1073   3 
  -4  -4 -10 437.014 32.6342   3 
   4   4  10 448.416 29.5788   1 
   4  -4 -10 530.936 32.6764   3 
   4  -4 -10 531.364 30.7953   4 
  -5  -4 -10 39.8849 9.97486   4 
  -5  -4 -10 37.0899 18.2190   3 
   5  -4  10 43.3461 7.72442   3 
   5  -4  10 50.1019 6.73209   2 
  -5  -4  10 41.5233 6.87746   2 
   5   4  10 39.4765 10.0016   1 
   5  -4 -10 56.8765 9.51489   4 
   6  -4  10 30.6187 5.77297   2 
  -6  -4 -10 29.7572 12.1379   3 
  -6  -4 -10 27.2794 9.59127   4 
   6   4  10 21.6672 10.8352   2 
   6   4  10 20.2404 8.97904   1 
   6  -4 -10 20.8215 7.97826   4 
  -7  -4 -10 17.6377 12.6979   3 
  -7  -4 -10 26.7909 9.57087   4 
   7  -4  10 18.5664 6.01741   2 
   7   4  10 39.9429 12.4403   1 
   7   4  10 13.1945 10.9243   2 
  -8  -4 -10 17.7456 9.29152   4 
  -8  -4 -10 26.4529 12.8051   3 
   8  -4  10 22.7626 6.57742   2 
   8   4  10 1.44738 10.8477   2 
   9  -4  10 12.4702 6.61992   2 
  -9  -4 -10 -3.0163 11.9012   3 
  -9  -4 -10 1.17637 9.35158   4 
   9   4  10 7.86433 11.1496   2 
   9   4  10 6.94219 9.70130   1 
 -10  -4 -10 4.23683 10.2487   4 
  10  -4  10 16.4272 7.13729   2 
  10   4  10 35.1021 13.4106   1 
  10   4  10 2.56131 11.9702   2 
  10  -4 -10 10.8192 8.38018   2 
  11  -4  10 -14.485 6.40606   2 
 -11  -4 -10 -6.1044 12.5405   3 
 -11  -4 -10 1.91337 8.52540   4 
  11  -4 -10 -0.3077 7.35279   2 
  11   4  10 3.59258 10.1868   1 
  11   4  10 -10.259 12.9375   2 
  12  -4  10 97.6954 12.9398   2 
 -12  -4 -10 81.2854 16.4616   3 
 -12  -4 -10 141.479 20.9948   4 
  12  -4 -10 49.6974 12.3019   2 
  12   4  10 80.3724 12.3762   1 
  12   4  10 107.523 19.8563   2 
   0  -5 -10 -8.1401 12.5116   3 
   0  -5 -10 0.49122 8.68732   4 
   0   5  10 7.73076 9.38932   1 
  -1  -5 -10 3.97923 13.1710   3 
  -1   5  10 12.4686 9.17901   1 
  -1  -5 -10 4.63267 9.19311   4 
   1  -5 -10 -1.3826 13.3237   3 
   1   5  10 3.32940 9.26542   1 
  -1  -5  10 4.16458 3.96958   4 
   1  -5 -10 5.02484 8.76772   4 
  -2  -5 -10 12.4987 9.30086   4 
  -2  -5 -10 22.7595 13.4587   3 
  -2   5  10 18.6871 9.15579   1 
   2  -5 -10 9.75561 8.49399   4 
  -2  -5  10 14.9870 7.41764   4 
   2  -5 -10 17.9449 13.6909   3 
   2   5  10 8.88631 9.19213   1 
  -3  -5 -10 6.19348 9.90665   4 
  -3   5  10 25.1557 9.36911   1 
  -3  -5 -10 0.93135 13.0731   3 
   3   5  10 7.47756 12.3026   1 
   3  -5 -10 9.97619 8.61307   4 
  -3  -5  10 10.7081 5.85144   4 
   3  -5 -10 6.39862 16.7924   3 
  -4  -5 -10 56.6146 11.8815   4 
  -4   5  10 102.705 12.5447   1 
  -4  -5 -10 69.2372 16.6295   3 
   4  -5 -10 95.1068 21.5792   3 
  -4  -5  10 78.8846 9.74407   4 
   4  -5 -10 89.6308 12.0375   4 
   4   5  10 77.1554 12.5161   1 
  -5   5  10 35.4949 9.61650   1 
  -5  -5 -10 12.8571 10.7130   4 
  -5  -5 -10 26.0884 13.3523   3 
   5   5  10 18.4636 10.3075   1 
   5  -5 -10 20.7313 8.96322   4 
  -5  -5  10 12.8973 7.31875   4 
   5  -5 -10 39.3040 15.7123   3 
  -6  -5 -10 27.2667 11.0130   4 
  -6   5  10 22.0283 9.55232   1 
  -6  -5 -10 0.05974 21.9774   3 
   6   5  10 23.4958 11.3556   1 
   6  -5 -10 23.6138 8.97488   4 
   6  -5 -10 32.6718 16.0250   3 
  -6  -5  10 24.1064 8.81753   4 
  -7  -5 -10 -5.1176 12.0892   4 
  -7  -5 -10 -12.635 13.4912   3 
  -7   5  10 -2.9992 8.43970   1 
   7   5  10 1.33497 10.7310   1 
   7  -5 -10 3.46941 16.9264   3 
  -7  -5  10 -5.2542 8.21120   4 
  -8  -5 -10 42.1737 16.1550   4 
  -8   5  10 61.8067 10.7794   1 
  -8  -5 -10 52.6951 15.7317   3 
   8   5  10 30.3677 12.4203   1 
  -9  -5 -10 112.408 21.0774   3 
  -9   5  10 139.360 13.2463   1 
   0   0  11 -2.7400 5.88401   2 
   0   0 -11 -1.0561 6.04926   3 
   0   0 -11 3.61983 3.86071   2 
  -1   0 -11 83.9638 7.40374   4 
  -1   0 -11 90.9515 10.6394   3 
   1   0  11 90.6093 7.01285   4 
   1   0 -11 95.1754 10.3474   3 
   1   0  11 100.479 10.0821   2 
  -1   0  11 82.8419 7.11881   4 
   1   0 -11 88.2415 7.92925   2 
  -1   0 -11 85.2169 8.15714   2 
   2   0 -11 19.2466 6.35212   3 
  -2   0 -11 17.2036 4.74568   2 
  -2   0 -11 16.6059 7.12064   3 
  -2   0  11 16.7177 3.77933   4 
  -2   0 -11 21.1384 3.98529   4 
   2   0 -11 20.7162 4.44557   2 
   2   0  11 13.7579 3.44450   4 
   3   0  11 557.122 36.4740   3 
   3   0 -11 611.721 35.0277   3 
  -3   0 -11 621.061 36.2667   3 
  -3   0 -11 594.279 33.2286   4 
   3   0 -11 579.195 33.5146   2 
  -3   0 -11 593.368 33.8963   2 
   3   0  11 535.723 35.9993   2 
   3   0 -11 581.282 33.9087   2 
  -3   0  11 610.678 33.6241   4 
   3   0  11 600.890 33.1956   4 
   4   0  11 78.3001 9.79982   2 
  -4   0 -11 82.0120 11.1117   3 
  -4   0 -11 83.9829 9.02178   2 
  -4   0 -11 90.0477 7.01313   4 
   4   0  11 77.5608 9.79545   3 
   4   0 -11 57.8260 8.94357   2 
   4   0 -11 86.1528 9.69272   3 
   4   0 -11 83.6042 10.3111   2 
  -5   0 -11 31.0533 7.57750   3 
  -5   0  11 58.8939 6.63900   4 
  -5   0 -11 57.4037 5.96203   4 
   5   0 -11 57.7658 6.84458   2 
   5   0 -11 52.6826 6.83245   2 
  -5   0 -11 56.2891 8.29876   2 
   5   0  11 54.5446 7.71748   2 
   5   0  11 52.6539 8.90519   3 
  -6   0 -11 393.676 27.4082   3 
   6   0  11 428.274 26.1092   2 
  -6   0 -11 426.017 25.3585   2 
  -6   0  11 387.522 26.1538   4 
  -6   0 -11 426.728 23.8099   4 
   6   0  11 428.135 24.7067   1 
   6   0 -11 406.291 24.3389   2 
   6   0 -11 388.081 25.3537   2 
   7   0 -11 289.663 20.2055   2 
   7   0  11 298.326 19.2293   1 
  -7   0 -11 360.454 23.2734   2 
   7   0 -11 312.127 19.1545   2 
  -7   0 -11 273.128 22.3659   3 
  -7   0 -11 299.964 18.1823   4 
   7   0  11 307.222 21.1503   2 
   8   0  11 69.4280 9.94301   2 
  -8   0 -11 51.9213 6.56996   4 
  -8   0 -11 48.0453 9.92562   2 
   8   0 -11 58.1757 7.62702   2 
   8   0  11 60.8250 7.56630   1 
   8   0 -11 62.6841 8.42750   2 
   9   0 -11 78.1618 10.1922   2 
   9   0  11 104.499 12.3218   2 
  -9   0 -11 54.3951 10.8656   3 
  -9   0 -11 86.6643 7.61420   4 
   9   0  11 82.0296 8.97411   1 
   9   0 -11 88.8814 11.2505   2 
  -9   0 -11 80.1862 10.8185   2 
 -10   0 -11 -1.7808 6.76334   2 
  10   0 -11 0.67759 6.76077   2 
  10   0  11 6.52376 5.90078   1 
 -10   0 -11 1.35399 9.00693   3 
 -10   0 -11 -4.6673 6.79345   4 
  10   0  11 -5.1498 8.37777   2 
  11   0  11 2.69221 6.69735   1 
 -11   0 -11 5.08400 9.18285   2 
 -11   0 -11 7.83139 11.0256   3 
  11   0  11 10.0259 8.83430   2 
  11   0 -11 4.13166 7.63661   2 
  12   0 -11 3.38230 8.60777   2 
 -12   0 -11 0.75547 9.83752   3 
  12   0  11 9.52853 7.27437   1 
  13   0 -11 23.4270 9.85880   2 
  13   0  11 16.2033 11.4837   2 
  13   0  11 24.8910 8.25854   1 
  14   0 -11 75.2320 12.6355   2 
  14   0  11 60.0632 10.3700   1 
  14   0  11 52.6459 13.3372   2 
  15   0  11 0.23222 12.0899   2 
  15   0 -11 6.95181 10.7045   2 
  16   0  11 40.5432 17.8693   2 
  16   0  11 12.0910 8.33807   1 
  16   0 -11 8.37036 12.1268   2 
   0  -1  11 45.9438 5.62725   2 
   0   1  11 40.7078 5.01971   4 
   0  -1  11 41.2922 4.32421   4 
   0  -1 -11 28.3552 7.07425   3 
   0   1 -11 36.4023 7.51983   3 
   0  -1 -11 33.3517 5.43799   4 
   0   1  11 36.3627 6.37884   2 
   0  -1 -11 43.7662 5.90974   2 
  -1  -1 -11 179.163 12.7034   4 
  -1  -1 -11 182.355 13.1447   2 
   1  -1  11 200.575 12.8911   2 
   1  -1  11 169.495 12.0700   4 
  -1  -1 -11 178.614 15.5554   3 
   1   1 -11 184.220 14.1518   3 
  -1   1  11 206.510 13.2405   4 
   1   1  11 192.300 12.4976   4 
  -1  -1  11 173.982 11.5185   4 
   1  -1 -11 208.527 15.4751   3 
   1  -1 -11 173.260 12.8275   4 
   1   1  11 188.016 13.9945   2 
  -1   1 -11 193.445 19.4279   3 
   1  -1 -11 177.421 12.9666   2 
   2  -1  11 7.52835 4.65547   2 
  -2   1  11 5.72285 3.88842   4 
  -2  -1 -11 4.55278 3.98594   4 
   2   1 -11 0.31065 5.56608   3 
  -2  -1 -11 5.14872 6.77583   3 
   2   1 -11 1.50893 2.97452   2 
  -2  -1 -11 6.70202 4.59782   2 
   2  -1  11 3.76948 2.50911   4 
   2   1 -11 4.09205 4.03118   2 
   2  -1 -11 4.15584 4.47518   2 
  -2   1 -11 3.09841 5.71952   3 
   2   1  11 3.06510 5.54422   2 
   2  -1 -11 -2.0697 6.39869   3 
   2  -1 -11 5.83127 4.25366   4 
   2   1  11 -0.4554 3.15467   4 
  -3  -1 -11 479.534 26.7778   4 
   3  -1  11 435.344 28.0916   3 
  -3  -1 -11 437.421 29.5412   3 
   3  -1  11 481.832 27.1266   2 
   3   1 -11 418.607 26.0552   2 
  -3  -1 -11 479.134 27.5834   2 
   3   1 -11 471.898 27.9387   3 
   3   1 -11 471.119 25.9227   2 
  -3   1  11 478.958 26.9626   4 
  -3   1 -11 458.440 28.8434   3 
  -3  -1  11 429.097 26.1992   4 
   3   1  11 444.602 26.6475   4 
   3   1  11 460.602 27.9763   2 
   3  -1 -11 439.224 28.6471   3 
   3  -1 -11 468.303 27.0344   2 
  -4  -1 -11 21.4587 5.82056   2 
   4  -1  11 29.6141 6.84429   3 
  -4  -1 -11 27.0368 11.5624   3 
  -4  -1 -11 25.0858 5.21991   4 
  -4   1  11 28.4586 5.44442   4 
   4   1 -11 23.3674 4.82588   2 
   4   1 -11 22.4584 6.25822   3 
   4   1 -11 27.1283 4.28697   2 
   4  -1  11 32.1171 6.13885   2 
  -4  -1  11 34.2337 4.76098   4 
  -4   1 -11 19.5512 7.06712   3 
   4   1  11 20.2554 6.45556   2 
   4   1  11 19.1761 12.6100   3 
   5  -1  11 22.2412 6.14313   2 
  -5  -1 -11 20.5792 7.52687   3 
   5   1 -11 25.3265 4.36984   2 
   5   1 -11 30.2241 5.57075   2 
  -5  -1 -11 26.4616 5.30068   4 
   5  -1  11 10.4673 5.12888   3 
  -5  -1 -11 21.3363 6.68588   2 
  -5  -1  11 27.5359 4.55008   4 
   5  -1 -11 17.5799 4.86676   2 
   5   1  11 27.1309 7.20198   2 
   5   1  11 19.9819 5.52791   1 
  -5   1 -11 25.6370 7.73698   3 
  -6  -1 -11 12.0562 8.18160   3 
   6   1 -11 22.0822 6.12098   2 
   6  -1  11 17.5448 5.75048   1 
  -6  -1 -11 19.4853 5.16596   4 
  -6  -1 -11 5.17978 7.07464   2 
   6  -1  11 35.7082 9.46869   2 
   6  -1  11 12.2454 5.49954   3 
   6  -1 -11 17.5956 5.18027   2 
  -6   1 -11 13.5327 6.67722   3 
   6  -1 -11 17.7067 5.66564   2 
   6   1  11 21.7338 7.69636   2 
  -6  -1  11 23.0647 4.55227   4 
   6   1  11 18.1277 5.96804   1 
   7   1 -11 24.2454 4.69204   2 
  -7  -1 -11 16.8748 7.01424   2 
   7  -1  11 23.0543 7.02288   2 
   7  -1  11 19.4849 5.64991   1 
  -7  -1 -11 4.58537 7.93569   3 
  -7  -1 -11 16.8865 5.18579   4 
   7   1  11 24.0524 8.28452   2 
  -7   1 -11 14.5842 7.03393   3 
   7   1  11 30.4104 6.87656   1 
   7  -1 -11 20.4772 6.44293   2 
  -8  -1 -11 0.60782 4.98063   4 
  -8  -1 -11 0.18177 6.97241   2 
   8   1 -11 0.20277 6.57560   2 
   8  -1  11 -3.9724 4.57295   1 
   8  -1  11 -1.0752 6.89940   2 
  -8  -1 -11 2.65200 7.98725   3 
   8  -1 -11 -2.1388 5.74715   2 
  -8   1 -11 8.86689 7.74186   3 
   8   1  11 -3.4866 8.11371   2 
   8   1  11 -3.7279 5.90355   1 
  -9  -1 -11 -2.5383 16.0439   3 
  -9  -1 -11 1.96904 5.30034   4 
   9   1 -11 -0.4620 7.07634   2 
   9   1 -11 1.86525 4.53808   2 
   9  -1  11 2.99843 4.82708   1 
   9  -1  11 2.76408 7.78196   2 
  -9   1 -11 7.55977 7.77038   3 
   9   1  11 -0.3653 6.28177   1 
   9   1  11 3.40766 9.27404   2 
   9  -1 -11 -2.8369 6.18749   2 
  10   1 -11 14.3616 6.48123   2 
 -10  -1 -11 6.52247 5.67238   4 
 -10  -1 -11 8.87112 9.68759   3 
  10  -1  11 8.90034 8.62327   2 
  10   1 -11 8.23473 7.80680   2 
  10  -1  11 11.0532 5.50373   1 
  10   1  11 0.46430 9.76349   2 
  10   1  11 8.15346 6.64008   1 
  10  -1 -11 16.4490 7.39902   2 
 -11  -1 -11 7.86872 9.38309   3 
  11  -1  11 17.1944 8.69165   2 
  11   1 -11 19.8456 5.76926   2 
  11  -1  11 22.2297 6.14692   1 
  11   1 -11 19.7558 9.02541   2 
 -11  -1 -11 19.3694 6.29407   4 
  11  -1 -11 25.2506 8.76642   2 
  11   1  11 16.5635 7.73046   1 
  12   1 -11 262.462 23.0136   2 
  12  -1  11 326.095 23.5444   2 
 -12  -1 -11 313.474 20.1111   4 
  12  -1  11 320.510 19.2784   1 
 -12  -1 -11 271.027 24.5266   3 
  12   1  11 306.747 25.5802   2 
  12  -1 -11 310.475 23.3599   2 
  12   1  11 288.478 20.7406   1 
  13  -1  11 467.961 30.7154   2 
 -13  -1 -11 427.916 27.1860   4 
  13   1 -11 384.184 30.0561   2 
  13  -1  11 462.570 26.2450   1 
 -13  -1 -11 365.670 36.0294   3 
  13  -1 -11 454.188 30.1890   2 
  13   1  11 416.431 27.7839   1 
  13   1  11 488.644 33.0458   2 
 -14  -1 -11 228.909 17.0962   4 
  14  -1  11 256.170 21.3944   2 
  14  -1  11 234.585 15.6106   1 
  14   1 -11 222.256 21.4266   2 
  14   1  11 253.505 24.2278   2 
  14  -1 -11 213.403 20.6691   2 
  14   1  11 191.699 17.3277   1 
  15  -1  11 53.5691 7.99466   1 
  15   1 -11 57.5091 12.2717   2 
  15  -1  11 25.7594 10.8052   2 
  15  -1 -11 68.4762 12.5238   2 
  15   1  11 43.1052 14.9479   2 
  15   1  11 70.4394 12.0960   1 
  16   1 -11 26.9783 12.1124   2 
  16  -1  11 56.4293 13.7201   2 
  16   1  11 39.0803 16.3231   2 
  16   1  11 41.1112 9.78528   1 
   0  -2 -11 -2.4537 7.40243   3 
   0  -2  11 -1.0006 3.77461   2 
   0   2 -11 -1.2988 5.23370   3 
   0  -2  11 -0.1395 2.39583   4 
   0  -2 -11 0.94318 5.16389   4 
  -1  -2 -11 56.0094 7.30385   4 
  -1  -2 -11 71.3583 11.2914   3 
   1  -2  11 65.5775 4.89923   4 
   1  -2  11 61.7514 6.96224   2 
  -1  -2  11 59.8765 6.83770   1 
  -1   2 -11 73.7922 9.43430   3 
   1  -2 -11 85.4933 9.09307   4 
   1  -2 -11 76.7488 11.5318   3 
  -1  -2  11 65.7547 5.49774   4 
  -2  -2 -11 17.3656 5.61086   4 
   2  -2  11 11.0402 4.37706   2 
   2   2 -11 9.65823 5.87642   3 
  -2  -2 -11 7.12285 7.53509   3 
  -2  -2  11 16.7995 3.43482   4 
   2   2  11 15.2700 6.89604   2 
  -2   2 -11 16.8184 6.62948   3 
  -2  -2  11 12.8335 4.57167   1 
   2  -2 -11 11.6481 5.37453   4 
   2  -2 -11 15.7031 7.49699   3 
  -3  -2 -11 461.559 31.1299   3 
  -3  -2 -11 494.671 28.3099   4 
   3  -2  11 449.465 28.4453   3 
   3  -2  11 509.915 27.4036   2 
   3   2 -11 451.078 28.0235   3 
   3   2  11 495.927 29.3681   2 
   3  -2 -11 480.519 28.3913   4 
  -3  -2  11 443.262 26.7680   4 
  -3   2 -11 469.830 29.8372   3 
  -3  -2  11 437.202 27.6950   1 
  -4  -2 -11 67.7602 13.8638   3 
  -4  -2 -11 69.9846 8.46484   4 
   4  -2  11 57.3440 8.68973   3 
   4   2 -11 63.4794 8.64348   3 
   4  -2  11 74.7324 8.42393   2 
  -4   2 -11 74.8162 10.9176   3 
   4  -2 -11 76.9962 8.75528   4 
   4   2  11 79.9567 11.6118   2 
   4   2  11 88.8005 9.80803   1 
  -4  -2  11 64.1361 6.54295   4 
  -5  -2 -11 61.7026 8.00149   4 
   5  -2  11 48.6274 6.86830   2 
   5  -2  11 56.8698 12.9999   3 
  -5  -2 -11 23.9784 8.85367   3 
   5   2 -11 44.1101 7.29390   3 
  -5   2 -11 64.3578 9.78698   3 
   5   2  11 45.6157 8.05979   1 
  -5  -2  11 53.0440 5.90593   4 
   5   2  11 37.0892 8.69797   2 
  -6  -2 -11 286.653 23.7859   3 
  -6  -2 -11 320.614 20.7571   4 
   6   2 -11 298.210 20.3175   3 
   6  -2  11 356.717 20.8442   2 
   6  -2  11 314.433 18.7720   1 
   6  -2  11 296.243 21.9738   3 
   6   2  11 346.544 21.5021   1 
   6   2  11 341.110 23.2857   2 
  -7  -2 -11 202.490 20.2741   3 
   7   2 -11 231.731 15.9321   3 
  -7  -2 -11 244.961 16.8120   4 
   7  -2  11 254.017 21.0589   2 
   7  -2  11 223.551 14.1291   1 
   7   2  11 244.216 17.3853   1 
   7   2  11 225.332 19.5152   2 
  -8  -2 -11 40.7797 13.7632   3 
   8  -2  11 46.6304 8.15869   2 
  -8  -2 -11 33.5267 7.42744   4 
   8   2 -11 54.8315 8.02806   3 
   8  -2  11 44.5459 5.33913   1 
   8   2  11 38.3967 8.72260   1 
   8   2  11 35.0133 10.3437   2 
   8  -2 -11 35.4101 7.58752   2 
   9  -2  11 61.9180 6.01426   1 
   9  -2  11 73.5695 9.60065   2 
  -9  -2 -11 46.9708 8.89348   4 
   9  -2 -11 64.1337 9.86192   2 
   9   2  11 59.3315 10.0636   1 
   9   2  11 48.8950 11.7504   2 
 -10  -2 -11 8.93645 10.0463   3 
  10  -2  11 8.25000 7.47944   2 
 -10  -2 -11 0.99896 7.17412   4 
  10  -2  11 -1.2043 3.54640   1 
  10   2 -11 3.59265 1.56200   2 
  10   2  11 8.21909 11.1914   2 
  10  -2 -11 2.14160 7.25862   2 
  10   2  11 -1.2767 8.16418   1 
 -11  -2 -11 7.03104 7.34847   4 
  11  -2  11 6.59832 8.02366   2 
 -11  -2 -11 3.58278 14.7811   3 
  11   2  11 0.45673 7.69075   1 
  11  -2 -11 3.61687 7.14789   2 
  11   2  11 10.3845 11.7406   2 
  12  -2  11 0.65250 8.13854   2 
 -12  -2 -11 4.99383 10.5060   4 
 -12  -2 -11 13.0226 12.1459   3 
  12   2 -11 0.35353 1.78253   2 
  12   2  11 15.5065 12.4354   2 
  12   2  11 -6.3595 8.32914   1 
  12  -2 -11 6.18038 7.84818   2 
 -13  -2 -11 8.39478 8.64564   4 
 -13  -2 -11 13.4771 13.6161   3 
  13  -2  11 23.5078 15.0470   2 
  13   2  11 27.9465 14.0185   2 
  13   2  11 6.41850 12.0528   1 
  13  -2 -11 17.4497 8.79596   2 
  14  -2  11 48.3327 10.7820   2 
 -14  -2 -11 41.6388 15.4930   3 
 -14  -2 -11 36.3550 9.83661   4 
  14  -2 -11 46.6984 10.9620   2 
  14   2  11 48.5043 11.4669   1 
  14   2  11 41.6318 14.6176   2 
  15  -2  11 -6.1663 10.2354   2 
 -15  -2 -11 -11.650 7.65165   4 
  15   2  11 -10.095 13.7545   2 
  15  -2 -11 9.30283 11.5340   2 
  15   2  11 -1.5949 9.47347   1 
   0  -3 -11 44.8622 7.88738   4 
   0  -3 -11 16.7287 8.47101   3 
   0  -3  11 31.0858 3.57817   4 
   0  -3  11 35.2593 5.70955   1 
   1  -3  11 105.835 9.26746   1 
  -1  -3 -11 139.769 12.1520   4 
  -1  -3 -11 124.396 14.5264   3 
   1  -3 -11 113.027 11.8546   4 
   1  -3 -11 107.385 14.0687   3 
   1   3  11 125.404 11.7756   1 
  -1  -3  11 111.691 7.95106   4 
   2  -3  11 3.00792 3.63973   2 
  -2  -3 -11 2.54389 6.47199   4 
  -2  -3 -11 11.5322 9.52176   3 
   2  -3  11 1.41560 3.88225   1 
  -2  -3  11 5.01606 3.04282   4 
   2   3  11 3.75258 6.31657   1 
  -2  -3  11 -2.4795 4.41277   1 
   2  -3 -11 2.71527 8.85320   3 
   2  -3 -11 -1.2427 5.82961   4 
   3  -3  11 277.507 16.0825   2 
  -3  -3 -11 248.529 18.4970   4 
  -3  -3 -11 246.319 21.5166   3 
   3  -3  11 243.498 17.0949   3 
   3  -3  11 253.404 16.0394   1 
   3  -3 -11 278.344 18.7458   4 
   3   3  11 286.272 19.1035   1 
   3  -3 -11 253.046 20.3718   3 
   3   3  11 250.634 20.0561   2 
  -4  -3 -11 9.96371 7.24591   4 
   4  -3  11 8.00498 4.89446   2 
  -4  -3 -11 5.51552 10.1611   3 
   4  -3  11 7.03190 5.46599   3 
   4  -3 -11 8.95638 6.52561   4 
   4   3  11 12.6470 7.41190   1 
   4  -3 -11 5.36875 9.50756   3 
   4   3  11 8.65368 8.74137   2 
   5  -3  11 9.15945 2.98876   1 
   5  -3  11 10.4644 5.28558   2 
  -5  -3 -11 15.3512 7.85111   4 
  -5  -3 -11 3.14969 10.0745   3 
   5  -3  11 3.46317 5.81519   3 
   5  -3 -11 21.8056 7.21875   4 
   5   3  11 1.33275 9.07987   2 
   5   3  11 15.3257 7.91235   1 
   6  -3  11 23.1446 7.43565   3 
  -6  -3 -11 14.7344 7.30531   4 
  -6  -3 -11 6.04771 10.1055   3 
   6  -3  11 11.6284 5.79723   2 
   6   3  11 14.4897 9.17622   2 
   7  -3  11 14.7246 6.42189   2 
  -7  -3 -11 15.5816 8.35687   4 
   7   3  11 8.34508 8.26379   1 
  -8  -3 -11 3.74992 10.8261   3 
  -8  -3 -11 8.82225 10.5919   4 
   8  -3  11 2.05379 11.6683   2 
   8   3  11 3.48637 9.80237   2 
   8   3  11 -4.4122 7.92765   1 
   9  -3  11 -0.6880 6.96370   2 
  -9  -3 -11 7.85641 8.56735   4 
  -9  -3 -11 -3.2924 9.74309   3 
   9   3  11 4.01847 8.53618   1 
   9  -3 -11 1.71766 7.65210   2 
   9   3  11 -3.7684 10.6271   2 
  10  -3  11 -6.3975 7.30296   2 
 -10  -3 -11 1.69886 8.73094   4 
 -10  -3 -11 1.73711 11.6123   3 
  10  -3 -11 5.20401 7.85668   2 
  10   3  11 6.23723 8.91149   1 
  10   3  11 5.71432 11.7243   2 
 -11  -3 -11 10.9595 8.31093   4 
 -11  -3 -11 9.37966 16.2002   3 
  11  -3  11 16.5037 8.40373   2 
  11   3  11 10.7773 13.0837   2 
  11   3  11 9.24355 10.0139   1 
  11  -3 -11 12.0314 8.38686   2 
 -12  -3 -11 201.410 17.7675   4 
  12  -3  11 221.489 18.0105   2 
 -12  -3 -11 201.537 22.9928   3 
  12   3  11 167.631 18.0253   1 
  12   3  11 186.884 23.5978   2 
  12  -3 -11 184.542 18.4334   2 
  13  -3  11 306.206 23.9264   2 
 -13  -3 -11 273.144 27.4832   3 
  13  -3 -11 333.430 26.1885   2 
  13   3  11 208.185 21.6391   1 
  13   3  11 264.362 27.6066   2 
 -14  -3 -11 153.806 17.4074   4 
  14  -3  11 153.245 17.4065   2 
 -14  -3 -11 132.251 19.7767   3 
  14   3  11 86.4690 18.2776   2 
  14  -3 -11 145.785 17.8589   2 
   0  -4  11 -4.5401 4.96464   1 
   0  -4 -11 -2.0409 10.9998   3 
   0   4  11 -6.6703 7.95072   1 
   0  -4 -11 7.46360 8.15150   4 
   1  -4  11 28.7725 5.38468   1 
  -1  -4 -11 26.1126 11.9901   3 
  -1   4  11 26.7898 12.2950   1 
  -1  -4 -11 48.0057 10.6137   4 
  -1  -4  11 32.4674 5.98320   1 
  -1  -4  11 27.3903 4.61201   4 
   1  -4 -11 31.7353 11.8349   3 
   1   4  11 30.9928 9.00783   1 
   1  -4 -11 32.2085 9.23225   4 
  -2   4  11 -9.9815 14.0098   1 
  -2  -4 -11 9.46349 11.4590   3 
  -2  -4 -11 7.02577 7.92011   4 
   2  -4  11 -3.1168 3.62899   1 
   2   4  11 16.4280 8.89495   1 
   2  -4 -11 0.20860 10.5955   3 
   2  -4 -11 2.92906 7.68675   4 
  -3  -4 -11 254.253 19.2184   4 
  -3  -4 -11 229.143 22.4960   3 
   3  -4  11 211.782 13.3777   1 
   3   4  11 198.885 18.0893   1 
   3  -4 -11 242.396 21.3612   3 
  -4  -4 -11 28.4876 12.9973   3 
  -4  -4 -11 31.7080 9.19138   4 
   4  -4  11 44.6086 5.89969   2 
   4   4  11 32.7794 9.47233   1 
   4  -4 -11 29.2157 8.30554   4 
   4  -4 -11 39.5237 13.2658   3 
   5  -4  11 18.8539 6.14197   3 
   5  -4  11 21.2067 5.19038   2 
  -5  -4 -11 17.0453 12.9997   3 
  -5  -4 -11 28.1847 10.1140   4 
   5  -4 -11 8.96396 11.4734   3 
   5   4  11 16.0465 9.58588   1 
   5  -4 -11 31.2244 9.13735   4 
  -6  -4 -11 179.144 16.5498   4 
  -6  -4 -11 159.514 20.0563   3 
   6  -4  11 174.013 12.8350   2 
   6   4  11 180.206 17.3319   1 
   6  -4 -11 174.451 16.1151   4 
  -7  -4 -11 92.3910 16.8560   3 
  -7  -4 -11 123.462 15.2065   4 
   7  -4  11 129.046 11.1608   2 
   7   4  11 127.622 18.8956   1 
   7   4  11 86.1907 14.3209   2 
  -8  -4 -11 6.32921 8.57034   4 
  -8  -4 -11 16.6736 14.0718   3 
   8  -4  11 22.6858 7.01744   2 
   8   4  11 24.4019 10.5300   1 
   8   4  11 13.8227 11.5536   2 
  -9  -4 -11 0.79787 7.96522   4 
   9  -4  11 24.7854 7.25604   2 
  -9  -4 -11 10.4167 14.1702   3 
   9  -4 -11 22.9973 8.14481   2 
   9   4  11 18.0621 10.4578   1 
   9   4  11 19.3656 12.3133   2 
  10  -4  11 4.94299 6.80808   2 
 -10  -4 -11 0.61949 9.68547   4 
 -10  -4 -11 1.18942 13.0938   3 
  10  -4 -11 10.2333 8.07964   2 
  10   4  11 -1.6932 10.5276   1 
  10   4  11 -1.2541 12.9243   2 
  11  -4  11 0.89676 6.93172   2 
 -11  -4 -11 -7.1818 14.3024   3 
 -11  -4 -11 22.0505 13.4743   4 
  11   4  11 -8.1177 13.4084   2 
  11   4  11 -1.1040 11.7651   1 
   0   5  11 19.2693 13.5328   1 
   0  -5 -11 7.84797 9.84056   4 
  -1  -5 -11 46.9943 10.0808   4 
  -1  -5 -11 33.9779 21.6351   3 
  -1   5  11 30.2337 14.8759   1 
   1   5  11 65.9322 13.0099   1 
   1  -5 -11 25.0160 9.90114   4 
   1  -5 -11 68.0783 16.9119   3 
  -2   5  11 -1.4437 13.9496   1 
  -2  -5 -11 -17.181 14.1219   4 
  -2  -5  11 1.15646 5.86510   4 
   2  -5 -11 4.48938 14.5192   3 
   2  -5 -11 -2.8397 8.31716   4 
   2   5  11 1.09513 9.99819   1 
  -3  -5 -11 136.099 31.2809   3 
  -3  -5 -11 143.931 20.5701   4 
  -3   5  11 99.0618 15.6966   1 
   3  -5 -11 97.6787 17.7302   3 
   3   5  11 88.1860 13.8586   1 
  -3  -5  11 83.4822 9.20851   4 
   3  -5 -11 109.027 13.4075   4 
  -4  -5 -11 -0.2353 10.2738   4 
  -4  -5 -11 -2.3237 13.8907   3 
  -4   5  11 1.79380 11.3869   1 
   4   5  11 -0.3847 9.99257   1 
   4  -5 -11 -0.6061 8.96261   4 
   4  -5 -11 -10.576 13.0558   3 
  -4  -5  11 0.75090 5.41217   4 
  -5  -5 -11 7.60760 10.2886   4 
  -5   5  11 3.24249 10.8952   1 
  -5  -5 -11 9.72031 13.2452   3 
   5   5  11 8.57609 10.2431   1 
   5  -5 -11 0.56903 8.99021   4 
   5  -5 -11 8.50844 15.5552   3 
  -5  -5  11 5.92075 6.59036   4 
  -6  -5 -11 18.6638 15.4530   3 
  -6  -5 -11 -0.7093 11.0230   4 
   6  -5 -11 6.70116 8.34981   4 
  -6  -5  11 8.77746 10.3630   4 
   6   5  11 -3.0998 11.2211   1 
   6  -5 -11 14.1997 14.9819   3 
  -7   5  11 10.9088 11.8747   1 
  -7  -5 -11 1.23381 10.8577   4 
  -7  -5 -11 4.37986 14.4644   3 
  -7  -5  11 -7.3367 7.70102   4 
   7  -5 -11 1.14283 19.4420   3 
   7   5  11 -5.1941 12.2860   1 
   0   0 -12 907.886 52.6906   2 
   0   0 -12 952.718 54.7232   3 
   0   0  12 983.340 53.2765   2 
   0   0  12 935.043 52.4348   4 
  -1   0 -12 99.4775 12.0544   3 
   1   0 -12 111.213 11.6710   3 
  -1   0 -12 112.536 9.57925   2 
   1   0 -12 115.992 9.41845   2 
  -1   0  12 102.774 8.20052   4 
   1   0  12 97.3245 10.5486   2 
   1   0  12 106.175 8.14364   4 
   2   0 -12 353.737 20.2777   2 
  -2   0 -12 315.103 23.0339   3 
  -2   0  12 324.720 19.8950   4 
  -2   0 -12 332.232 20.5237   2 
  -2   0 -12 327.519 19.7749   4 
   2   0  12 347.930 21.2588   2 
   2   0  12 303.120 20.1754   4 
   2   0 -12 357.851 22.3008   2 
   2   0 -12 318.013 22.2494   3 
   3   0  12 528.461 30.0706   2 
   3   0 -12 492.563 30.5945   3 
   3   0  12 521.690 30.5082   4 
  -3   0 -12 495.602 28.4276   4 
  -3   0 -12 502.133 29.2397   2 
  -3   0 -12 478.878 31.6759   3 
   3   0 -12 451.052 29.6526   2 
   3   0 -12 484.655 29.2920   2 
  -3   0  12 520.695 29.2274   4 
   4   0 -12 25.8857 5.78084   2 
  -4   0 -12 25.3801 8.55368   3 
  -4   0 -12 24.1614 4.37463   4 
  -4   0 -12 25.1167 6.12459   2 
   4   0 -12 32.7952 8.19815   3 
   4   0  12 30.8524 6.80405   2 
   4   0 -12 21.9696 5.32777   2 
   4   0  12 15.4436 9.07919   3 
  -4   0  12 33.4581 5.10535   4 
  -5   0 -12 26.1392 6.35719   2 
   5   0 -12 27.1235 4.97335   2 
  -5   0 -12 33.6701 4.75169   4 
   5   0 -12 36.7113 6.29132   2 
   5   0  12 23.5353 7.27169   2 
  -5   0 -12 18.3981 7.45948   3 
   5   0 -12 34.0096 7.74365   3 
  -6   0 -12 378.235 24.1195   2 
   6   0  12 387.441 24.8916   2 
   6   0  12 393.148 23.2519   1 
  -6   0 -12 372.556 22.0077   4 
   6   0 -12 380.872 22.8971   2 
   6   0 -12 396.469 24.1016   2 
  -6   0 -12 319.890 25.7819   3 
   7   0  12 192.114 13.9620   1 
  -7   0 -12 174.580 17.6206   3 
   7   0  12 198.322 16.4779   2 
  -7   0 -12 190.685 12.4028   4 
   7   0 -12 185.534 15.1756   2 
  -8   0 -12 67.7507 10.2119   2 
   8   0 -12 59.8318 8.32682   2 
   8   0  12 90.8873 12.9319   2 
  -8   0 -12 68.2961 7.09723   4 
  -8   0 -12 62.1465 11.1720   3 
   8   0  12 76.9618 8.91335   1 
   8   0 -12 64.3827 8.83712   2 
   9   0  12 5.19434 6.14486   1 
  -9   0 -12 -6.6327 7.05049   3 
   9   0  12 4.00793 8.41679   2 
  -9   0 -12 1.40470 6.45565   2 
   9   0 -12 -0.1613 6.21728   2 
  -9   0 -12 3.04336 4.26707   4 
 -10   0 -12 137.228 11.2964   4 
 -10   0 -12 114.938 21.0680   3 
  10   0  12 156.249 17.0374   2 
  10   0 -12 172.376 15.3761   2 
 -10   0 -12 156.368 15.8572   2 
  10   0  12 156.034 12.5508   1 
  11   0 -12 1.51693 7.81541   2 
  11   0  12 9.48912 7.23148   1 
  11   0  12 -2.2230 9.84635   2 
 -11   0 -12 9.81306 9.90810   3 
 -11   0 -12 15.5306 10.4325   2 
 -12   0 -12 118.599 14.3530   2 
 -12   0 -12 89.7899 15.5723   3 
  12   0  12 95.9717 11.0624   1 
  12   0  12 94.3724 14.2567   2 
  13   0  12 148.422 19.3726   2 
  13   0  12 152.016 13.5891   1 
  13   0 -12 148.171 17.8802   2 
  14   0  12 52.2122 12.3106   1 
  14   0 -12 42.4780 11.9538   2 
  14   0  12 55.0392 13.6628   2 
  15   0 -12 -0.2756 10.7302   2 
  15   0  12 -3.1216 8.26256   1 
  15   0  12 -5.1909 12.2145   2 
 -15   0 -12 -2.7539 1.77845   4 
   0  -1 -12 -3.7033 4.22406   4 
   0  -1  12 -4.9895 4.53845   2 
   0   1 -12 2.82506 6.59987   3 
   0  -1 -12 3.19765 4.91004   2 
   0  -1  12 -1.1077 2.68682   4 
   0  -1 -12 -2.1832 6.91216   3 
   0   1  12 -1.0772 3.37324   4 
  -1  -1 -12 11.6377 4.77764   4 
  -1  -1 -12 9.66892 5.14756   2 
  -1  -1 -12 9.43172 7.46008   3 
   1  -1  12 6.11915 2.85256   4 
   1   1 -12 0.16996 6.26948   3 
  -1   1  12 8.21683 3.76431   4 
   1  -1  12 9.25815 5.12673   2 
  -1  -1  12 12.5405 6.21436   4 
   1  -1 -12 7.02930 5.38950   2 
   1   1  12 10.7904 6.38903   2 
   1   1  12 12.9840 4.09565   4 
   1  -1 -12 4.03691 8.03545   3 
   1  -1 -12 9.75308 4.71509   4 
  -1   1 -12 4.85518 6.40907   3 
   2   1 -12 4.26501 6.52332   3 
  -2  -1 -12 2.70461 7.88379   3 
  -2   1  12 6.70804 3.89228   4 
   2   1 -12 5.45765 2.75625   2 
   2  -1  12 5.83624 3.36155   4 
   2  -1  12 14.7480 5.38583   2 
  -2  -1 -12 6.99572 5.46544   2 
  -2  -1 -12 3.81161 4.47842   4 
  -2  -1  12 7.91659 3.22808   4 
   2   1  12 11.3974 5.71594   4 
  -2   1 -12 3.78596 6.44172   3 
   2  -1 -12 2.36474 4.58399   4 
   2   1  12 4.53453 6.35067   2 
   2  -1 -12 7.58811 6.79446   3 
  -3  -1 -12 191.497 13.0659   4 
  -3  -1 -12 161.730 15.1264   2 
   3  -1  12 198.195 18.7389   3 
   3  -1  12 185.114 13.8658   2 
   3   1 -12 188.606 14.7354   3 
   3   1 -12 194.737 12.2582   2 
  -3  -1 -12 175.302 17.0719   3 
   3   1 -12 204.248 11.9311   2 
  -3  -1  12 173.565 12.1038   4 
   3  -1 -12 181.378 15.8441   3 
   3   1  12 176.751 15.4619   4 
  -3   1 -12 193.631 15.8442   3 
   3   1  12 180.744 14.9448   2 
   3  -1 -12 194.130 13.6219   2 
  -4  -1 -12 8.03136 4.79995   4 
   4   1 -12 -0.0682 5.97798   3 
   4   1 -12 5.98808 4.49317   2 
   4   1 -12 2.80426 3.83178   2 
  -4  -1 -12 3.98951 7.98108   3 
   4  -1  12 -3.2525 5.92185   3 
   4  -1 -12 7.50246 4.52096   2 
   4   1  12 4.30522 4.84493   4 
   4   1  12 7.22752 7.10446   2 
  -4  -1  12 5.44013 4.01603   4 
  -4   1 -12 3.73545 6.23363   3 
   4  -1 -12 5.59620 7.94903   3 
   5   1 -12 27.7780 5.78557   2 
  -5  -1 -12 17.6025 5.31326   4 
   5   1 -12 15.4255 4.66516   2 
  -5  -1 -12 22.9669 7.08140   2 
   5  -1  12 17.8605 6.71339   2 
   5  -1  12 10.4728 6.57569   3 
   5   1 -12 22.5100 7.38214   3 
  -5  -1 -12 13.9005 8.60565   3 
   5  -1 -12 14.3547 5.22432   2 
   5   1  12 26.3250 6.73944   1 
  -5   1 -12 22.3937 8.22039   3 
   5  -1 -12 16.9388 5.71372   2 
  -5  -1  12 22.9317 4.54712   4 
   5   1  12 22.5329 7.87398   2 
   6   1 -12 725.781 41.1046   2 
  -6  -1 -12 621.504 44.0129   3 
   6  -1  12 752.456 41.8817   2 
  -6  -1 -12 743.586 40.8093   4 
  -6  -1 -12 704.488 41.6747   2 
   6  -1  12 716.526 40.3738   1 
   6   1 -12 701.861 41.6760   3 
   6   1  12 721.712 42.7564   2 
  -6   1 -12 695.351 43.3345   3 
   6   1  12 712.693 41.5212   1 
   6  -1 -12 743.969 42.1024   2 
   7  -1  12 367.372 21.9438   1 
  -7  -1 -12 313.196 23.9754   2 
  -7  -1 -12 345.897 22.2545   4 
   7   1 -12 403.621 21.8737   2 
  -7  -1 -12 318.051 26.1932   3 
   7  -1  12 406.296 24.2682   2 
   7   1  12 338.372 24.7251   2 
  -7   1 -12 342.853 25.2605   3 
   7   1  12 383.130 23.2351   1 
   7  -1 -12 378.521 24.5119   2 
  -8  -1 -12 92.4463 14.2821   3 
   8  -1  12 96.9781 12.8924   2 
   8  -1  12 105.075 9.26185   1 
   8   1 -12 88.8535 12.1964   2 
  -8  -1 -12 106.045 9.72869   4 
   8   1  12 82.2679 12.3135   2 
   8  -1 -12 95.9382 12.2296   2 
  -8   1 -12 108.365 14.3636   3 
   8   1  12 108.761 11.3503   1 
   9   1 -12 143.224 14.0536   2 
   9  -1  12 127.662 14.4492   2 
   9  -1  12 127.388 10.5318   1 
  -9  -1 -12 125.393 11.2235   4 
  -9  -1 -12 90.5286 19.4070   3 
   9   1 -12 142.565 11.2205   2 
   9  -1 -12 134.220 13.9878   2 
   9   1  12 123.560 12.2454   1 
  -9   1 -12 122.035 15.4607   3 
   9   1  12 116.142 16.6536   2 
 -10  -1 -12 10.7361 5.85367   4 
  10  -1  12 2.30092 8.26631   2 
 -10  -1 -12 -0.6681 8.89821   3 
  10   1 -12 8.63396 7.93053   2 
  10  -1  12 5.80327 5.79742   1 
  10   1  12 1.93686 7.10873   1 
  10  -1 -12 8.00402 7.46751   2 
  10   1  12 6.37743 16.1910   2 
  11   1 -12 11.5912 8.71614   2 
  11  -1  12 4.73047 9.39267   2 
  11   1 -12 18.9546 7.05752   2 
  11  -1  12 10.4342 6.10992   1 
 -11  -1 -12 19.0602 6.64890   4 
 -11  -1 -12 6.06889 8.78951   3 
  11   1  12 13.6442 11.6116   2 
  11   1  12 14.7285 7.96787   1 
  11  -1 -12 16.9045 8.21432   2 
 -12  -1 -12 28.9516 11.5206   3 
  12  -1  12 54.6636 7.76838   1 
  12   1 -12 57.5187 10.9399   2 
  12  -1  12 26.0847 16.7794   2 
 -12  -1 -12 41.5912 7.62571   4 
  12   1  12 40.0237 9.77944   1 
  12   1  12 45.9600 13.5528   2 
  12  -1 -12 51.2597 10.3821   2 
 -13  -1 -12 2.76592 11.5381   3 
  13  -1  12 1.07320 9.52550   2 
  13  -1  12 -2.5247 6.30676   1 
 -13  -1 -12 26.4224 6.55304   4 
  13   1 -12 6.16758 10.5941   2 
  13   1  12 5.34238 7.92505   1 
  13   1  12 3.92769 12.5777   2 
  13  -1 -12 -7.2721 8.39485   2 
  14   1 -12 89.5083 13.7138   2 
  14  -1  12 96.1488 9.37176   1 
  14  -1  12 60.8521 12.3035   2 
  14  -1 -12 89.6147 13.1931   2 
  14   1  12 80.9229 16.1062   2 
  14   1  12 76.6984 12.2086   1 
  15  -1  12 9.81363 10.6275   2 
  15   1 -12 0.58335 9.79413   2 
  15  -1  12 0.49511 6.81306   1 
 -15  -1 -12 2.87821 1.99416   4 
  15   1  12 -1.5837 18.2922   2 
  15   1  12 0.06068 8.39181   1 
  15  -1 -12 -3.9912 10.4225   2 
   0  -2 -12 735.235 46.2524   3 
   0  -2 -12 747.688 43.6168   4 
   0   2 -12 785.904 44.3521   3 
   1   2 -12 95.7724 10.6212   3 
  -1  -2 -12 80.7496 9.72507   4 
   1  -2  12 93.2275 6.10101   4 
  -1  -2 -12 90.6085 13.4461   3 
   1  -2  12 101.295 8.65838   2 
  -1   2 -12 84.8121 11.0994   3 
   1  -2 -12 72.4608 8.81848   4 
  -1  -2  12 81.8818 6.57177   4 
  -1  -2  12 71.9069 7.92530   1 
   1  -2 -12 88.8684 12.3593   3 
  -2  -2 -12 249.256 20.8382   3 
  -2  -2 -12 261.347 17.5019   4 
   2   2 -12 255.422 17.8539   3 
   2  -2  12 261.757 16.5364   2 
  -2   2 -12 263.686 19.0457   3 
   2  -2 -12 275.527 20.3652   3 
   2  -2 -12 252.950 17.6579   4 
  -2  -2  12 216.083 16.3782   1 
   2   2  12 275.579 19.1050   2 
  -3  -2 -12 405.427 24.4757   4 
   3   2 -12 390.603 24.5775   3 
   3  -2  12 368.843 24.5691   3 
  -3  -2 -12 379.304 27.9534   3 
   3  -2  12 397.438 23.6312   2 
  -3   2 -12 435.276 25.9537   3 
   3  -2 -12 403.778 24.7849   4 
   3  -2 -12 405.734 27.1526   3 
   3   2  12 385.517 25.5991   2 
  -3  -2  12 362.299 22.7194   4 
   4  -2  12 13.7116 8.55803   3 
   4  -2  12 23.1069 5.96734   2 
  -4  -2 -12 9.39158 9.39169   3 
   4   2 -12 25.0460 7.21700   3 
  -4  -2 -12 20.4993 6.50469   4 
   4   2  12 33.1921 8.85815   2 
   4  -2 -12 23.4919 6.51360   4 
   4   2  12 18.4361 7.77510   1 
   4  -2 -12 19.3175 8.84763   3 
  -4   2 -12 30.5158 8.80024   3 
  -5  -2 -12 14.8292 6.40624   4 
   5   2 -12 26.6713 7.10441   3 
  -5  -2 -12 20.1114 9.92921   3 
   5  -2  12 21.1972 6.25479   2 
   5  -2  12 18.6187 6.79789   3 
  -5  -2  12 28.3634 4.71552   4 
  -5   2 -12 22.4532 8.51855   3 
   5   2  12 13.5697 8.52924   2 
   5   2  12 16.9558 7.18465   1 
   6  -2  12 298.335 18.0078   1 
   6   2 -12 280.124 19.7099   3 
   6  -2  12 312.782 21.8058   2 
  -6  -2 -12 299.483 20.2837   4 
  -6  -2 -12 277.948 23.9153   3 
   6   2  12 310.605 20.9611   1 
  -6   2 -12 321.737 22.2985   3 
   6   2  12 286.853 22.5280   2 
   7  -2  12 153.450 10.6147   1 
   7   2 -12 149.454 12.8496   3 
  -7  -2 -12 149.352 17.9979   3 
  -7  -2 -12 165.066 13.6533   4 
   7  -2  12 158.010 13.9334   2 
   7   2  12 149.975 17.3233   2 
   7   2  12 149.891 13.9503   1 
   7  -2 -12 148.785 14.8824   2 
   8  -2  12 58.3174 8.75578   2 
  -8  -2 -12 46.1577 8.29547   4 
   8  -2  12 53.2299 6.24965   1 
   8   2 -12 83.3508 12.5040   3 
  -8  -2 -12 28.8241 13.8193   3 
   8   2  12 51.6568 14.1312   2 
   8   2  12 73.0436 11.7135   1 
   8  -2 -12 40.5812 8.52710   2 
   9  -2  12 -1.9165 4.09313   1 
  -9  -2 -12 9.49622 10.1232   3 
   9  -2  12 0.07445 7.31942   2 
  -9  -2 -12 2.37067 6.78843   4 
   9   2  12 4.49970 9.25183   2 
   9   2  12 1.69544 7.68528   1 
   9  -2 -12 1.93342 7.11560   2 
  10  -2  12 113.562 8.89778   1 
  10  -2  12 133.028 14.6170   2 
 -10  -2 -12 140.230 13.6112   4 
  10   2  12 150.435 19.2936   2 
  10   2  12 109.928 13.7273   1 
  10  -2 -12 123.292 14.7323   2 
  11  -2  12 1.96747 7.89726   2 
 -11  -2 -12 11.5458 10.3052   4 
  11  -2  12 0.22294 3.59540   1 
  11   2 -12 -1.8953 2.39378   2 
 -11  -2 -12 -1.5560 10.2934   3 
  11   2 -12 1.91003 1.99402   2 
  11   2  12 8.62522 11.8994   2 
  11   2  12 -1.5978 8.53985   1 
  11  -2 -12 -2.8058 7.37425   2 
  12  -2  12 82.7404 13.1364   2 
 -12  -2 -12 71.6175 10.7938   4 
  12   2  12 100.324 14.9559   1 
  12   2  12 79.5193 15.7813   2 
  12  -2 -12 73.9231 11.5587   2 
 -13  -2 -12 121.282 13.8850   4 
  13  -2  12 119.205 15.6670   2 
 -13  -2 -12 83.1646 16.7715   3 
  13  -2 -12 142.064 16.8598   2 
  13   2  12 112.315 14.4820   1 
  13   2  12 94.5576 16.9755   2 
  14  -2  12 37.2858 10.7443   2 
 -14  -2 -12 18.3385 8.99351   4 
  14   2  12 11.2125 22.0027   2 
  14  -2 -12 57.1252 13.9701   2 
  14   2  12 28.3393 9.24576   1 
   0  -3 -12 1.10556 6.42921   4 
   0  -3  12 -3.9871 4.18145   1 
   0  -3  12 1.19551 2.31037   4 
   0  -3 -12 1.06362 18.4777   3 
  -1  -3 -12 10.9735 6.99687   4 
  -1  -3 -12 0.06999 9.78439   3 
   1  -3  12 2.75537 4.22774   1 
  -1  -3  12 12.1783 4.98925   1 
  -1  -3  12 4.01996 2.90655   4 
   1  -3 -12 -0.9240 9.02106   3 
   1   3  12 7.03489 7.14852   1 
   1  -3 -12 0.72512 6.35048   4 
   2  -3  12 5.95723 4.12366   1 
  -2  -3 -12 0.96359 11.1201   4 
   2  -3  12 7.14959 4.29419   2 
  -2  -3 -12 4.03073 10.2778   3 
   2   3  12 -0.6216 7.19635   1 
   2  -3 -12 12.4527 9.58699   3 
   2  -3 -12 1.25110 6.56517   4 
  -2  -3  12 6.07366 3.89763   4 
   3  -3  12 123.032 9.51449   2 
  -3  -3 -12 128.979 17.3321   3 
   3  -3  12 95.5734 8.69523   1 
  -3  -3 -12 133.045 12.8955   4 
   3   3  12 113.709 12.6254   1 
  -3  -3  12 100.835 8.40596   4 
   3  -3 -12 123.962 15.7261   3 
   3  -3 -12 129.479 12.8993   4 
  -4  -3 -12 -5.2092 6.66703   4 
   4  -3  12 0.45569 3.33013   1 
   4  -3  12 -3.1959 5.24098   3 
  -4  -3 -12 2.81862 11.0044   3 
   4  -3  12 0.52771 5.11222   2 
  -4  -3  12 0.79602 3.40131   4 
   4  -3 -12 5.08421 13.7528   3 
   4  -3 -12 0.37786 6.70086   4 
   4   3  12 2.14617 9.09967   2 
   5  -3  12 8.53321 6.61371   3 
  -5  -3 -12 6.65543 8.12155   4 
   5  -3  12 14.5598 5.95242   2 
   5  -3  12 11.0426 5.36618   1 
  -5  -3 -12 16.0008 14.0386   3 
   5  -3 -12 26.1654 13.3206   3 
   5  -3 -12 14.2056 8.91826   4 
   5   3  12 15.8917 8.34570   1 
  -6  -3 -12 393.579 32.7789   3 
  -6  -3 -12 491.703 30.3644   4 
   6  -3  12 491.313 28.3985   2 
   6   3  12 493.333 32.2064   2 
   6   3  12 467.253 30.4347   1 
  -7  -3 -12 230.322 21.6317   4 
   7  -3  12 228.311 17.0558   2 
  -7  -3 -12 199.215 21.5666   3 
   7   3  12 220.219 18.2339   1 
   7   3  12 190.267 20.7233   2 
  -8  -3 -12 58.6697 10.4257   4 
   8  -3  12 65.4646 9.04537   2 
  -8  -3 -12 57.8281 14.5867   3 
   8   3  12 52.9022 12.2393   2 
   8   3  12 46.5928 9.80302   1 
  -9  -3 -12 59.4432 13.8096   3 
   9  -3  12 76.0309 9.60860   2 
  -9  -3 -12 76.3145 11.7657   4 
   9  -3 -12 49.8046 9.72097   2 
   9   3  12 51.2057 12.7226   2 
   9   3  12 59.8423 10.2020   1 
 -10  -3 -12 3.74365 8.77765   4 
 -10  -3 -12 3.88543 13.2357   3 
  10  -3  12 -0.4159 7.53297   2 
  10  -3 -12 7.63418 7.80759   2 
  10   3  12 4.25551 11.0804   2 
  10   3  12 2.80642 9.30486   1 
 -11  -3 -12 0.69583 8.14399   4 
 -11  -3 -12 3.96955 12.3624   3 
  11  -3  12 6.60321 7.99095   2 
  11   3  12 3.42772 12.5988   2 
  11  -3 -12 7.51146 8.61148   2 
  11   3  12 -2.0885 9.78681   1 
 -12  -3 -12 21.0941 10.2693   4 
 -12  -3 -12 12.7085 13.7088   3 
  12  -3  12 38.0689 13.8291   2 
  12  -3 -12 24.9659 9.55799   2 
  12   3  12 20.3112 15.6627   2 
  12   3  12 26.5794 11.6600   1 
 -13  -3 -12 4.46932 9.22975   4 
 -13  -3 -12 -6.4431 14.2198   3 
  13  -3  12 7.54344 8.68736   2 
  13   3  12 12.4179 11.8606   1 
  13   3  12 -0.1389 13.8922   2 
  13  -3 -12 2.11409 9.14745   2 
   0  -4 -12 353.891 23.2817   4 
   0   4  12 354.918 23.6729   1 
   0  -4 -12 345.376 27.3143   3 
   0  -4  12 282.641 20.4754   1 
  -1  -4 -12 57.4533 13.7048   3 
   1  -4  12 53.9491 6.76683   1 
  -1  -4 -12 35.2926 9.02092   4 
  -1   4  12 57.5749 10.0842   1 
   1  -4 -12 53.0193 10.3472   4 
  -1  -4  12 35.2748 4.72660   4 
  -1  -4  12 42.5450 4.59332   4 
   1   4  12 36.8772 10.0800   1 
   1  -4 -12 37.4244 13.8672   3 
  -2   4  12 130.121 13.9961   1 
  -2  -4 -12 111.625 17.2871   3 
   2  -4  12 98.8349 8.95790   1 
  -2  -4 -12 139.209 14.7838   4 
   2   4  12 118.979 14.6048   1 
   2  -4 -12 148.675 15.1673   4 
   2  -4 -12 125.039 17.7457   3 
  -3  -4 -12 178.241 20.6124   3 
  -3  -4 -12 190.058 16.7643   4 
   3  -4 -12 167.013 18.9792   3 
  -3  -4  12 151.331 11.2940   4 
   4  -4  12 6.52950 4.18537   2 
  -4  -4 -12 11.5825 9.59003   4 
  -4  -4 -12 16.7091 13.6186   3 
   4   4  12 9.28117 9.46531   1 
   4  -4 -12 5.74068 7.94188   4 
   4  -4 -12 16.5367 12.3880   3 
   5  -4  12 3.30121 4.82097   2 
  -5  -4 -12 12.4313 13.1239   3 
  -5  -4 -12 -1.6049 9.07183   4 
   5  -4 -12 15.3958 14.7836   3 
   5  -4 -12 10.0353 8.37241   4 
   6  -4  12 155.325 12.5059   2 
  -6  -4 -12 129.989 19.1905   3 
  -6  -4 -12 137.657 16.8147   4 
   6   4  12 160.470 16.5248   1 
   6  -4 -12 147.444 15.4506   4 
   6  -4 -12 182.894 21.8170   3 
  -7  -4 -12 81.3468 20.8015   3 
  -7  -4 -12 56.1475 12.2006   4 
   7  -4  12 84.7946 9.48473   2 
   7   4  12 55.5017 13.2978   2 
   7   4  12 51.9674 11.9297   1 
   8  -4  12 22.1521 10.7714   2 
  -8  -4 -12 27.6241 11.1753   4 
  -8  -4 -12 1.23711 13.8428   3 
   8   4  12 13.6103 9.88751   1 
   8   4  12 32.2074 13.7571   2 
   9  -4  12 -4.8896 6.67393   2 
  -9  -4 -12 7.45516 14.0204   3 
  -9  -4 -12 -2.2648 9.37942   4 
   9  -4 -12 -2.3379 8.58683   2 
   9   4  12 0.44958 13.0290   1 
   9   4  12 -6.6760 13.1868   2 
 -10  -4 -12 42.0386 11.2737   4 
  10  -4  12 65.4706 9.89176   2 
 -10  -4 -12 36.2873 14.7343   3 
  10  -4 -12 19.4259 10.6774   2 
  10   4  12 45.7177 17.0412   2 
  10   4  12 39.5016 13.5482   1 
   0  -5 -12 -1.8981 13.5563   3 
   0  -5 -12 4.45276 9.55288   4 
   0   5  12 -0.1461 10.6702   1 
  -1  -5 -12 5.70582 14.1333   3 
  -1  -5 -12 11.7738 9.12415   4 
  -1   5  12 3.89959 10.0192   1 
   1  -5 -12 12.4470 9.61395   4 
   1  -5 -12 -10.739 13.1863   3 
   1   5  12 12.1092 11.1088   1 
  -2  -5 -12 -0.0485 14.1058   3 
  -2   5  12 -3.7821 9.40577   1 
  -2  -5 -12 3.38881 9.87161   4 
   2   5  12 -7.3620 10.5536   1 
   2  -5 -12 -1.8060 14.6772   3 
   2  -5 -12 -0.5568 14.1224   4 
  -3   5  12 48.4211 11.1908   1 
  -3  -5 -12 23.8646 10.3451   4 
  -3  -5 -12 33.0458 14.9132   3 
  -3  -5  12 35.0336 7.63689   4 
   3  -5 -12 48.9650 11.1705   4 
   3  -5 -12 38.7939 17.3365   3 
   3   5  12 17.6963 10.9197   1 
  -4  -5 -12 -7.3942 13.4062   4 
  -4   5  12 2.63760 9.49222   1 
  -4  -5 -12 -1.5852 13.6274   3 
   4  -5 -12 13.3640 13.7989   3 
   4   5  12 -3.3478 12.1379   1 
   4  -5 -12 0.38655 9.93739   4 
  -4  -5  12 2.48157 5.34749   4 
  -5  -5 -12 -5.3955 13.6414   3 
  -5   5  12 17.4401 10.9767   1 
   5  -5 -12 9.44041 19.1669   3 
  -5  -5  12 16.1836 6.42838   4 
   5   5  12 -2.5118 11.4810   1 
  -6  -5 -12 221.525 23.4186   3 
  -6   5  12 179.302 17.7308   1 
  -6  -5 -12 214.849 19.9245   4 
   6  -5 -12 185.551 25.0048   3 
   6  -5 -12 173.120 17.6056   4 
   6   5  12 151.914 19.3034   1 
  -6  -5  12 146.745 18.8791   4 
   0   0 -13 -0.1316 7.17831   3 
   0   0  13 2.88070 5.79329   2 
   0   0  13 1.02578 3.41862   4 
   0   0 -13 0.97678 4.81959   2 
  -1   0 -13 73.0265 8.78759   2 
   1   0  13 75.8803 7.01511   4 
   1   0 -13 85.1134 8.49705   2 
  -1   0 -13 64.2623 10.4867   3 
   1   0 -13 58.1358 10.0139   3 
  -1   0  13 72.2641 9.14398   4 
   1   0  13 80.5866 10.1054   2 
   2   0  13 21.1680 6.75679   2 
   2   0 -13 21.2128 5.62902   2 
   2   0  13 17.1479 4.04728   4 
  -2   0 -13 15.9768 4.49238   4 
   2   0 -13 12.6746 4.94684   2 
  -2   0 -13 19.4855 8.81661   3 
  -2   0 -13 17.2510 5.57705   2 
  -2   0  13 21.2387 4.35434   4 
   2   0 -13 19.9073 8.19981   3 
   3   0  13 -1.1672 6.39677   2 
   3   0 -13 -0.6765 6.51932   3 
  -3   0 -13 3.86786 5.23845   2 
  -3   0  13 3.11657 3.77642   4 
   3   0 -13 -4.8425 4.72311   2 
  -3   0 -13 0.62526 3.80619   4 
   3   0  13 -3.4619 3.37289   4 
  -3   0 -13 -5.3118 7.02518   3 
   4   0 -13 188.970 13.0382   2 
  -4   0 -13 175.590 13.9722   2 
   4   0 -13 179.529 13.6180   2 
  -4   0 -13 172.512 12.0136   4 
  -4   0 -13 161.197 16.3972   3 
   4   0  13 191.735 15.3547   2 
   4   0 -13 176.924 15.1529   3 
   5   0 -13 36.8870 5.91753   2 
  -5   0 -13 25.8788 6.85355   2 
   5   0 -13 28.5790 6.32863   2 
  -5   0 -13 38.0795 5.06568   4 
   5   0  13 35.8465 8.02397   2 
   5   0 -13 30.5225 8.86310   3 
  -5   0 -13 11.0269 7.38912   3 
   6   0 -13 96.8102 10.8181   2 
   6   0  13 86.1456 9.80734   1 
  -6   0 -13 87.6303 7.92675   4 
  -6   0 -13 60.0959 11.8598   3 
   6   0 -13 96.1103 10.0406   2 
   6   0  13 107.798 12.9757   2 
   6   0 -13 84.6279 11.6270   3 
  -6   0 -13 88.2807 12.2121   2 
   7   0 -13 54.9648 8.25073   2 
   7   0 -13 54.1455 8.01252   2 
  -7   0 -13 92.0372 14.2509   2 
   7   0  13 60.4593 10.1858   2 
   7   0  13 67.8607 8.91092   1 
  -7   0 -13 77.8000 13.7900   3 
  -7   0 -13 52.6215 5.96635   4 
   8   0  13 79.3143 9.42552   1 
   8   0  13 49.5452 10.4991   2 
   8   0 -13 53.1799 7.46542   2 
  -8   0 -13 57.4176 9.53909   2 
  -8   0 -13 77.2971 7.68093   4 
  -8   0 -13 56.0246 12.1551   3 
   8   0 -13 57.4674 8.82523   2 
   9   0  13 47.4084 8.27991   1 
   9   0  13 28.8538 10.3122   2 
   9   0 -13 38.6024 8.40713   2 
  -9   0 -13 47.9274 8.12916   2 
  -9   0 -13 45.7556 13.0330   3 
 -10   0 -13 643.297 43.2755   2 
  10   0  13 804.406 45.5069   2 
 -10   0 -13 659.056 45.1824   3 
  10   0 -13 797.165 44.2684   2 
  10   0  13 701.420 41.8584   1 
  11   0  13 -1.5394 6.65705   1 
 -11   0 -13 33.4023 9.28993   2 
  11   0 -13 4.70494 8.66274   2 
  11   0  13 4.63902 10.5413   2 
 -11   0 -13 4.49396 11.2262   3 
 -11   0 -13 2.37943 1.07536   4 
 -12   0 -13 0.66963 1.13553   4 
  12   0  13 -1.6179 6.88481   1 
  12   0  13 1.02862 10.6158   2 
  12   0 -13 2.71830 9.09084   2 
 -12   0 -13 10.1980 15.5006   3 
  13   0  13 13.6599 12.5775   1 
  13   0 -13 25.0273 10.7956   2 
  13   0  13 18.0855 12.2076   2 
  14   0 -13 52.4602 12.3277   2 
  14   0  13 42.5033 9.58059   1 
  14   0  13 50.7442 13.8313   2 
  15   0 -13 63.2980 13.8426   2 
  15   0  13 39.3723 9.90176   1 
   0  -1 -13 220.465 18.1017   3 
   0  -1 -13 216.776 14.8844   4 
   0   1 -13 198.142 16.9301   3 
   0   1  13 207.825 14.3441   4 
   0  -1 -13 221.315 15.7740   2 
   0  -1  13 192.067 15.3414   2 
   1  -1  13 266.841 19.4701   2 
   1   1 -13 264.678 19.7214   3 
  -1  -1 -13 255.594 20.8616   3 
   1  -1  13 273.571 16.1253   4 
  -1  -1 -13 255.340 20.0567   2 
  -1  -1 -13 289.128 17.7450   4 
  -1  -1  13 270.054 16.3098   4 
   1  -1 -13 265.420 18.1011   2 
   1   1  13 277.660 17.2559   4 
   1  -1 -13 269.350 21.1134   3 
   1  -1 -13 268.309 17.7763   4 
  -1   1 -13 268.139 19.9233   3 
   1   1  13 274.804 19.3163   2 
   2  -1  13 513.143 28.4451   4 
  -2  -1 -13 529.011 29.7993   4 
   2  -1  13 482.983 30.8282   2 
  -2  -1 -13 475.758 32.1509   2 
  -2  -1 -13 517.153 33.3636   3 
   2   1 -13 518.415 31.3933   3 
   2   1  13 541.859 31.1452   2 
   2  -1 -13 469.347 31.9329   3 
   2  -1 -13 514.347 30.0434   2 
  -2   1 -13 476.851 31.9486   3 
   2   1  13 494.488 29.4587   4 
  -2  -1  13 502.928 28.8434   4 
  -3  -1 -13 130.905 13.4359   2 
  -3  -1 -13 127.686 16.0615   3 
   3  -1  13 158.885 12.8834   2 
   3   1 -13 155.452 9.56998   2 
   3   1 -13 118.605 10.5347   2 
  -3  -1 -13 144.882 11.5585   4 
   3   1 -13 136.377 13.4763   3 
   3  -1 -13 154.221 14.5876   3 
  -3   1 -13 161.900 14.8377   3 
   3  -1 -13 152.206 12.0877   2 
  -3  -1  13 124.486 13.2658   4 
   3   1  13 140.650 10.9689   4 
   3   1  13 154.737 14.4325   2 
   4   1 -13 74.4813 10.8281   3 
   4   1 -13 93.0707 8.02410   2 
  -4  -1 -13 71.4255 10.3125   2 
  -4  -1 -13 50.3909 11.4599   3 
  -4  -1 -13 79.7885 8.57995   4 
   4  -1  13 81.4461 10.4840   2 
  -4   1 -13 52.9086 9.69890   3 
  -4  -1  13 71.2506 7.16060   4 
   4  -1 -13 82.2667 12.1268   3 
   4   1  13 89.8255 12.1296   2 
   4  -1 -13 70.8025 10.3978   2 
   5   1 -13 7.44778 4.81296   2 
   5   1 -13 8.61751 7.58839   3 
  -5  -1 -13 8.84678 5.93661   2 
  -5  -1 -13 4.09325 4.86419   4 
  -5  -1 -13 3.82365 11.6315   3 
   5  -1  13 9.53121 7.02271   2 
  -5   1 -13 4.12303 7.52560   3 
   5  -1 -13 11.8657 8.94073   3 
   5   1  13 -0.4540 7.41780   2 
   5  -1 -13 6.66290 5.78744   2 
   5   1  13 10.8604 6.60623   1 
   6   1 -13 3.95726 6.93473   3 
   6   1 -13 -1.4325 5.38885   2 
   6  -1  13 -1.3489 5.05733   1 
  -6  -1 -13 -5.0217 7.58505   3 
  -6  -1 -13 -5.6638 6.22464   2 
  -6  -1 -13 1.45531 5.06147   4 
   6  -1  13 4.09975 7.09896   2 
  -6   1 -13 -1.5572 7.97256   3 
   6   1  13 6.78800 8.46454   2 
   6  -1 -13 -5.5024 5.46190   2 
   6   1  13 -0.0735 6.28756   1 
  -7  -1 -13 110.158 10.3067   4 
   7  -1  13 96.2020 10.0281   1 
   7  -1  13 122.312 13.5445   2 
   7   1 -13 105.543 12.3488   3 
   7   1  13 141.121 15.3786   2 
  -7   1 -13 110.848 14.3529   3 
   7  -1 -13 111.038 12.7249   2 
   7   1  13 115.919 11.7586   1 
   8  -1  13 62.6852 7.93403   1 
   8  -1  13 46.9490 9.40755   2 
   8   1 -13 56.4805 8.24582   2 
  -8  -1 -13 35.6566 13.2966   3 
  -8  -1 -13 46.5421 7.13263   4 
   8   1 -13 48.6506 8.99507   3 
   8  -1 -13 44.6517 8.55303   2 
   8   1  13 53.3827 9.29148   1 
   8   1  13 40.8351 10.7818   2 
  -8   1 -13 48.7195 11.0961   3 
  -9  -1 -13 92.1218 17.9766   3 
   9  -1  13 123.682 10.5092   1 
   9   1 -13 148.777 9.98665   2 
   9  -1  13 110.514 14.3452   2 
   9   1 -13 117.674 12.9221   2 
  -9  -1 -13 106.917 11.1061   4 
   9   1  13 112.161 12.9476   1 
  -9   1 -13 130.953 20.5963   3 
   9  -1 -13 104.495 14.0425   2 
   9   1  13 109.067 19.8431   2 
 -10  -1 -13 130.841 12.1819   4 
  10  -1  13 132.083 11.6418   1 
  10   1 -13 165.115 14.4348   2 
  10  -1  13 144.853 16.4800   2 
 -10  -1 -13 124.916 18.2264   3 
  10   1  13 169.527 19.1183   2 
  10   1  13 159.044 18.0672   1 
 -10   1 -13 128.498 17.0812   3 
  10  -1 -13 152.162 15.6049   2 
 -11  -1 -13 4.38988 5.99828   4 
 -11  -1 -13 -0.0811 11.1142   3 
  11  -1  13 1.78208 10.3107   2 
  11  -1  13 -1.4025 6.10418   1 
  11   1  13 -0.7222 7.73527   1 
  11  -1 -13 -0.0019 7.34321   2 
  11   1  13 8.73763 11.9680   2 
  12  -1  13 11.6698 6.82410   1 
 -12  -1 -13 9.24834 12.5202   3 
  12  -1  13 14.8759 10.9429   2 
 -12  -1 -13 36.6530 6.01118   4 
  12   1  13 15.1148 12.2371   2 
  12  -1 -13 29.4123 10.0245   2 
  12   1  13 11.2070 9.01106   1 
 -13  -1 -13 14.9697 17.0652   3 
  13  -1  13 24.8707 10.9527   2 
  13  -1  13 16.8385 7.21997   1 
  13  -1 -13 13.7743 9.77580   2 
  13   1  13 2.18727 13.5858   2 
  13   1  13 20.3233 9.26549   1 
  14   1 -13 31.6332 7.62388   2 
  14  -1  13 17.1597 11.1570   2 
  14  -1  13 14.9784 7.02456   1 
 -14  -1 -13 4.39535 16.8714   3 
  14  -1 -13 12.4835 10.4500   2 
  14   1  13 15.3684 15.9878   2 
  14   1  13 24.9451 9.70996   1 
   0   2 -13 0.54149 9.02280   3 
   0  -2  13 3.83047 2.80963   4 
   0  -2 -13 -5.2728 17.1660   3 
   0  -2 -13 -4.6497 5.81007   4 
   1   2 -13 54.8378 10.0363   3 
   1  -2  13 64.5629 5.22301   4 
  -1  -2 -13 64.6774 12.2590   3 
  -1  -2 -13 68.8995 8.68616   4 
   1  -2  13 58.8675 8.21453   2 
   1  -2 -13 50.0614 11.2213   3 
  -1   2 -13 71.2480 10.3816   3 
   1  -2 -13 60.8937 8.20298   4 
  -1  -2  13 55.7310 5.74304   4 
  -2  -2 -13 5.60715 9.49994   3 
   2  -2  13 18.4251 5.49436   2 
   2   2 -13 18.7115 7.29754   3 
  -2  -2 -13 15.2962 6.53263   4 
  -2   2 -13 8.93509 7.58578   3 
   2  -2 -13 13.5839 6.35749   4 
   2  -2 -13 12.9378 9.04393   3 
   2   2  13 7.97580 7.64345   2 
  -2  -2  13 16.5879 3.68908   4 
   3   2 -13 -9.4210 6.50406   3 
   3  -2  13 4.27473 5.47982   2 
  -3  -2 -13 0.37878 9.42412   3 
  -3  -2 -13 1.58177 6.15027   4 
   3   2  13 1.82576 7.82168   2 
   3  -2 -13 -4.0509 8.34828   3 
  -3  -2  13 -4.6353 3.09055   4 
  -3   2 -13 0.09261 7.26473   3 
   3  -2 -13 -1.2713 5.72435   4 
   4  -2  13 151.848 12.3183   2 
   4   2 -13 138.177 13.0568   3 
  -4  -2 -13 134.205 17.2773   3 
  -4  -2 -13 133.107 12.2418   4 
   4  -2  13 106.642 12.1479   3 
   4   2  13 128.680 12.9366   1 
  -4  -2  13 129.815 9.69090   4 
  -4   2 -13 151.948 14.4701   3 
   4   2  13 144.839 15.6162   2 
   4  -2 -13 132.599 15.7048   3 
   5   2 -13 31.7369 8.06986   3 
  -5  -2 -13 32.8793 11.8818   3 
  -5  -2 -13 16.3508 6.83463   4 
   5   2  13 24.2305 9.42926   2 
   5   2  13 11.6195 8.26498   1 
  -5   2 -13 25.8424 10.0736   3 
   5  -2 -13 10.1991 8.82141   3 
   6  -2  13 76.8825 10.7824   2 
   6  -2  13 82.7352 8.35853   1 
   6   2 -13 71.4894 10.6669   3 
  -6  -2 -13 80.9096 9.80632   4 
   6   2  13 43.3700 10.9881   2 
  -6   2 -13 76.1919 11.8148   3 
   6   2  13 79.3284 11.0751   1 
  -7  -2 -13 46.1309 8.46717   4 
   7  -2  13 45.3894 8.49438   2 
  -7  -2 -13 21.2947 11.2759   3 
   7   2  13 75.9659 15.0641   1 
   8  -2  13 48.4727 9.56915   2 
   8  -2  13 59.3973 7.02983   1 
  -8  -2 -13 42.3978 13.0986   3 
  -8  -2 -13 54.1637 9.16275   4 
   8   2  13 35.6072 9.20471   1 
   8  -2 -13 37.2175 8.95871   2 
   8   2  13 44.4923 12.6194   2 
   9  -2  13 34.8774 8.92841   2 
  -9  -2 -13 39.3385 8.66918   4 
  -9  -2 -13 25.6007 12.0372   3 
   9  -2  13 33.1973 5.71611   1 
   9  -2 -13 25.7102 9.19975   2 
   9   2  13 19.5719 12.4006   2 
   9   2  13 39.3003 10.1802   1 
  10  -2  13 588.850 34.3298   1 
 -10  -2 -13 595.500 45.0390   3 
 -10  -2 -13 674.488 40.7171   4 
  10  -2  13 597.546 37.6609   2 
  10   2  13 602.533 41.5041   2 
  10  -2 -13 622.676 39.6650   2 
  10   2  13 595.177 37.4808   1 
  11  -2  13 4.11535 8.82415   2 
  11   2 -13 -1.6944 2.19887   3 
  11  -2  13 -0.8895 4.04942   1 
 -11  -2 -13 14.3433 8.21613   4 
 -11  -2 -13 -3.5797 10.7671   3 
  11   2  13 -0.4828 12.4300   2 
  11   2  13 -0.0212 9.87021   1 
  11  -2 -13 -0.3823 8.55352   2 
 -12  -2 -13 5.79981 11.2335   3 
  12  -2  13 -4.7373 8.75407   2 
 -12  -2 -13 -5.3893 7.74328   4 
  12  -2 -13 -1.6998 9.12290   2 
  12   2  13 9.28764 8.51861   1 
  12   2  13 -11.535 12.6793   2 
 -13  -2 -13 11.0880 14.6841   3 
 -13  -2 -13 -0.4251 7.93478   4 
  13  -2  13 12.3750 9.46300   2 
  13   2  13 1.32424 9.61139   1 
  13  -2 -13 15.7250 10.1462   2 
  13   2  13 12.7931 21.5328   2 
  14  -2 -13 21.6337 10.6961   2 
   0  -3  13 120.832 7.68199   4 
   0  -3 -13 141.706 13.8926   4 
   0  -3 -13 122.331 17.2360   3 
  -1  -3 -13 181.565 20.6994   3 
  -1  -3 -13 160.122 14.9755   4 
   1   3  13 197.295 15.8274   1 
  -1  -3  13 158.413 10.7364   4 
  -2  -3 -13 351.346 27.0857   3 
  -2  -3 -13 316.878 22.6359   4 
   2  -3  13 332.451 20.1578   2 
   2  -3 -13 310.600 25.6611   3 
   2  -3 -13 370.724 25.1523   4 
   2   3  13 315.693 22.8756   1 
  -3  -3 -13 97.0802 11.9577   4 
   3  -3  13 95.0317 9.10537   2 
  -3  -3 -13 75.0264 14.8125   3 
   3  -3  13 73.9310 7.72324   1 
   3  -3 -13 79.9334 13.9357   3 
  -3  -3  13 89.0777 7.12273   4 
   3  -3 -13 82.2008 14.1075   4 
   3   3  13 70.8316 11.0381   1 
  -4  -3 -13 40.6576 10.0220   4 
   4  -3  13 25.6406 5.07936   1 
   4  -3  13 46.0436 6.79066   2 
  -4  -3 -13 40.7451 13.3095   3 
   4  -3 -13 41.1591 8.62263   4 
   4   3  13 32.5605 8.65127   1 
   4   3  13 50.8028 10.9909   2 
  -4  -3  13 48.0863 5.72952   4 
   4  -3 -13 61.3992 13.6069   3 
  -5  -3 -13 2.43632 8.80618   4 
   5  -3  13 0.75495 6.12866   3 
  -5  -3 -13 1.06905 10.2865   3 
   5  -3  13 1.11099 3.69899   1 
   5  -3  13 4.58818 5.87093   2 
   5   3  13 1.78601 10.3509   2 
   5   3  13 1.52147 8.00007   1 
   5  -3 -13 3.13110 9.29621   3 
   6  -3  13 1.90114 3.23884   1 
  -6  -3 -13 10.6445 11.6487   3 
   6  -3  13 5.40929 6.41335   2 
   6  -3  13 1.42777 3.46850   1 
  -6  -3 -13 2.75778 7.79018   4 
   6   3  13 -7.6718 8.49445   1 
   6   3  13 1.14686 9.94255   2 
   6  -3 -13 8.46768 11.4252   3 
  -7  -3 -13 49.0669 14.6897   3 
  -7  -3 -13 60.7281 10.7536   4 
   7  -3  13 74.7079 9.72246   2 
   7   3  13 60.3167 11.5095   1 
   7   3  13 39.3180 12.7282   2 
   8  -3  13 32.7726 8.12417   2 
  -8  -3 -13 21.8779 15.7173   3 
  -8  -3 -13 26.7205 9.67846   4 
   8  -3 -13 27.2226 9.63769   2 
   8   3  13 17.6751 12.1588   2 
  -9  -3 -13 45.4626 14.4004   3 
   9  -3  13 73.9735 9.84094   2 
  -9  -3 -13 52.8576 11.2172   4 
   9   3  13 56.3123 14.1257   2 
   9   3  13 42.7852 11.7610   1 
   9  -3 -13 49.8958 10.3022   2 
  10  -3  13 97.0599 12.7489   2 
 -10  -3 -13 55.1706 14.7527   3 
 -10  -3 -13 70.8395 11.2309   4 
  10  -3 -13 65.3874 11.9381   2 
  10   3  13 80.3478 15.6494   2 
  10   3  13 51.7818 12.4486   1 
 -11  -3 -13 7.43548 9.24496   4 
  11  -3  13 3.76633 7.97202   2 
 -11  -3 -13 -11.316 12.9105   3 
  11  -3 -13 7.05883 9.19424   2 
  11   3  13 -0.5489 13.4683   2 
  11   3  13 -2.2225 10.3362   1 
 -12  -3 -13 9.99867 15.1682   3 
  12  -3  13 0.40634 8.72939   2 
 -12  -3 -13 -5.7391 10.3479   4 
  12   3  13 -5.8853 15.4573   2 
  12  -3 -13 9.26604 10.5230   2 
  12   3  13 -0.6546 11.3979   1 
   0  -4 -13 -5.7662 12.4705   3 
   0  -4 -13 0.91599 8.36088   4 
   0   4  13 -6.2899 8.68532   1 
  -1  -4 -13 27.9648 10.4881   4 
  -1  -4 -13 7.49661 12.8426   3 
  -1   4  13 28.6116 10.6764   1 
   1   4  13 31.2023 10.9970   1 
   1  -4 -13 35.1068 14.3754   3 
   1  -4 -13 38.1646 9.71553   4 
  -2   4  13 2.51719 8.82869   1 
  -2  -4 -13 5.47498 8.07138   4 
  -2  -4 -13 12.8362 13.9069   3 
   2  -4 -13 5.58701 14.2244   3 
   2  -4 -13 2.56128 8.58100   4 
   2   4  13 2.46922 9.22276   1 
  -3  -4 -13 -2.0428 9.26771   4 
  -3  -4 -13 -0.9507 14.6255   3 
   3  -4 -13 -5.2570 15.9374   3 
   3  -4 -13 0.73644 13.6836   4 
   3   4  13 8.51632 10.5565   1 
   4  -4  13 66.7530 7.12325   2 
  -4  -4 -13 47.2444 10.5553   4 
   4   4  13 60.7264 10.8738   1 
   4  -4 -13 55.1431 14.8552   3 
   4  -4 -13 55.7374 10.5136   4 
  -5  -4 -13 0.50348 8.23294   4 
  -5  -4 -13 20.4989 14.0196   3 
   5  -4  13 9.44827 5.45259   2 
   5  -4 -13 17.6825 8.70578   4 
   5  -4 -13 13.7330 13.8607   3 
   5   4  13 13.7644 12.7493   1 
   6  -4  13 34.6296 6.80786   2 
  -6  -4 -13 5.17702 13.5660   3 
  -6  -4 -13 15.4157 9.90285   4 
   6  -4 -13 35.0606 14.8944   3 
   6   4  13 14.8761 10.4452   1 
  -7  -4 -13 18.5668 15.4549   3 
   7  -4  13 22.6396 7.25839   2 
  -7  -4 -13 22.6574 10.8389   4 
   7   4  13 20.1469 11.1271   1 
   7   4  13 28.8343 13.7494   2 
   7  -4 -13 7.52107 13.6349   3 
  -8  -4 -13 13.4044 15.1428   3 
  -8  -4 -13 14.5773 10.8535   4 
   8   4  13 8.81945 13.1401   1 
   8   4  13 9.65205 13.2712   2 
   8  -4 -13 37.9888 15.8290   3 
  -9  -4 -13 16.2328 15.3491   4 
  -9  -4 -13 11.3700 19.6544   3 
   9   4  13 12.2845 10.8366   1 
   9  -4 -13 11.7508 9.35650   2 
   0   5  13 24.6153 11.3804   1 
   0  -5 -13 51.8044 18.9412   3 
  -1  -5 -13 72.8344 19.2338   3 
  -1  -5 -13 6.01903 14.1009   4 
  -1   5  13 50.5288 12.4929   1 
   1  -5 -13 31.2795 15.1935   4 
   1  -5 -13 35.3106 16.7118   3 
   1   5  13 66.4031 12.9437   1 
  -2  -5 -13 191.241 23.1303   3 
  -2   5  13 145.099 17.1900   1 
  -2  -5 -13 134.420 19.3489   4 
   2  -5 -13 178.555 35.6184   3 
   2  -5 -13 120.120 17.1760   4 
   2   5  13 106.762 22.9386   1 
  -3  -5 -13 15.5086 11.1592   4 
  -3  -5 -13 44.9141 20.3173   3 
  -3   5  13 10.4756 11.6181   1 
   3  -5 -13 50.8470 12.3012   4 
   3   5  13 50.8442 14.4529   1 
   3  -5 -13 30.7573 29.7846   3 
  -4   5  13 31.7768 11.3135   1 
  -4  -5 -13 11.2858 25.4995   3 
  -4  -5 -13 16.1661 16.0870   4 
   4   5  13 12.0620 11.7201   1 
   4  -5 -13 22.5328 14.8067   3 
   4  -5 -13 15.3710 9.67291   4 
   0   0 -14 232.349 18.7536   3 
   0   0  14 235.688 14.4708   4 
   0   0 -14 204.657 15.4584   2 
   1   0  14 264.084 18.2377   2 
   1   0 -14 227.133 16.1178   2 
   1   0  14 237.870 17.5435   4 
  -1   0 -14 251.369 16.9237   2 
   1   0 -14 281.136 18.4344   2 
  -1   0  14 239.427 15.6104   4 
  -1   0 -14 239.288 20.0850   3 
   1   0 -14 219.872 19.2184   3 
  -2   0  14 60.0116 6.80737   4 
   2   0  14 44.9238 5.36115   4 
   2   0 -14 38.9146 9.57781   3 
  -2   0 -14 39.7443 6.92939   2 
   2   0 -14 37.7613 6.40050   2 
   2   0  14 43.7142 8.37909   2 
  -2   0 -14 33.4979 10.3197   3 
   3   0  14 55.8224 9.06882   2 
  -3   0 -14 51.4725 10.9953   3 
   3   0 -14 64.9038 8.94393   2 
  -3   0 -14 58.3683 7.34687   4 
   3   0 -14 74.7428 11.9232   3 
   3   0  14 64.9520 6.99952   4 
   3   0 -14 55.2457 7.42394   2 
  -3   0 -14 61.6431 8.04460   2 
   4   0 -14 22.9345 6.03372   2 
  -4   0 -14 6.24945 7.88921   3 
  -4   0 -14 26.1431 6.66763   2 
  -4   0 -14 16.7535 7.72523   4 
   4   0 -14 28.9264 5.86268   2 
   4   0  14 35.1630 8.28308   2 
   4   0 -14 28.2998 8.91307   3 
  -5   0 -14 19.6879 9.20592   3 
   5   0 -14 25.5495 8.85700   3 
   5   0  14 24.3331 8.46678   2 
   5   0 -14 22.3426 6.68688   2 
   5   0 -14 27.8861 6.07977   2 
  -5   0 -14 21.5946 6.67760   2 
   6   0 -14 190.613 15.5320   2 
   6   0  14 203.325 17.2975   2 
  -6   0 -14 188.877 18.3921   3 
   6   0  14 189.220 14.8244   1 
   6   0 -14 195.318 16.7982   3 
  -7   0 -14 13.7023 10.6303   3 
   7   0 -14 12.0932 9.14182   3 
   7   0  14 11.0841 7.05627   1 
   7   0 -14 7.94182 6.45782   2 
   7   0 -14 10.0234 5.27020   2 
   7   0  14 12.2398 8.77452   2 
  -7   0 -14 34.3088 7.55624   4 
   8   0  14 126.190 12.1678   1 
   8   0 -14 112.089 14.1678   3 
  -8   0 -14 115.224 16.0649   3 
   8   0 -14 126.108 13.4546   2 
   8   0  14 130.245 16.0098   2 
   9   0 -14 162.269 15.6907   2 
  -9   0 -14 138.917 17.8492   3 
   9   0  14 161.153 13.6781   1 
   9   0  14 175.672 18.4829   2 
  10   0 -14 74.6680 10.6980   2 
  10   0  14 59.9861 12.6064   2 
 -10   0 -14 56.8984 13.6702   3 
  10   0  14 61.8847 9.35520   1 
  11   0  14 37.7225 8.46329   1 
 -11   0 -14 16.4139 15.6516   3 
  11   0 -14 35.4618 10.6480   2 
  11   0  14 48.8827 12.4565   2 
  12   0 -14 33.5354 10.6146   2 
  12   0  14 29.3224 12.4956   2 
 -12   0 -14 20.7275 12.0382   3 
  12   0  14 25.2069 14.6396   1 
  13   0  14 -4.4392 7.94133   1 
  13   0 -14 -5.4707 9.67263   2 
  13   0  14 5.54374 11.9071   2 
  14   0  14 30.0781 19.0760   2 
  14   0  14 3.33966 8.00172   1 
  14   0 -14 6.19116 11.3275   2 
   0   1 -14 -5.2965 7.44671   3 
   0  -1 -14 -5.2559 5.02808   4 
   0  -1 -14 3.72390 5.45749   2 
   0  -1 -14 -3.8353 9.03762   3 
   0  -1  14 -4.6112 3.16265   4 
   1  -1  14 72.4815 8.93096   2 
  -1  -1 -14 69.3762 8.12051   4 
  -1  -1 -14 51.5232 7.70253   2 
  -1  -1 -14 59.1206 11.7389   3 
   1   1 -14 68.0935 11.4726   3 
   1  -1 -14 67.2033 8.28736   2 
  -1  -1  14 63.1533 6.39058   4 
   1  -1 -14 64.3788 11.8632   3 
  -1   1 -14 67.7469 11.1337   3 
   1   1  14 59.6447 9.65604   2 
  -2  -1 -14 109.722 15.7462   3 
   2  -1  14 131.889 12.4437   2 
  -2  -1 -14 110.391 12.3106   2 
   2  -1  14 135.974 9.03594   4 
   2   1 -14 125.827 13.8491   3 
  -2  -1 -14 124.174 10.9354   4 
  -2  -1  14 121.728 11.2566   4 
  -2   1 -14 126.048 14.4477   3 
   2   1  14 125.698 13.8883   2 
   2  -1 -14 120.325 12.0978   2 
   2  -1 -14 124.694 15.4402   3 
   3  -1  14 298.820 19.7483   2 
   3   1 -14 292.008 20.7577   3 
  -3  -1 -14 273.965 19.6674   2 
  -3  -1 -14 284.066 18.5618   4 
  -3  -1 -14 290.445 23.2361   3 
   3  -1 -14 253.152 21.4126   3 
  -3  -1  14 264.208 17.4128   4 
  -3   1 -14 300.459 21.9848   3 
   3   1  14 303.226 21.3409   2 
  -4  -1 -14 19.0261 7.27580   2 
   4  -1  14 50.9560 8.61183   2 
  -4  -1 -14 34.3481 11.2928   3 
   4   1 -14 31.2479 8.71178   3 
  -4  -1 -14 41.4287 6.57852   4 
   4   1  14 40.2089 9.68586   2 
   4  -1 -14 32.9372 9.20639   3 
  -4   1 -14 33.4276 9.29957   3 
   5  -1  14 4.37939 7.07499   2 
  -5  -1 -14 4.86328 8.15213   3 
   5   1 -14 -6.0041 7.99178   3 
  -5  -1 -14 5.39634 5.23308   4 
  -5  -1 -14 5.35981 8.28894   2 
   5   1 -14 1.47622 1.50988   2 
   5  -1 -14 15.1096 9.38598   3 
  -5   1 -14 9.34070 8.58974   3 
   5   1  14 4.52013 7.10632   1 
   5   1  14 6.52823 8.69538   2 
   5  -1 -14 10.6030 6.41758   2 
   6   1 -14 224.723 17.9574   3 
   6  -1  14 245.917 18.5637   2 
  -6  -1 -14 235.107 16.0222   4 
   6  -1  14 232.784 15.9231   1 
  -6  -1 -14 227.172 23.0479   3 
   6  -1 -14 213.590 19.1719   3 
  -6   1 -14 219.736 19.8048   3 
   6  -1 -14 221.331 18.4626   2 
   6   1  14 260.027 21.6527   2 
   6   1  14 258.251 18.3545   1 
  -7  -1 -14 47.8257 12.6526   3 
   7   1 -14 82.5885 11.6826   3 
  -7  -1 -14 55.4940 7.70636   4 
   7  -1  14 63.4447 10.3936   2 
   7  -1  14 75.3089 8.95148   1 
   7   1  14 70.7522 10.5341   1 
   7   1  14 65.1602 12.1299   2 
   7  -1 -14 68.8220 9.61372   2 
   7  -1 -14 63.1230 11.1203   3 
  -7   1 -14 54.8349 11.1641   3 
  -8  -1 -14 7.32197 5.81856   4 
   8  -1  14 6.34494 8.85726   2 
   8   1 -14 6.66992 8.91784   3 
   8  -1  14 8.76274 6.57129   1 
  -8  -1 -14 9.93952 10.5674   3 
   8   1  14 14.9062 9.03759   1 
   8  -1 -14 12.5829 7.25620   2 
   8   1  14 1.36409 11.0694   2 
  -8   1 -14 1.53225 17.2432   3 
  -9  -1 -14 55.2777 16.3605   3 
   9  -1  14 73.7071 8.77875   1 
   9   1 -14 55.2237 10.3283   3 
   9  -1  14 43.3546 10.5304   2 
  -9  -1 -14 60.3989 8.03442   4 
   9   1  14 66.9501 12.1418   2 
   9  -1 -14 53.2488 11.3624   2 
   9   1  14 68.3452 10.9035   1 
  -9   1 -14 57.8631 12.4611   3 
  10  -1  14 58.2115 11.5285   2 
 -10  -1 -14 44.3921 15.7560   3 
  10  -1  14 62.1354 8.37741   1 
 -10  -1 -14 56.0796 7.77116   4 
  10  -1 -14 42.7610 10.1527   2 
 -10   1 -14 57.0263 13.9466   3 
  10   1  14 30.9963 9.10623   1 
  10   1  14 55.2509 13.0037   2 
 -11  -1 -14 34.9418 15.6065   3 
  11  -1  14 22.0213 7.36886   1 
  11  -1  14 16.9939 10.5486   2 
  11   1  14 29.7044 13.0480   2 
  11  -1 -14 32.3271 9.63473   2 
  11   1  14 9.30744 8.87741   1 
  12  -1  14 78.1602 12.7510   2 
 -12  -1 -14 83.0601 17.2578   3 
  12  -1  14 102.918 9.93627   1 
  12  -1 -14 82.7638 12.6680   2 
  12   1  14 76.3932 15.3507   2 
  12   1  14 64.6607 11.2682   1 
 -13  -1 -14 -0.5155 2.53589   4 
  13  -1  14 -4.7004 6.72753   1 
  13   1 -14 0.75351 3.82351   2 
 -13  -1 -14 -0.5452 16.1800   3 
  13  -1  14 9.65711 11.1283   2 
  13  -1 -14 -0.7882 9.17488   2 
  13   1  14 -1.1606 8.86442   1 
  13   1  14 6.28055 13.4304   2 
 -14  -1 -14 -2.0461 2.28236   4 
 -14  -1 -14 2.65073 13.3883   3 
  14  -1  14 4.31487 12.6182   2 
  14   1  14 -7.8143 13.4112   2 
  14   1  14 -0.6652 8.72023   1 
   0  -2 -14 185.506 15.3558   4 
   0  -2  14 201.075 12.2013   4 
   0   2 -14 192.380 16.8107   3 
   0  -2 -14 189.752 19.5541   3 
   1   2 -14 202.692 17.3678   3 
  -1  -2 -14 195.474 16.1708   4 
   1  -2  14 218.904 18.3638   2 
  -1  -2 -14 197.000 20.3766   3 
   1  -2  14 228.752 13.2193   4 
   1  -2 -14 208.934 16.3968   4 
  -1   2 -14 230.310 18.1961   3 
   1  -2 -14 205.125 20.2194   3 
  -2  -2 -14 37.9702 12.2839   3 
  -2  -2 -14 32.8953 7.46451   4 
   2   2 -14 33.8472 9.92339   3 
   2  -2 -14 22.2362 9.75124   3 
  -2   2 -14 53.9177 10.1461   3 
  -2  -2  14 43.2209 4.97953   4 
   2  -2 -14 40.6846 8.15905   4 
  -3  -2 -14 51.9591 19.3793   3 
  -3  -2 -14 69.0381 9.24179   4 
   3   2 -14 49.2574 13.8776   3 
   3  -2 -14 50.5703 13.1425   3 
   3  -2 -14 63.4120 8.96177   4 
  -3  -2  14 48.2797 6.04432   4 
  -3   2 -14 56.0401 10.6179   3 
   3   2  14 50.5266 9.98137   2 
  -4  -2 -14 23.4677 7.08760   4 
   4  -2  14 18.2271 7.08583   2 
   4   2 -14 35.4362 13.8614   3 
  -4  -2 -14 9.06528 12.2348   3 
  -4   2 -14 25.4646 9.91527   3 
   4   2  14 5.34687 12.1178   1 
  -4  -2  14 24.6678 5.29929   4 
   4   2  14 17.4735 11.2196   2 
  -5  -2 -14 11.2541 7.00457   4 
   5  -2  14 19.5371 7.34941   2 
  -5  -2 -14 11.4629 10.1335   3 
   5   2  14 15.4023 9.07117   1 
   5  -2 -14 9.97735 9.58308   3 
  -5   2 -14 17.5821 10.0352   3 
  -6  -2 -14 147.839 13.9142   4 
   6  -2  14 178.283 12.0314   1 
  -6  -2 -14 119.954 18.8967   3 
   6  -2  14 159.875 14.7871   2 
   6   2 -14 172.969 14.4700   3 
   6   2  14 157.427 14.9954   1 
  -6   2 -14 180.826 17.4205   3 
   6   2  14 168.191 18.8043   2 
   6  -2 -14 140.458 17.3185   3 
  -7  -2 -14 12.2375 11.9857   3 
   7  -2  14 10.2046 7.68463   2 
   7  -2  14 8.19196 5.73073   1 
  -7  -2 -14 12.9804 7.93307   4 
   7   2  14 9.31228 8.97280   1 
   7  -2 -14 3.57047 6.93746   2 
   7  -2 -14 2.94499 9.45888   3 
   7   2  14 -8.3662 10.1091   2 
   8  -2  14 125.696 14.2151   2 
  -8  -2 -14 103.476 12.5856   4 
  -8  -2 -14 92.0454 16.7082   3 
   8  -2  14 108.142 9.26096   1 
   8   2  14 132.049 14.5009   1 
   8  -2 -14 110.445 14.2624   2 
   8   2  14 99.3377 13.8150   2 
   9  -2  14 126.147 15.0280   2 
  -9  -2 -14 114.085 18.3187   4 
   9   2  14 120.959 16.3739   2 
   9   2  14 142.921 14.8883   1 
   9  -2 -14 132.292 15.6734   2 
  10  -2  14 58.7656 8.66286   1 
  10  -2  14 54.8817 10.3015   2 
 -10  -2 -14 32.4344 14.0825   3 
 -10  -2 -14 46.9057 9.76435   4 
  10   2  14 50.9124 13.7800   2 
  10  -2 -14 45.8074 9.72916   2 
  10   2  14 26.4038 12.2730   1 
 -11  -2 -14 27.8054 13.8074   3 
 -11  -2 -14 40.5535 9.22372   4 
  11   2  14 40.4767 11.4245   1 
  11   2  14 29.0373 13.5902   2 
  11  -2 -14 30.2681 9.76161   2 
 -12  -2 -14 9.02672 8.54997   4 
 -12  -2 -14 25.2387 18.1628   3 
  12   2  14 22.8692 11.5150   1 
  12  -2 -14 12.5862 9.60912   2 
  12   2  14 21.5693 22.2104   2 
  13  -2  14 0.55572 9.81503   2 
  13   2 -14 5.72015 3.51675   3 
 -13  -2 -14 -1.9386 14.9745   3 
 -13  -2 -14 5.03454 8.17075   4 
  13   2  14 5.85310 11.6216   2 
  13   2  14 -3.7935 11.2145   1 
   0  -3 -14 -2.5138 6.64668   4 
   0  -3 -14 5.47083 11.1198   3 
  -1  -3 -14 27.5380 12.1238   3 
  -1  -3 -14 42.3007 9.30648   4 
   1   3  14 47.0654 10.1340   1 
  -1  -3  14 40.8358 5.12376   4 
   1  -3 -14 40.0241 12.8075   3 
   1  -3 -14 55.6240 9.95616   4 
  -2  -3 -14 76.5508 10.9398   4 
  -2  -3 -14 53.9206 14.5044   3 
  -2  -3  14 66.9133 6.55887   4 
   2   3  14 81.3464 15.0239   1 
   2  -3 -14 80.7112 15.1237   3 
   2  -3 -14 72.8952 11.1055   4 
   3  -3  14 194.446 14.1174   2 
  -3  -3 -14 166.609 21.9883   3 
  -3  -3 -14 202.040 16.5811   4 
   3   3  14 205.175 17.6632   1 
   3  -3 -14 219.790 24.9160   3 
   3  -3 -14 179.640 16.9534   4 
  -4  -3 -14 24.8197 8.75222   4 
   4  -3  14 21.4582 6.69831   2 
   4  -3  14 12.0232 4.23028   1 
  -4  -3 -14 15.1883 12.9044   3 
   4  -3 -14 7.12183 7.72540   4 
   4   3  14 27.1111 9.37344   1 
   4  -3 -14 26.5933 10.8968   3 
  -4  -3  14 16.4220 5.33135   4 
   5  -3  14 2.60759 7.01134   2 
  -5  -3 -14 14.2894 13.3701   3 
   5  -3  14 -5.4313 3.36779   1 
  -5  -3 -14 7.82365 8.43052   4 
   5   3  14 9.73845 9.76186   1 
   5  -3 -14 11.3388 12.5209   3 
   5   3  14 1.60706 11.1620   2 
  -6  -3 -14 153.440 15.2106   4 
  -6  -3 -14 175.908 24.4733   3 
   6  -3  14 145.590 14.2432   2 
   6  -3  14 146.719 10.0912   1 
   6   3  14 120.180 24.8276   1 
   6   3  14 164.372 19.2192   2 
  -7  -3 -14 48.6050 15.0991   3 
  -7  -3 -14 33.8880 9.07269   4 
   7  -3  14 49.2196 8.63997   2 
   7   3  14 34.6971 13.2444   2 
   7   3  14 30.9722 10.8527   1 
   7  -3 -14 30.2226 12.7182   3 
  -8  -3 -14 0.76110 8.32303   4 
  -8  -3 -14 -18.236 11.6912   3 
   8  -3  14 5.99350 7.77828   2 
   8   3  14 5.11650 10.0462   1 
   8  -3 -14 1.09976 11.8589   3 
   8  -3 -14 5.52462 8.14145   2 
   8   3  14 3.66225 12.6354   2 
  -9  -3 -14 23.2098 13.4865   3 
  -9  -3 -14 37.2896 10.3621   4 
   9  -3  14 45.6878 8.97598   2 
   9  -3 -14 30.5725 9.46018   2 
   9   3  14 29.0643 13.7587   2 
   9   3  14 27.7450 10.2164   1 
 -10  -3 -14 12.5683 15.4908   3 
 -10  -3 -14 16.6589 9.77151   4 
  10  -3  14 27.0174 9.18821   2 
  10   3  14 23.1172 10.9523   1 
  10  -3 -14 21.4671 9.78814   2 
  10   3  14 26.1780 15.6250   2 
 -11  -3 -14 3.21615 14.0824   3 
 -11  -3 -14 18.1167 10.0032   4 
  11   3  14 9.78202 10.4669   1 
  11   3  14 7.94094 14.0101   2 
  11  -3 -14 4.48329 9.37575   2 
   0   4  14 90.7454 12.6850   1 
   0  -4 -14 59.3079 15.2066   3 
   0  -4 -14 94.7141 12.7490   4 
  -1  -4 -14 79.0282 16.6732   3 
  -1   4  14 114.597 14.9278   1 
  -1  -4 -14 80.7294 11.6142   4 
   1  -4 -14 69.0937 11.7410   4 
   1   4  14 71.8723 12.9191   1 
   1  -4 -14 71.4377 16.4393   3 
  -2  -4 -14 15.4577 15.4895   3 
  -2  -4 -14 17.2617 10.1021   4 
  -2   4  14 24.0409 10.1076   1 
   2   4  14 27.9813 11.1018   1 
   2  -4 -14 16.7498 14.6148   3 
   2  -4 -14 14.9322 9.84603   4 
  -3  -4 -14 22.9425 9.49738   4 
  -3  -4 -14 44.1908 16.2672   3 
   3   4  14 10.7854 10.1157   1 
   3  -4 -14 24.3580 9.68666   4 
   3  -4 -14 13.1658 13.6699   3 
  -4  -4 -14 1.13305 14.9301   3 
  -4  -4 -14 4.87572 9.43297   4 
   4   4  14 2.09752 10.6813   1 
   4  -4 -14 3.33740 12.9538   3 
   4  -4 -14 6.95901 9.17006   4 
  -5  -4 -14 11.0250 15.7237   3 
  -5  -4 -14 3.14552 10.0867   4 
   5  -4 -14 -2.6050 13.0748   3 
   5   4  14 10.2160 10.7738   1 
   5  -4 -14 16.9922 13.3839   4 
  -6  -4 -14 72.8419 12.7619   4 
  -6  -4 -14 37.7672 16.1799   3 
   6  -4 -14 92.3389 20.6971   3 
   6   4  14 104.407 15.4559   1 
  -7  -4 -14 3.24193 16.3359   3 
  -7  -4 -14 8.10412 10.4036   4 
   7   4  14 6.23287 11.4669   1 
   7  -4 -14 8.19676 16.0488   3 
  -8  -4 -14 36.0750 16.9421   4 
  -8  -4 -14 25.0138 17.5289   3 
   8   4  14 37.2657 11.4340   1 
   8  -4 -14 61.5504 16.9141   3 
   8   4  14 37.7164 15.0277   2 
   0   0 -15 0.58324 9.08357   3 
   0   0 -15 1.44030 4.68204   2 
   0   0 -15 -7.8938 5.78888   2 
   0   0  15 -2.1918 3.80060   4 
   1   0 -15 120.568 10.9432   2 
  -1   0 -15 109.485 15.2651   3 
  -1   0 -15 133.952 11.4837   2 
   1   0  15 115.653 9.91183   4 
   1   0  15 131.673 13.7983   2 
   1   0 -15 118.652 14.4638   3 
  -2   0 -15 83.9763 9.40804   2 
   2   0  15 53.8979 9.38412   2 
  -2   0 -15 46.0693 10.9167   3 
   2   0 -15 49.6718 10.9576   3 
   2   0  15 55.7108 6.79679   4 
   2   0 -15 52.7471 7.25904   2 
   2   0 -15 50.7918 10.1061   2 
   3   0 -15 13.9574 6.24143   2 
   3   0  15 11.1880 8.15855   2 
   3   0 -15 3.96088 8.08757   3 
   3   0  15 2.18062 5.25611   4 
  -3   0 -15 3.07423 9.14585   3 
   3   0 -15 6.42899 5.42339   2 
   4   0 -15 101.610 14.7897   3 
  -4   0 -15 149.325 11.3694   2 
   4   0 -15 125.585 11.3893   2 
   4   0  15 114.966 13.9725   2 
   4   0 -15 102.086 11.7987   2 
  -4   0 -15 100.090 15.3785   3 
   5   0 -15 77.7698 11.6245   3 
  -5   0 -15 79.4119 7.77276   4 
   5   0 -15 68.5555 9.05993   2 
  -5   0 -15 58.1502 12.9056   3 
   5   0 -15 72.1075 10.8200   2 
  -5   0 -15 87.6595 8.25682   2 
   5   0  15 91.0116 11.7153   2 
   6   0 -15 191.246 17.3829   3 
   6   0  15 207.220 18.3064   2 
   6   0  15 202.761 15.3724   1 
   6   0 -15 179.803 15.0855   2 
   6   0 -15 193.497 15.5036   2 
   7   0 -15 189.831 17.7780   3 
   7   0  15 225.392 18.8606   2 
   7   0 -15 170.687 17.4448   2 
  -7   0 -15 170.600 19.8017   3 
   7   0 -15 203.447 16.1899   2 
   7   0  15 229.399 16.1550   1 
  -8   0 -15 26.5975 11.6787   3 
   8   0 -15 41.2074 10.9463   3 
   8   0  15 27.4884 8.47374   1 
   8   0  15 22.8008 13.3473   2 
   8   0 -15 26.1397 8.03222   2 
  -9   0 -15 -0.6654 10.5587   3 
   9   0  15 10.2654 8.03793   1 
   9   0 -15 9.89726 11.5234   3 
  -9   0 -15 -5.6484 4.30393   2 
  -9   0 -15 0.86973 1.05656   4 
   9   0 -15 4.79002 7.67285   2 
   9   0  15 2.63074 10.6467   2 
  10   0  15 0.55617 11.0806   2 
  10   0 -15 1.31306 9.29489   3 
 -10   0 -15 3.87602 11.3485   3 
 -10   0 -15 1.34274 1.15314   4 
  11   0  15 67.1214 9.86845   1 
  11   0  15 66.3357 13.2608   2 
 -11   0 -15 39.4821 13.3053   3 
  11   0 -15 63.2856 11.6636   2 
  12   0  15 32.1639 9.37434   1 
  12   0 -15 32.9261 10.5328   2 
 -12   0 -15 26.1969 12.1216   3 
  12   0  15 32.6402 12.7886   2 
  13   0 -15 33.1644 11.9204   2 
  13   0  15 44.8694 10.1444   1 
  13   0  15 27.5415 13.6844   2 
   0  -1 -15 29.7286 6.89126   4 
   0  -1  15 33.5656 4.98428   4 
   0   1 -15 36.9191 10.3543   3 
   0  -1 -15 35.8146 11.1514   3 
  -1  -1 -15 364.514 23.1477   4 
   1   1 -15 384.798 26.1022   3 
   1  -1  15 404.400 21.8246   4 
   1  -1  15 385.435 23.9394   2 
  -1  -1 -15 318.456 27.1550   3 
  -1  -1  15 313.645 22.4457   4 
   1  -1 -15 368.785 26.3448   3 
  -1   1 -15 357.847 25.8711   3 
   2   1 -15 168.171 16.4345   3 
  -2  -1 -15 174.329 13.5550   4 
  -2  -1 -15 142.376 18.5632   3 
   2  -1  15 173.301 14.8057   2 
  -2  -1  15 162.467 11.5287   4 
   2   1  15 196.375 16.9122   2 
   2  -1 -15 166.829 17.1699   3 
  -2   1 -15 164.788 16.7136   3 
  -3  -1 -15 22.8022 11.0113   3 
  -3  -1 -15 36.2289 6.71276   4 
   3  -1  15 33.5011 8.23116   2 
   3   1 -15 23.5334 9.54634   3 
  -3   1 -15 19.5117 9.54978   3 
   3  -1 -15 28.3124 11.6307   3 
   3   1  15 29.8765 9.14565   2 
   4   1 -15 28.3523 9.93699   3 
  -4  -1 -15 29.0575 16.4010   3 
  -4  -1 -15 23.5545 6.52120   4 
   4  -1  15 32.2216 8.56027   2 
  -4   1 -15 30.7637 10.2868   3 
   4  -1 -15 22.8087 9.88766   3 
   4  -1 -15 18.1549 6.90537   2 
   4   1  15 39.4386 9.80171   2 
   5  -1  15 322.565 21.6491   2 
  -5  -1 -15 357.471 29.0679   3 
   5   1 -15 297.272 21.9274   3 
  -5  -1 -15 263.028 18.9967   4 
   5   1  15 331.841 21.8323   1 
   5  -1 -15 267.876 24.8847   3 
   5  -1 -15 244.739 20.7904   2 
  -5   1 -15 275.081 23.1136   3 
   5   1  15 303.381 22.9886   2 
   6   1 -15 51.2952 11.7695   3 
   6  -1  15 42.3607 9.28665   2 
  -6  -1 -15 31.3433 12.7335   3 
   6  -1  15 50.4562 8.40149   1 
  -6  -1 -15 54.9415 7.22108   4 
   6  -1 -15 38.6479 8.68730   2 
  -6   1 -15 32.0159 11.1331   3 
   6  -1 -15 44.2680 16.2970   3 
   7   1 -15 57.9334 11.1155   3 
  -7  -1 -15 52.0637 7.21995   4 
   7  -1  15 54.9780 10.2379   2 
   7  -1  15 59.6989 8.25708   1 
  -7  -1 -15 35.0053 12.7445   3 
   7   1  15 55.8612 10.7794   1 
   7   1  15 33.2503 11.3279   2 
   7  -1 -15 30.5566 9.84277   3 
  -7   1 -15 18.4756 12.3317   3 
   7  -1 -15 32.8444 8.54105   2 
  -8  -1 -15 229.228 15.9863   4 
   8   1 -15 219.739 18.8308   3 
   8  -1  15 238.033 16.4837   1 
   8  -1  15 287.353 20.7166   2 
  -8  -1 -15 229.845 22.6836   3 
  -8   1 -15 218.695 20.8915   3 
   8   1  15 255.420 18.9662   1 
   8  -1 -15 197.009 18.9937   2 
   8  -1 -15 199.742 20.0168   3 
   8   1  15 227.899 22.3368   2 
  -9  -1 -15 36.9198 6.27658   4 
   9   1 -15 18.4990 10.0696   3 
   9  -1  15 17.9448 7.22446   1 
  -9  -1 -15 -1.9312 17.8701   3 
   9  -1  15 20.1348 10.9385   2 
   9   1  15 22.9157 12.3844   2 
   9  -1 -15 13.9670 8.91439   2 
   9  -1 -15 24.4726 12.0140   3 
  -9   1 -15 14.9220 11.5095   3 
   9   1  15 29.5174 9.87668   1 
  10   1 -15 6.92466 8.83852   3 
 -10  -1 -15 0.01913 1.85330   4 
  10   1 -15 1.47437 2.18197   2 
  10  -1  15 10.2338 7.06832   1 
  10  -1  15 -4.1793 9.58086   2 
 -10  -1 -15 -0.4856 11.4853   3 
  10   1  15 6.22237 8.45799   1 
  10  -1 -15 5.79789 8.82134   2 
 -10   1 -15 -14.447 19.3143   3 
  10   1  15 7.31662 12.0796   2 
  11   1 -15 29.9720 16.3307   3 
  11  -1  15 70.7698 9.37892   1 
 -11  -1 -15 49.2545 16.8926   3 
  11  -1  15 57.9391 12.4813   2 
  11   1  15 66.4843 13.8208   2 
  11   1  15 62.2461 12.3351   1 
  11  -1 -15 53.2147 11.0339   2 
  12   1 -15 48.6849 11.3534   3 
  12  -1  15 76.3359 9.78271   1 
  12  -1  15 67.0132 12.9538   2 
  12  -1 -15 79.2866 12.4769   2 
  12   1  15 64.2069 15.1433   2 
  12   1  15 78.5944 11.6162   1 
  13  -1  15 47.0107 12.8091   2 
  13  -1  15 55.8594 10.1826   1 
 -13  -1 -15 22.6545 15.1606   3 
  13  -1 -15 51.3978 13.3334   2 
  13   1  15 47.4169 10.9977   1 
  13   1  15 46.8181 15.8148   2 
   0  -2  15 0.57512 3.08066   4 
   0  -2 -15 -6.1553 6.66098   4 
   0   2 -15 2.36454 8.57113   3 
   0  -2 -15 -3.3915 10.4646   3 
   1   2 -15 107.408 13.9112   3 
  -1  -2 -15 92.0312 15.2345   3 
  -1  -2 -15 95.1417 11.7087   4 
  -1   2 -15 123.735 14.3672   3 
   1  -2 -15 108.892 12.3335   4 
   1  -2 -15 81.5900 15.1760   3 
  -1  -2  15 106.647 8.08557   4 
  -2  -2 -15 30.6569 7.62015   4 
   2  -2  15 53.0360 7.87964   2 
  -2  -2 -15 33.5876 13.0949   3 
   2   2 -15 48.0855 10.3050   3 
  -2   2 -15 50.4712 10.7220   3 
   2  -2 -15 32.4289 13.1862   3 
   2  -2 -15 39.4348 8.49929   4 
  -2  -2  15 40.3100 7.53685   4 
  -3  -2 -15 17.6649 15.3949   3 
  -3  -2 -15 12.0654 7.27785   4 
   3  -2  15 6.87863 6.92134   2 
   3   2 -15 21.9320 8.50583   3 
   3   2  15 4.39153 9.69445   2 
   3  -2 -15 6.64532 10.5877   3 
  -3  -2  15 10.8127 3.81075   4 
  -3   2 -15 8.06024 9.43928   3 
   4   2 -15 97.0659 11.3777   3 
   4  -2  15 95.0044 11.8411   2 
  -4  -2 -15 91.7131 16.6264   3 
  -4  -2 -15 74.1339 9.55762   4 
  -4   2 -15 106.934 14.4684   3 
   4   2  15 83.8010 12.3794   1 
   4   2  15 72.4339 12.5013   2 
   4  -2 -15 54.1576 11.5751   3 
   5  -2  15 65.4331 9.59708   2 
  -5  -2 -15 37.0638 14.2394   3 
  -5  -2 -15 66.4033 9.77449   4 
   5  -2 -15 93.2672 16.9925   3 
  -5   2 -15 62.0076 12.1967   3 
   5   2  15 51.4099 12.8274   2 
   5   2  15 66.0286 11.7311   1 
  -6  -2 -15 140.907 14.0906   4 
   6  -2  15 171.794 15.2407   2 
   6  -2  15 166.848 12.1948   1 
  -6  -2 -15 154.664 20.7264   3 
  -6   2 -15 187.947 18.0540   3 
   6  -2 -15 133.151 15.4616   2 
   6   2  15 163.056 19.8460   2 
   6   2  15 161.419 15.4978   1 
   6  -2 -15 136.143 17.9837   3 
   7  -2  15 182.331 16.2349   2 
   7  -2  15 183.593 12.4905   1 
  -7  -2 -15 143.267 15.2281   4 
  -7  -2 -15 118.610 21.0690   3 
   7   2  15 166.543 15.8929   1 
   7   2  15 167.375 20.3477   2 
   7  -2 -15 152.793 16.2112   2 
   7  -2 -15 149.478 18.7902   3 
   8  -2  15 28.6629 6.63885   1 
  -8  -2 -15 25.0627 7.95640   4 
   8   2 -15 3.03630 3.16446   3 
   8  -2  15 37.0311 9.43521   2 
  -8  -2 -15 7.85959 12.0203   3 
   8  -2 -15 12.2295 8.62918   2 
   8  -2 -15 21.1198 13.6615   3 
   8   2  15 12.9160 12.1140   2 
   8   2  15 8.17803 12.3432   1 
  -9  -2 -15 0.09946 7.38423   4 
   9   2 -15 -0.0536 2.73110   3 
   9  -2  15 3.09481 5.38983   1 
   9  -2  15 0.19186 8.73465   2 
  -9  -2 -15 0.19512 10.9738   3 
   9   2  15 20.1619 13.1143   2 
   9   2  15 12.8743 10.0001   1 
   9  -2 -15 6.58854 11.9481   3 
   9  -2 -15 3.52913 8.13926   2 
 -10  -2 -15 2.42905 12.3780   3 
 -10  -2 -15 4.87880 7.21909   4 
  10   2 -15 1.18562 2.95099   3 
  10  -2  15 -4.4800 6.05819   1 
  10   2  15 3.44239 13.6593   2 
  10   2  15 -5.4685 8.36624   1 
  10  -2 -15 1.05798 8.20591   2 
  11  -2  15 47.1720 10.9086   2 
 -11  -2 -15 46.3387 9.15712   4 
 -11  -2 -15 16.0729 23.9005   3 
  11   2  15 37.6430 10.3193   1 
  11   2  15 60.7334 22.4707   2 
  11  -2 -15 31.6750 10.6504   2 
 -12  -2 -15 20.3429 14.4798   3 
  12  -2  15 8.87442 9.88003   2 
 -12  -2 -15 29.2325 9.00954   4 
  12   2  15 33.2889 12.5638   2 
  12   2  15 5.39308 15.2934   1 
  12  -2 -15 22.1471 11.9961   2 
   0  -3 -15 8.26463 12.5247   3 
   0  -3 -15 20.4876 8.78243   4 
  -1  -3 -15 230.942 18.7293   4 
   1  -3 -15 201.009 18.6337   4 
   1  -3 -15 229.858 23.5167   3 
   1   3  15 270.662 19.7324   1 
  -2  -3 -15 109.768 13.9329   4 
  -2  -3 -15 72.9960 16.1951   3 
   2  -3 -15 125.974 14.4506   4 
   2  -3 -15 119.891 18.9478   3 
   2   3  15 126.507 15.9636   1 
  -2  -3  15 108.231 9.92769   4 
   3  -3  15 23.5916 9.71991   2 
  -3  -3 -15 20.5483 8.36243   4 
  -3  -3 -15 2.62212 14.4643   3 
   3  -3 -15 13.5387 12.4255   3 
   3  -3 -15 11.7892 8.12156   4 
   3   3  15 26.2651 14.9738   1 
  -4  -3 -15 26.5609 9.54024   4 
  -4  -3 -15 21.9247 19.7838   3 
   4  -3  15 13.2226 8.72431   2 
   4  -3 -15 18.8049 14.7556   3 
   4   3  15 28.6351 11.3867   1 
  -5  -3 -15 192.857 16.8650   4 
  -5  -3 -15 253.658 31.2841   3 
   5  -3  15 212.941 15.8008   2 
   5  -3 -15 155.883 20.4142   3 
   5   3  15 144.168 20.7477   2 
   5   3  15 227.862 21.0204   1 
   6  -3  15 25.3020 8.00429   2 
  -6  -3 -15 15.2388 12.8552   3 
   6  -3  15 33.5136 6.80791   1 
  -6  -3 -15 22.1946 8.66062   4 
   6   3  15 28.7187 11.6234   2 
   6   3  15 19.2294 11.0785   1 
   6  -3 -15 36.2396 14.1719   3 
  -7  -3 -15 25.6542 13.2575   3 
  -7  -3 -15 22.0358 8.84523   4 
   7  -3  15 21.8675 8.38299   2 
   7   3  15 19.8562 10.4675   1 
   7   3  15 16.9164 13.5800   2 
   7  -3 -15 27.7763 14.1861   3 
   8  -3  15 157.443 14.3130   2 
  -8  -3 -15 92.0899 17.6998   3 
  -8  -3 -15 139.271 15.7741   4 
   8   3  15 85.2113 17.3659   2 
   8   3  15 132.613 16.0705   1 
   8  -3 -15 159.036 20.2230   3 
   8  -3 -15 145.192 16.2811   2 
  -9  -3 -15 12.2338 16.2989   3 
  -9  -3 -15 9.12474 8.48906   4 
   9  -3  15 10.6520 8.52819   2 
   9   3  15 10.9892 12.3257   1 
   9  -3 -15 17.6218 16.2893   3 
 -10  -3 -15 0.77240 15.0052   3 
  10  -3  15 10.6564 12.3338   2 
 -10  -3 -15 2.84835 9.46644   4 
  10   3  15 2.98842 11.4036   1 
  10   3  15 8.23202 14.8615   2 
  10  -3 -15 6.19175 13.9822   3 
  10  -3 -15 11.0783 11.2772   2 
   0  -4 -15 -2.3011 9.65961   4 
   0   4  15 2.34063 10.3804   1 
   0  -4 -15 -5.0984 13.9745   3 
  -1  -4 -15 37.9128 10.8265   4 
  -1  -4 -15 54.7182 16.8102   3 
  -1   4  15 73.6215 13.6149   1 
   1   4  15 47.9433 12.0108   1 
   1  -4 -15 31.0850 15.9233   3 
   1  -4 -15 28.6780 9.36116   4 
  -2  -4 -15 7.46729 8.55003   4 
  -2  -4 -15 11.7201 15.0096   3 
  -2   4  15 22.6983 11.1604   1 
   2   4  15 19.1708 11.7965   1 
   2  -4 -15 13.1766 14.7788   3 
   2  -4 -15 9.94111 9.70591   4 
  -3  -4 -15 17.4812 10.5669   4 
  -3  -4 -15 1.13504 13.6053   3 
   3   4  15 5.28534 11.0487   1 
   3  -4 -15 -2.2360 9.93793   4 
   3  -4 -15 2.95576 15.4313   3 
  -4  -4 -15 33.8331 10.2815   4 
  -4  -4 -15 30.9952 16.3356   3 
   4  -4 -15 29.3269 22.5957   3 
   4  -4 -15 32.2005 11.1200   4 
   4   4  15 48.0357 16.0005   1 
  -5  -4 -15 10.8668 10.6434   4 
  -5  -4 -15 5.73033 14.9783   3 
   5  -4 -15 42.9561 19.4026   3 
   5   4  15 26.6917 12.0402   1 
  -6  -4 -15 8.69173 12.7619   4 
  -6  -4 -15 66.2771 18.4104   3 
   6   4  15 89.0328 15.3273   1 
   6  -4 -15 47.7297 16.2450   3 
   0   0 -16 80.8448 13.6945   3 
   0   0 -16 66.1721 9.75063   2 
   0   0 -16 81.9993 9.02690   2 
   1   0 -16 105.124 14.9119   3 
  -1   0 -16 76.7061 13.8258   3 
   1   0 -16 92.1378 9.71389   2 
   2   0  16 7.22734 8.75127   2 
  -2   0 -16 4.16034 2.83535   2 
   2   0 -16 6.45238 5.38488   2 
   2   0  16 10.1581 5.04663   4 
   2   0 -16 4.77199 9.86192   3 
  -2   0 -16 1.67182 9.55161   3 
   3   0  16 52.2501 10.2553   2 
   3   0 -16 54.0599 11.8485   3 
   3   0  16 42.5318 5.91900   4 
   3   0 -16 36.6860 7.10502   2 
  -3   0 -16 27.3868 9.89794   3 
  -4   0 -16 -3.2035 2.46852   2 
   4   0 -16 3.24607 6.09473   2 
   4   0  16 1.25106 9.11538   2 
   4   0 -16 5.14944 9.41951   3 
   5   0 -16 297.501 24.5175   3 
  -5   0 -16 280.718 25.4002   3 
   5   0 -16 324.713 21.3759   2 
   5   0  16 363.836 24.5105   2 
   6   0  16 4.24068 8.72707   1 
  -6   0 -16 -5.6483 3.39082   2 
   6   0  16 0.91947 10.0787   2 
  -6   0 -16 -1.0088 8.42187   3 
   6   0 -16 0.71663 9.21699   3 
   6   0 -16 -8.0829 6.07220   2 
   7   0  16 16.9868 10.9474   2 
   7   0 -16 0.15178 13.6067   3 
  -7   0 -16 8.81891 4.03808   2 
   7   0 -16 18.6622 7.31330   2 
  -7   0 -16 8.90207 9.64991   3 
   8   0  16 41.5794 11.5166   2 
   8   0 -16 49.6923 12.3994   3 
   8   0  16 41.5606 9.77015   1 
  -8   0 -16 21.9129 11.2246   3 
   8   0 -16 49.0088 8.97322   2 
   9   0  16 0.75852 8.14020   1 
   9   0 -16 6.77579 7.79219   2 
   9   0 -16 -4.4557 9.09951   3 
   9   0  16 1.56081 10.8858   2 
  -9   0 -16 -1.0034 1.09165   4 
  -9   0 -16 0.40370 10.3096   3 
  10   0 -16 14.7318 10.2044   3 
  10   0  16 16.3813 11.9181   2 
 -10   0 -16 23.2066 12.8916   3 
  10   0 -16 14.6212 8.46307   2 
  10   0  16 16.9641 8.72193   1 
  11   0  16 100.146 11.9874   1 
  11   0  16 66.9334 14.1454   2 
 -11   0 -16 60.8205 15.4084   3 
  11   0 -16 53.2708 19.6084   3 
  12   0  16 6.95634 12.2074   2 
  12   0 -16 -16.173 10.4365   3 
 -12   0 -16 -0.0341 11.1850   3 
  12   0  16 3.05340 10.6032   1 
   0   1 -16 6.36522 9.50804   3 
   0  -1 -16 8.41337 14.1557   3 
   0  -1  16 6.40826 4.51756   4 
  -1  -1 -16 122.252 11.4862   4 
   1  -1  16 115.197 8.54391   4 
  -1  -1 -16 88.9315 16.2985   3 
   1   1 -16 116.687 15.1701   3 
  -1  -1  16 96.1250 8.64478   4 
   1  -1 -16 66.1220 17.9178   3 
  -1   1 -16 118.322 15.2245   3 
   2   1 -16 28.1350 11.6839   3 
   2  -1  16 23.8279 8.38916   2 
  -2  -1 -16 22.7907 7.00604   4 
  -2  -1 -16 20.9672 11.4483   3 
   2  -1  16 24.5914 4.66659   4 
  -2   1 -16 29.4853 10.6108   3 
   2   1  16 30.5336 11.4426   2 
   2  -1 -16 18.0621 14.7183   3 
   3  -1  16 36.3109 9.06441   2 
  -3  -1 -16 28.4441 6.97238   4 
  -3  -1 -16 18.5557 11.5205   3 
   3   1 -16 50.0458 12.0123   3 
   3  -1 -16 24.4422 10.9001   3 
  -3   1 -16 26.8334 10.8170   3 
   3  -1 -16 24.6405 7.77083   2 
   4   1 -16 17.4573 10.4750   3 
   4  -1  16 7.02933 8.20238   2 
  -4  -1 -16 9.81467 10.0605   3 
  -4  -1 -16 9.51589 6.41897   4 
   4   1  16 1.58446 10.7942   2 
  -4   1 -16 16.0208 10.1085   3 
   4  -1 -16 12.7299 7.50872   2 
   4  -1 -16 17.4773 11.7242   3 
   5   1 -16 151.918 16.6281   3 
  -5  -1 -16 140.635 12.8140   4 
   5  -1  16 161.720 16.7479   2 
   5   1  16 161.541 18.5204   2 
   5   1  16 186.071 15.3893   1 
   5  -1 -16 159.101 16.2014   2 
  -5   1 -16 136.618 18.8084   3 
   5  -1 -16 138.698 16.9978   3 
   6  -1  16 7.49672 9.06745   2 
   6  -1  16 7.79821 6.87498   1 
  -6  -1 -16 10.0343 6.22477   4 
   6   1 -16 16.8343 10.5467   3 
  -6  -1 -16 -2.1505 9.23645   3 
  -6   1 -16 7.86414 10.8440   3 
   6  -1 -16 7.61305 10.4043   3 
   6   1  16 2.74799 10.4775   2 
   6   1  16 8.08229 8.49645   1 
   7  -1  16 12.4648 9.34074   2 
  -7  -1 -16 16.8975 5.98951   4 
  -7  -1 -16 7.52873 9.71392   3 
   7   1 -16 15.6332 10.1198   3 
   7  -1  16 24.1149 7.94026   1 
   7   1  16 14.1815 11.4465   2 
   7   1  16 3.40344 9.27783   1 
  -7   1 -16 2.31200 10.6591   3 
   7  -1 -16 1.72468 9.35361   3 
   7  -1 -16 11.1743 8.03028   2 
   8  -1  16 6.36401 7.77409   1 
   8   1 -16 -1.7687 8.81481   3 
  -8  -1 -16 -1.4280 9.48119   3 
  -8  -1 -16 16.0518 4.16511   4 
   8   1  16 -8.4768 8.46072   1 
  -8   1 -16 12.1176 11.0072   3 
   8  -1 -16 -0.3610 11.2030   3 
   8  -1 -16 -7.3829 7.97331   2 
   8   1  16 -10.202 11.9699   2 
   9   1 -16 236.051 20.0838   3 
   9  -1  16 286.163 22.0775   2 
   9  -1  16 245.553 17.0295   1 
  -9  -1 -16 220.983 24.5522   3 
   9   1  16 257.458 24.4327   2 
   9  -1 -16 166.904 30.2794   3 
   9  -1 -16 238.726 20.9950   2 
  -9   1 -16 174.737 27.6273   3 
   9   1  16 234.441 19.0247   1 
  10   1 -16 58.0361 14.9362   3 
  10  -1  16 59.0348 9.15025   1 
  10  -1  16 49.0347 11.9921   2 
 -10  -1 -16 37.6209 13.7040   3 
  10  -1 -16 68.0094 14.9450   3 
  10  -1 -16 34.6058 10.1388   2 
  10   1  16 67.8388 13.0915   1 
 -10   1 -16 27.3426 14.0218   3 
  10   1  16 31.3382 14.2655   2 
  11  -1  16 4.50863 10.5758   2 
  11   1 -16 -1.3642 3.42991   2 
 -11  -1 -16 20.9006 17.9956   3 
 -11  -1 -16 -1.6439 1.76624   4 
  11  -1  16 4.23380 7.53741   1 
  11   1 -16 30.6395 10.0659   3 
  11  -1 -16 14.5218 9.93082   2 
  11  -1 -16 0.89755 11.7882   3 
  11   1  16 8.88365 13.9858   2 
  11   1  16 5.45292 9.06087   1 
   0  -2 -16 60.4523 14.7264   3 
   0   2 -16 60.4067 12.1709   3 
   0  -2 -16 88.5309 14.7812   4 
  -1  -2 -16 72.0613 15.5515   3 
   1   2 -16 89.5577 13.2451   3 
  -1  -2  16 81.5175 7.20927   4 
   1  -2 -16 89.0695 16.1716   3 
  -1   2 -16 78.5327 13.5070   3 
   1  -2 -16 89.3043 11.0250   4 
  -2  -2 -16 0.08793 12.2416   3 
   2  -2  16 3.36513 7.13355   2 
  -2  -2 -16 0.56905 10.5534   4 
  -2  -2  16 3.80859 3.54924   4 
   2  -2 -16 10.0689 11.1473   3 
  -2   2 -16 3.77959 10.0353   3 
  -3  -2 -16 38.6164 12.5243   4 
   3   2 -16 63.4234 9.38626   3 
   3  -2  16 32.8964 8.37968   2 
  -3  -2 -16 9.52365 13.0228   3 
   3   2  16 38.6525 10.4081   1 
  -3   2 -16 49.3383 12.0245   3 
   3  -2 -16 31.7536 12.5486   3 
   4  -2  16 6.02615 7.74300   2 
  -4  -2 -16 14.5668 12.8741   3 
  -4   2 -16 1.72963 10.1747   3 
   4   2  16 7.64956 11.4748   2 
   4   2  16 6.43422 9.57800   1 
   4  -2 -16 3.16337 11.7856   3 
   5  -2  16 298.983 21.2292   2 
  -5  -2 -16 268.763 22.4276   4 
   5   2  16 303.325 25.0689   2 
   5   2  16 258.846 21.8394   1 
  -5   2 -16 289.540 23.5340   3 
   5  -2 -16 266.395 27.0818   3 
   6   2 -16 0.49378 2.86402   3 
  -6  -2 -16 8.84627 12.0882   3 
  -6  -2 -16 6.54600 6.98382   4 
   6  -2  16 -4.7712 6.02803   1 
   6  -2  16 -4.6068 8.05731   2 
   6  -2 -16 6.68824 7.81707   2 
   6  -2 -16 8.21620 13.6299   3 
   6   2  16 13.8354 17.2219   1 
  -6   2 -16 -7.5301 15.9385   3 
   6   2  16 0.37039 11.8998   2 
  -7  -2 -16 8.25908 7.10933   4 
  -7  -2 -16 16.9230 12.4545   3 
   7  -2  16 9.28894 6.60870   1 
   7  -2  16 20.4493 8.76223   2 
   7  -2 -16 12.1384 8.22883   2 
   7   2  16 19.6633 12.7718   2 
   7   2  16 7.51046 10.2386   1 
   7  -2 -16 -3.1905 12.1879   3 
  -8  -2 -16 7.23585 12.1113   3 
  -8  -2 -16 14.9056 7.37321   4 
   8  -2  16 21.7362 9.80058   2 
   8  -2  16 35.4827 7.15498   1 
   8  -2 -16 19.4951 12.3891   3 
   8   2  16 46.8584 12.3049   1 
   8   2  16 29.7222 13.8797   2 
   8  -2 -16 22.0500 9.35926   2 
   9  -2  16 3.31690 14.8770   2 
   9  -2  16 3.41327 5.71238   1 
   9   2 -16 -1.4938 3.48565   3 
  -9  -2 -16 3.38941 6.83977   4 
  -9  -2 -16 -12.999 12.3824   3 
   9   2  16 12.1809 13.4483   2 
   9   2  16 1.40966 10.3474   1 
   9  -2 -16 3.56556 12.1542   3 
   9  -2 -16 -1.3326 8.48300   2 
  10   2 -16 2.55253 3.83113   3 
 -10  -2 -16 7.94079 7.61390   4 
 -10  -2 -16 1.45687 12.4859   3 
  10  -2  16 5.20030 9.28366   2 
  10  -2 -16 20.7933 18.9212   3 
  10   2  16 20.7779 10.6934   1 
  10  -2 -16 14.9578 9.78391   2 
   0  -3 -16 -5.5128 12.7864   3 
   0  -3 -16 1.50580 8.79389   4 
  -1  -3 -16 42.8706 13.9382   3 
  -1  -3 -16 51.8342 10.8026   4 
   1  -3 -16 81.8989 16.9070   3 
   1   3  16 58.1987 11.3034   1 
   1  -3 -16 81.6684 11.0187   4 
  -2  -3 -16 8.85756 8.18801   4 
  -2  -3 -16 6.36126 14.2378   3 
   2   3  16 12.5263 10.7061   1 
   2  -3 -16 9.37381 8.21967   4 
   2  -3 -16 7.72476 12.9073   3 
  -3  -3 -16 34.9048 10.3684   4 
  -3  -3 -16 16.3668 14.4784   3 
   3   3  16 22.1537 10.7000   1 
   3  -3 -16 24.0299 9.26709   4 
   3  -3 -16 19.5956 14.3696   3 
  -4  -3 -16 1.32501 8.30737   4 
   4  -3  16 4.52024 6.86923   2 
  -4  -3 -16 10.9495 14.8437   3 
   4   3  16 11.2096 10.4374   1 
   4  -3 -16 2.70493 12.6941   3 
  -5  -3 -16 60.3217 10.4269   4 
   5  -3  16 90.0623 12.1625   2 
  -5  -3 -16 136.884 24.8347   3 
   5   3  16 129.402 17.9988   1 
   5  -3 -16 92.2330 17.1868   3 
  -6  -3 -16 -11.656 12.7696   3 
   6  -3  16 4.38137 8.04770   2 
  -6  -3 -16 5.20398 8.26681   4 
   6  -3 -16 4.28938 12.5211   3 
   6   3  16 4.89059 13.0066   2 
   6   3  16 0.67991 10.7749   1 
   7  -3  16 3.77019 8.00696   2 
  -7  -3 -16 6.19250 24.6175   3 
  -7  -3 -16 -7.5045 7.91599   4 
   7   3  16 -2.0453 15.2905   1 
   7  -3 -16 6.87288 12.2822   3 
   7  -3 -16 1.11025 8.55335   2 
   7   3  16 31.6882 18.8240   2 
   8  -3  16 1.26480 7.92018   2 
  -8  -3 -16 -0.4651 8.47665   4 
  -8  -3 -16 2.78863 13.7108   3 
   8   3  16 3.33570 15.0661   2 
   8  -3 -16 8.56150 12.7697   3 
   8   3  16 -8.0583 10.0350   1 
   0  -4 -16 15.2662 11.2447   4 
   0  -4 -16 37.9361 22.1460   3 
   0   4  16 51.4307 14.7176   1 
  -1  -4 -16 44.6965 18.0056   3 
  -1  -4 -16 25.8948 18.0472   4 
  -1   4  16 86.4553 20.0271   1 
   1   4  16 30.0234 16.5063   1 
   1  -4 -16 13.3290 14.6363   4 
   1  -4 -16 81.8243 23.6647   3 
  -2  -4 -16 -12.808 9.58523   4 
  -2   4  16 0.06108 14.7746   1 
  -2  -4 -16 5.62741 19.4088   3 
   2   4  16 2.25620 11.9944   1 
   2  -4 -16 3.92114 9.86270   4 
   2  -4 -16 7.43437 16.0010   3 
  -3   4  16 35.5129 13.0796   1 
  -3  -4 -16 10.9613 11.3861   4 
  -3  -4 -16 5.43610 15.8305   3 
   3  -4 -16 23.1357 10.6654   4 
   3   4  16 6.04072 11.5238   1 
   3  -4 -16 7.40134 15.9551   3 
  -4  -4 -16 -4.8567 15.8883   3 
   4  -4 -16 -8.7062 15.6200   3 
   4   4  16 6.06865 11.9234   1 
   1   0 -17 107.187 18.9404   3 
   2   0 -17 4.22698 2.74189   2 
   2   0 -17 11.6268 17.3391   3 
  -2   0 -17 53.1839 12.7194   3 
  -3   0 -17 14.3004 11.1565   3 
   3   0  17 20.1719 10.9012   2 
  -4   0 -17 42.0061 13.0131   3 
   4   0 -17 69.6682 18.0538   3 
   4   0  17 44.7428 17.6851   2 
   5   0 -17 4.51495 4.20823   2 
   5   0  17 21.8843 10.9179   2 
  -5   0 -17 22.1535 11.7188   3 
   5   0 -17 12.7945 10.5995   3 
   6   0 -17 1.97153 10.2420   3 
   6   0  17 5.72625 10.3640   2 
   6   0  17 -5.2181 8.07756   1 
  -6   0 -17 -6.0808 10.3353   3 
   7   0  17 16.7827 9.58284   1 
   7   0 -17 2.96285 4.24509   2 
  -7   0 -17 3.95969 14.4581   3 
   7   0 -17 5.28035 9.92074   3 
   7   0  17 -0.0071 10.2066   2 
  -8   0 -17 -5.7205 10.0431   3 
   8   0  17 -4.5708 10.6679   2 
   8   0  17 -3.7376 8.30962   1 
   8   0 -17 1.82117 11.1350   3 
   9   0  17 55.9905 13.5734   2 
   9   0  17 69.8388 10.9428   1 
   9   0 -17 58.4962 13.9442   3 
  -9   0 -17 29.1401 10.9425   3 
 -10   0 -17 33.2890 14.7737   3 
  10   0 -17 27.5529 11.7112   3 
  10   0  17 40.3408 11.0391   1 
  10   0  17 22.6587 12.7624   2 
 -11   0 -17 104.699 18.3127   3 
   0   1 -17 102.853 15.2637   3 
   0  -1  17 99.8503 8.48672   4 
   0  -1 -17 58.2311 13.6320   3 
  -1  -1 -17 51.4761 13.6584   3 
   1   1 -17 63.7075 13.2263   3 
   1  -1  17 49.9181 7.23841   4 
  -1   1 -17 80.6832 14.1792   3 
   1  -1 -17 39.9064 12.4008   3 
   2   1 -17 10.2648 10.7237   3 
  -2  -1 -17 15.0128 12.4088   3 
   2  -1  17 4.39172 8.29775   2 
   2  -1  17 2.41247 4.10080   4 
  -2  -1 -17 7.94787 6.57625   4 
  -2   1 -17 -0.3454 10.5901   3 
   2  -1 -17 0.98546 11.4031   3 
   3   1 -17 134.031 16.9518   3 
  -3  -1 -17 117.347 11.6642   4 
   3  -1  17 141.180 15.0605   2 
  -3  -1 -17 103.344 17.3596   3 
  -3   1 -17 132.959 20.9280   3 
   3   1  17 126.609 17.0648   2 
   3  -1 -17 92.0248 13.2807   2 
   3  -1 -17 112.458 17.0317   3 
  -4  -1 -17 103.581 10.8564   4 
   4  -1  17 105.682 14.8371   2 
  -4  -1 -17 99.8214 16.7605   3 
   4   1 -17 91.5172 14.0553   3 
   4   1  17 98.1139 13.7846   2 
  -4   1 -17 89.2269 15.1340   3 
   4  -1 -17 78.0662 12.4339   2 
   4  -1 -17 52.9285 12.1465   3 
  -5  -1 -17 273.962 19.1615   4 
   5   1 -17 262.782 22.5991   3 
   5  -1  17 297.639 22.9430   2 
  -5  -1 -17 283.675 31.3528   3 
   5  -1 -17 223.908 23.8719   2 
   5   1  17 289.750 24.4662   2 
  -5   1 -17 270.035 24.0936   3 
   5   1  17 333.794 21.6225   1 
   5  -1 -17 281.857 23.7653   3 
   6  -1  17 34.2776 14.7637   2 
  -6  -1 -17 22.1360 13.0028   3 
   6  -1  17 36.2365 9.16620   1 
  -6  -1 -17 44.4114 6.76179   4 
   6   1 -17 50.5033 13.1666   3 
  -6   1 -17 27.4270 12.0946   3 
   6  -1 -17 19.1630 10.4212   3 
   6  -1 -17 30.9015 9.32885   2 
   6   1  17 42.1126 11.4105   1 
   6   1  17 33.8527 12.3810   2 
   7  -1  17 15.3607 9.63148   1 
  -7  -1 -17 1.55722 11.8196   3 
  -7  -1 -17 3.17636 2.42332   4 
   7  -1  17 7.00927 11.0983   2 
   7   1 -17 13.9012 10.2443   3 
  -7   1 -17 0.35855 11.3738   3 
   7   1  17 1.04372 12.0926   2 
   7  -1 -17 2.98494 15.0447   3 
   7   1  17 9.10506 17.6476   1 
   7  -1 -17 6.94751 8.45361   2 
   8   1 -17 88.4580 19.7606   3 
  -8  -1 -17 42.9895 14.6374   3 
   8  -1  17 119.154 17.7432   1 
   8  -1  17 54.8890 11.9878   2 
  -8   1 -17 57.1864 14.8817   3 
   8  -1 -17 73.5861 15.2542   3 
   8   1  17 66.9928 14.2582   2 
   8  -1 -17 42.2001 10.8626   2 
   8   1  17 65.1598 11.4568   1 
   9   1 -17 10.4921 9.95870   3 
   9  -1  17 21.5819 10.3229   2 
   9  -1  17 13.5514 10.5272   1 
  -9  -1 -17 12.5391 12.1231   3 
   9  -1 -17 29.4027 14.2937   3 
  -9   1 -17 8.44050 11.6781   3 
   9   1  17 7.01037 12.7371   2 
   9   1  17 23.9873 10.4925   1 
   9  -1 -17 10.3483 9.35156   2 
  10  -1  17 28.6152 8.84732   1 
  10   1 -17 47.1570 10.2462   3 
  10  -1  17 29.3959 11.2062   2 
 -10  -1 -17 11.5739 10.7527   3 
  10   1  17 34.0797 10.9605   1 
  10  -1 -17 19.2375 10.2015   2 
 -10   1 -17 40.1494 14.6701   3 
  10  -1 -17 32.3101 14.2886   3 
   0   2 -17 8.09944 9.73574   3 
   0  -2 -17 -3.7318 7.45662   4 
   0  -2 -17 -2.5083 20.4958   3 
  -1  -2 -17 168.086 16.1045   4 
   1   2 -17 174.408 16.9554   3 
  -1  -2 -17 138.020 24.8116   3 
  -1   2 -17 225.233 19.2730   3 
  -2  -2 -17 49.1221 9.86548   4 
  -2  -2 -17 23.1540 15.1580   3 
  -2   2 -17 51.6954 13.0042   3 
   2  -2 -17 37.4260 14.8363   3 
   3   2 -17 1.22813 3.51597   3 
  -3  -2 -17 12.9329 12.1888   3 
  -3  -2 -17 2.12003 7.42981   4 
   3  -2  17 13.6684 8.08307   2 
   3  -2 -17 13.3741 13.9225   3 
  -3   2 -17 14.0484 11.6794   3 
   3   2  17 6.04438 8.17935   1 
   4  -2  17 41.8103 9.71468   2 
  -4  -2 -17 24.9518 12.7673   3 
  -4  -2 -17 47.9179 9.16487   4 
   4   2  17 49.1775 11.4161   1 
   4  -2 -17 27.1540 12.2007   3 
  -4   2 -17 52.4658 12.9576   3 
   4   2  17 59.4465 13.9295   2 
  -5  -2 -17 3.70622 12.2776   3 
   5  -2  17 20.5808 9.37374   2 
   5   2 -17 1.33985 3.17246   3 
  -5  -2 -17 26.8191 9.01391   4 
   5  -2 -17 7.58063 9.28243   2 
   5   2  17 15.7104 11.8551   2 
   5   2  17 26.1007 11.3923   1 
  -5   2 -17 12.9126 12.9826   3 
   5  -2 -17 9.60557 12.6873   3 
  -6  -2 -17 5.14925 12.8441   3 
   6  -2  17 -5.4177 6.90805   1 
   6  -2  17 1.34454 8.71636   2 
  -6  -2 -17 -6.0493 7.47885   4 
   6   2 -17 -0.6722 3.36340   3 
   6   2  17 1.70965 13.0572   2 
   6  -2 -17 -2.0250 11.5483   3 
   6   2  17 5.88606 10.8017   1 
   6  -2 -17 1.42637 8.91128   2 
  -6   2 -17 1.76526 11.1784   3 
  -7  -2 -17 17.9987 7.78435   4 
   7  -2  17 1.74075 9.80544   2 
   7  -2  17 13.4485 7.33102   1 
  -7  -2 -17 12.5361 13.9837   3 
   7   2  17 12.0291 13.4079   2 
   7   2  17 10.7910 11.5879   1 
   7  -2 -17 -1.2186 11.2429   3 
   7  -2 -17 2.78030 8.93909   2 
  -8  -2 -17 -10.935 6.77793   4 
   8   2 -17 -3.5911 4.06910   3 
   8  -2  17 2.44120 6.47660   1 
   8  -2  17 -13.160 10.1741   2 
   8   2  17 9.60197 11.6748   1 
   8  -2 -17 -0.7600 8.53446   2 
   8   2  17 -19.164 17.7835   2 
   8  -2 -17 -8.2410 12.3877   3 
   9  -2  17 51.9102 10.5744   2 
  -9  -2 -17 37.7096 8.73574   4 
  -9  -2 -17 50.2882 17.6243   3 
   9  -2 -17 24.4934 12.4716   3 
   9  -2 -17 33.4319 11.1355   2 
   9   2  17 29.9954 15.7463   2 
   9   2  17 77.8701 20.7497   1 
   0  -3 -17 55.1290 11.1725   4 
   0  -3 -17 69.1474 16.9282   3 
  -1  -3 -17 32.1934 15.7440   3 
  -1  -3 -17 36.0783 10.5465   4 
   1  -3 -17 57.6753 10.9750   4 
   1   3  17 79.8628 17.8186   1 
   1  -3 -17 41.4823 16.2209   3 
  -2  -3 -17 7.87863 14.8279   3 
  -2  -3 -17 6.10264 9.33564   4 
   2   3  17 18.8319 11.2955   1 
   2  -3 -17 -6.5946 13.1039   3 
   2  -3 -17 -1.2615 8.79512   4 
  -3  -3 -17 79.7630 18.6918   3 
  -3  -3 -17 48.7663 10.8417   4 
   3  -3 -17 113.881 24.3244   3 
   3   3  17 91.3688 15.1051   1 
  -4  -3 -17 46.1429 9.82415   4 
   4  -3  17 67.0508 9.37176   2 
  -4  -3 -17 46.7843 20.6146   3 
   4  -3 -17 46.8592 22.8799   3 
   4   3  17 71.6371 18.7733   1 
   5  -3  17 199.118 16.7308   2 
  -5  -3 -17 159.168 17.1283   4 
  -5  -3 -17 127.551 24.9831   3 
   5  -3 -17 244.122 29.1451   3 
   5   3  17 261.289 21.9920   1 
   6  -3  17 23.4039 8.73917   2 
  -6  -3 -17 -2.0666 14.0802   3 
  -6  -3 -17 2.37275 8.28223   4 
   6  -3 -17 22.5467 14.5591   3 
   6   3  17 24.1795 13.1339   1 
   0   0 -18 25.9968 12.2770   3 
  -1   0 -18 0.28130 1.65226   2 
   1   0 -18 2.73993 11.3887   3 
   1   0 -18 0.96886 1.65673   2 
  -1   0 -18 8.80621 11.4068   3 
   2   0 -18 0.72008 1.47627   2 
   2   0 -18 8.30714 12.2845   3 
  -2   0 -18 -10.743 10.4168   3 
  -3   0 -18 43.7482 14.1396   3 
   3   0 -18 24.9110 12.5130   3 
   3   0  18 55.8889 11.6206   2 
  -4   0 -18 119.798 18.2325   3 
   4   0  18 172.505 17.9677   2 
   4   0 -18 110.405 17.3947   3 
   5   0  18 43.0862 11.6324   2 
   5   0  18 44.3908 9.68718   1 
   5   0 -18 41.1992 13.8743   3 
  -5   0 -18 19.9457 15.1363   3 
  -6   0 -18 62.7502 12.9940   3 
   6   0  18 98.2067 14.2104   2 
   6   0 -18 66.6949 13.1831   3 
  -7   0 -18 8.59720 11.9194   3 
   7   0  18 30.7379 10.9522   1 
   7   0 -18 35.4895 14.3386   3 
   7   0  18 27.8230 12.8197   2 
   8   0  18 97.8330 15.0564   2 
   8   0 -18 112.366 20.1240   3 
  -8   0 -18 69.5709 16.3593   3 
   8   0  18 104.668 17.6099   1 
   9   0  18 17.2787 9.14094   1 
   9   0 -18 2.91883 11.5171   3 
   9   0  18 0.67281 12.5786   2 
   9   0 -18 -1.0407 2.71019   2 
  -9   0 -18 14.9936 14.0071   3 
   0  -1 -18 5.08056 13.7230   3 
   0   1 -18 -8.7631 18.6218   3 
  -1  -1 -18 26.4653 14.3708   3 
   1   1 -18 51.3003 17.4414   3 
   1  -1 -18 59.0645 15.1200   3 
  -1   1 -18 51.9375 16.3070   3 
   2   1 -18 147.664 20.1429   3 
  -2   1 -18 131.891 18.4089   3 
   2  -1 -18 165.255 22.1141   3 
  -3  -1 -18 45.1778 15.1645   3 
   3   1 -18 55.1515 15.4023   3 
  -3   1 -18 39.0316 12.5264   3 
   3  -1 -18 18.4977 12.4386   2 
   3  -1 -18 37.6168 19.6904   3 
   4  -1  18 31.6920 14.6209   2 
   4   1 -18 37.8435 15.3977   3 
  -4  -1 -18 37.2538 7.55304   4 
  -4  -1 -18 22.0834 13.2525   3 
   4   1  18 26.5971 12.4030   2 
  -4   1 -18 30.2468 12.9101   3 
   4  -1 -18 23.5006 9.60166   2 
   4  -1 -18 36.6618 16.5862   3 
  -5  -1 -18 44.7979 14.3484   3 
   5  -1  18 79.9689 12.2779   2 
   5   1 -18 47.6190 17.8755   3 
  -5  -1 -18 69.5792 8.63280   4 
   5  -1 -18 43.5947 9.94770   2 
   5   1  18 107.710 14.4643   1 
   5   1  18 95.7908 14.6265   2 
   5  -1 -18 58.7814 13.5870   3 
  -5   1 -18 83.3457 16.3314   3 
   6  -1  18 -4.9921 7.83411   1 
   6  -1  18 -6.1773 9.98015   2 
  -6  -1 -18 10.3317 11.2031   3 
   6   1 -18 3.05094 13.0759   3 
  -6  -1 -18 0.89701 1.68904   4 
  -6   1 -18 8.96629 15.7350   3 
   6   1  18 12.2497 12.5736   2 
   6  -1 -18 5.05822 11.6601   3 
   6  -1 -18 2.59279 8.18272   2 
   6   1  18 4.73787 10.1892   1 
   7  -1  18 5.95721 10.7900   2 
  -7  -1 -18 -2.0353 10.4166   3 
  -7  -1 -18 -0.9760 1.96565   4 
   7  -1  18 1.58459 8.28312   1 
   7   1 -18 9.27825 10.7904   3 
   7  -1 -18 2.24589 12.5702   3 
   7   1  18 -2.3004 8.90267   1 
   7   1  18 8.93431 12.8410   2 
   7  -1 -18 -7.7894 8.43764   2 
  -7   1 -18 6.53641 11.2331   3 
   8   1 -18 23.5447 10.6769   3 
   8  -1  18 2.33648 8.25254   1 
  -8  -1 -18 -2.3038 18.8545   3 
   8  -1  18 2.65489 10.9736   2 
  -8  -1 -18 -1.3396 3.30469   4 
   8   1  18 7.65315 13.6253   2 
   8  -1 -18 3.81063 9.37731   2 
   8  -1 -18 5.99159 12.3120   3 
  -8   1 -18 1.20687 12.6711   3 
   8   1  18 5.38844 9.99013   1 
  -9  -1 -18 8.80808 13.9717   3 
   9  -1 -18 20.7725 10.6439   2 
   9  -1 -18 37.7600 19.3857   3 
  -9   1 -18 33.4456 18.0823   3 
   0  -2 -18 22.6690 14.2296   3 
  -1  -2 -18 1.91204 8.03709   4 
  -1  -2 -18 -9.1525 12.6654   3 
  -1   2 -18 39.0932 11.4684   3 
   1  -2 -18 -4.9702 11.4336   3 
  -2  -2 -18 -10.123 7.38225   4 
  -2  -2 -18 -8.6432 13.1196   3 
   2   2 -18 -5.7598 3.74888   3 
   2  -2 -18 3.91789 13.1371   3 
  -2   2 -18 18.3625 12.0807   3 
  -3  -2 -18 11.9813 13.1735   3 
  -3  -2 -18 35.6019 9.04817   4 
  -3   2 -18 52.3600 18.5355   3 
   3  -2 -18 10.8320 11.0600   3 
   3   2  18 41.1132 12.2549   1 
  -4  -2 -18 115.812 13.6525   4 
   4  -2  18 117.271 14.9292   2 
  -4  -2 -18 92.6921 18.5888   3 
   4  -2 -18 125.466 15.5835   2 
  -4   2 -18 128.490 18.4711   3 
   4   2  18 132.874 16.5584   1 
   4  -2 -18 120.667 19.7178   3 
  -5  -2 -18 28.6334 15.9343   3 
  -5  -2 -18 31.8694 9.52570   4 
   5   2  18 14.4245 9.61781   1 
   5   2  18 18.4822 13.7549   2 
  -5   2 -18 56.0292 13.9786   3 
   5  -2 -18 25.3196 14.0061   3 
   5  -2 -18 16.4110 9.52131   2 
   6  -2  18 106.627 13.0167   1 
  -6  -2 -18 82.5642 21.3398   3 
  -6  -2 -18 94.2095 11.9775   4 
   6  -2  18 123.402 17.5725   2 
  -6   2 -18 101.367 17.6442   3 
   6  -2 -18 60.1239 12.5765   2 
   6   2  18 90.0405 14.6814   1 
  -7  -2 -18 1.17194 13.1806   3 
   7  -2  18 16.9395 9.52251   2 
   7  -2  18 15.8807 7.76811   1 
  -7  -2 -18 12.8817 8.39214   4 
   7   2  18 13.2105 13.0775   1 
   7  -2 -18 14.6097 10.1275   2 
   7  -2 -18 1.70496 13.2741   3 
   7   2  18 16.5825 15.0147   2 
   0  -3 -18 -1.6204 17.3291   3 
   0  -3 -18 1.53631 9.17455   4 
  -1  -3 -18 41.1456 10.4887   4 
  -1  -3 -18 39.9645 26.3944   3 
   1   3  18 42.4168 13.5449   1 
   1  -3 -18 36.2641 11.1619   4 
   1  -3 -18 7.61575 15.0840   3 
  -2  -3 -18 62.3375 11.4825   4 
  -2  -3 -18 68.0359 18.5275   3 
   2   3  18 81.5461 14.6621   1 
   2  -3 -18 68.3056 18.0543   3 
  -3  -3 -18 13.6923 10.8932   4 
  -3  -3 -18 26.8082 18.4865   3 
   3   3  18 30.3416 13.5909   1 
   3  -3 -18 16.3347 14.2760   3 
   0   0 -19 -2.4719 2.77072   2 
   0   0 -19 -10.624 12.2582   3 
  -1   0 -19 16.4764 14.1153   3 
   1   0 -19 37.7734 16.0850   3 
   2   0 -19 4.88018 12.3962   3 
  -2   0 -19 25.4990 14.4125   3 
   2   0 -19 -0.8844 1.76544   2 
   3   0 -19 13.9355 13.7221   3 
  -3   0 -19 4.34189 11.9107   3 
   3   0 -19 1.72667 1.96262   2 
   4   0 -19 5.64542 17.0877   3 
  -4   0 -19 5.73260 11.7104   3 
   4   0  19 10.5177 11.2052   2 
  -5   0 -19 85.3567 16.2531   3 
   5   0  19 157.965 18.5777   2 
   5   0 -19 99.1535 18.6419   3 
   5   0  19 103.820 13.4196   1 
   6   0 -19 1.81556 2.89314   2 
   6   0  19 10.1913 9.52677   1 
   6   0 -19 7.85739 11.3224   3 
   6   0  19 10.4112 11.5905   2 
  -6   0 -19 1.09992 13.2080   3 
   7   0  19 32.8946 13.3964   2 
   7   0 -19 29.1432 14.0945   3 
   7   0  19 29.8953 10.4251   1 
  -7   0 -19 10.9647 18.8880   3 
   0  -1 -19 52.6308 15.3412   3 
   0   1 -19 31.6978 12.8367   3 
  -1  -1 -19 57.3513 14.2019   3 
   1   1 -19 87.9142 15.2279   3 
   1  -1 -19 91.7969 16.8225   3 
   1  -1 -19 101.523 13.8281   2 
  -1   1 -19 98.0097 17.2132   3 
   2   1 -19 18.4867 12.8573   3 
  -2  -1 -19 12.6861 13.5913   3 
   2  -1 -19 41.0416 8.53933   2 
   2  -1 -19 31.2809 13.8947   3 
  -2   1 -19 31.3722 12.6824   3 
  -3  -1 -19 27.5084 15.0366   3 
   3   1 -19 18.1382 12.6990   3 
  -3   1 -19 36.6291 13.2979   3 
   3  -1 -19 36.5901 8.99412   2 
   3  -1 -19 20.4883 14.6046   3 
   4  -1  19 42.4725 11.6137   2 
   4   1 -19 30.3500 13.3863   3 
  -4  -1 -19 18.7586 13.2134   3 
  -4   1 -19 45.9925 24.4771   3 
   4   1  19 27.8724 10.3240   1 
   4  -1 -19 18.8094 13.0930   3 
   4  -1 -19 38.0673 8.68198   2 
  -5  -1 -19 13.3907 19.3329   3 
   5  -1  19 55.6642 11.2168   1 
   5   1 -19 52.1464 13.6518   3 
   5  -1  19 42.7520 11.2265   2 
   5  -1 -19 32.2997 13.5561   3 
  -5   1 -19 33.6187 13.2991   3 
   5   1  19 18.7002 13.1563   2 
   5  -1 -19 43.5647 9.33820   2 
   5   1  19 39.8761 11.0793   1 
   6  -1  19 48.7492 13.9455   1 
  -6  -1 -19 17.0784 14.6416   3 
   6  -1  19 38.4069 11.9788   2 
   6   1 -19 48.6985 13.0275   3 
   6   1  19 31.6535 11.3220   1 
   6  -1 -19 33.3330 9.97272   2 
  -6   1 -19 27.5171 13.7834   3 
   6  -1 -19 31.5682 15.2596   3 
   7  -1 -19 56.5240 10.7716   2 
   0   2 -19 1.54827 5.65096   3 
   0  -2 -19 1.02821 14.5441   3 
  -1  -2 -19 39.3847 27.7592   3 
   1  -2 -19 31.2681 20.4216   3 
  -2  -2 -19 3.59173 15.4271   3 
  -2  -2 -19 5.63224 8.01497   4 
   2   2 -19 2.10851 4.69651   3 
  -2   2 -19 27.9235 10.5721   3 
  -3  -2 -19 0.74887 7.53766   4 
   3   2 -19 -4.0677 4.73687   3 
  -3  -2 -19 10.9452 15.7402   3 
  -3   2 -19 42.9433 12.9465   3 
   3  -2 -19 -1.3100 8.53937   2 
   3  -2 -19 8.11826 16.8672   3 
   3   2  19 3.63392 11.1035   1 
  -4  -2 -19 -6.4859 7.73577   4 
  -4  -2 -19 14.9541 15.4319   3 
   4   2 -19 9.58394 5.46471   3 
   4   2  19 12.1977 12.9035   1 
   4  -2 -19 3.53369 9.74031   2 
   4  -2 -19 -0.6524 11.9681   3 
  -4   2 -19 6.25306 12.6162   3 
   0   0 -20 119.256 19.0398   3 
   1   0 -20 54.6015 15.1311   3 
  -1   0 -20 57.2791 13.7474   3 
   2   0 -20 88.2250 17.1721   3 
  -2   0 -20 85.3815 17.3826   3 
  -3   0 -20 -1.5213 11.9570   3 
   3   0 -20 13.6975 13.3670   3 
   4   0 -20 2.53173 12.5579   3 
  -4   0 -20 3.43243 13.3558   3 
   0  -1 -20 -1.8405 2.58390   2 
   0  -1 -20 -5.9427 16.8902   3 
   0   1 -20 9.52777 25.6917   3 
   1   1 -20 53.5427 19.0570   3 
  -1  -1 -20 49.0504 22.4118   3 
  -1   1 -20 62.0512 20.4936   3 
   1  -1 -20 37.3782 22.1922   3 
  -2  -1 -20 -2.1930 19.2352   3 
   2   1 -20 -9.0517 14.2644   3 
  -2   1 -20 -3.6408 12.2707   3 
   2  -1 -20 -6.0682 2.68446   2 
   2  -1 -20 15.1724 18.0408   3 
   3   1 -20 -8.1384 13.5575   3 
  -3  -1 -20 -7.0195 15.6939   3 
   3  -1 -20 -1.3447 2.52943   2 
   3  -1 -20 1.32144 19.5002   3 
  -3   1 -20 -9.0062 13.2690   3 
   0   0   0    0.00    0.00   0 
  
 _exptl_absorpt_process_details 
) 
 SADABS 2016/2: Krause, L., Herbst-Irmer, R., Sheldrick G.M. & Stalke D., 
 J. Appl. Cryst. 48 (2015) 3-10 
) 
 _exptl_absorpt_correction_type   multi-scan 
 _exptl_absorpt_correction_T_max  0.6489 
 _exptl_absorpt_correction_T_min  0.3849 
 _exptl_special_details 
) 
 The following wavelength and cell were deduced by SADABS from the 
 direction cosines etc. They are given here for emergency use only: 
 CELL 0.71120   12.511    4.298   13.174   89.886   90.070   89.996 
) 
  
;
_shelx_hkl_checksum              4890
loop_
_space_group_symop_operation_xyz
'x, y, z'
'-x+1/2, -y, z+1/2'
'-x, y+1/2, -z'
'x+1/2, -y+1/2, -z+1/2'
'-x, -y, -z'
'x-1/2, y, -z-1/2'
'x, -y-1/2, z'
'-x-1/2, y-1/2, z-1/2'
loop_
_atom_site_label
_atom_site_type_symbol
_atom_site_fract_x
_atom_site_fract_y
_atom_site_fract_z
_atom_site_U_iso_or_equiv
_atom_site_adp_type
_atom_site_occupancy
_atom_site_site_symmetry_order
_atom_site_calc_flag
_atom_site_refinement_flags_posn
_atom_site_refinement_flags_adp
_atom_site_refinement_flags_occupancy
_atom_site_disorder_assembly
_atom_site_disorder_group
Br1 Br 0.36891(4) 0.750000 0.55239(4) 0.01229(12) Uani 1 2 d S T P . .
Br2 Br 0.05805(4) 0.750000 0.63876(4) 0.01260(12) Uani 1 2 d S T P . .
Br3 Br 0.27719(4) 1.250000 0.79305(4) 0.01170(11) Uani 1 2 d S T P . .
Cu1 Cu 0.24555(5) 0.750000 0.69721(5) 0.01465(14) Uani 1 2 d S T P . .
K1 K 0.17576(9) 0.250000 0.48432(8) 0.0140(2) Uani 1 2 d S T P . .
K2 K 0.51318(9) 0.250000 0.67681(8) 0.0138(2) Uani 1 2 d S T P . .
loop_
_atom_site_aniso_label
_atom_site_aniso_U_11
_atom_site_aniso_U_22
_atom_site_aniso_U_33
_atom_site_aniso_U_23
_atom_site_aniso_U_13
_atom_site_aniso_U_12
Br1 0.0102(2) 0.0145(2) 0.0121(2) 0.000 0.00034(16) 0.000
Br2 0.0103(2) 0.0138(2) 0.0137(2) 0.000 0.00001(16) 0.000
Br3 0.0113(2) 0.0115(2) 0.0123(2) 0.000 0.00025(16) 0.000
Cu1 0.0125(3) 0.0168(3) 0.0146(3) 0.000 0.0005(2) 0.000
K1 0.0143(5) 0.0129(4) 0.0149(4) 0.000 0.0003(4) 0.000
K2 0.0121(5) 0.0143(4) 0.0151(4) 0.000 -0.0010(4) 0.000
loop_
_atom_type_symbol
_atom_type_description
_atom_type_scat_dispersion_real
_atom_type_scat_dispersion_imag
_atom_type_scat_source
K K 0.2009 0.2494 'International Tables Vol C Tables 4.2.6.8 and 6.1.1.4'
Cu Cu 0.3201 1.2651 'International Tables Vol C Tables 4.2.6.8 and 6.1.1.4'
Br Br -0.2901 2.4595 'International Tables Vol C Tables 4.2.6.8 and 6.1.1.4'
loop_
_geom_angle_atom_site_label_1
_geom_angle_atom_site_label_2
_geom_angle_atom_site_label_3
_geom_angle
_geom_angle_site_symmetry_1
_geom_angle_site_symmetry_3
_geom_angle_publ_flag
Cu1 Br1 K2 87.58(3) . 1_565 ?
Cu1 Br1 K2 87.58(3) . . ?
K2 Br1 K2 82.75(3) 1_565 . ?
Cu1 Br1 K1 75.78(2) . 1_565 ?
K2 Br1 K1 96.43(2) 1_565 1_565 ?
K2 Br1 K1 163.36(3) . 1_565 ?
Cu1 Br1 K1 75.78(2) . . ?
K2 Br1 K1 163.36(3) 1_565 . ?
K2 Br1 K1 96.43(2) . . ?
K1 Br1 K1 79.59(3) 1_565 . ?
Cu1 Br1 K2 167.06(3) . 5_666 ?
K2 Br1 K2 102.06(2) 1_565 5_666 ?
K2 Br1 K2 102.06(2) . 5_666 ?
K1 Br1 K2 94.38(3) 1_565 5_666 ?
K1 Br1 K2 94.38(3) . 5_666 ?
Cu1 Br2 K2 86.11(2) . 6_567 ?
Cu1 Br2 K2 86.11(2) . 6_557 ?
K2 Br2 K2 81.49(3) 6_567 6_557 ?
Cu1 Br2 K1 76.60(3) . . ?
K2 Br2 K1 162.67(3) 6_567 . ?
K2 Br2 K1 96.095(19) 6_557 . ?
Cu1 Br2 K1 76.60(3) . 1_565 ?
K2 Br2 K1 96.096(19) 6_567 1_565 ?
K2 Br2 K1 162.67(3) 6_557 1_565 ?
K1 Br2 K1 81.07(3) . 1_565 ?
Cu1 Br2 K1 169.18(3) . 5_566 ?
K2 Br2 K1 102.02(3) 6_567 5_566 ?
K2 Br2 K1 102.02(3) 6_557 5_566 ?
K1 Br2 K1 95.27(3) . 5_566 ?
K1 Br2 K1 95.27(3) 1_565 5_566 ?
Cu1 Br3 Cu1 116.74(3) 1_565 . ?
Cu1 Br3 K2 84.79(2) 1_565 1_565 ?
Cu1 Br3 K2 84.79(2) . 1_565 ?
Cu1 Br3 K2 84.48(2) 1_565 6_567 ?
Cu1 Br3 K2 84.48(2) . 6_567 ?
K2 Br3 K2 159.45(2) 1_565 6_567 ?
Cu1 Br3 K1 81.862(18) 1_565 2_575 ?
Cu1 Br3 K1 161.13(2) . 2_575 ?
K2 Br3 K1 100.91(3) 1_565 2_575 ?
K2 Br3 K1 94.85(3) 6_567 2_575 ?
Cu1 Br3 K1 161.13(2) 1_565 2_565 ?
Cu1 Br3 K1 81.863(18) . 2_565 ?
K2 Br3 K1 100.91(3) 1_565 2_565 ?
K2 Br3 K1 94.85(3) 6_567 2_565 ?
K1 Br3 K1 79.40(3) 2_575 2_565 ?
Br1 Cu1 Br2 110.83(3) . . ?
Br1 Cu1 Br3 106.86(2) . 1_545 ?
Br2 Cu1 Br3 107.77(2) . 1_545 ?
Br1 Cu1 Br3 106.86(2) . . ?
Br2 Cu1 Br3 107.77(2) . . ?
Br3 Cu1 Br3 116.74(3) 1_545 . ?
Br1 Cu1 K1 63.39(2) . . ?
Br2 Cu1 K1 62.08(2) . . ?
Br3 Cu1 K1 85.448(16) 1_545 . ?
Br3 Cu1 K1 157.81(2) . . ?
Br1 Cu1 K1 63.39(2) . 1_565 ?
Br2 Cu1 K1 62.08(2) . 1_565 ?
Br3 Cu1 K1 157.81(2) 1_545 1_565 ?
Br3 Cu1 K1 85.448(16) . 1_565 ?
K1 Cu1 K1 72.36(2) . 1_565 ?
Br1 Cu1 K1 126.41(3) . 2_565 ?
Br2 Cu1 K1 122.76(3) . 2_565 ?
Br3 Cu1 K1 58.414(16) 1_545 2_565 ?
Br3 Cu1 K1 58.413(16) . 2_565 ?
K1 Cu1 K1 143.732(12) . 2_565 ?
K1 Cu1 K1 143.732(12) 1_565 2_565 ?
Br1 Cu1 K2 141.646(18) . 6_557 ?
Br2 Cu1 K2 55.62(2) . 6_557 ?
Br3 Cu1 K2 56.39(2) 1_545 6_557 ?
Br3 Cu1 K2 111.46(3) . 6_557 ?
K1 Cu1 K2 80.05(2) . 6_557 ?
K1 Cu1 K2 117.69(3) 1_565 6_557 ?
K1 Cu1 K2 77.33(2) 2_565 6_557 ?
Br1 Cu1 K2 141.646(18) . 6_567 ?
Br2 Cu1 K2 55.62(2) . 6_567 ?
Br3 Cu1 K2 111.46(3) 1_545 6_567 ?
Br3 Cu1 K2 56.39(2) . 6_567 ?
K1 Cu1 K2 117.69(3) . 6_567 ?
K1 Cu1 K2 80.05(2) 1_565 6_567 ?
K1 Cu1 K2 77.33(2) 2_565 6_567 ?
K2 Cu1 K2 65.36(2) 6_557 6_567 ?
Br1 Cu1 K2 54.49(2) . 1_565 ?
Br2 Cu1 K2 140.993(19) . 1_565 ?
Br3 Cu1 K2 111.12(3) 1_545 1_565 ?
Br3 Cu1 K2 56.17(2) . 1_565 ?
K1 Cu1 K2 117.88(3) . 1_565 ?
K1 Cu1 K2 80.32(2) 1_565 1_565 ?
K1 Cu1 K2 81.57(2) 2_565 1_565 ?
K2 Cu1 K2 158.90(2) 6_557 1_565 ?
K2 Cu1 K2 110.572(9) 6_567 1_565 ?
Br1 Cu1 K2 54.49(2) . . ?
Br2 Cu1 K2 140.993(19) . . ?
Br3 Cu1 K2 56.170(19) 1_545 . ?
Br3 Cu1 K2 111.12(3) . . ?
K1 Cu1 K2 80.32(2) . . ?
K1 Cu1 K2 117.88(3) 1_565 . ?
K1 Cu1 K2 81.57(2) 2_565 . ?
K2 Cu1 K2 110.573(9) 6_557 . ?
K2 Cu1 K2 158.90(2) 6_567 . ?
K2 Cu1 K2 65.17(2) 1_565 . ?
Br2 K1 Br2 81.07(3) . 1_545 ?
Br2 K1 Br2 84.73(3) . 5_566 ?
Br2 K1 Br2 84.73(3) 1_545 5_566 ?
Br2 K1 Br1 74.974(17) . . ?
Br2 K1 Br1 124.94(4) 1_545 . ?
Br2 K1 Br1 139.432(15) 5_566 . ?
Br2 K1 Br1 124.94(4) . 1_545 ?
Br2 K1 Br1 74.974(17) 1_545 1_545 ?
Br2 K1 Br1 139.432(15) 5_566 1_545 ?
Br1 K1 Br1 79.59(3) . 1_545 ?
Br2 K1 Br3 162.62(4) . 2_564 ?
Br2 K1 Br3 97.124(11) 1_545 2_564 ?
Br2 K1 Br3 77.89(2) 5_566 2_564 ?
Br1 K1 Br3 118.87(4) . 2_564 ?
Br1 K1 Br3 70.436(17) 1_545 2_564 ?
Br2 K1 Br3 97.124(11) . 2_574 ?
Br2 K1 Br3 162.62(4) 1_545 2_574 ?
Br2 K1 Br3 77.89(2) 5_566 2_574 ?
Br1 K1 Br3 70.436(18) . 2_574 ?
Br1 K1 Br3 118.87(4) 1_545 2_574 ?
Br3 K1 Br3 79.40(3) 2_564 2_574 ?
Br2 K1 Cu1 41.327(17) . . ?
Br2 K1 Cu1 90.94(3) 1_545 . ?
Br2 K1 Cu1 125.69(3) 5_566 . ?
Br1 K1 Cu1 40.828(16) . . ?
Br1 K1 Cu1 89.94(3) 1_545 . ?
Br3 K1 Cu1 155.84(4) 2_564 . ?
Br3 K1 Cu1 99.102(14) 2_574 . ?
Br2 K1 Cu1 90.94(3) . 1_545 ?
Br2 K1 Cu1 41.326(17) 1_545 1_545 ?
Br2 K1 Cu1 125.69(3) 5_566 1_545 ?
Br1 K1 Cu1 89.94(3) . 1_545 ?
Br1 K1 Cu1 40.829(16) 1_545 1_545 ?
Br3 K1 Cu1 99.103(14) 2_564 1_545 ?
Br3 K1 Cu1 155.84(4) 2_574 1_545 ?
Cu1 K1 Cu1 72.36(2) . 1_545 ?
Br2 K1 Cu1 135.072(19) . 2_564 ?
Br2 K1 Cu1 135.072(19) 1_545 2_564 ?
Br2 K1 Cu1 75.62(3) 5_566 2_564 ?
Br1 K1 Cu1 94.41(3) . 2_564 ?
Br1 K1 Cu1 94.41(3) 1_545 2_564 ?
Br3 K1 Cu1 39.723(13) 2_564 2_564 ?
Br3 K1 Cu1 39.723(13) 2_574 2_564 ?
Cu1 K1 Cu1 133.25(2) . 2_564 ?
Cu1 K1 Cu1 133.25(2) 1_545 2_564 ?
Br2 K1 K1 49.464(14) . 1_565 ?
Br2 K1 K1 130.537(14) 1_545 1_565 ?
Br2 K1 K1 90.0 5_566 1_565 ?
Br1 K1 K1 50.204(14) . 1_565 ?
Br1 K1 K1 129.795(14) 1_545 1_565 ?
Br3 K1 K1 129.701(13) 2_564 1_565 ?
Br3 K1 K1 50.298(13) 2_574 1_565 ?
Cu1 K1 K1 53.819(12) . 1_565 ?
Cu1 K1 K1 126.181(12) 1_545 1_565 ?
Cu1 K1 K1 90.0 2_564 1_565 ?
Br2 K1 K1 130.537(14) . 1_545 ?
Br2 K1 K1 49.464(14) 1_545 1_545 ?
Br2 K1 K1 90.0 5_566 1_545 ?
Br1 K1 K1 129.795(14) . 1_545 ?
Br1 K1 K1 50.204(14) 1_545 1_545 ?
Br3 K1 K1 50.298(13) 2_564 1_545 ?
Br3 K1 K1 129.701(13) 2_574 1_545 ?
Cu1 K1 K1 126.181(12) . 1_545 ?
Cu1 K1 K1 53.819(12) 1_545 1_545 ?
Cu1 K1 K1 90.0 2_564 1_545 ?
K1 K1 K1 180.0 1_565 1_545 ?
Br1 K2 Br1 82.75(3) . 1_545 ?
Br1 K2 Br2 92.042(13) . 6_657 ?
Br1 K2 Br2 153.96(4) 1_545 6_657 ?
Br1 K2 Br2 153.96(4) . 6_647 ?
Br1 K2 Br2 92.042(13) 1_545 6_647 ?
Br2 K2 Br2 81.49(3) 6_657 6_647 ?
Br1 K2 Br3 74.85(2) . 1_545 ?
Br1 K2 Br3 74.85(2) 1_545 1_545 ?
Br2 K2 Br3 79.16(2) 6_657 1_545 ?
Br2 K2 Br3 79.16(2) 6_647 1_545 ?
Br1 K2 Br3 127.73(2) . 6_647 ?
Br1 K2 Br3 127.73(2) 1_545 6_647 ?
Br2 K2 Br3 75.08(2) 6_657 6_647 ?
Br2 K2 Br3 75.08(2) 6_647 6_647 ?
Br3 K2 Br3 145.75(4) 1_545 6_647 ?
Br1 K2 Br1 77.94(2) . 5_666 ?
Br1 K2 Br1 77.94(2) 1_545 5_666 ?
Br2 K2 Br1 126.03(3) 6_657 5_666 ?
Br2 K2 Br1 126.03(3) 6_647 5_666 ?
Br3 K2 Br1 143.45(4) 1_545 5_666 ?
Br3 K2 Br1 70.79(3) 6_647 5_666 ?
Br1 K2 Cu1 105.053(11) . 6_657 ?
Br1 K2 Cu1 166.78(3) 1_545 6_657 ?
Br2 K2 Cu1 38.274(16) 6_657 6_657 ?
Br2 K2 Cu1 85.40(3) 6_647 6_657 ?
Br3 K2 Cu1 117.21(3) 1_545 6_657 ?
Br3 K2 Cu1 39.137(13) 6_647 6_657 ?
Br1 K2 Cu1 93.07(3) 5_666 6_657 ?
Br1 K2 Cu1 166.78(3) . 6_647 ?
Br1 K2 Cu1 105.054(11) 1_545 6_647 ?
Br2 K2 Cu1 85.40(3) 6_657 6_647 ?
Br2 K2 Cu1 38.275(16) 6_647 6_647 ?
Br3 K2 Cu1 117.21(3) 1_545 6_647 ?
Br3 K2 Cu1 39.137(13) 6_647 6_647 ?
Br1 K2 Cu1 93.07(3) 5_666 6_647 ?
Cu1 K2 Cu1 65.36(2) 6_657 6_647 ?
Br1 K2 Cu1 37.932(16) . . ?
Br1 K2 Cu1 85.59(3) 1_545 . ?
Br2 K2 Cu1 75.056(19) 6_657 . ?
Br2 K2 Cu1 116.43(3) 6_647 . ?
Br3 K2 Cu1 39.041(14) 1_545 . ?
Br3 K2 Cu1 145.677(15) 6_647 . ?
Br1 K2 Cu1 115.43(3) 5_666 . ?
Cu1 K2 Cu1 107.170(12) 6_657 . ?
Cu1 K2 Cu1 151.25(3) 6_647 . ?
Br1 K2 Cu1 85.59(3) . 1_545 ?
Br1 K2 Cu1 37.932(16) 1_545 1_545 ?
Br2 K2 Cu1 116.43(3) 6_657 1_545 ?
Br2 K2 Cu1 75.056(19) 6_647 1_545 ?
Br3 K2 Cu1 39.040(13) 1_545 1_545 ?
Br3 K2 Cu1 145.677(15) 6_647 1_545 ?
Br1 K2 Cu1 115.43(3) 5_666 1_545 ?
Cu1 K2 Cu1 151.25(3) 6_657 1_545 ?
Cu1 K2 Cu1 107.170(12) 6_647 1_545 ?
Cu1 K2 Cu1 65.17(2) . 1_545 ?
Br1 K2 K2 48.625(14) . 1_565 ?
Br1 K2 K2 131.374(14) 1_545 1_565 ?
Br2 K2 K2 49.254(14) 6_657 1_565 ?
Br2 K2 K2 130.746(14) 6_647 1_565 ?
Br3 K2 K2 90.0 1_545 1_565 ?
Br3 K2 K2 90.0 6_647 1_565 ?
Br1 K2 K2 90.0 5_666 1_565 ?
Cu1 K2 K2 57.322(10) 6_657 1_565 ?
Cu1 K2 K2 122.679(10) 6_647 1_565 ?
Cu1 K2 K2 57.415(10) . 1_565 ?
Cu1 K2 K2 122.583(10) 1_545 1_565 ?
loop_
_geom_bond_atom_site_label_1
_geom_bond_atom_site_label_2
_geom_bond_distance
_geom_bond_site_symmetry_2
_geom_bond_publ_flag
Br1 Cu1 2.4529(8) . ?
Br1 K2 3.2481(9) 1_565 ?
Br1 K2 3.2481(9) . ?
Br1 K1 3.3544(10) 1_565 ?
Br1 K1 3.3544(10) . ?
Br1 K2 3.3588(12) 5_666 ?
Br2 Cu1 2.4688(9) . ?
Br2 K2 3.2893(9) 6_567 ?
Br2 K2 3.2893(9) 6_557 ?
Br2 K1 3.3033(9) . ?
Br2 K1 3.3034(9) 1_565 ?
Br2 K1 3.3440(13) 5_566 ?
Br3 Cu1 2.5215(4) 1_565 ?
Br3 Cu1 2.5215(4) . ?
Br3 K2 3.3253(12) 1_565 ?
Br3 K2 3.3270(12) 6_567 ?
Br3 K1 3.3609(9) 2_575 ?
Br3 K1 3.3609(9) 2_565 ?
Cu1 K1 3.6368(10) . ?
Cu1 K1 3.6368(10) 1_565 ?
Cu1 K1 3.9057(13) 2_565 ?
Cu1 K2 3.9764(11) 6_557 ?
Cu1 K2 3.9764(11) 6_567 ?
Cu1 K2 3.9866(11) 1_565 ?
Cu1 K2 3.9866(11) . ?
K1 K1 4.2939(3) 1_565 ?
K1 K1 4.2939(3) 1_545 ?
K2 K2 4.2939(3) 1_565 ?
