#------------------------------------------------------------------------------
#$Date: 2021-05-04 03:49:14 +0300 (Tue, 04 May 2021) $
#$Revision: 264819 $
#$URL: file:///home/coder/svn-repositories/cod/cif/4/00/39/4003901.cif $
#------------------------------------------------------------------------------
#
# This file is available in the Crystallography Open Database (COD),
# http://www.crystallography.net/
#
# All data on this site have been placed in the public domain by the
# contributors.
#
data_4003901
loop_
_publ_author_name
'Gebauer, Paul'
'Poddig, Hagen'
'Corredor-Bohorquez, Laura T.'
'Menshchikova, Tatiana V.'
'Rusinov, Igor P.'
'Golub, Pavlo'
'Caglieris, Federico'
'Benndorf, Christopher'
'Lindemann, Tobias'
'Chulkov, Evgueni V.'
'Wolter, Anja U. B.'
'B\"uchner, Bernd'
'Doert, Thomas'
'Isaeva, Anna'
_publ_section_title
;
 Heavy-Atom Antiferromagnet GdBiTe: An Interplay of Magnetism and Topology
 in a Symmetry-Protected Topological Semimetal
;
_journal_issue                   7
_journal_name_full               'Chemistry of Materials'
_journal_page_first              2420
_journal_page_last               2435
_journal_paper_doi               10.1021/acs.chemmater.0c04649
_journal_volume                  33
_journal_year                    2021
_chemical_formula_sum            'Bi Gd Te'
_chemical_formula_weight         493.83
_chemical_name_systematic        'Gadolinium bismutide telluride'
_space_group_crystal_system      tetragonal
_space_group_IT_number           129
_space_group_name_Hall           'P 4ab 2ab -1ab'
_space_group_name_H-M_alt        'P 4/n m m :1'
_atom_sites_solution_primary     iterative
_atom_sites_solution_secondary   difmap
_audit_creation_method           SHELXL-2014/6
_cell_angle_alpha                90
_cell_angle_beta                 90
_cell_angle_gamma                90
_cell_formula_units_Z            2
_cell_length_a                   4.3706(2)
_cell_length_b                   4.3706(2)
_cell_length_c                   9.2475(7)
_cell_measurement_reflns_used    5468
_cell_measurement_temperature    100(1)
_cell_measurement_theta_max      44.978
_cell_measurement_theta_min      4.408
_cell_volume                     176.647(18)
_computing_cell_refinement       'Bruker SAINT'
_computing_data_collection       'Bruker APEX2'
_computing_data_reduction        'Bruker SAINT'
_computing_publication_material
'DIAMOND v. 4.5.2 (Brandenburg, Germany, 2018)'
_computing_structure_refinement  'SHELXL 2016/6 (Sheldrick, 2015)'
_computing_structure_solution
'Superflip v. 05/17/16 (Palatinus, L. & Chapuis, G.(2007))'
_diffrn_ambient_temperature      100(1)
_diffrn_measured_fraction_theta_full 0.992
_diffrn_measured_fraction_theta_max 0.998
_diffrn_measurement_device       'four-cycle diffractometer'
_diffrn_measurement_device_type  'Bruker APEX-II CCD'
_diffrn_measurement_method       '\f and \w scans'
_diffrn_radiation_monochromator  graphite
_diffrn_radiation_type           'Mo K\a'
_diffrn_radiation_wavelength     0.71073
_diffrn_reflns_av_R_equivalents  0.0730
_diffrn_reflns_av_unetI/netI     0.0221
_diffrn_reflns_Laue_measured_fraction_full 0.992
_diffrn_reflns_Laue_measured_fraction_max 0.998
_diffrn_reflns_limit_h_max       8
_diffrn_reflns_limit_h_min       -8
_diffrn_reflns_limit_k_max       8
_diffrn_reflns_limit_k_min       -8
_diffrn_reflns_limit_l_max       18
_diffrn_reflns_limit_l_min       -18
_diffrn_reflns_number            10277
_diffrn_reflns_point_group_measured_fraction_full 0.992
_diffrn_reflns_point_group_measured_fraction_max 0.998
_diffrn_reflns_theta_full        25.242
_diffrn_reflns_theta_max         44.978
_diffrn_reflns_theta_min         4.408
_diffrn_source
'sealed X-ray tube, 12 x 0.4 mm long-fine focus'
_exptl_absorpt_coefficient_mu    76.152
_exptl_absorpt_correction_T_max  0.5231
_exptl_absorpt_correction_T_min  0.0752
_exptl_absorpt_correction_type   gaussian
_exptl_absorpt_process_details
'Jana2006  (Petricek, Dusek & Palatinus, 2000)'
_exptl_crystal_colour            black
_exptl_crystal_density_diffrn    9.284
_exptl_crystal_description       bar
_exptl_crystal_F_000             398
_exptl_crystal_size_max          0.05822
_exptl_crystal_size_mid          0.00829
_exptl_crystal_size_min          0.00545
_refine_diff_density_max         3.288
_refine_diff_density_min         -2.290
_refine_diff_density_rms         0.405
_refine_ls_abs_structure_details
;
;
_refine_ls_extinction_coef       0.0080(5)
_refine_ls_extinction_expression Fc^*^=kFc[1+0.001xFc^2^\l^3^/sin(2\q)]^-1/4^
_refine_ls_extinction_method     'SHELXL-2014/6 (Sheldrick 2014)'
_refine_ls_goodness_of_fit_ref   1.106
_refine_ls_hydrogen_treatment    undef
_refine_ls_matrix_type           full
_refine_ls_number_parameters     10
_refine_ls_number_reflns         481
_refine_ls_number_restraints     0
_refine_ls_restrained_S_all      1.106
_refine_ls_R_factor_all          0.0158
_refine_ls_R_factor_gt           0.0149
_refine_ls_shift/su_max          0.000
_refine_ls_shift/su_mean         0.000
_refine_ls_structure_factor_coef Fsqd
_refine_ls_weighting_details
'w=1/[\s^2^(Fo^2^)+(0.0095P)^2^+0.7549P] where P=(Fo^2^+2Fc^2^)/3'
_refine_ls_weighting_scheme      calc
_refine_ls_wR_factor_gt          0.0323
_refine_ls_wR_factor_ref         0.0324
_reflns_Friedel_coverage         0.000
_reflns_Friedel_fraction_full    0.000
_reflns_Friedel_fraction_max     0.000
_reflns_number_gt                469
_reflns_number_total             481
_reflns_threshold_expression     'I > 2\s(I)'
_cod_data_source_file            cm0c04649_si_002.cif
_cod_data_source_block           pge_R2F03a_k6_35mm_final
_cod_depositor_comments
;
The following automatic conversions were performed:

data item '_exptl_absorpt_correction_type' value 'Gaussian' was
changed to 'gaussian' in accordance with the
/home/data/users/saulius/crontab/automatic-downloads/rss-feeds/ACS/lib/dictionaries/cif_core.dic
dictionary named 'cif_core.dic' version 2.4.2 last updated on
2011-04-26.

Automatic conversion script
Id: cif_fix_values 7556 2019-12-06 15:28:31Z antanas 

 Adding full bibliography for 4003901.cif.
;
_cod_original_cell_volume        176.65(2)
_cod_original_sg_symbol_H-M      'P 4/n m m:1'
_cod_database_code               4003901
_shelx_space_group_comment
;
The symmetry employed for this shelxl refinement is uniquely defined
by the following loop, which should always be used as a source of
symmetry information in preference to the above space-group names.
They are only intended as comments.
;
_shelxl_version_number           2014/6
_shelx_res_file
;
TITL final
CELL 0.71073 4.3706 4.3706 9.2475 90 90 90
ZERR 2 0.0001 0 0.0001 0 0 0
LATT -1
SYMM 0.5-X,0.5-Y,-Z
SYMM 0.5-Y,0.5+X,+Z
SYMM -X,-Y,+Z
SYMM 0.5+Y,0.5-X,+Z
SYMM +Y,-X,-Z
SYMM -Y,+X,-Z
SYMM 0.5+X,0.5-Y,-Z
SYMM 0.5-X,0.5+Y,-Z
SYMM +Y,+X,-Z
SYMM -Y,-X,-Z
SYMM 0.5+X,0.5+Y,-Z
SYMM -X,+Y,+Z
SYMM +X,-Y,+Z
SYMM 0.5-Y,0.5-X,+Z
SYMM 0.5+Y,0.5+X,+Z
SFAC Bi Gd Te
UNIT 2 2 2

L.S. 10
PLAN  5
BOND
MORE -1
fmap -2
acta
CONF
OMIT -2 90
OMIT 0 0 1
REM <olex2.extras>
REM <HklSrc "%.\\pge_R2F03a_k6_35mm_final.hkl">
REM </olex2.extras>

WGHT    0.009500    0.754900
EXTI    0.007971
FVAR       0.71725
BI01  1    0.000000    0.000000    0.000000    10.12500    0.00370    0.00370 =
         0.00471    0.00000    0.00000    0.00000
GD01  2    0.000000    0.500000    0.282939    10.12500    0.00305    0.00305 =
         0.00361    0.00000    0.00000    0.00000
TE01  3    0.000000    0.500000    0.627103    10.12500    0.00285    0.00285 =
         0.00389    0.00000    0.00000    0.00000
HKLF 4

REM  final
REM R1 =  0.0149 for     469 Fo > 4sig(Fo)  and  0.0158 for all     481 data
REM     10 parameters refined using      0 restraints

END

WGHT      0.0095      0.7549

REM Highest difference peak  3.288,  deepest hole -2.290,  1-sigma level  0.405
Q1    1   0.0000  0.5000  0.0563  10.12500  0.05    3.29
Q2    1   0.0891  0.0891  0.0000  10.50000  0.05    2.81
Q3    1   0.0000  0.5000  0.1963  10.12500  0.05    2.70
Q4    1   0.0759  0.4241  0.2808  10.50000  0.05    2.43
Q5    1  -0.5000  0.0000  0.1109  10.12500  0.05   -2.29
;
_shelx_res_checksum              92468
_shelx_hkl_file
;
   0   0  -1    0.07    2.57   1
   0   0   1    0.00    2.15   1
   0   0   1    0.93    2.69   1
   0   0   2  803.31   23.33   1
   0   0  -328162.15  224.12   1
   0   0   328754.62  159.81   1
   0   0   326295.23  157.45   1
   0   0  -4 7239.62   95.73   1
   0   0  -4 6544.51   65.38   1
   0   0  -5 3996.07   81.02   1
   0   0  -5 3487.44   53.44   1
   0   0  -6 4221.59   92.52   1
   0   0  -6 3753.49   59.71   1
   0   0  -7 9962.42  154.37   1
   0   0  -7 8259.76   92.93   1
   0   0   7 9717.70  156.69   1
   0   0   7 9336.42  159.28   1
   0   0  -811321.54  178.66   1
   0   0  -8 9839.42  105.35   1
   0   0   8 7681.20  139.64   1
   0   0   8 9220.96  159.86   1
   0   0   8 9969.84  161.55   1
   0   0   8 9808.73  168.04   1
   0   0  -9  155.56   33.37   1
   0   0   9  110.93   28.54   1
   0   0   9  146.17   34.09   1
   0   0   9  120.13   30.25   1
   0   0   9  137.13   30.71   1
   0   0   9  108.70   29.40   1
   0   0 -10 5930.12  114.61   1
   0   0 -10 5761.68  149.86   1
   0   0  10 4273.48  123.64   1
   0   0  10 5813.75  157.57   1
   0   0  10 5068.48  139.91   1
   0   0  10 5365.94  140.11   1
   0   0  10 4753.10  138.46   1
   0   0 -1112408.72  178.08   1
   0   0 -1112102.64  230.70   1
   0   0  11 9159.13  192.16   1
   0   0  1111688.73  239.01   1
   0   0  1111272.68  220.56   1
   0   0  1111779.09  220.43   1
   0   0  1110860.71  222.17   1
   0   0 -12  173.49   35.75   1
   0   0 -12  178.50   47.75   1
   0   0  12  255.83   48.82   1
   0   0  12  173.81   49.28   1
   0   0  12  116.37   40.77   1
   0   0  12  170.99   42.87   1
   0   0 -13 2170.33  119.02   1
   0   0  13 1653.71  100.91   1
   0   0  13 2179.68  128.31   1
   0   0  13 1999.38  113.63   1
   0   0  13 1855.91  106.93   1
   0   0  14 4714.93  171.78   1
   0   0  14 6201.40  219.01   1
   0   0  14 5716.48  192.83   1
   0   0  15  429.17   75.37   1
   0   0  15  569.53   98.20   1
   0   0  16  784.61  104.83   1
   0   0  16  977.96  129.06   1
   0   0  17 1036.55  143.13   1
   0   0  18 2092.60  204.91   1
   0   0 -19  766.46  161.02   1
   0   0  19  781.85  158.77   1
   0   0 -20   93.88  135.71   1
   0   0  20   33.94  120.62   1
   0   0 -21 2387.39  279.04   1
   0   0  21 2408.80  251.21   1
  -1   0   0   55.34   17.05   1
   1   0   0  159.73   29.30   1
  -1   0   1 1175.93   37.20   1
   0  -1   1 1267.73   27.76   1
   0   1  -1 1114.54   31.77   1
   0   1   1 1112.17   28.73   1
   0   1   1 1072.01   28.14   1
   1   0  -1 1104.22   38.95   1
  -1   0   2  973.30   34.82   1
   0  -1   2 1031.31   31.37   1
   0   1  -2  955.90   31.73   1
   0   1   2 1091.03   25.93   1
   0   1   2  851.41   25.17   1
   1   0  -2  991.20   36.87   1
   1   0   2  982.44   36.96   1
  -1   0   310206.12  115.17   1
   0  -1  -310428.05   94.63   1
   0  -1   310218.50  107.71   1
   0   1  -310414.60  112.40   1
   0   1  -3 9092.81   97.22   1
   0   1   310648.51   91.57   1
   0   1   3 8803.07   76.56   1
   1   0   3 9764.71  111.52   1
   0  -1  -4 2528.02   55.13   1
   0  -1   4 2485.61   62.06   1
   0   1  -4 2554.80   64.05   1
   0   1  -4 2267.09   52.94   1
   0   1   4 2453.91   51.88   1
   1   0  -4 2406.23   64.27   1
   0  -1  -5 5459.87   90.44   1
   0   1  -5 5143.56   99.29   1
   0   1  -5 4671.07   79.16   1
   1   0  -5 5321.53  102.54   1
   1   0   5 5229.91   98.82   1
  -1   0  -610678.77  147.59   1
   0  -1  -610839.60  140.81   1
   0   1  -611256.26  159.75   1
   0   1  -6 9796.01  120.31   1
   1   0  -6 9897.55  150.94   1
   1   0   610329.86  151.05   1
  -1   0  -7  539.31   40.76   1
  -1   0   7  497.87   41.20   1
  -1   0   7  450.69   44.74   1
  -1   0   7  423.60   42.19   1
   0  -1  -7  445.34   37.24   1
   0  -1   7  421.89   39.25   1
   0  -1   7  402.28   39.95   1
   0  -1   7  448.21   43.63   1
   0   1  -7  483.08   40.77   1
   0   1  -7  404.84   29.96   1
   0   1   7  315.67   34.70   1
   0   1   7  491.17   42.15   1
   0   1   7  405.75   40.23   1
   1   0  -7  415.24   39.55   1
   1   0   7  335.10   34.51   1
   1   0   7  523.87   44.37   1
   1   0   7  450.55   39.99   1
   1   0   7  446.62   43.94   1
  -1   0  -8 3200.33   97.41   1
  -1   0   8 2587.58   83.02   1
  -1   0   8 3333.15  103.23   1
  -1   0   8 3356.05  110.70   1
  -1   0   8 3091.88  105.26   1
   0  -1  -8 3376.71   96.43   1
   0  -1  -8 2609.71   50.84   1
   0  -1   8 3080.65  100.45   1
   0  -1   8 2937.09  100.06   1
   0  -1   8 3124.04  100.25   1
   0  -1   8 3428.32  109.56   1
   0  -1   8 2983.86   91.22   1
   0   1  -8 3317.45  104.00   1
   0   1  -8 2819.70   72.15   1
   0   1   8 2578.01   89.79   1
   0   1   8 3216.44  103.61   1
   0   1   8 2966.43  101.29   1
   1   0  -8 3293.95   87.20   1
   1   0  -8 3298.39  103.80   1
   1   0   8 2438.14   86.18   1
   1   0   8 3077.71  103.06   1
   1   0   8 2988.67   98.23   1
   1   0   8 3071.24   96.56   1
  -1   0  -9 2011.26   85.43   1
  -1   0  -9 1695.94   66.30   1
  -1   0   9 1535.48   71.66   1
  -1   0   9 1994.45   89.03   1
  -1   0   9 1883.19   92.98   1
  -1   0   9 1850.76   89.82   1
   0  -1  -9 1921.16   66.51   1
   0  -1  -9 1678.30   76.07   1
   0  -1   9 1476.37   66.60   1
   0  -1   9 1879.60   86.88   1
   0  -1   9 1702.08   84.79   1
   0  -1   9 1834.77   84.63   1
   0  -1   9 1827.32   90.00   1
   0  -1   9 1659.79   75.99   1
   0   1  -9 1961.66   67.62   1
   0   1  -9 1973.49   88.41   1
   0   1  -9 1634.51   58.37   1
   0   1   9 1387.46   73.13   1
   0   1   9 1799.16   85.85   1
   0   1   9 1626.61   73.06   1
   0   1   9 1805.68   72.67   1
   1   0  -9 1963.11   74.08   1
   1   0  -9 1853.94   85.78   1
   1   0   9 1560.19   75.98   1
   1   0   9 1975.56   88.23   1
   1   0   9 1711.39   84.89   1
   1   0   9 1766.93   80.38   1
  -1   0 -10  113.14   32.31   1
  -1   0 -10   47.37   20.23   1
  -1   0  10   75.46   27.00   1
  -1   0  10   39.31   26.80   1
  -1   0  10   47.72   29.86   1
  -1   0  10   44.00   26.41   1
   0  -1 -10   53.45   21.84   1
   0  -1 -10   59.66   25.69   1
   0  -1  10   33.18   21.93   1
   0  -1  10   79.86   31.09   1
   0  -1  10   15.43   24.21   1
   0  -1  10    1.02   19.49   1
   0  -1  10   55.77   31.40   1
   0  -1  10   63.33   28.21   1
   0   1 -10   55.50   21.74   1
   0   1 -10   70.15   28.19   1
   0   1  10   35.04   23.42   1
   0   1  10   23.24   27.25   1
   0   1  10   29.72   24.99   1
   0   1  10   60.05   23.97   1
   1   0 -10   56.59   23.99   1
   1   0 -10   71.85   30.20   1
   1   0  10   36.34   23.34   1
   1   0  10   59.67   30.41   1
   1   0  10   78.53   31.55   1
   1   0  10   35.60   24.57   1
  -1   0 -11   97.47   35.13   1
  -1   0  11   78.07   31.59   1
  -1   0  11   56.33   31.58   1
  -1   0  11   99.40   39.28   1
   0  -1 -11   89.36   30.10   1
   0  -1 -11  123.53   34.94   1
   0  -1  11   72.02   28.63   1
   0  -1  11  113.81   37.72   1
   0  -1  11   85.77   35.29   1
   0  -1  11   66.04   31.71   1
   0  -1  11  102.07   39.55   1
   0  -1  11   68.46   29.27   1
   0   1 -11   93.79   28.32   1
   0   1 -11   94.53   33.86   1
   0   1  11   56.87   29.50   1
   0   1  11   90.10   38.70   1
   0   1  11   71.98   29.36   1
   0   1  11   98.32   31.25   1
   1   0 -11   79.47   28.24   1
   1   0 -11   92.89   34.70   1
   1   0  11   74.39   30.89   1
   1   0  11   67.49   35.03   1
   1   0  11   55.18   31.69   1
   1   0  11   92.50   33.57   1
  -1   0 -12  390.17   59.81   1
  -1   0  12  258.79   49.02   1
  -1   0  12  330.67   60.67   1
  -1   0  12  272.72   57.25   1
   0  -1 -12  374.19   53.60   1
   0  -1 -12  395.04   59.76   1
   0  -1  12  371.74   69.44   1
   0  -1  12  379.89   64.45   1
   0  -1  12  303.34   55.47   1
   0  -1  12  413.36   61.94   1
   0   1 -12  388.35   50.61   1
   0   1 -12  392.67   62.82   1
   0   1  12  244.35   50.39   1
   0   1  12  420.31   67.79   1
   0   1  12  395.05   55.97   1
   1   0 -12  368.26   52.56   1
   1   0 -12  359.28   60.68   1
   1   0  12  318.60   57.97   1
   1   0  12  342.47   61.81   1
   1   0  12  303.94   58.67   1
   1   0  12  365.46   58.58   1
  -1   0 -13   73.73   39.66   1
  -1   0  13   72.26   34.79   1
  -1   0  13  121.85   49.11   1
  -1   0  13  120.12   48.31   1
   0  -1 -13   86.97   40.41   1
   0  -1  13  147.94   51.32   1
   0  -1  13  102.58   41.20   1
   0   1 -13  116.42   37.36   1
   0   1 -13  136.75   48.03   1
   0   1  13  108.51   41.82   1
   0   1  13   70.54   44.69   1
   1   0 -13  124.22   39.70   1
   1   0 -13   61.62   40.75   1
   1   0  13  107.80   41.89   1
   1   0  13   83.71   43.70   1
   1   0  13   91.71   43.82   1
   1   0  13   91.44   39.05   1
  -1   0  14 1084.96  105.24   1
  -1   0  14  958.47  102.09   1
   0  -1 -14 1077.87   95.74   1
   0  -1  14  942.23  101.33   1
   0  -1  14  922.98   94.13   1
   0   1  14  770.34   86.48   1
   0   1  14 1126.04  109.25   1
   1   0 -14 1145.15   87.64   1
   1   0  14  857.44   89.65   1
   1   0  14  984.29  103.52   1
   1   0  14  991.23   99.27   1
   1   0  14  967.67   92.05   1
  -1   0  15 1823.40  138.78   1
   0  -1  15 1851.90  141.56   1
   0   1  15 1363.11  114.58   1
   0   1  15 1948.87  143.49   1
   1   0 -15 1903.70  115.07   1
   1   0  15 1339.62  111.87   1
   1   0  15 1880.20  139.91   1
   1   0  15 1653.60  128.47   1
   1   0  15 1759.78  123.72   1
  -1   0  16   37.55   52.13   1
   0  -1  16    4.69   48.15   1
   0   1  16    6.35   42.41   1
   0   1  16   48.47   58.59   1
   1   0 -16   11.60   40.51   1
   1   0  16   25.93   42.77   1
   1   0  16  -12.14   48.13   1
   1   0  16   45.43   46.56   1
   1   0  16   21.95   39.59   1
  -1   0  17 1591.72  167.21   1
   0  -1 -17 1709.49  167.70   1
   0  -1  17 1663.71  169.96   1
   0   1  17 1596.05  163.53   1
   1   0  17 1666.37  163.14   1
  -1   0  18  916.39  155.36   1
   0  -1 -18 1068.37  165.72   1
   0  -1  18  881.50  151.81   1
   0   1  18  978.86  154.85   1
   1   0 -18  937.60  162.59   1
   1   0  18  932.19  154.54   1
  -1   0  19   12.01  112.95   1
   0  -1 -19   30.97  119.49   1
   0  -1  19   71.29  112.88   1
   0   1  19   80.27  109.63   1
   1   0 -19   14.87  116.14   1
   1   0  19   22.64  107.18   1
  -1   0 -20  464.72  163.73   1
  -1   0  20  458.42  154.02   1
   0  -1 -20  445.08  146.77   1
   0  -1  20  428.80  148.45   1
   0   1  20  526.62  149.78   1
   1   0 -20  388.48  156.24   1
   1   0  20  443.74  140.62   1
   0  -1  21   15.97  127.84   1
   0   1 -21  151.10  146.24   1
   1   0 -21   -3.79  128.56   1
   1   0  21   76.10  122.09   1
  -1  -1   0 2213.72   32.18   1
  -1   1   0 2020.20   45.84   1
   1   1   0 2097.82   38.27   1
  -1  -1  -118847.86   87.21   1
  -1  -1   122642.93  124.49   1
  -1   1  -120378.62  151.65   1
  -1   1   119144.66  222.66   1
  -1   1   118094.89  121.03   1
   1  -1  -119792.83  210.15   1
   1  -1   119886.43  198.74   1
   1   1  -119669.51  122.06   1
   1   1  -117512.67  131.90   1
   1   1   119223.91  104.40   1
   1   1   117481.11  137.96   1
  -1  -1   224909.38  154.95   1
  -1   1   222251.23  198.91   1
  -1   1   222102.64  119.35   1
   1  -1  -222637.17  199.60   1
   1  -1   222805.35  192.67   1
   1   1  -225481.12  161.37   1
   1   1  -221254.38  144.76   1
   1   1   224059.98  121.47   1
  -1  -1  -3  145.32   14.30   1
  -1  -1   3  171.04   19.28   1
  -1   1  -3  132.73   20.55   1
  -1   1   3  158.35   24.14   1
  -1   1   3  122.67   10.77   1
   1  -1  -3  174.41   26.19   1
   1  -1   3  185.15   26.53   1
   1   1  -3  172.63   21.52   1
   1   1  -3  153.61   16.59   1
   1   1   3  144.32   16.23   1
  -1  -1  -4 8628.28   91.31   1
  -1   1  -4 8054.45  116.72   1
   1  -1  -4 8325.97  124.39   1
   1  -1   4 8147.54  125.50   1
   1   1  -4 8721.95  120.74   1
   1   1  -4 7040.30   86.48   1
   1   1   4 8486.47  100.77   1
  -1  -1  -510499.96  116.60   1
  -1   1  -5 9945.33  137.12   1
   1  -1  -510556.69  148.71   1
   1  -1   510059.66  149.56   1
   1   1  -511137.16  150.08   1
   1   1  -5 9186.22  100.88   1
   1   1   510383.88  126.35   1
  -1  -1  -6 8969.38  122.01   1
  -1   1  -6 7751.82  128.04   1
  -1   1   6 8616.48  227.62   1
   1  -1  -6 7999.10  139.04   1
   1  -1   6 7831.99  164.55   1
   1  -1   6 7873.52  142.92   1
   1   1  -6 8654.32  144.62   1
   1   1  -6 6751.12   89.10   1
   1   1   6 8010.99  124.30   1
  -1  -1  -7 2498.66   73.33   1
  -1  -1   7 2326.13   78.19   1
  -1  -1   7 2264.69   89.77   1
  -1  -1   7 2231.49   85.22   1
  -1   1  -7 2494.03   87.61   1
  -1   1  -7 2198.09   73.63   1
  -1   1   7 1847.49   73.46   1
  -1   1   7 2518.34   89.16   1
  -1   1   7 2230.97   85.54   1
   1  -1  -7 2536.69   76.18   1
   1  -1  -7 2353.26   83.00   1
   1  -1   7 2388.51   86.88   1
   1  -1   7 2056.37   81.44   1
   1  -1   7 2189.37   83.16   1
   1   1  -7 2488.89   74.22   1
   1   1  -7 2400.99   84.64   1
   1   1  -7 2058.84   51.76   1
   1   1   7 1723.84   70.53   1
   1   1   7 2541.82   84.12   1
   1   1   7 2162.07   82.48   1
  -1  -1  -8 1131.12   56.46   1
  -1  -1   8 1087.14   61.23   1
  -1  -1   8 1045.73   63.01   1
  -1  -1   8 1046.46   69.36   1
  -1  -1   8  975.46   64.28   1
  -1   1  -8 1085.29   65.07   1
  -1   1  -8  852.29   51.25   1
  -1   1   8  928.61   58.31   1
  -1   1   8 1018.43   65.02   1
  -1   1   8  942.92   63.96   1
   1  -1  -8 1229.21   58.77   1
   1  -1  -8  944.14   59.61   1
   1  -1   8  840.58   53.74   1
   1  -1   8 1026.17   64.33   1
   1  -1   8  965.14   63.46   1
   1  -1   8 1038.39   64.97   1
   1  -1   8 1104.04   64.00   1
   1   1  -8 1054.60   54.35   1
   1   1  -8 1057.36   63.42   1
   1   1  -8  901.82   36.46   1
   1   1   8  748.16   52.60   1
   1   1   8 1137.85   63.78   1
   1   1   8  924.97   61.85   1
  -1  -1  -917058.17  221.44   1
  -1  -1   915816.62  235.04   1
  -1  -1   914804.84  234.41   1
  -1  -1   914258.70  249.95   1
  -1  -1   915138.07  242.10   1
  -1   1  -916174.38  247.77   1
  -1   1  -914879.02  201.09   1
  -1   1   912627.08  213.25   1
  -1   1   916016.04  252.86   1
  -1   1   915263.53  251.74   1
   1  -1  -916926.96  216.67   1
   1  -1  -915137.17  234.12   1
   1  -1   912384.28  199.11   1
   1  -1   915370.84  248.89   1
   1  -1   914475.77  243.28   1
   1  -1   915449.95  246.91   1
   1  -1   913946.97  230.67   1
   1   1  -915504.57  206.00   1
   1   1  -917253.98  255.14   1
   1   1   911844.83  208.35   1
   1   1   915585.93  239.25   1
   1   1   915398.60  241.74   1
   1   1   914446.65  202.77   1
  -1  -1 -10 1758.73   82.07   1
  -1  -1  10 1548.27   84.64   1
  -1  -1  10 1711.97  101.56   1
  -1  -1  10 1562.66   89.82   1
  -1   1 -10 1591.30   88.55   1
  -1   1 -10 1507.93   70.98   1
  -1   1  10 1166.78   76.20   1
  -1   1  10 1620.77   92.66   1
  -1   1  10 1517.54   91.03   1
   1  -1 -10 1701.60   78.55   1
   1  -1 -10 1596.58   87.28   1
   1  -1  10 1349.16   76.33   1
   1  -1  10 1550.34   89.95   1
   1  -1  10 1492.56   90.92   1
   1  -1  10 1473.40   86.49   1
   1   1 -10 1645.75   76.34   1
   1   1 -10 1707.95   91.60   1
   1   1  10 1264.07   78.71   1
   1   1  10 1638.78   89.45   1
   1   1  10 1553.62   87.54   1
   1   1  10 1631.47   78.13   1
  -1  -1 -11   71.10   30.55   1
  -1  -1  11   87.25   36.50   1
  -1  -1  11   70.52   39.27   1
  -1  -1  11   74.81   34.45   1
  -1   1 -11   86.89   35.10   1
  -1   1  11   84.21   33.02   1
  -1   1  11  146.64   45.34   1
  -1   1  11   81.93   35.20   1
   1  -1 -11  127.54   34.05   1
   1  -1 -11   86.50   33.69   1
   1  -1  11   77.26   31.44   1
   1  -1  11   79.19   36.53   1
   1  -1  11   47.84   31.61   1
   1  -1  11  113.12   37.92   1
   1   1 -11   87.07   29.62   1
   1   1 -11   83.25   34.96   1
   1   1  11  104.43   37.31   1
   1   1  11  126.36   41.09   1
   1   1  11  127.03   39.17   1
   1   1  11   85.74   29.64   1
  -1  -1 -1211116.88  223.37   1
  -1  -1  1210770.16  245.11   1
  -1  -1  1211162.21  276.20   1
  -1  -1  12 9997.23  238.73   1
  -1   1 -1211560.16  254.56   1
  -1   1  12 8147.23  209.85   1
  -1   1  1211381.07  265.00   1
  -1   1  12 9832.13  249.41   1
   1  -1 -1211339.83  215.51   1
   1  -1 -1210770.10  240.51   1
   1  -1  12 8531.92  202.74   1
   1  -1  1210552.03  256.10   1
   1  -1  12 9967.98  248.34   1
   1  -1  12 9721.63  236.27   1
   1   1 -1211027.30  211.63   1
   1   1 -1211035.49  249.10   1
   1   1  12 7972.02  210.54   1
   1   1  1211100.08  254.41   1
   1   1  1210330.14  238.36   1
   1   1  1210664.22  214.68   1
  -1  -1 -13 2018.00  109.28   1
  -1  -1  13 2209.51  127.00   1
  -1  -1  13 2110.59  124.51   1
  -1   1 -13 2131.10  125.66   1
  -1   1  13 1626.69  106.20   1
  -1   1  13 2168.39  133.44   1
   1  -1 -13 2196.75  108.62   1
   1  -1 -13 2398.41  128.79   1
   1  -1  13 1608.52  101.55   1
   1  -1  13 2094.86  132.19   1
   1  -1  13 1993.36  127.19   1
   1  -1  13 1994.32  121.26   1
   1   1 -13 2177.63  107.08   1
   1   1 -13 2231.66  126.30   1
   1   1  13 1629.07  109.14   1
   1   1  13 1898.91  122.91   1
   1   1  13 1872.41  115.66   1
  -1  -1  14   71.99   45.27   1
  -1  -1  14  117.01   50.04   1
  -1   1  14   39.92   38.00   1
  -1   1  14   64.14   51.89   1
   1  -1 -14   54.14   38.24   1
   1  -1  14  147.17   60.26   1
   1  -1  14   58.73   45.97   1
   1  -1  14  118.82   48.52   1
   1   1 -14  138.55   46.32   1
   1   1  14   56.91   41.36   1
   1   1  14  108.06   53.40   1
   1   1  14  107.23   47.30   1
  -1  -1  15 3310.34  173.61   1
  -1  -1  15 2854.84  160.84   1
  -1   1  15 2578.00  147.18   1
  -1   1  15 3309.11  183.31   1
   1  -1 -15 3462.79  149.96   1
   1  -1 -15 2982.26  172.80   1
   1  -1  15 2957.78  175.95   1
   1  -1  15 3028.12  170.45   1
   1  -1  15 3269.59  169.52   1
   1   1 -15 3180.81  143.99   1
   1   1  15 2441.05  147.00   1
   1   1  15 2992.66  168.81   1
   1   1  15 2774.78  166.41   1
  -1  -1  16 1770.10  145.47   1
  -1   1  16 1361.53  122.64   1
  -1   1  16 1937.29  158.71   1
   1  -1 -16 1742.56  121.72   1
   1  -1 -16 2008.51  159.04   1
   1  -1  16 1684.19  150.69   1
   1  -1  16 1444.63  129.34   1
   1   1 -16 1896.91  126.15   1
   1   1  16 1397.02  126.97   1
   1   1  16 1722.34  144.94   1
  -1  -1  17  991.61  145.48   1
  -1   1  17 1134.72  160.32   1
   1  -1 -17 1170.99  159.04   1
   1  -1  17 1202.85  161.88   1
   1   1 -17 1159.72  137.18   1
   1   1  17 1049.43  147.19   1
  -1  -1 -18  297.89  111.78   1
  -1  -1  18  257.97  120.90   1
  -1   1  18  346.81  131.46   1
   1  -1 -18  337.33  129.69   1
   1  -1  18  190.66  113.10   1
   1   1  18  270.55  108.58   1
  -1  -1 -19  928.81  170.79   1
  -1  -1  19  698.80  153.34   1
  -1   1  19  831.84  168.92   1
   1  -1 -19  923.09  168.73   1
   1  -1  19  822.75  161.74   1
   1   1 -19  788.94  165.89   1
   1   1  19  825.85  154.01   1
  -1  -1 -20 2787.01  278.48   1
   1  -1 -20 2590.40  264.86   1
   1   1 -20 2963.06  276.68   1
   1   1  20 2772.63  235.45   1
  -1  -1  21   38.86  148.11   1
  -1   1 -21 -120.85  234.76   1
   1  -1 -21  111.62  197.75   1
   1  -1  21   88.75  129.90   1
   1   1 -21   32.06  137.06   1
   1   1  21    0.44  116.02   1
   1   2   0   32.14    7.32   1
   1   2   0   37.75   12.80   1
   2  -1   0   40.87   39.15   1
   1   2  -1  999.90   30.67   1
   1   2  -1  790.91   39.30   1
   1   2   1  761.39   38.91   1
   2  -1  -1  891.39   68.19   1
   2  -1   1  714.03   82.69   1
   1   2  -2  733.30   31.84   1
   1   2  -2  558.98   34.32   1
   1   2   2  645.14   36.82   1
   2  -1  -2  621.53   54.57   1
   2  -1   2  613.00   63.89   1
   1   2  -3 8212.74  111.50   1
   1   2  -3 6574.96  108.74   1
   1   2   3 6590.44  110.92   1
   2  -1  -3 6946.72  146.31   1
   2  -1   3 6909.19  154.40   1
  -2   1   4 1708.83   37.48   1
   1   2  -4 1986.86   62.74   1
   1   2  -4 1549.10   55.32   1
   2  -1  -4 1846.76   78.25   1
   2  -1   4 1720.34   77.78   1
  -1  -2  -5 4359.76   66.47   1
  -1  -2   5 3958.28  113.59   1
  -1  -2   5 4638.25  145.79   1
   1   2  -5 3812.41   90.09   1
   1   2  -5 4484.62  101.31   1
   1   2  -5 3639.79   85.11   1
   1   2   5 3246.00  112.19   1
   2  -1  -5 4363.83  104.05   1
   2  -1  -5 4010.58  113.89   1
   2  -1  -5 4222.58  116.02   1
   2  -1   5 4117.04  105.48   1
   2  -1   5 3942.05  115.32   1
   2  -1   5 4026.29  109.98   1
  -2   1   6 8835.13  168.87   1
  -2   1   6 8862.98  153.83   1
  -2   1   6 8303.80  159.67   1
  -1  -2  -6 8654.65  108.23   1
  -1  -2   6 8838.30  186.30   1
   1   2  -6 8887.03  143.74   1
   1   2  -6 9121.79  155.86   1
   1   2  -6 7956.56  127.46   1
   1   2   6 6625.38  134.24   1
   1   2   6 9411.26  175.56   1
   2  -1  -6 9243.26  156.85   1
   2  -1  -6 8131.28  165.77   1
   2  -1  -6 8992.74  174.61   1
   2  -1   6 7087.43  147.46   1
   2  -1   6 8807.65  167.05   1
   2  -1   6 7709.51  153.99   1
   2  -1   6 7900.53  166.67   1
   2  -1   6 8374.68  165.34   1
  -2   1  -7  337.62   40.11   1
  -2   1   7  396.20   47.51   1
  -2   1   7  334.53   46.17   1
  -1  -2  -7  362.89   30.69   1
  -1  -2   7  323.56   36.85   1
  -1  -2   7  340.72   41.96   1
  -1  -2   7  351.04   53.79   1
  -1  -2   7  365.65   49.68   1
   1   2  -7  404.01   37.66   1
   1   2  -7  384.18   41.44   1
   1   2  -7  316.79   32.21   1
   1   2   7  285.92   42.21   1
   1   2   7  332.46   39.73   1
   1   2   7  392.25   50.69   1
   2  -1  -7  360.16   39.74   1
   2  -1  -7  330.59   45.82   1
   2  -1  -7  430.52   49.20   1
   2  -1   7  342.06   46.40   1
   2  -1   7  463.72   47.32   1
   2  -1   7  351.10   42.17   1
   2  -1   7  348.77   49.10   1
   2  -1   7  369.54   44.68   1
  -2   1  -8 2667.81   97.86   1
  -2   1   8 2797.38  110.04   1
  -2   1   8 2539.63  105.38   1
  -1  -2  -8 2846.71   80.14   1
  -1  -2   8 2779.61   95.93   1
  -1  -2   8 2526.23  100.42   1
  -1  -2   8 2695.62  117.65   1
  -1  -2   8 2648.85  102.50   1
   1   2  -8 2651.42   89.59   1
   1   2  -8 2935.04  104.90   1
   1   2  -8 2290.24   73.57   1
   1   2   8 1984.24   87.62   1
   1   2   8 2687.70   99.61   1
   1   2   8 2810.70  105.14   1
   2  -1  -8 2953.87  100.74   1
   2  -1  -8 2727.77  108.40   1
   2  -1  -8 2698.84  109.95   1
   2  -1   8 2216.96   94.36   1
   2  -1   8 2686.62  106.72   1
   2  -1   8 2223.22   97.93   1
   2  -1   8 2675.00  110.12   1
   2  -1   8 2637.05  106.93   1
  -2   1  -9 1593.32   90.19   1
  -2   1  -9 1538.52   80.68   1
  -2   1   9 1273.44   78.85   1
  -2   1   9 1584.54   91.40   1
  -2   1   9 1428.50   89.16   1
  -1  -2  -9 1745.07   70.36   1
  -1  -2   9 1586.76   81.32   1
  -1  -2   9 1615.49  100.25   1
  -1  -2   9 1595.97   86.93   1
   1   2  -9 1685.58   77.59   1
   1   2  -9 1645.77   86.97   1
   1   2  -9 1408.79   60.66   1
   1   2   9 1106.74   72.24   1
   1   2   9 1538.70   84.02   1
   1   2   9 1342.13   80.53   1
   2  -1  -9 1786.40   84.97   1
   2  -1  -9 1638.62   91.79   1
   2  -1  -9 1500.08   90.62   1
   2  -1   9 1232.08   77.46   1
   2  -1   9 1491.49   87.83   1
   2  -1   9 1425.67   86.66   1
   2  -1   9 1469.30   89.05   1
   2  -1   9 1435.80   86.97   1
  -2   1 -10   21.08   27.13   1
  -2   1 -10   76.70   29.45   1
  -2   1  10   30.81   26.23   1
  -2   1  10   28.08   31.23   1
  -2   1  10   42.02   31.53   1
  -1  -2 -10   65.69   25.69   1
  -1  -2  10   26.23   24.79   1
  -1  -2  10   44.41   35.11   1
  -1  -2  10   47.09   31.57   1
   1   2 -10   34.89   23.25   1
   1   2 -10   66.64   29.81   1
   1   2  10    6.75   22.60   1
   1   2  10   90.28   36.39   1
   1   2  10   31.97   27.69   1
   2  -1 -10   37.80   26.84   1
   2  -1 -10  106.86   39.32   1
   2  -1 -10   64.50   32.09   1
   2  -1  10    9.92   24.91   1
   2  -1  10   68.86   34.71   1
   2  -1  10   52.46   30.48   1
   2  -1  10   27.21   27.86   1
   2  -1  10   14.27   24.94   1
  -2   1 -11   68.34   37.40   1
  -2   1 -11   82.21   31.88   1
  -2   1  11   43.99   33.30   1
  -2   1  11   32.75   35.84   1
  -2   1  11   51.92   36.67   1
  -1  -2  11   90.45   38.42   1
  -1  -2  11  105.79   47.36   1
  -1  -2  11   84.83   36.58   1
   1   2 -11  117.19   35.89   1
   1   2 -11  112.35   39.62   1
   1   2  11   78.37   35.86   1
   1   2  11   83.77   39.46   1
   1   2  11   92.22   37.52   1
   2  -1 -11   81.57   34.74   1
   2  -1 -11   65.38   36.58   1
   2  -1 -11   62.47   36.72   1
   2  -1  11   28.78   29.40   1
   2  -1  11   40.58   33.89   1
   2  -1  11   74.94   38.25   1
   2  -1  11   86.31   36.07   1
   2  -1  11   60.57   35.37   1
  -2   1 -12  338.81   64.53   1
  -2   1  12  285.62   58.46   1
  -2   1  12  345.27   69.78   1
  -2   1  12  349.66   70.78   1
  -1  -2  12  236.32   56.77   1
  -1  -2  12  306.18   73.48   1
  -1  -2  12  299.82   59.38   1
   1   2 -12  339.80   56.79   1
   1   2 -12  330.31   60.58   1
   1   2  12  237.10   54.89   1
   1   2  12  378.45   69.17   1
   2  -1 -12  331.21   59.22   1
   2  -1 -12  298.49   61.36   1
   2  -1 -12  392.72   76.12   1
   2  -1  12  245.59   54.83   1
   2  -1  12  254.48   65.66   1
   2  -1  12  245.81   61.61   1
   2  -1  12  269.97   61.96   1
  -2   1 -13   86.19   51.87   1
  -2   1  13   49.43   40.86   1
  -2   1  13   62.81   50.97   1
  -2   1  13   86.54   49.23   1
  -1  -2  13   85.44   45.27   1
  -1  -2  13   88.97   57.85   1
  -1  -2  13  102.31   43.96   1
   1   2 -13  105.31   41.25   1
   1   2  13   95.47   44.05   1
   1   2  13   86.33   46.21   1
   2  -1 -13   73.23   37.72   1
   2  -1 -13  140.19   60.50   1
   2  -1 -13   73.87   47.74   1
   2  -1  13   95.21   44.59   1
   2  -1  13   89.83   48.39   1
   2  -1  13  135.49   53.58   1
   2  -1  13  144.06   53.15   1
  -2   1  14  744.81   99.75   1
  -2   1  14 1003.63  114.38   1
  -2   1  14  880.32  109.26   1
  -1  -2  14  962.71  101.57   1
  -1  -2  14 1039.88  126.71   1
  -1  -2  14  853.15   92.74   1
   1   2 -14  955.84   91.50   1
   1   2  14  741.91   91.90   1
   1   2  14  893.48  103.16   1
   2  -1 -14  958.43   94.24   1
   2  -1 -14  935.08  114.92   1
   2  -1  14  780.12   92.67   1
   2  -1  14  942.07  108.84   1
   2  -1  14  942.90  109.34   1
   2  -1  14  874.76  101.87   1
  -2   1  15 1331.79  121.55   1
  -2   1  15 1516.79  141.94   1
  -1  -2 -15 1735.09  130.15   1
  -1  -2  15 1636.88  130.43   1
   1   2 -15 1749.91  120.13   1
   1   2  15 1185.39  115.15   1
   1   2  15 1651.75  138.08   1
   2  -1 -15 1689.81  123.29   1
   2  -1 -15 1789.41  155.29   1
   2  -1  15 1214.43  114.13   1
   2  -1  15 1762.01  147.86   1
   2  -1  15 1290.84  130.38   1
   2  -1  15 1633.28  135.63   1
  -2   1  16   36.56   68.33   1
  -1  -2  16   56.73   57.34   1
   1   2 -16   -9.40   44.38   1
   1   2  16   -5.97   42.64   1
   1   2  16   -5.01   53.94   1
   2  -1 -16   55.48   50.83   1
   2  -1 -16   65.52   66.25   1
   2  -1  16   32.35   59.02   1
   2  -1  16  -19.49   47.99   1
   2  -1  16   69.07   54.80   1
  -1  -2 -17 1599.36  185.96   1
  -1  -2  17 1378.61  169.48   1
   1   2 -17 1505.59  163.90   1
   1   2  17 1127.70  138.51   1
   1   2  17 1410.96  158.98   1
   2  -1 -17 1657.14  167.58   1
   2  -1 -17 1710.07  202.69   1
   2  -1  17 1581.81  179.16   1
   2  -1  17 1182.35  184.40   1
  -1  -2  18  763.25  144.94   1
   1   2  18  966.20  155.26   1
   2  -1 -18 1017.61  146.64   1
   2  -1 -18  827.14  162.21   1
   2  -1  18  821.03  156.17   1
  -1  -2  19  -14.33  110.27   1
   2  -1 -19   -2.72  121.19   1
   2  -1  19  -29.43  102.39   1
  -1  -2  20  479.89  144.90   1
   1   2 -20  536.10  158.79   1
   2  -1 -20  479.13  160.71   1
   2  -1  20  337.41  138.09   1
  -2   0   034342.37  287.65   1
   0  -2   036419.23  156.10   1
   0   2   032745.49  219.26   1
   2   0   035488.36  354.20   1
  -2   0  -1 1320.22   67.30   1
  -2   0   1 1374.94   57.76   1
   0  -2   1 1466.06   36.23   1
   0   2  -1 1311.10   47.15   1
   0   2   1 1392.53   93.26   1
   0   2   1 1250.26   44.10   1
   2   0  -1 1289.46   65.55   1
  -2   0  -2  460.19   46.12   1
   0  -2   2  587.61   27.98   1
   0   2  -2  464.88   31.28   1
   0   2   2  547.52   25.49   1
   0   2   2  446.09   28.04   1
   2   0  -2  503.36   41.03   1
   2   0   2  464.13   54.13   1
   0  -2  -321296.49  171.19   1
   0  -2   323864.83  181.03   1
   0   2  -320933.18  192.51   1
   0   2   324682.06  146.58   1
   0   2   321061.70  171.12   1
   2   0  -323419.37  232.12   1
   2   0   321470.61  233.90   1
   0  -2  -4 5544.52   88.96   1
   0  -2   4 5640.81   99.51   1
   0   2  -4 5925.78  107.19   1
   0   2  -4 5074.40   99.28   1
   0   2   4 4864.50   83.67   1
   2   0  -4 5740.70  119.69   1
   2   0   4 5317.71  115.53   1
   0  -2  -5 2933.29   70.09   1
   0  -2   5 3049.89   81.80   1
   0   2  -5 3209.03   86.98   1
   0   2  -5 2694.09   76.01   1
   2   0  -5 3057.20   92.93   1
   2   0   5 2934.13   89.36   1
  -2   0   6 3363.23   98.56   1
  -2   0   6 2909.00   99.20   1
   0  -2  -6 3354.47   80.88   1
   0  -2   6 3141.66   94.25   1
   0  -2   6 3300.63   92.98   1
   0  -2   6 3295.64   94.95   1
   0   2  -6 3302.66   95.28   1
   0   2  -6 2962.01   82.58   1
   0   2   6 2623.57   84.87   1
   0   2   6 3568.93  104.13   1
   2   0  -6 3504.67   93.00   1
   2   0  -6 3299.61  101.84   1
   2   0   6 2469.46   85.71   1
   2   0   6 3161.88  100.51   1
   2   0   6 2890.46   93.18   1
   2   0   6 3206.91  100.66   1
  -2   0   7 7879.26  150.53   1
  -2   0   7 7565.67  157.39   1
  -2   0   7 7145.50  162.97   1
   0  -2  -7 8610.08  154.42   1
   0  -2  -7 7908.55  133.19   1
   0  -2   7 7576.47  154.30   1
   0  -2   7 6971.17  155.33   1
   0  -2   7 6852.59  143.68   1
   0  -2   7 7175.73  149.52   1
   0  -2   7 8350.34  169.83   1
   0   2  -7 7583.45  128.10   1
   0   2  -7 7955.85  157.22   1
   0   2  -7 6876.77  128.57   1
   0   2   7 6172.94  138.28   1
   0   2   7 8217.64  165.58   1
   2   0  -7 8381.02  150.29   1
   2   0  -7 7620.55  161.22   1
   2   0   7 6039.80  139.87   1
   2   0   7 7911.36  151.47   1
   2   0   7 6891.07  156.96   1
   2   0   7 7312.60  153.93   1
   2   0   7 7598.03  160.10   1
  -2   0  -8 9537.41  176.35   1
  -2   0   8 6999.02  145.01   1
  -2   0   8 9295.84  176.24   1
  -2   0   8 9469.98  190.06   1
  -2   0   8 8423.14  188.70   1
   0  -2  -8 9037.38  152.63   1
   0  -2  -8 9026.29  154.07   1
   0  -2   8 9079.22  180.81   1
   0  -2   8 7890.10  176.47   1
   0  -2   8 8174.07  171.47   1
   0  -2   8 9505.91  193.05   1
   0   2  -8 8843.61  146.83   1
   0   2  -8 9550.26  184.62   1
   0   2  -8 7852.24  142.07   1
   0   2   8 7059.52  158.86   1
   0   2   8 9324.02  188.41   1
   2   0  -8 9457.49  169.30   1
   2   0  -8 9226.88  187.74   1
   2   0   8 6647.87  155.80   1
   2   0   8 9233.77  176.80   1
   2   0   8 8098.04  181.49   1
   2   0   8 8717.06  178.24   1
   2   0   8 8728.54  180.93   1
  -2   0  -9  158.52   35.73   1
  -2   0   9   91.65   29.03   1
  -2   0   9  145.77   35.97   1
  -2   0   9  150.64   39.17   1
  -2   0   9  105.74   34.46   1
   0  -2  -9  111.73   29.28   1
   0  -2  -9  120.96   29.03   1
   0  -2   9   98.23   33.86   1
   0  -2   9  119.46   33.23   1
   0  -2   9  129.04   37.74   1
   0   2  -9  140.88   29.36   1
   0   2  -9  148.85   37.15   1
   0   2  -9  101.22   25.13   1
   0   2   9   99.40   31.22   1
   0   2   9  117.93   36.48   1
   2   0  -9  178.54   35.79   1
   2   0  -9  136.73   37.84   1
   2   0   9  127.91   34.27   1
   2   0   9  159.41   37.85   1
   2   0   9  134.77   37.50   1
   2   0   9  133.72   34.65   1
   2   0   9  129.09   35.95   1
  -2   0 -10 5027.42  146.53   1
  -2   0 -10 4538.56  131.55   1
  -2   0  10 3908.79  124.46   1
  -2   0  10 4852.84  149.28   1
  -2   0  10 5083.35  164.82   1
  -2   0  10 4720.39  163.50   1
   0  -2 -10 4748.24  124.82   1
   0  -2 -10 5138.80  136.61   1
   0  -2  10 4743.37  152.10   1
   0  -2  10 4800.59  152.66   1
   0  -2  10 5120.97  164.97   1
   0   2 -10 4609.42  121.45   1
   0   2 -10 5076.77  155.82   1
   0   2 -10 4362.74  113.46   1
   0   2  10 3778.41  134.91   1
   0   2  10 5032.75  160.89   1
   2   0 -10 4897.20  139.14   1
   2   0 -10 4993.86  157.46   1
   2   0  10 3813.91  135.78   1
   2   0  10 4684.81  148.30   1
   2   0  10 4504.01  156.87   1
   2   0  10 4693.56  150.20   1
   2   0  10 4250.43  143.72   1
  -2   0 -1110761.30  225.19   1
  -2   0 -11 9641.51  195.41   1
  -2   0  11 8354.99  189.53   1
  -2   0  1110765.06  235.84   1
  -2   0  1110635.02  251.54   1
  -2   0  1110463.21  255.53   1
   0  -2 -1111027.19  197.38   1
   0  -2 -1110725.14  208.85   1
   0  -2  1110415.71  238.02   1
   0  -2  1110293.96  235.75   1
   0  -2  1111424.16  259.18   1
   0   2 -1110651.50  194.22   1
   0   2 -1110975.79  240.47   1
   0   2  11 8312.68  210.29   1
   0   2  1111313.16  254.34   1
   2   0 -1111046.42  218.71   1
   2   0 -1110609.74  240.34   1
   2   0  11 8007.99  205.26   1
   2   0  1110993.97  241.54   1
   2   0  1110003.12  245.58   1
   2   0  1110285.30  232.07   1
  -2   0 -12  238.28   53.06   1
  -2   0  12  243.16   58.70   1
  -2   0  12   94.32   47.57   1
   0  -2 -12  185.27   42.97   1
   0  -2 -12  183.88   45.09   1
   0  -2 -12  179.46   48.24   1
   0  -2  12  192.36   52.56   1
   0  -2  12  152.83   46.83   1
   0  -2  12  192.10   57.50   1
   0   2 -12  146.62   39.59   1
   0   2 -12  210.98   54.51   1
   0   2  12  141.92   45.16   1
   0   2  12  159.11   51.79   1
   2   0 -12  151.68   41.34   1
   2   0 -12  143.03   45.89   1
   2   0  12  107.52   40.60   1
   2   0  12  106.66   44.61   1
   2   0  12  137.40   47.74   1
   2   0  12  159.53   47.47   1
  -2   0 -13 1967.51  117.93   1
  -2   0  13 1981.11  126.61   1
  -2   0  13 1814.00  133.06   1
   0  -2 -13 2026.87  123.76   1
   0  -2  13 1862.89  125.55   1
   0  -2  13 1710.95  118.75   1
   0  -2  13 1940.81  133.52   1
   0   2 -13 1923.82  102.24   1
   0   2  13 1350.60  104.55   1
   0   2  13 1889.58  130.19   1
   2   0 -13 1945.11  111.48   1
   2   0  13 1441.65  108.04   1
   2   0  13 1976.59  126.97   1
   2   0  13 1908.19  132.09   1
   2   0  13 1818.44  117.94   1
  -2   0  14 5573.58  211.47   1
  -2   0  14 5233.48  221.49   1
   0  -2 -14 5957.23  213.06   1
   0  -2  14 5544.22  214.29   1
   0  -2  14 5226.52  204.95   1
   0   2 -14 5860.76  176.36   1
   0   2  14 4285.68  184.29   1
   0   2  14 6011.48  228.24   1
   2   0 -14 5795.96  190.70   1
   2   0  14 4714.04  190.44   1
   2   0  14 5744.10  216.77   1
   2   0  14 5331.30  217.35   1
   2   0  14 5207.37  197.54   1
  -2   0  15  554.43   99.22   1
  -2   0  15  377.40   88.77   1
   0  -2 -15  386.27   82.67   1
   0  -2  15  471.71   95.48   1
   0   2 -15  482.51   82.09   1
   0   2  15  482.77   92.02   1
   0   2  15  588.32  109.29   1
   2   0 -15  479.98   80.21   1
   2   0 -15  497.13   96.68   1
   2   0  15  478.67   87.58   1
   2   0  15  485.76   94.39   1
   2   0  15  441.95   93.74   1
   2   0  15  411.61   80.89   1
  -2   0  16  903.35  126.68   1
  -2   0  16  720.61  118.53   1
   0  -2 -16  799.98  116.54   1
   0  -2  16  692.80  116.70   1
   0   2  16  573.24   99.75   1
   0   2  16  946.55  132.66   1
   2   0 -16  951.61  107.27   1
   2   0 -16  774.61  119.63   1
   2   0  16  706.48  126.91   1
   2   0  16  772.25  117.10   1
   2   0  16  759.42  122.49   1
   2   0  16  786.71  111.94   1
  -2   0  17  985.11  153.73   1
   0  -2 -17 1010.57  148.35   1
   0  -2  17  923.30  148.86   1
   0   2  17 1116.21  156.25   1
   2   0 -17 1036.72  131.49   1
   2   0 -17  975.32  152.16   1
   2   0  17 1082.80  147.59   1
  -2   0  18 1965.91  217.19   1
   0  -2 -18 1934.51  224.00   1
   0  -2  18 2211.37  215.23   1
   0   2  18 1975.22  210.03   1
   2   0 -18 2107.33  194.78   1
   2   0 -18 2282.25  244.11   1
   2   0  18 1894.38  187.89   1
   0  -2 -19  626.31  154.66   1
   0  -2  19  578.88  147.04   1
   2   0 -19  807.74  169.04   1
   2   0  19  587.36  137.52   1
  -2   0 -20   58.80  120.31   1
   0  -2  20  103.54  125.23   1
   2   0 -20   17.87  125.63   1
   2   0  20    4.73  104.46   1
  -2  -1   0   11.82    9.25   1
  -1   2   0   31.53   12.59   1
   1  -2   0   40.28   23.37   1
   2   1   0   37.46   20.54   1
  -2  -1  -1  813.98   36.38   1
  -2  -1   1  954.04   37.79   1
  -1   2  -1  894.87   42.69   1
  -1   2   1  825.19   37.64   1
   1  -2  -1  926.98   71.16   1
   1  -2   1  836.81   47.39   1
   2   1  -1  795.47   43.46   1
  -2  -1  -2  641.40   40.81   1
  -1   2  -2  667.79   39.34   1
  -1   2   2  633.91   71.53   1
  -1   2   2  589.56   31.04   1
   1  -2  -2  605.16   52.35   1
   1  -2   2  603.93   39.39   1
   2   1  -2  626.40   38.34   1
   2   1   2  602.13   39.82   1
  -1   2  -3 7335.30  124.47   1
  -1   2   3 6574.83   91.27   1
   1  -2  -3 7177.72  139.65   1
   1  -2   3 7433.54  125.37   1
   2   1  -3 7659.88  124.22   1
   2   1  -3 6641.35   97.25   1
   2   1   3 7063.70  108.71   1
  -1   2  -4 1897.18   67.99   1
  -1   2   4 1550.14   43.70   1
   1  -2  -4 1843.66   71.69   1
   1  -2   4 1833.20   67.78   1
   2   1  -4 1804.66   66.00   1
   2   1  -4 1693.43   49.39   1
   2   1   4 1893.29   59.96   1
  -2  -1   5 4652.81  146.52   1
  -2  -1   5 4146.73  133.84   1
  -1   2  -5 3823.43   98.84   1
  -1   2   5 3365.41   59.51   1
   1  -2  -5 3948.32  102.92   1
   1  -2   5 3855.84  114.97   1
   1  -2   5 4039.63  120.06   1
   1  -2   5 3831.74  101.46   1
   1  -2   5 4147.88  116.89   1
   2   1  -5 4204.77   97.50   1
   2   1  -5 4114.22  104.09   1
   2   1  -5 3637.83   70.47   1
   2   1   5 3085.53   89.98   1
   2   1   5 3642.10  108.79   1
   2   1   5 3986.28   90.35   1
  -2  -1  -6 9124.64  131.28   1
  -2  -1   6 8745.78  171.53   1
  -2  -1   6 8066.79  175.83   1
  -1   2  -6 8180.55  149.28   1
  -1   2   6 9025.54  178.47   1
  -1   2   6 7904.32  153.16   1
   1  -2  -6 9302.13  157.05   1
   1  -2  -6 8723.12  156.30   1
   1  -2   6 8354.01  172.19   1
   1  -2   6 8572.89  162.07   1
   1  -2   6 8582.89  160.39   1
   1  -2   6 7530.74  147.15   1
   2   1  -6 8938.43  149.45   1
   2   1  -6 8969.62  162.71   1
   2   1  -6 7579.58   99.24   1
   2   1   6 5930.35  131.78   1
   2   1   6 7978.57  167.28   1
   2   1   6 8574.63  140.84   1
  -2  -1  -7  409.67   36.73   1
  -2  -1   7  371.88   38.42   1
  -2  -1   7  495.72   53.37   1
  -2  -1   7  334.73   52.09   1
  -1   2  -7  322.16   30.94   1
  -1   2  -7  346.08   47.80   1
  -1   2  -7  309.56   40.54   1
  -1   2   7  283.13   42.41   1
  -1   2   7  413.87   54.14   1
  -1   2   7  356.25   43.21   1
   1  -2  -7  384.32   41.44   1
   1  -2  -7  382.81   42.52   1
   1  -2  -7  394.50   46.60   1
   1  -2   7  333.91   51.91   1
   1  -2   7  412.01   46.96   1
   1  -2   7  360.47   43.51   1
   1  -2   7  317.73   39.67   1
   1  -2   7  401.95   48.09   1
   2   1  -7  475.50   42.56   1
   2   1  -7  400.75   43.54   1
   2   1  -7  412.52   26.08   1
   2   1   7  261.74   39.80   1
   2   1   7  402.80   39.37   1
   2   1   7  312.50   48.11   1
   2   1   7  378.36   38.51   1
   2   1   7  400.48   50.62   1
  -2  -1  -8 2783.89   87.35   1
  -2  -1   8 2872.09   95.55   1
  -2  -1   8 2662.88  112.29   1
  -2  -1   8 2558.66  113.51   1
  -1   2  -8 2539.64   76.69   1
  -1   2  -8 2782.92  107.50   1
  -1   2  -8 2500.55   91.53   1
  -1   2   8 2002.24   90.56   1
  -1   2   8 2777.16  113.46   1
  -1   2   8 2357.28  100.17   1
   1  -2  -8 2974.98   99.91   1
   1  -2  -8 2633.41   98.31   1
   1  -2  -8 2794.02  108.40   1
   1  -2   8 2510.61  107.26   1
   1  -2   8 2250.11   99.44   1
   1  -2   8 2485.79  101.65   1
   1  -2   8 2456.24   99.33   1
   1  -2   8 2849.73   99.20   1
   2   1  -8 2732.05   94.79   1
   2   1  -8 2700.79  104.15   1
   2   1   8 1907.35   87.50   1
   2   1   8 3031.70  100.76   1
   2   1   8 2492.86  108.40   1
   2   1   8 2621.93   92.77   1
   2   1   8 2607.26   96.31   1
  -2  -1  -9 1567.16   73.23   1
  -2  -1   9 1553.99   78.78   1
  -2  -1   9 1561.26   96.06   1
  -2  -1   9 1381.19   92.70   1
  -1   2  -9 1486.38   63.77   1
  -1   2  -9 1445.91   85.55   1
  -1   2  -9 1583.08   77.63   1
  -1   2   9 1168.69   76.76   1
  -1   2   9 1581.28   94.67   1
  -1   2   9 1476.23   88.45   1
   1  -2  -9 1589.27   79.49   1
   1  -2  -9 1410.38   78.95   1
   1  -2  -9 1476.11   87.14   1
   1  -2   9 1474.92   89.91   1
   1  -2   9 1473.56   89.41   1
   1  -2   9 1693.63   92.19   1
   1  -2   9 1626.28   85.05   1
   2   1  -9 1681.90   81.14   1
   2   1  -9 1609.38   87.70   1
   2   1   9 1103.56   73.55   1
   2   1   9 1699.61   84.25   1
   2   1   9 1454.05   91.07   1
   2   1   9 1577.42   79.65   1
   2   1   9 1455.46   78.34   1
  -2  -1 -10   60.44   27.37   1
  -2  -1  10   51.10   27.67   1
  -2  -1  10   20.31   32.90   1
  -2  -1  10   48.32   33.62   1
  -1   2 -10   75.13   25.61   1
  -1   2 -10   68.81   30.99   1
  -1   2 -10   41.51   23.50   1
  -1   2  10   38.91   26.39   1
  -1   2  10   77.70   38.19   1
   1  -2 -10   57.16   29.02   1
   1  -2 -10   32.25   26.86   1
   1  -2 -10   41.30   31.48   1
   1  -2  10   65.28   37.69   1
   1  -2  10   79.12   35.34   1
   1  -2  10   21.37   25.90   1
   1  -2  10   43.21   27.69   1
   1  -2  10   20.09   29.21   1
   2   1 -10   29.89   24.51   1
   2   1 -10   37.83   28.16   1
   2   1  10    6.51   21.52   1
   2   1  10   49.31   27.98   1
   2   1  10   25.05   29.35   1
   2   1  10   21.52   24.31   1
  -2  -1 -11   67.08   31.49   1
  -2  -1  11   89.91   39.08   1
  -2  -1  11   74.62   44.27   1
  -2  -1  11   94.36   46.38   1
  -1   2 -11   93.67   30.12   1
  -1   2 -11   69.41   36.61   1
  -1   2 -11   78.20   28.64   1
  -1   2  11   40.02   32.96   1
  -1   2  11   87.20   44.39   1
   1  -2 -11   77.87   33.15   1
   1  -2 -11   95.79   35.63   1
   1  -2 -11   75.45   38.54   1
   1  -2  11   72.12   37.96   1
   1  -2  11   48.71   36.92   1
   1  -2  11   90.49   38.67   1
   1  -2  11   39.02   31.85   1
   2   1 -11   50.58   29.52   1
   2   1 -11   63.34   35.80   1
   2   1  11   79.69   37.55   1
   2   1  11  103.12   39.21   1
   2   1  11   50.99   37.91   1
   2   1  11   99.27   35.20   1
  -2  -1 -12  322.95   67.07   1
  -2  -1  12  325.25   62.38   1
  -2  -1  12  352.64   74.62   1
  -2  -1  12  258.43   62.96   1
  -1   2 -12  332.63   63.07   1
  -1   2  12  225.48   54.33   1
  -1   2  12  321.63   70.26   1
   1  -2 -12  389.40   60.68   1
   1  -2 -12  394.69   67.05   1
   1  -2 -12  274.83   60.95   1
   1  -2  12  285.16   68.63   1
   1  -2  12  271.07   63.27   1
   1  -2  12  283.38   60.98   1
   2   1 -12  367.85   59.62   1
   2   1 -12  324.21   61.81   1
   2   1  12  279.79   60.77   1
   2   1  12  365.52   67.21   1
   2   1  12  295.38   66.43   1
   2   1  12  290.34   53.69   1
  -2  -1  13  130.70   51.45   1
  -2  -1  13  109.86   56.37   1
  -2  -1  13   89.02   49.25   1
  -1   2  13   74.10   46.41   1
  -1   2  13  105.35   54.05   1
   1  -2 -13  120.07   44.66   1
   1  -2 -13   94.45   46.09   1
   1  -2 -13   78.13   46.76   1
   1  -2  13   74.85   50.87   1
   1  -2  13  125.29   52.49   1
   1  -2  13  107.70   48.20   1
   2   1 -13   45.36   36.34   1
   2   1  13   28.70   36.78   1
   2   1  13   75.96   42.47   1
   2   1  13   57.43   43.32   1
   2   1  13   77.95   45.33   1
  -2  -1  14  909.18   98.57   1
  -2  -1  14  889.08  111.06   1
  -1   2  14  669.29   97.15   1
  -1   2  14  941.14  116.12   1
   1  -2 -14  947.44   91.78   1
   1  -2 -14  805.05  109.48   1
   1  -2  14  929.45  112.05   1
   1  -2  14  862.04  101.70   1
   2   1 -14  938.57   92.55   1
   2   1  14  751.46   92.83   1
   2   1  14  973.38  102.29   1
   2   1  14  854.61  116.97   1
  -2  -1  15 1701.73  132.49   1
  -2  -1  15 1409.83  135.90   1
  -1   2  15 1215.85  118.43   1
  -1   2  15 1673.33  149.17   1
   1  -2 -15 1760.01  121.58   1
   1  -2 -15 1669.03  141.77   1
   1  -2  15 1640.99  147.31   1
   1  -2  15 1712.12  138.68   1
   2   1 -15 1642.03  120.60   1
   2   1  15 1221.43  116.59   1
   2   1  15 1650.37  133.30   1
   2   1  15 1471.54  135.86   1
  -2  -1  16  -23.91   52.65   1
  -2  -1  16   22.68   55.58   1
  -1   2  16   31.82   49.32   1
  -1   2  16    0.52   61.95   1
   1  -2 -16   12.46   54.44   1
   1  -2  16   14.95   64.22   1
   1  -2  16   13.98   47.65   1
   2   1 -16   32.64   47.27   1
   2   1  16    5.01   44.84   1
   2   1  16  -19.42   47.02   1
   2   1  16   47.11   69.84   1
  -2  -1  17 1665.65  179.48   1
   1  -2 -17 1420.41  177.96   1
   1  -2  17 1675.41  192.57   1
   2   1 -17 1559.34  164.58   1
   2   1 -17 1537.33  183.32   1
   2   1  17 1660.78  161.01   1
  -2  -1  18  699.07  147.05   1
   1  -2 -18  795.64  161.68   1
   1  -2  18  931.76  170.83   1
   2   1 -18  968.39  142.46   1
   2   1 -18 1130.52  169.00   1
   2   1  18  993.69  153.98   1
  -2  -1  19   32.85  120.77   1
   1  -2 -19  -31.59  124.07   1
   1  -2  19  -31.82  118.63   1
   2   1 -19   -6.75  105.01   1
   2   1 -19  124.57  120.17   1
   2   1  19  107.28   99.20   1
   1  -2 -20  494.73  164.04   1
   1  -2  20  283.00  141.79   1
   2   1 -20  487.06  152.56   1
   2   1  20  412.41  123.39   1
  -2  -2   034868.98  164.77   1
  -2   2   027200.01  234.44   1
   2  -2   031839.22  374.60   1
   2   2   028822.59  216.71   1
   2   2   027965.23  246.45   1
  -2   2  -1 1267.33   55.45   1
  -2   2   1 1020.80   46.27   1
   2  -2  -1 1102.79   90.35   1
   2  -2   1 1108.59   78.54   1
   2   2  -1 1099.62   43.17   1
   2   2  -1 1004.55   48.71   1
  -2   2  -2  415.87   36.34   1
  -2   2   2  435.54   30.91   1
   2  -2  -2  453.53   61.66   1
   2  -2   2  536.59   57.37   1
   2   2  -2  521.77   33.31   1
   2   2  -2  438.44   34.11   1
  -2   2  -317170.40  211.12   1
  -2   2   318101.19  167.54   1
   2  -2  -319433.63  283.07   1
   2   2  -320894.52  201.02   1
   2   2  -316300.54  184.80   1
   2   2   319241.86  131.68   1
  -2  -2   4 4443.51  143.60   1
  -2   2  -4 3835.63  105.40   1
  -2   2   4 4124.53   75.93   1
   2  -2  -4 4540.66  116.67   1
   2  -2  -4 4540.87  137.96   1
   2  -2  -4 4614.21  148.37   1
   2  -2   4 4425.29  130.13   1
   2  -2   4 4712.88  115.77   1
   2  -2   4 4475.82  144.07   1
   2   2  -4 4905.13  107.93   1
   2   2  -4 4780.15  104.95   1
   2   2  -4 4041.65   93.23   1
   2   2   4 3787.12  126.82   1
   2   2   4 4368.92   71.59   1
  -2  -2  -5 2764.04   50.55   1
  -2  -2   5 2484.41  110.99   1
  -2  -2   5 2316.35  113.64   1
  -2   2  -5 2247.81   85.46   1
  -2   2   5 2509.97   85.10   1
   2  -2  -5 2839.60   96.22   1
   2  -2  -5 2335.05  100.55   1
   2  -2  -5 2477.66  110.03   1
   2  -2   5 2418.97  109.53   1
   2  -2   5 2337.47   83.93   1
   2  -2   5 2334.15   98.22   1
   2  -2   5 2605.58   92.84   1
   2  -2   5 2490.71  107.83   1
   2   2  -5 2703.23   85.32   1
   2   2  -5 2627.11   84.94   1
   2   2  -5 2135.97   69.17   1
   2   2   5 1918.51   75.12   1
   2   2   5 2191.25  100.22   1
   2   2   5 2542.40   62.49   1
  -2  -2  -6 3078.36   62.43   1
  -2  -2   6 2557.99   92.79   1
  -2  -2   6 2835.00  120.09   1
  -2  -2   6 2715.82  122.96   1
  -2   2  -6 2545.81   94.56   1
  -2   2   6 2583.82   93.47   1
   2  -2  -6 2955.49  101.72   1
   2  -2  -6 2945.14  113.32   1
   2  -2  -6 3069.02  121.81   1
   2  -2   6 2117.76   90.44   1
   2  -2   6 2801.84  117.05   1
   2  -2   6 2517.67   93.55   1
   2  -2   6 2538.88  105.02   1
   2  -2   6 2855.73  102.67   1
   2   2  -6 2884.22   92.49   1
   2   2  -6 2866.29   95.22   1
   2   2  -6 2390.08   73.45   1
   2   2   6 2335.96   88.09   1
   2   2   6 2491.03  110.36   1
   2   2   6 2889.18   73.87   1
  -2  -2  -7 7206.61  106.27   1
  -2  -2   7 6785.89  130.22   1
  -2  -2   7 6644.21  185.90   1
  -2  -2   7 6239.95  184.76   1
  -2   2  -7 6352.25  115.28   1
  -2   2  -7 6606.22  155.41   1
  -2   2   7 6116.59  151.84   1
   2  -2  -7 7147.92  161.60   1
   2  -2  -7 6147.19  164.13   1
   2  -2  -7 6869.06  182.14   1
   2  -2   7 5214.80  141.99   1
   2  -2   7 6297.16  176.86   1
   2  -2   7 6087.88  165.35   1
   2  -2   7 6281.79  158.85   1
   2   2  -7 6883.43  148.51   1
   2   2  -7 6506.40  151.07   1
   2   2  -7 6007.79  115.07   1
   2   2   7 4799.65  132.79   1
   2   2   7 6941.70  141.94   1
   2   2   7 5847.36  170.02   1
  -2  -2  -8 8094.73  125.49   1
  -2  -2   8 7835.02  152.62   1
  -2  -2   8 8041.20  213.58   1
  -2  -2   8 7352.79  205.05   1
  -2   2  -8 7118.33  126.41   1
  -2   2  -8 6997.82  166.23   1
  -2   2   8 7121.03  175.79   1
   2  -2  -8 8108.99  179.59   1
   2  -2  -8 7389.64  185.78   1
   2  -2  -8 7895.52  202.59   1
   2  -2   8 5640.20  152.82   1
   2  -2   8 7306.91  197.58   1
   2  -2   8 7225.10  178.94   1
   2  -2   8 7235.56  188.42   1
   2  -2   8 7524.52  184.62   1
   2   2  -8 7843.49  166.80   1
   2   2  -8 8269.28  181.39   1
   2   2  -8 6722.99  121.71   1
   2   2   8 5826.69  155.36   1
   2   2   8 8147.12  166.74   1
   2   2   8 7389.54  198.97   1
  -2  -2   9  123.92   33.70   1
  -2  -2   9  139.31   47.35   1
  -2  -2   9  134.47   45.58   1
  -2   2  -9  144.09   44.19   1
  -2   2  -9  100.64   32.07   1
  -2   2   9   90.70   36.75   1
  -2   2   9   65.37   31.52   1
   2  -2  -9  143.10   38.42   1
   2  -2  -9  118.90   42.38   1
   2  -2  -9   79.07   36.23   1
   2  -2   9  112.02   36.42   1
   2  -2   9  105.19   40.19   1
   2  -2   9   84.55   33.26   1
   2  -2   9   85.75   35.70   1
   2  -2   9  131.08   40.33   1
   2   2  -9  103.10   31.72   1
   2   2  -9  134.39   36.70   1
   2   2   9   89.87   32.58   1
   2   2   9  139.42   38.07   1
   2   2   9  117.05   41.99   1
  -2  -2  10 4307.64  134.65   1
  -2  -2  10 4492.70  182.43   1
  -2  -2  10 4076.40  166.02   1
  -2   2 -10 4422.91  163.99   1
  -2   2 -10 4076.42  138.85   1
  -2   2  10 3713.90  149.75   1
  -2   2  10 3631.53  146.85   1
   2  -2 -10 4550.10  149.75   1
   2  -2 -10 4580.29  162.35   1
   2  -2  10 3448.76  133.20   1
   2  -2  10 4067.06  165.80   1
   2  -2  10 3805.42  151.08   1
   2  -2  10 4151.31  160.95   1
   2  -2  10 4408.22  161.43   1
   2   2 -10 4401.96  141.18   1
   2   2 -10 4565.91  154.12   1
   2   2  10 3474.96  138.35   1
   2   2  10 4378.32  144.31   1
   2   2  10 3998.06  163.63   1
  -2  -2  11 9739.50  214.95   1
  -2  -2  11 9641.15  275.86   1
  -2  -2  11 8975.32  250.11   1
  -2   2 -11 9098.30  243.32   1
  -2   2 -11 8960.80  208.96   1
  -2   2  11 7182.24  216.67   1
  -2   2  11 8674.06  236.40   1
   2  -2 -1110167.99  230.90   1
   2  -2 -11 9266.38  237.53   1
   2  -2 -11 9893.87  262.64   1
   2  -2  11 9126.25  257.28   1
   2  -2  11 8704.22  237.69   1
   2  -2  11 9117.22  245.91   1
   2  -2  11 8939.94  240.06   1
   2   2 -11 9467.37  215.60   1
   2   2 -1110143.45  240.92   1
   2   2  11 7024.60  205.47   1
   2   2  11 9653.41  226.48   1
   2   2  11 8681.76  245.13   1
  -2  -2  12  200.18   52.97   1
  -2  -2  12  162.45   60.57   1
  -2  -2  12  104.94   49.58   1
  -2   2 -12  110.04   48.79   1
  -2   2 -12  144.01   43.19   1
  -2   2  12  143.30   51.25   1
  -2   2  12  175.22   57.51   1
   2  -2 -12  137.86   46.25   1
   2  -2 -12  154.23   55.22   1
   2  -2 -12  141.33   53.16   1
   2  -2  12  162.90   58.12   1
   2  -2  12  196.55   62.23   1
   2  -2  12  115.30   47.53   1
   2  -2  12  153.21   51.86   1
   2   2 -12  163.31   46.48   1
   2   2 -12  136.50   45.26   1
   2   2  12  167.55   51.43   1
   2   2  12  148.37   48.98   1
   2   2  12  125.89   52.42   1
  -2  -2  13 1755.82  115.78   1
  -2  -2  13 1908.51  155.19   1
  -2  -2  13 1722.33  132.30   1
  -2   2  13 1312.60  114.62   1
   2  -2 -13 1863.92  118.68   1
   2  -2 -13 1758.20  138.44   1
   2  -2  13 1723.86  137.14   1
   2  -2  13 1531.79  124.63   1
   2  -2  13 1515.21  121.89   1
   2   2 -13 1740.01  112.34   1
   2   2  13 1277.32  108.03   1
   2   2  13 1923.98  125.87   1
   2   2  13 1397.97  118.42   1
  -2  -2  14 5282.03  196.53   1
  -2  -2  14 5218.05  248.30   1
  -2  -2  14 4535.36  205.90   1
  -2   2  14 3841.84  189.98   1
   2  -2 -14 4877.58  188.02   1
   2  -2 -14 5173.59  230.01   1
   2  -2  14 4793.94  225.71   1
   2  -2  14 4690.00  210.68   1
   2  -2  14 4723.16  210.03   1
   2   2 -14 5443.15  195.25   1
   2   2  14 3919.94  185.27   1
   2   2  14 5228.50  206.15   1
   2   2  14 4646.94  205.38   1
  -2  -2  15  419.83   84.91   1
  -2  -2  15  344.98   98.49   1
  -2  -2  15  417.98   89.73   1
  -2   2  15  224.07   74.68   1
   2  -2 -15  443.03   82.41   1
   2  -2 -15  373.30   93.58   1
   2  -2  15  463.30  103.16   1
   2  -2  15  398.66   91.87   1
   2  -2  15  356.59   86.20   1
   2   2 -15  393.11   78.83   1
   2   2  15  335.00   82.83   1
   2   2  15  510.66   95.71   1
   2   2  15  465.25   94.89   1
  -2  -2  16  674.08  113.57   1
   2  -2 -16  792.10  116.59   1
   2  -2 -16  651.40  126.70   1
   2  -2  16  788.32  140.88   1
   2  -2  16  686.49  117.26   1
   2   2 -16  725.95  112.10   1
   2   2  16  597.89  106.56   1
   2   2  16  728.04  141.08   1
  -2  -2  17  880.32  144.50   1
   2  -2 -17  864.24  133.73   1
   2  -2 -17  798.69  161.59   1
   2  -2  17  760.83  158.57   1
   2  -2  17  824.72  137.92   1
   2   2 -17 1002.85  141.15   1
   2   2  17  770.21  132.15   1
  -2  -2  18 1884.26  202.65   1
   2  -2 -18 1983.52  200.65   1
   2  -2 -18 1995.53  231.20   1
   2  -2  18 1985.59  235.00   1
   2   2 -18 1908.78  199.74   1
   2   2 -18 2040.56  219.33   1
   2   2  18 1513.46  169.97   1
  -2  -2  19  458.49  140.35   1
   2  -2 -19  467.70  164.98   1
   2  -2  19  600.77  166.15   1
   2   2 -19  562.52  136.70   1
   2   2 -19  753.23  158.45   1
   2   2  19  477.12  123.90   1
  -2  -2  20   50.78  130.51   1
   2  -2 -20    7.02  139.87   1
   2  -2  20  102.40  142.23   1
   2   2 -20   17.35  116.37   1
  -3   2   0   20.22   15.44   1
  -3   2   0   16.34   14.70   1
  -2  -3   0   42.05   21.08   1
  -2  -3   0   13.57   39.84   1
   2   3   0    8.75   13.51   1
   3  -2   0   30.37   32.43   1
   3  -2   0   16.48   28.76   1
  -3   2  -1  634.68   43.51   1
  -3   2  -1  603.76   46.67   1
  -3   2   1  572.80   43.47   1
  -3   2   1  601.16   42.98   1
  -2  -3  -1  502.98   45.33   1
  -2  -3  -1  636.41   96.56   1
  -2  -3   1  517.18   46.61   1
  -2  -3   1  573.04   90.69   1
  -2  -3   1  440.01   69.36   1
   2   3  -1  593.51   40.75   1
   2   3  -1  636.97   32.45   1
   2   3  -1  518.86   44.15   1
   2   3   1  519.19   44.78   1
   3  -2  -1  545.11   78.81   1
   3  -2  -1  522.07   81.44   1
   3  -2   1  430.55   70.53   1
   3  -2   1  643.92   50.52   1
   3  -2   1  641.65   86.95   1
  -3   2  -2  421.81   36.46   1
  -3   2  -2  398.11   41.92   1
  -3   2   2  446.93   40.67   1
  -3   2   2  460.54   37.39   1
  -2  -3  -2  319.34   37.33   1
  -2  -3  -2  333.10   81.70   1
  -2  -3   2  368.52   44.21   1
  -2  -3   2  385.76   79.02   1
  -2  -3   2  447.46   78.64   1
   2   3  -2  442.18   37.51   1
   2   3  -2  463.02   31.82   1
   2   3  -2  379.76   39.02   1
   3  -2  -2  502.07   48.72   1
   3  -2  -2  429.50   67.51   1
   3  -2  -2  413.97   79.34   1
   3  -2   2  419.54   73.41   1
   3  -2   2  493.37   46.88   1
   3  -2   2  403.30   83.55   1
  -3   2  -3 4667.52  105.06   1
  -3   2  -3 4650.40  125.32   1
  -3   2   3 4883.37  121.62   1
  -3   2   3 4689.66   99.43   1
  -2  -3  -3 4556.88  111.84   1
  -2  -3   3 4465.99  124.59   1
  -2  -3   3 4329.35  196.53   1
  -2  -3   3 3934.28  200.31   1
   2   3  -3 4914.89  116.24   1
   2   3  -3 5200.69  103.47   1
   2   3  -3 4395.97  115.25   1
   2   3   3 3954.53  158.14   1
   2   3   3 4228.39  117.76   1
   3  -2  -3 5205.99  136.06   1
   3  -2  -3 4949.78  171.35   1
   3  -2  -3 4845.67  193.29   1
   3  -2   3 5459.32  191.45   1
   3  -2   3 5445.78  149.29   1
   3  -2   3 4849.73  131.87   1
   3  -2   3 4055.22  230.43   1
  -3   2  -4 1218.57   55.64   1
  -3   2  -4 1204.24   70.24   1
  -3   2   4 1340.49   68.17   1
  -3   2   4 1160.29   49.29   1
  -3   2   4 1236.04   62.41   1
  -2  -3  -4 1221.90   61.65   1
  -2  -3   4 1163.88   71.08   1
  -2  -3   4 1233.78  120.69   1
  -2  -3   4 1128.18  132.89   1
   2   3  -4 1276.16   64.28   1
   2   3  -4 1346.02   59.34   1
   2   3  -4 1043.99   59.43   1
   2   3   4 1091.70   57.66   1
   2   3   4  971.80   93.26   1
   3  -2  -4 1268.70   73.11   1
   3  -2  -4 1269.67   94.81   1
   3  -2  -4 1238.66  103.79   1
   3  -2   4 1031.32   76.94   1
   3  -2   4 1334.36   98.64   1
   3  -2   4 1218.35   62.10   1
   3  -2   4 1069.82   94.96   1
   3  -2   4 1235.37   73.32   1
   3  -2   4 1206.14  124.75   1
  -3   2  -5 2884.57   83.22   1
  -3   2  -5 2685.97  104.37   1
  -3   2   5 2562.75   94.11   1
  -3   2   5 2754.04   96.41   1
  -2  -3  -5 2620.01   86.10   1
  -2  -3   5 2774.72  107.04   1
  -2  -3   5 2878.63  163.19   1
  -2  -3   5 2883.22  172.38   1
   2   3  -5 2814.21   97.05   1
   2   3  -5 2911.66   92.36   1
   2   3  -5 2489.44   89.28   1
   2   3   5 2373.54   88.04   1
   2   3   5 2363.10  135.42   1
   3  -2  -5 3047.21  111.81   1
   3  -2  -5 2834.56  132.75   1
   3  -2  -5 2990.78  146.68   1
   3  -2   5 2381.56  111.26   1
   3  -2   5 2876.81  133.69   1
   3  -2   5 2676.40   95.94   1
   3  -2   5 2565.92  133.73   1
   3  -2   5 2901.56  113.10   1
   3  -2   5 2540.81  149.53   1
  -3   2  -6 6010.73  119.87   1
  -3   2  -6 6274.77  161.85   1
  -3   2   6 6295.32  148.38   1
  -3   2   6 5757.85  146.93   1
  -2  -3  -6 5473.34  122.59   1
  -2  -3   6 5982.91  159.46   1
  -2  -3   6 6212.64  224.44   1
  -2  -3   6 6208.09  224.86   1
   2   3  -6 6422.55  150.63   1
   2   3  -6 6295.49  143.75   1
   2   3  -6 5188.28  127.78   1
   2   3   6 5055.15  135.01   1
   2   3   6 5024.60  191.37   1
   3  -2  -6 6701.84  168.05   1
   3  -2  -6 6296.59  193.55   1
   3  -2  -6 6425.32  206.01   1
   3  -2   6 4892.47  157.74   1
   3  -2   6 5953.67  187.66   1
   3  -2   6 5575.27  146.28   1
   3  -2   6 5693.38  192.71   1
   3  -2   6 5994.23  167.88   1
   3  -2   6 5879.32  208.40   1
  -3   2  -7  285.87   35.62   1
  -3   2  -7  216.39   42.31   1
  -3   2   7  253.80   42.77   1
  -3   2   7  257.90   45.21   1
  -2  -3  -7  274.27   39.42   1
  -2  -3   7  241.68   64.62   1
  -2  -3   7  309.54   70.90   1
  -2  -3   7  302.72   68.36   1
   2   3  -7  212.35   39.74   1
   2   3  -7  262.63   43.88   1
   2   3  -7  266.99   41.03   1
   2   3   7  227.04   41.87   1
   2   3   7  302.96   49.91   1
   2   3   7  209.86   58.32   1
   3  -2  -7  208.02   43.73   1
   3  -2  -7  223.39   56.32   1
   3  -2  -7  203.82   51.78   1
   3  -2   7  238.21   50.43   1
   3  -2   7  281.80   60.36   1
   3  -2   7  259.04   46.51   1
   3  -2   7  225.27   53.08   1
   3  -2   7  316.16   57.20   1
  -3   2  -8 1807.01   98.30   1
  -3   2   8 2019.16  103.29   1
  -2  -3  -8 1839.55   77.61   1
  -2  -3   8 1959.57   82.28   1
  -2  -3   8 1958.03  139.60   1
  -2  -3   8 1806.64  121.64   1
   2   3  -8 2201.89  100.10   1
   2   3  -8 2198.85  100.01   1
   2   3  -8 1724.96   78.88   1
   2   3   8 1498.33   87.68   1
   2   3   8 2042.33   96.77   1
   2   3   8 1838.22  124.02   1
   3  -2  -8 2163.71  108.08   1
   3  -2  -8 1959.40  119.74   1
   3  -2  -8 2146.56  131.17   1
   3  -2   8 1700.44  103.46   1
   3  -2   8 2043.28  120.71   1
   3  -2   8 1790.86   98.47   1
   3  -2   8 1745.12  116.91   1
   3  -2   8 2049.21  113.41   1
  -3   2  -9 1158.26   85.78   1
  -3   2   9 1083.49   85.37   1
  -2  -3   9 1236.02   74.59   1
  -2  -3   9 1278.56  125.21   1
  -2  -3   9 1237.69  104.96   1
   2   3  -9 1244.03   82.94   1
   2   3  -9 1287.32   84.16   1
   2   3  -9 1080.66   65.46   1
   2   3   9  862.40   74.82   1
   2   3   9 1385.91   89.20   1
   2   3   9 1156.35  105.19   1
   3  -2  -9 1226.24   89.99   1
   3  -2  -9 1237.34  103.49   1
   3  -2  -9 1295.40  112.63   1
   3  -2   9  950.43   85.68   1
   3  -2   9 1276.64  103.16   1
   3  -2   9 1158.99   88.31   1
   3  -2   9 1137.90  101.94   1
   3  -2   9 1231.84   97.37   1
  -3   2 -10   46.66   31.54   1
  -3   2  10   29.74   38.81   1
  -3   2  10   41.99   33.29   1
  -2  -3  10   42.34   30.75   1
  -2  -3  10   35.27   50.20   1
  -2  -3  10   23.04   40.39   1
   2   3 -10    8.12   24.86   1
   2   3 -10   42.15   33.07   1
   2   3  10    3.69   25.59   1
   2   3  10   26.36   33.85   1
   2   3  10   57.92   44.90   1
   3  -2 -10   44.91   34.52   1
   3  -2 -10   29.10   39.63   1
   3  -2 -10   66.11   45.02   1
   3  -2  10   22.11   33.87   1
   3  -2  10   67.55   44.22   1
   3  -2  10   41.95   32.51   1
   3  -2  10   49.42   39.87   1
   3  -2  10   27.88   36.16   1
  -3   2 -11   23.79   39.30   1
  -3   2 -11   54.00   36.84   1
  -3   2  11   34.38   40.31   1
  -3   2  11   39.18   39.30   1
  -2  -3  11   90.74   40.56   1
  -2  -3  11   76.56   60.73   1
  -2  -3  11   72.92   46.55   1
   2   3 -11   59.88   36.75   1
   2   3 -11   65.23   36.44   1
   2   3  11   86.88   42.46   1
   2   3  11   93.61   44.10   1
   2   3  11   20.56   39.32   1
   3  -2 -11   63.25   38.79   1
   3  -2 -11   25.89   44.87   1
   3  -2 -11  111.65   55.55   1
   3  -2  11   39.88   38.00   1
   3  -2  11   70.48   47.52   1
   3  -2  11   41.68   36.90   1
   3  -2  11   73.63   44.59   1
   3  -2  11   45.68   38.78   1
  -3   2 -12  238.15   57.59   1
  -3   2  12  174.97   61.59   1
  -3   2  12  238.35   64.49   1
  -2  -3  12  358.27   67.44   1
  -2  -3  12  229.56   83.35   1
  -2  -3  12  213.55   63.72   1
   2   3 -12  245.47   56.22   1
   2   3  12  203.27   55.71   1
   2   3  12  264.11   63.28   1
   2   3  12  215.53   65.50   1
   3  -2 -12  317.45   67.16   1
   3  -2 -12  234.21   76.76   1
   3  -2  12  280.32   66.29   1
   3  -2  12  288.31   80.82   1
   3  -2  12  215.05   64.13   1
   3  -2  12  312.98   81.99   1
   3  -2  12  250.01   66.29   1
  -3   2  13   86.05   53.64   1
  -3   2  13   48.65   47.70   1
  -2  -3  13  157.05   53.95   1
  -2  -3  13  102.53   70.69   1
  -2  -3  13   96.31   54.11   1
   2   3 -13  116.81   49.69   1
   2   3  13   74.61   45.13   1
   2   3  13   70.18   50.95   1
   3  -2 -13  106.50   51.05   1
   3  -2 -13   59.12   60.55   1
   3  -2  13   92.61   62.15   1
   3  -2  13  120.70   57.12   1
   3  -2  13   56.32   51.05   1
   3  -2  13  106.35   58.28   1
  -3   2  14  754.64  121.44   1
  -3   2  14  745.49  116.85   1
  -2  -3  14  843.19   96.59   1
  -2  -3  14  891.49  150.64   1
   2   3 -14  746.87  101.30   1
   2   3  14  679.94  107.60   1
   2   3  14  992.83  114.05   1
   3  -2 -14  843.47  109.84   1
   3  -2 -14  690.31  121.25   1
   3  -2  14  871.03  126.68   1
   3  -2  14  985.73  142.15   1
   3  -2  14  650.24  109.82   1
   3  -2  14  822.14  122.74   1
  -2  -3  15 1593.79  128.46   1
  -2  -3  15 1197.28  181.06   1
   2   3 -15 1438.24  132.21   1
   2   3  15 1152.37  126.26   1
   3  -2 -15 1410.95  137.24   1
   3  -2 -15 1387.52  179.38   1
   3  -2  15 1633.68  168.51   1
   3  -2  15 1311.08  139.39   1
   3  -2  15 1355.84  147.47   1
  -2  -3  16   24.46   90.09   1
  -2  -3  16  -11.16  106.92   1
   2   3 -16    4.94   76.81   1
   2   3  16   55.51   73.74   1
   3  -2 -16   71.03   88.54   1
   3  -2 -16   18.98  102.13   1
   3  -2  16    9.03   87.43   1
   3  -2  16  -27.07   68.66   1
   3  -2  16    8.27   74.60   1
  -2  -3  17 1164.82  155.09   1
   2   3 -17 1334.19  166.22   1
   2   3  17 1264.87  165.43   1
   3  -2 -17 1435.78  166.37   1
   3  -2 -17 1055.67  190.66   1
   3  -2  17 1226.04  190.08   1
   3  -2  17 1095.08  163.63   1
   2   3 -18  764.02  145.67   1
   2   3  18  723.29  140.92   1
   3  -2 -18  778.27  141.55   1
   3  -2 -18  760.34  183.31   1
   3  -2  18  774.50  173.87   1
   3  -2  18  555.22  134.00   1
   2   3 -19    8.19  117.13   1
   2   3 -19   97.75  111.31   1
   2   3  19   -4.13   82.22   1
   3  -2 -19   64.48  107.55   1
   3  -2 -19   48.94  153.06   1
   3  -2  19   26.05  126.60   1
   3  -2  19   -8.93   97.84   1
   1   3   0  954.48   52.58   1
   3  -1   0 1021.46   90.39   1
  -3   1   112286.96  194.37   1
   1   3  -115194.15  126.08   1
   1   3  -112283.76  177.44   1
   1   3   112755.56  180.43   1
   3  -1  -113877.74  268.09   1
  -3   1   213726.36  181.51   1
  -1  -3  -215618.85  221.24   1
  -1  -3   212897.08  382.54   1
   1   3  -215887.16  187.85   1
   1   3  -217330.90  156.08   1
   1   3  -213605.27  188.00   1
   1   3   214149.71  191.40   1
   3  -1  -213600.32  260.07   1
   3  -1   212117.15  222.17   1
   3  -1   214108.16  350.64   1
   3  -1   215476.45  234.03   1
  -3   1   3  115.45   25.42   1
  -1  -3  -3  169.05   31.20   1
  -1  -3   3   90.74   29.63   1
  -1  -3   3  177.67   77.13   1
   1   3  -3  161.16   28.12   1
   1   3  -3  210.38   24.59   1
   1   3  -3  126.44   26.29   1
   1   3   3  137.13   26.48   1
   3  -1  -3  121.77   27.21   1
   3  -1  -3  183.52   47.45   1
   3  -1  -3  101.92   41.16   1
   3  -1   3  114.34   33.06   1
   3  -1   3   72.98   50.15   1
   3  -1   3  133.52   33.73   1
  -3   1   4 5232.98  121.57   1
  -3   1   4 5280.38  124.90   1
  -1  -3  -4 5213.30  119.96   1
  -1  -3   4 5313.29  151.61   1
  -1  -3   4 5711.15  216.53   1
   1   3  -4 6081.54  115.33   1
   1   3  -4 4868.95  116.66   1
   1   3   4 4294.86  102.04   1
   1   3   4 4836.78  116.40   1
   3  -1  -4 5356.35  127.28   1
   3  -1  -4 5201.74  157.61   1
   3  -1  -4 5458.42  161.86   1
   3  -1   4 4320.57  134.38   1
   3  -1   4 5638.34  138.42   1
   3  -1   4 5281.42  123.29   1
   3  -1   4 4677.06  176.35   1
   3  -1   4 5015.61  143.00   1
   3  -1   4 5411.03  171.87   1
  -3   1   5 6651.19  141.59   1
  -3   1   5 6606.52  148.64   1
  -1  -3  -5 6944.56  139.57   1
  -1  -3   5 7567.98  213.43   1
  -1  -3   5 7503.43  226.63   1
   1   3  -5 7074.31  140.85   1
   1   3  -5 7850.47  142.45   1
   1   3  -5 5916.04  130.66   1
   1   3   5 5703.65  126.55   1
   3  -1  -5 7808.66  159.36   1
   3  -1  -5 6881.12  180.28   1
   3  -1  -5 7163.52  182.79   1
   3  -1   5 5830.22  157.38   1
   3  -1   5 7354.54  161.63   1
   3  -1   5 6766.17  148.70   1
   3  -1   5 5913.52  185.22   1
   3  -1   5 6699.14  170.76   1
   3  -1   5 7192.57  184.10   1
  -3   1   6 5646.49  135.86   1
  -3   1   6 6124.07  134.70   1
  -3   1   6 5304.78  142.48   1
  -1  -3  -6 5664.80  129.52   1
  -1  -3   6 5856.45  127.71   1
  -1  -3   6 6174.98  201.30   1
   1   3  -6 5923.10  134.90   1
   1   3  -6 6444.10  139.66   1
   1   3  -6 5215.90  125.54   1
   1   3   6 4463.45  120.72   1
   3  -1  -6 6147.09  147.93   1
   3  -1  -6 5423.47  163.06   1
   3  -1  -6 6003.70  170.75   1
   3  -1   6 4160.04  136.87   1
   3  -1   6 6115.25  153.59   1
   3  -1   6 5605.74  145.02   1
   3  -1   6 5246.11  171.27   1
   3  -1   6 5633.98  163.56   1
  -3   1   7 1706.89   80.67   1
  -3   1   7 1782.04   83.21   1
  -3   1   7 1591.87   87.19   1
  -1  -3  -7 1733.13   77.64   1
  -1  -3   7 1752.81   77.56   1
  -1  -3   7 1816.89  118.03   1
  -1  -3   7 1496.09   99.00   1
   1   3  -7 1711.54   78.60   1
   1   3  -7 1876.46   83.71   1
   1   3  -7 1415.41   70.07   1
   1   3   7 1377.79   74.32   1
   1   3   7 1681.21   88.20   1
   1   3   7 1574.77  100.06   1
   3  -1  -7 1868.22   88.63   1
   3  -1  -7 1612.13   95.95   1
   3  -1  -7 1744.25  100.35   1
   3  -1   7 1291.16   83.51   1
   3  -1   7 1671.93   87.92   1
   3  -1   7 1500.78   83.62   1
   3  -1   7 1401.16   96.06   1
   3  -1   7 1591.07   95.10   1
  -3   1   8  693.43   66.79   1
  -1  -3  -8  803.39   60.00   1
  -1  -3   8  735.30   59.00   1
  -1  -3   8  802.59   89.14   1
  -1  -3   8  634.18   64.86   1
   1   3  -8  679.40   56.02   1
   1   3  -8  894.59   65.70   1
   1   3  -8  829.71   57.95   1
   1   3   8  576.40   55.42   1
   1   3   8  915.88   73.05   1
   3  -1  -8  878.84   68.29   1
   3  -1  -8  779.83   76.45   1
   3  -1  -8  840.05   78.31   1
   3  -1   8  605.95   65.57   1
   3  -1   8  785.73   67.94   1
   3  -1   8  746.07   66.86   1
   3  -1   8  751.85   77.74   1
   3  -1   8  710.55   72.64   1
  -3   1  -911226.88  229.45   1
  -3   1   911134.72  247.26   1
  -1  -3  -911681.77  200.68   1
  -1  -3   911947.05  220.47   1
  -1  -3   912056.93  293.49   1
   1   3  -911776.80  217.66   1
   1   3  -912945.97  241.33   1
   1   3  -910950.78  191.47   1
   1   3   9 9508.89  213.10   1
   1   3   912250.07  246.54   1
   3  -1  -912022.32  235.97   1
   3  -1  -912043.75  264.08   1
   3  -1  -912566.76  274.01   1
   3  -1   9 9418.88  226.52   1
   3  -1   912545.51  254.72   1
   3  -1   911047.06  244.38   1
   3  -1   911076.78  262.33   1
   3  -1   911242.10  260.65   1
  -3   1 -10 1186.23   98.69   1
  -3   1 -10 1282.30   88.74   1
  -3   1  10  909.44   84.87   1
  -3   1  10 1295.78  100.08   1
  -1  -3 -10 1240.91   78.36   1
  -1  -3  10 1255.05   83.71   1
  -1  -3  10 1339.41  115.90   1
   1   3 -10 1290.64   82.73   1
   1   3 -10 1498.09   94.15   1
   1   3 -10 1148.57   69.21   1
   1   3  10 1172.37   86.52   1
   1   3  10 1261.59   94.59   1
   3  -1 -10 1429.78   93.49   1
   3  -1 -10 1184.55   97.90   1
   3  -1 -10 1406.82  107.99   1
   3  -1  10 1046.54   88.45   1
   3  -1  10 1335.04   95.99   1
   3  -1  10 1069.77   89.95   1
   3  -1  10 1068.58   94.61   1
   3  -1  10 1121.10   97.18   1
  -3   1 -11   90.51   46.48   1
  -3   1 -11   76.62   35.87   1
  -3   1  11   67.63   40.92   1
  -3   1  11  130.69   52.53   1
  -1  -3  11   39.57   35.21   1
  -1  -3  11   95.66   55.76   1
   1   3 -11  103.40   38.18   1
   1   3 -11   34.65   30.39   1
   1   3  11   76.76   38.65   1
   1   3  11   81.51   44.70   1
   3  -1 -11  136.05   45.89   1
   3  -1 -11   80.75   46.89   1
   3  -1 -11   93.17   48.85   1
   3  -1  11   52.48   36.98   1
   3  -1  11   64.47   39.68   1
   3  -1  11   52.69   40.22   1
   3  -1  11  137.91   51.52   1
   3  -1  11   58.88   42.76   1
  -3   1 -12 8291.49  247.93   1
  -3   1 -12 8285.93  220.17   1
  -3   1  12 6785.68  222.37   1
  -3   1  12 7858.09  251.39   1
  -1  -3  12 8660.96  229.13   1
  -1  -3  12 8698.90  289.43   1
   1   3 -12 9191.03  226.02   1
   1   3  12 6962.58  220.66   1
   1   3  12 9368.32  259.86   1
   3  -1 -12 9168.68  238.98   1
   3  -1 -12 9013.71  274.31   1
   3  -1  12 6992.78  225.13   1
   3  -1  12 9252.33  261.55   1
   3  -1  12 8136.52  252.28   1
   3  -1  12 8519.33  262.73   1
   3  -1  12 8452.36  262.93   1
  -3   1  13 1403.17  119.52   1
  -3   1  13 1602.38  135.06   1
  -1  -3  13 1771.14  120.77   1
  -1  -3  13 1909.40  161.78   1
   1   3 -13 1574.32  109.87   1
   1   3  13 1275.57  109.78   1
   1   3  13 1799.42  133.68   1
   3  -1 -13 1771.24  120.91   1
   3  -1 -13 1715.29  140.75   1
   3  -1  13 1258.09  112.60   1
   3  -1  13 1981.21  137.97   1
   3  -1  13 1558.31  129.17   1
   3  -1  13 1319.02  119.09   1
   3  -1  13 1511.79  130.26   1
  -3   1  14   87.77   53.98   1
  -3   1  14   77.82   58.02   1
  -1  -3  14   79.17   53.10   1
  -1  -3  14   38.82   67.49   1
   1   3 -14   80.95   48.25   1
   1   3  14   75.42   52.21   1
   1   3  14   61.96   53.91   1
   3  -1 -14  105.81   51.11   1
   3  -1 -14   36.12   53.72   1
   3  -1  14   36.84   48.13   1
   3  -1  14   66.89   55.16   1
   3  -1  14   63.10   53.15   1
   3  -1  14   74.64   53.09   1
  -3   1  15 2552.22  180.35   1
  -1  -3  15 2675.89  160.81   1
  -1  -3  15 2771.10  207.64   1
   1   3 -15 2580.79  152.56   1
   1   3  15 2066.22  150.61   1
   1   3  15 2692.21  178.35   1
   3  -1 -15 2798.81  162.33   1
   3  -1 -15 2721.54  189.85   1
   3  -1  15 2119.26  183.74   1
   3  -1  15 2882.81  182.64   1
   3  -1  15 2272.56  167.19   1
   3  -1  15 2340.54  171.82   1
  -3   1  16 1359.18  167.40   1
  -1  -3  16 1509.41  158.02   1
   1   3 -16 1600.46  160.41   1
   1   3  16  989.46  137.11   1
   3  -1 -16 1581.62  160.76   1
   3  -1 -16 1603.15  189.61   1
   3  -1  16 1545.34  161.13   1
   3  -1  16 1340.03  155.40   1
  -1  -3  17  915.34  148.80   1
   1   3 -17 1085.52  150.15   1
   1   3  17  761.96  136.39   1
   3  -1 -17  974.36  141.90   1
   3  -1 -17  884.42  166.51   1
   3  -1  17  999.65  156.90   1
   3  -1  17  792.62  142.27   1
  -1  -3  18  234.02  119.47   1
   1   3 -18   96.97  112.94   1
   1   3  18  175.05   97.55   1
   3  -1 -18  216.21  111.15   1
   3  -1 -18  285.21  141.33   1
   3  -1  18  168.91  104.47   1
   3  -1  18  148.94  101.36   1
  -1  -3  19  685.28  148.24   1
   1   3  19  626.29  132.59   1
   3  -1 -19  658.67  136.13   1
   3  -1 -19  766.40  181.67   1
   3  -1  19  576.04  138.79   1
   1   3  20 2016.16  192.96   1
   3  -1 -20 2205.32  246.65   1
   0  -3   0   12.22    7.84   1
   0   3   0   13.53   12.73   1
   3   0   0   47.38   31.04   1
   3   0   0   -0.78   31.25   1
   0  -3   1  696.79   29.43   1
   0   3  -1  620.73   42.00   1
   0   3   1  655.87   42.20   1
   3   0  -1  695.24   66.29   1
   3   0   1  784.12  104.67   1
   0  -3   2  558.46   30.13   1
   0   3   2  492.97   37.51   1
   3   0  -2  524.86   56.60   1
   3   0   2  433.26  106.16   1
  -3   0   3 5724.21  119.21   1
   0  -3  -3 5862.98  132.09   1
   0  -3   3 5902.93   98.91   1
   0   3  -3 5792.77  114.57   1
   0   3  -3 5416.31  120.30   1
   0   3   3 5448.41  112.59   1
   3   0  -3 5735.26  150.07   1
   3   0   3 4634.16  127.96   1
   3   0   3 5459.54  140.48   1
   3   0   3 4936.66  179.94   1
   3   0   3 5422.51  156.00   1
  -3   0   4 1332.43   62.79   1
  -3   0   4 1430.20   73.89   1
   0  -3  -4 1569.37   72.62   1
   0  -3   4 1573.11   58.51   1
   0   3  -4 1498.72   61.74   1
   0   3  -4 1727.92   65.98   1
   0   3  -4 1332.43   63.42   1
   0   3   4 1243.42   57.92   1
   0   3   4 1427.03   60.27   1
   3   0  -4 1647.76   69.04   1
   3   0  -4 1402.88   78.10   1
   3   0  -4 1547.36   77.32   1
   3   0   4 1169.37   68.90   1
   3   0   4 1344.79   67.85   1
   3   0   4 1317.42   86.85   1
   3   0   4 1495.24   88.42   1
  -3   0   5 3150.33   97.43   1
  -3   0   5 3357.56   97.49   1
  -3   0   5 2950.30  107.71   1
   0  -3  -5 3525.77  106.74   1
   0  -3  -5 3274.29   89.66   1
   0  -3   5 3153.32  104.66   1
   0  -3   5 3371.28   91.47   1
   0  -3   5 3457.97   98.83   1
   0  -3   5 3683.21  132.50   1
   0   3  -5 3366.44   93.95   1
   0   3  -5 3494.64   98.90   1
   0   3  -5 3010.42   95.33   1
   0   3   5 2716.45   89.03   1
   0   3   5 2980.74   86.06   1
   3   0  -5 3723.60  106.05   1
   3   0  -5 3295.64  116.61   1
   3   0  -5 3552.35  113.78   1
   3   0   5 2521.56   99.08   1
   3   0   5 3261.09  108.66   1
   3   0   5 3055.48  118.12   1
   3   0   5 3235.92  127.46   1
  -3   0   6 7234.43  150.86   1
  -3   0   6 7258.24  151.46   1
  -3   0   6 6587.67  166.80   1
   0  -3  -6 7580.99  157.64   1
   0  -3  -6 7362.46  134.23   1
   0  -3   6 7210.77  161.00   1
   0  -3   6 7539.39  146.54   1
   0  -3   6 7594.77  155.58   1
   0  -3   6 7789.71  186.51   1
   0   3  -6 7370.80  142.94   1
   0   3  -6 7908.81  157.69   1
   0   3  -6 6461.85  142.28   1
   0   3   6 6081.21  140.71   1
   0   3   6 6164.81  123.95   1
   3   0  -6 7239.25  153.53   1
   3   0  -6 7418.39  176.40   1
   3   0  -6 7609.17  170.69   1
   3   0   6 5884.64  153.75   1
   3   0   6 7700.24  147.40   1
   3   0   6 6320.74  158.03   1
   3   0   6 6699.33  170.18   1
   3   0   6 7067.02  186.39   1
  -3   0   7  306.68   43.56   1
  -3   0   7  460.76   59.22   1
  -3   0   7  336.56   48.19   1
  -3   0   7  383.20   59.28   1
   0  -3  -7  316.93   46.43   1
   0  -3  -7  294.48   39.17   1
   0  -3  -7  301.59   49.25   1
   0  -3   7  343.05   54.24   1
   0  -3   7  306.92   43.02   1
   0  -3   7  294.52   44.47   1
   0  -3   7  345.83   57.40   1
   0   3  -7  295.32   40.78   1
   0   3  -7  340.62   47.80   1
   0   3  -7  289.22   41.24   1
   0   3   7  219.71   37.88   1
   3   0  -7  359.49   47.43   1
   3   0  -7  299.04   53.30   1
   3   0  -7  307.03   48.82   1
   3   0   7  261.48   46.27   1
   3   0   7  337.26   47.57   1
   3   0   7  276.29   49.93   1
   3   0   7  282.14   49.01   1
   3   0   7  241.87   47.60   1
  -3   0   8 2275.01   99.89   1
  -3   0   8 2282.29  102.87   1
  -3   0   8 2057.53  109.48   1
   0  -3  -8 2314.27   97.11   1
   0  -3  -8 2109.66   82.23   1
   0  -3  -8 2381.43  105.51   1
   0  -3   8 2128.41   99.85   1
   0  -3   8 2210.61  100.04   1
   0  -3   8 2357.44  114.94   1
   0   3  -8 2141.19   86.91   1
   0   3  -8 2304.51   99.67   1
   0   3  -8 2096.80   88.88   1
   0   3   8 2003.65   95.69   1
   3   0  -8 2390.41  100.89   1
   3   0  -8 2419.97  113.57   1
   3   0  -8 2462.34  110.97   1
   3   0   8 1792.63   97.24   1
   3   0   8 2355.92   97.10   1
   3   0   8 1995.60  103.59   1
   3   0   8 2074.62  104.47   1
   3   0   8 2169.10  113.22   1
  -3   0  -9 1303.39   84.61   1
  -3   0   9  934.69   71.84   1
  -3   0   9 1324.22   84.94   1
  -3   0   9 1326.00   89.20   1
  -3   0   9 1247.29   94.72   1
   0  -3  -9 1425.59   83.08   1
   0  -3  -9 1439.11   90.15   1
   0  -3   9 1423.61   88.86   1
   0  -3   9 1323.47   86.17   1
   0  -3   9 1428.78   98.53   1
   0   3  -9 1269.93   73.20   1
   0   3  -9 1427.50   86.06   1
   0   3  -9 1255.92   73.27   1
   0   3   9 1045.99   77.31   1
   0   3   9 1354.63   95.57   1
   3   0  -9 1306.34   82.03   1
   3   0  -9 1388.22   93.02   1
   3   0  -9 1461.41   94.54   1
   3   0   9 1026.79   80.98   1
   3   0   9 1345.49   80.99   1
   3   0   9 1074.52   85.23   1
   3   0   9 1200.70   86.55   1
   3   0   9 1245.09   93.17   1
  -3   0 -10   54.00   33.43   1
  -3   0  10   26.23   27.13   1
  -3   0  10   35.63   32.35   1
  -3   0  10   57.93   35.92   1
  -3   0  10   48.49   38.67   1
   0  -3 -10   50.65   30.29   1
   0  -3 -10   41.91   34.22   1
   0  -3  10   11.56   28.50   1
   0  -3  10   37.05   29.46   1
   0  -3  10   47.00   38.17   1
   0   3 -10   11.24   21.67   1
   0   3 -10   53.23   30.42   1
   0   3 -10   27.00   24.38   1
   0   3  10    5.27   26.64   1
   0   3  10   13.99   34.18   1
   3   0 -10   51.85   30.72   1
   3   0 -10   32.89   35.59   1
   3   0 -10   40.70   33.66   1
   3   0  10    2.39   26.71   1
   3   0  10   15.69   27.52   1
   3   0  10   22.20   32.01   1
   3   0  10   36.64   30.81   1
   3   0  10  123.98   43.76   1
  -3   0 -11   95.51   39.36   1
  -3   0 -11   77.53   36.21   1
  -3   0  11  113.08   45.49   1
  -3   0  11   63.27   41.90   1
  -3   0  11   43.34   40.31   1
   0  -3 -11   59.44   34.01   1
   0  -3 -11   72.28   41.13   1
   0  -3  11   98.28   43.76   1
   0  -3  11  136.67   45.98   1
   0  -3  11   90.67   46.26   1
   0   3 -11   66.00   31.00   1
   0   3 -11   92.28   41.18   1
   0   3 -11   69.33   30.50   1
   0   3  11   62.95   36.15   1
   0   3  11   21.77   41.38   1
   3   0 -11   57.90   33.92   1
   3   0 -11   74.43   40.07   1
   3   0 -11   83.09   41.29   1
   3   0  11   70.06   39.45   1
   3   0  11   30.41   32.48   1
   3   0  11  142.21   49.41   1
   3   0  11   51.23   34.59   1
   3   0  11  146.14   50.70   1
  -3   0 -12  320.71   63.82   1
  -3   0 -12  257.42   54.64   1
  -3   0  12  255.97   63.96   1
  -3   0  12  290.28   68.52   1
   0  -3 -12  283.17   56.64   1
   0  -3 -12  305.94   65.24   1
   0  -3  12  219.44   59.67   1
   0  -3  12  275.00   64.84   1
   0  -3  12  288.37   69.00   1
   0   3 -12  312.91   58.28   1
   0   3  12  216.38   56.52   1
   0   3  12  289.92   74.06   1
   3   0 -12  345.78   65.00   1
   3   0 -12  225.58   61.92   1
   3   0  12  183.20   54.70   1
   3   0  12  293.07   64.58   1
   3   0  12  250.55   63.01   1
   3   0  12  258.59   58.56   1
   3   0  12  285.18   66.25   1
  -3   0  13   90.24   53.04   1
  -3   0  13   39.01   52.15   1
   0  -3 -13   63.21   40.08   1
   0  -3 -13   94.13   51.61   1
   0  -3  13   79.51   51.99   1
   0  -3  13   53.92   42.72   1
   0  -3  13   41.44   48.62   1
   0   3 -13   78.53   41.83   1
   0   3  13  112.55   49.96   1
   0   3  13  166.05   66.58   1
   3   0 -13   87.97   44.55   1
   3   0 -13  119.38   55.23   1
   3   0  13   49.40   40.96   1
   3   0  13  120.07   50.93   1
   3   0  13   43.12   46.93   1
   3   0  13   90.14   49.77   1
  -3   0  14  940.28  111.44   1
  -3   0  14  887.09  127.85   1
   0  -3 -14  916.52  130.41   1
   0  -3 -14  859.03  113.07   1
   0  -3  14  795.14  114.25   1
   0  -3  14  951.43  116.83   1
   0   3 -14  900.27   94.70   1
   0   3  14  681.01  103.77   1
   3   0 -14  881.26  100.04   1
   3   0 -14  999.52  130.25   1
   3   0  14  656.74   99.25   1
   3   0  14  806.19  109.14   1
   3   0  14  877.73  123.44   1
   3   0  14  853.48  116.97   1
  -3   0  15 1771.15  147.40   1
  -3   0  15 1333.62  148.49   1
   0  -3 -15 1425.04  138.91   1
   0  -3  15 1665.93  141.51   1
   0   3 -15 1450.55  122.03   1
   0   3  15 1159.35  123.15   1
   3   0 -15 1666.53  130.98   1
   3   0 -15 1441.62  147.01   1
   3   0  15 1107.92  118.57   1
   3   0  15 1659.84  138.01   1
   3   0  15 1422.20  143.99   1
   3   0  15 1346.49  132.31   1
  -3   0  16   40.81   73.84   1
   0  -3 -16   20.94   77.55   1
   0  -3  16  -50.78   71.15   1
   0   3 -16   24.92   68.73   1
   0   3  16  -39.40   47.57   1
   3   0 -16  -26.22   64.55   1
   3   0 -16    8.04   72.90   1
   3   0  16    1.42   56.37   1
   3   0  16   23.65   64.46   1
  -3   0  17 1431.38  191.00   1
   0  -3  17 1316.15  178.31   1
   0   3  17 1092.38  153.21   1
   3   0 -17 1475.42  171.27   1
   3   0 -17 1457.73  188.24   1
   3   0  17  885.63  216.09   1
   0  -3  18  820.53  158.59   1
   0   3  18  719.48  132.51   1
   3   0 -18  857.81  142.91   1
   3   0 -18  700.43  157.71   1
   3   0  18  874.63  145.44   1
   0  -3  19   71.35  121.15   1
   0   3  19   81.76   95.01   1
   3   0 -19  110.46  110.56   1
   3   0 -19   61.08  123.61   1
   3   0  19   37.33   92.20   1
   0  -3  20  354.60  139.42   1
   3   0 -20  348.89  155.29   1
  -1   3   0  956.89   51.42   1
   1  -3   0 1167.29   56.33   1
   3   1   0  959.44   72.43   1
   3   1   0 1106.47   84.92   1
  -1   3  -113624.67  175.41   1
  -1   3  -112417.59  179.02   1
  -1   3   112488.05  170.89   1
   1  -3  -113429.09  189.02   1
   1  -3   114006.01  175.47   1
   3   1  -113439.44  221.11   1
   3   1   115237.26  301.23   1
  -3  -1   214036.78  184.35   1
  -3  -1   212865.70  225.21   1
  -1   3  -215746.67  189.44   1
  -1   3  -213893.83  194.86   1
  -1   3   214758.93  181.79   1
   1  -3  -215706.86  223.43   1
   1  -3  -215322.49  230.06   1
   1  -3   215249.19  184.70   1
   3   1  -214878.31  221.70   1
   3   1   213944.51  213.27   1
   3   1   216275.69  282.04   1
  -3  -1   3  147.18   28.76   1
  -3  -1   3  129.08   39.24   1
  -1   3  -3  149.31   26.25   1
  -1   3  -3  156.24   30.71   1
  -1   3   3  113.44   22.84   1
   1  -3  -3  144.14   32.17   1
   1  -3   3  126.59   53.22   1
   1  -3   3  134.36   26.68   1
   1  -3   3  220.25   38.89   1
   3   1  -3  140.40   27.59   1
   3   1  -3  149.62   34.12   1
   3   1   3  100.66   26.33   1
   3   1   3  136.37   31.88   1
   3   1   3  164.60   36.64   1
   3   1   3  108.31   43.50   1
  -3  -1   4 5170.01  122.49   1
  -3  -1   4 5450.87  132.57   1
  -3  -1   4 4853.57  147.64   1
  -1   3  -4 5505.59  116.24   1
  -1   3  -4 5238.36  128.37   1
  -1   3   4 4766.99  101.66   1
   1  -3  -4 5346.26  135.80   1
   1  -3  -4 5457.73  142.40   1
   1  -3  -4 5060.15  171.73   1
   1  -3   4 4967.45  169.15   1
   1  -3   4 5382.47  121.05   1
   1  -3   4 5421.92  116.45   1
   1  -3   4 5693.03  144.92   1
   3   1  -4 5558.79  137.66   1
   3   1   4 4115.07  117.77   1
   3   1   4 4791.89  135.37   1
   3   1   4 5123.57  127.04   1
   3   1   4 5008.00  177.52   1
  -3  -1   5 6729.12  145.03   1
  -3  -1   5 7279.67  159.40   1
  -3  -1   5 6444.24  175.34   1
  -1   3  -5 6785.22  131.81   1
  -1   3  -5 6785.97  150.39   1
  -1   3   5 6275.47  115.33   1
   1  -3  -5 7590.01  164.67   1
   1  -3  -5 6903.09  159.97   1
   1  -3  -5 7080.49  190.63   1
   1  -3   5 6833.74  188.93   1
   1  -3   5 7190.04  147.58   1
   1  -3   5 7263.38  144.81   1
   3   1  -5 7617.16  150.42   1
   3   1  -5 7454.37  163.70   1
   3   1  -5 7795.99  151.93   1
   3   1   5 5641.32  142.29   1
   3   1   5 6355.57  162.74   1
   3   1   5 6757.69  144.18   1
   3   1   5 6650.58  193.64   1
  -3  -1   6 5409.50  136.00   1
  -3  -1   6 5783.48  151.33   1
  -3  -1   6 5207.19  164.57   1
  -1   3  -6 5753.58  125.59   1
  -1   3  -6 5442.46  139.57   1
   1  -3  -6 6190.58  153.39   1
   1  -3  -6 5713.08  147.92   1
   1  -3  -6 6012.05  173.92   1
   1  -3   6 5402.06  167.29   1
   1  -3   6 5468.56  144.36   1
   1  -3   6 5711.21  140.15   1
   1  -3   6 5583.17  136.97   1
   3   1  -6 6279.21  143.93   1
   3   1  -6 5853.76  151.79   1
   3   1  -6 6299.83  145.22   1
   3   1   6 4345.98  131.22   1
   3   1   6 5058.05  152.95   1
   3   1   6 5590.98  134.81   1
   3   1   6 4995.24  161.83   1
  -3  -1   7 1692.01   82.51   1
  -3  -1   7 1775.83   76.52   1
  -3  -1   7 1669.14   91.88   1
  -3  -1   7 1423.12   96.32   1
  -1   3  -7 1691.91   73.25   1
  -1   3  -7 1822.70   90.38   1
  -1   3  -7 1536.50   80.58   1
  -1   3   7 1354.70   78.98   1
   1  -3  -7 1658.95   86.73   1
   1  -3  -7 1531.24   82.87   1
   1  -3  -7 1669.87  100.86   1
   1  -3   7 1592.05   96.60   1
   1  -3   7 1627.87   88.00   1
   1  -3   7 1792.83   86.97   1
   1  -3   7 1648.37   82.93   1
   1  -3   7 1684.50   80.51   1
   3   1  -7 1826.75   84.59   1
   3   1  -7 1914.06   94.46   1
   3   1   7 1275.62   78.62   1
   3   1   7 1725.72   73.02   1
   3   1   7 1589.57   94.49   1
   3   1   7 1537.44   77.55   1
   3   1   7 1375.73   90.18   1
  -3  -1  -8  857.47   57.94   1
  -3  -1   8  835.18   61.89   1
  -3  -1   8  746.36   71.81   1
  -3  -1   8  740.74   78.34   1
  -1   3  -8  791.48   55.95   1
  -1   3  -8  891.50   70.44   1
  -1   3  -8  726.13   61.27   1
  -1   3   8  605.52   60.41   1
   1  -3  -8  879.77   70.05   1
   1  -3  -8  755.55   65.95   1
   1  -3  -8  859.94   81.69   1
   1  -3   8  833.44   77.01   1
   1  -3   8  762.20   70.44   1
   1  -3   8  868.42   69.21   1
   1  -3   8  840.94   68.11   1
   1  -3   8  889.17   67.68   1
   3   1  -8  844.69   64.56   1
   3   1  -8  857.16   71.14   1
   3   1   8  633.45   63.28   1
   3   1   8  852.76   59.80   1
   3   1   8  784.45   75.14   1
   3   1   8  737.48   60.49   1
   3   1   8  687.01   69.61   1
  -3  -1  -912582.08  205.88   1
  -3  -1   912554.84  219.51   1
  -3  -1   911825.30  255.46   1
  -3  -1   910817.06  271.17   1
  -1   3  -911701.75  201.48   1
  -1   3  -912939.53  256.04   1
  -1   3  -911399.98  219.76   1
  -1   3   9 9495.14  222.57   1
   1  -3  -912166.24  236.34   1
   1  -3  -911658.97  227.79   1
   1  -3  -912203.81  263.93   1
   1  -3   911695.99  267.05   1
   1  -3   912277.86  244.02   1
   1  -3   911652.31  240.19   1
   1  -3   912611.00  228.68   1
   3   1  -912673.81  236.94   1
   3   1  -912658.63  256.02   1
   3   1   9 9032.95  217.88   1
   3   1   912966.54  225.48   1
   3   1   911036.28  262.18   1
   3   1   911889.57  224.92   1
   3   1   911601.65  247.88   1
  -3  -1 -10 1297.78   78.84   1
  -3  -1  10 1275.61   84.84   1
  -3  -1  10 1126.47   97.17   1
  -3  -1  10 1052.80  102.54   1
  -1   3 -10 1170.74   73.77   1
  -1   3 -10 1423.00   96.94   1
  -1   3 -10 1231.96   81.71   1
  -1   3  10  946.14   83.14   1
   1  -3 -10 1381.81   91.10   1
   1  -3 -10 1202.96   88.33   1
   1  -3 -10 1261.65  101.99   1
   1  -3  10 1122.32   97.34   1
   1  -3  10 1303.53   93.45   1
   1  -3  10 1421.26   91.87   1
   3   1 -10 1381.60   90.03   1
   3   1 -10 1308.60   94.75   1
   3   1  10  914.32   81.96   1
   3   1  10 1307.81   84.64   1
   3   1  10 1044.90   95.88   1
   3   1  10 1187.52   82.78   1
   3   1  10 1051.86   87.06   1
  -3  -1  11  127.07   45.71   1
  -3  -1  11  111.44   48.85   1
  -3  -1  11   39.41   44.71   1
  -1   3 -11   60.27   31.92   1
  -1   3 -11  102.07   41.10   1
  -1   3 -11   36.38   27.71   1
  -1   3  11   65.51   38.45   1
   1  -3 -11   62.22   35.72   1
   1  -3 -11   53.13   40.77   1
   1  -3  11   52.45   44.74   1
   1  -3  11   78.35   38.46   1
   1  -3  11   67.92   39.82   1
   3   1 -11   91.57   37.97   1
   3   1 -11   68.79   36.81   1
   3   1  11   53.08   37.69   1
   3   1  11  101.65   40.38   1
   3   1  11   76.13   44.37   1
   3   1  11   78.03   34.31   1
   3   1  11   64.89   38.87   1
  -3  -1  12 9049.40  230.67   1
  -3  -1  12 9098.19  271.93   1
  -3  -1  12 8698.87  287.42   1
  -1   3 -12 8724.27  204.94   1
  -1   3  12 6692.87  223.12   1
   1  -3 -12 9513.13  237.25   1
   1  -3 -12 8867.30  262.09   1
   1  -3  12 8040.69  259.16   1
   1  -3  12 8600.25  248.59   1
   1  -3  12 8814.06  231.06   1
   3   1 -12 9095.32  235.46   1
   3   1  12 6636.90  220.33   1
   3   1  12 9334.77  237.62   1
   3   1  12 7584.85  258.52   1
   3   1  12 8058.44  230.15   1
  -3  -1  13 1794.32  122.19   1
  -3  -1  13 1807.90  145.95   1
  -3  -1  13 1651.50  148.61   1
  -1   3 -13 1478.00  101.70   1
  -1   3  13 1268.74  114.32   1
   1  -3 -13 1865.67  121.39   1
   1  -3 -13 1683.64  137.98   1
   1  -3  13 1568.85  134.37   1
   1  -3  13 1652.81  127.55   1
   3   1 -13 1515.84  113.58   1
   3   1 -13 1800.45  132.89   1
   3   1  13 1387.38  116.00   1
   3   1  13 1824.11  120.90   1
   3   1  13 1332.10  130.18   1
   3   1  13 1429.42  113.19   1
  -3  -1  14   83.66   57.68   1
  -3  -1  14   47.74   63.74   1
  -1   3  14   69.23   51.19   1
   1  -3 -14   86.88   53.81   1
   1  -3 -14   61.52   59.05   1
   1  -3  14  116.50   66.03   1
   1  -3  14   92.30   53.13   1
   3   1 -14  115.84   49.14   1
   3   1 -14   67.15   53.52   1
   3   1  14   19.93   44.60   1
   3   1  14  108.06   53.90   1
   3   1  14   84.29   59.68   1
  -3  -1  15 2683.19  162.90   1
  -3  -1  15 2569.66  200.00   1
  -1   3  15 2202.52  158.13   1
   1  -3 -15 2948.39  156.70   1
   1  -3 -15 2577.67  182.73   1
   1  -3  15 2629.45  185.99   1
   1  -3  15 2420.59  165.06   1
   3   1 -15 2805.82  159.14   1
   3   1 -15 2684.80  177.41   1
   3   1  15 2095.47  151.97   1
   3   1  15 2771.12  162.90   1
   3   1  15 2233.57  179.00   1
  -3  -1  16 1516.04  166.44   1
  -3  -1  16 1434.68  202.13   1
  -1   3  16 1068.16  148.26   1
   1  -3 -16 1673.16  153.79   1
   1  -3 -16 1570.05  186.05   1
   1  -3  16 1612.19  189.48   1
   1  -3  16 1346.25  152.68   1
   3   1 -16 1655.57  158.81   1
   3   1 -16 1647.70  168.78   1
   3   1  16 1105.39  131.81   1
  -3  -1  17  920.03  157.69   1
  -1   3  17  756.72  132.56   1
   1  -3 -17  915.82  173.37   1
   1  -3  17  894.20  169.46   1
   3   1 -17 1154.07  150.22   1
   3   1 -17  982.55  157.32   1
  -1   3  18  195.62  107.48   1
   1  -3 -18  116.42  140.48   1
   1  -3  18  132.26  129.42   1
   3   1 -18  236.11  111.91   1
   3   1 -18  208.57  120.83   1
   1  -3 -19  851.08  185.59   1
   1  -3  19  727.63  174.27   1
   3   1 -19  638.11  138.48   1
   3   1 -19  945.36  172.94   1
   1  -3  20 1630.35  219.47   1
   3   1 -20 2507.06  255.62   1
  -3  -2   0    5.92   14.52   1
  -3  -2   0  -15.57   28.46   1
  -3  -2   0   33.25   30.60   1
  -2   3   0    0.57   12.32   1
  -2   3   0   17.34   16.16   1
   2  -3   0   36.98   26.59   1
   2  -3   0   30.58   25.66   1
   2  -3   0    8.24   28.93   1
   3   2   0   19.05   21.93   1
   3   2   0   -3.77   24.90   1
  -3  -2  -1  598.28   43.68   1
  -3  -2  -1  659.70   84.08   1
  -3  -2   1  488.52   42.80   1
  -3  -2   1  597.45   69.18   1
  -3  -2   1  535.28   74.67   1
  -2   3  -1  628.52   44.77   1
  -2   3  -1  522.97   44.37   1
  -2   3   1  598.31   44.02   1
  -2   3   1  579.50   43.61   1
   2  -3  -1  608.78   54.41   1
   2  -3  -1  540.14   61.15   1
   2  -3  -1  621.53   75.28   1
   2  -3   1  576.70   57.25   1
   2  -3   1  609.31   70.25   1
   3   2  -1  573.68   50.42   1
   3   2   1  530.95   55.28   1
   3   2   1  733.33   56.34   1
  -3  -2  -2  429.33   38.24   1
  -3  -2  -2  371.29   75.21   1
  -3  -2   2  406.78   42.51   1
  -3  -2   2  482.18   66.55   1
  -3  -2   2  270.24   54.13   1
  -2   3  -2  461.18   39.62   1
  -2   3  -2  406.63   41.88   1
  -2   3   2  442.57   39.63   1
  -2   3   2  388.80   36.36   1
   2  -3  -2  429.85   48.23   1
   2  -3  -2  392.88   63.42   1
   2  -3  -2  461.03   77.03   1
   2  -3   2  453.74   51.66   1
   2  -3   2  472.20   73.60   1
   3   2  -2  475.81   39.85   1
   3   2  -2  382.73   40.56   1
   3   2   2  349.02   52.81   1
   3   2   2  448.35   38.48   1
   3   2   2  468.45   82.26   1
  -3  -2  -3 4424.39   98.28   1
  -3  -2   3 4955.96  126.91   1
  -3  -2   3 4856.91  153.75   1
  -3  -2   3 4075.59  159.53   1
  -2   3  -3 4987.12  116.28   1
  -2   3  -3 4797.72  127.54   1
  -2   3   3 4876.50  118.65   1
  -2   3   3 4740.64  107.54   1
   2  -3  -3 5111.41  139.85   1
   2  -3  -3 4719.43  194.84   1
   2  -3   3 5129.30  314.55   1
   2  -3   3 4857.42  139.28   1
   2  -3   3 5440.10  121.40   1
   2  -3   3 4933.32  173.63   1
   3   2  -3 5189.18  119.26   1
   3   2  -3 5043.10  122.97   1
   3   2   3 3933.81  110.81   1
   3   2   3 4368.84  144.71   1
   3   2   3 5107.82   98.64   1
   3   2   3 4529.97  227.00   1
  -3  -2  -4 1251.31   54.06   1
  -3  -2   4 1109.07   66.28   1
  -3  -2   4 1269.75   87.21   1
  -3  -2   4 1111.44   93.61   1
  -2   3  -4 1259.20   61.42   1
  -2   3  -4 1168.40   68.40   1
  -2   3   4 1287.42   64.75   1
  -2   3   4 1177.82   54.25   1
  -2   3   4 1234.41   62.07   1
   2  -3  -4 1401.06   79.25   1
   2  -3  -4 1421.97   93.49   1
   2  -3  -4 1233.73  111.33   1
   2  -3   4 1185.22  139.02   1
   2  -3   4 1251.22   65.38   1
   2  -3   4 1232.98   75.87   1
   2  -3   4 1299.58   66.42   1
   2  -3   4 1362.30   97.26   1
   3   2  -4 1302.10   65.40   1
   3   2  -4 1221.58   65.93   1
   3   2   4 1052.78   63.10   1
   3   2   4  971.93   75.84   1
   3   2   4 1290.54   53.05   1
   3   2   4 1193.45  123.12   1
  -3  -2  -5 3003.02   93.51   1
  -3  -2   5 2671.75  101.61   1
  -3  -2   5 2760.74  122.48   1
  -3  -2   5 2592.66  138.52   1
  -2   3  -5 2865.71   91.40   1
  -2   3  -5 2659.37  103.11   1
  -2   3   5 2916.75   95.42   1
  -2   3   5 2767.51   95.36   1
   2  -3  -5 3153.90  117.34   1
   2  -3  -5 2827.06  126.23   1
   2  -3  -5 2843.00  148.45   1
   2  -3   5 2869.83  169.64   1
   2  -3   5 2857.23  100.80   1
   2  -3   5 2744.45  110.64   1
   2  -3   5 2851.98  101.14   1
   2  -3   5 2865.59  133.22   1
   3   2  -5 3081.20  101.96   1
   3   2  -5 2942.42  103.46   1
   3   2   5 2170.30   91.24   1
   3   2   5 2392.65  116.98   1
   3   2   5 2867.88   78.67   1
   3   2   5 2416.75  125.97   1
  -3  -2  -6 6417.87  103.15   1
  -3  -2   6 5805.14  151.99   1
  -3  -2   6 5655.73  175.69   1
  -3  -2   6 5409.61  199.72   1
  -2   3  -6 6219.49  136.18   1
  -2   3  -6 6194.92  159.81   1
  -2   3   6 5907.97  158.66   1
  -2   3   6 5830.10  145.70   1
   2  -3  -6 6486.14  169.96   1
   2  -3  -6 6480.87  186.78   1
   2  -3  -6 6162.84  207.32   1
   2  -3   6 5589.47  215.17   1
   2  -3   6 6066.22  153.96   1
   2  -3   6 5727.11  162.30   1
   2  -3   6 6185.31  155.62   1
   3   2  -6 6251.34  150.21   1
   3   2  -6 6680.65  160.98   1
   3   2   6 4601.68  137.03   1
   3   2   6 5381.05  179.74   1
   3   2   6 6122.07  119.47   1
   3   2   6 5067.69  158.84   1
  -3  -2   7  291.11   48.21   1
  -3  -2   7  226.91   53.48   1
  -3  -2   7  187.55   58.22   1
  -2   3  -7  262.19   39.67   1
  -2   3  -7  285.29   48.34   1
  -2   3   7  227.01   44.32   1
   2  -3  -7  294.25   52.14   1
   2  -3  -7  300.85   58.06   1
   2  -3  -7  276.96   62.55   1
   2  -3   7  207.54   61.51   1
   2  -3   7  266.81   47.42   1
   2  -3   7  212.19   44.84   1
   2  -3   7  334.65   52.40   1
   3   2  -7  323.83   47.56   1
   3   2  -7  457.66   53.85   1
   3   2   7  277.91   48.00   1
   3   2   7  182.51   50.72   1
   3   2   7  265.01   36.36   1
   3   2   7  206.86   46.62   1
  -3  -2   8 2088.14  121.59   1
  -3  -2   8 1936.13  120.09   1
  -3  -2   8 1771.96  130.39   1
  -2   3  -8 1946.03   84.18   1
  -2   3  -8 1984.84  101.94   1
  -2   3   8 1808.78   97.78   1
   2  -3  -8 1961.09  105.38   1
   2  -3  -8 2016.32  115.60   1
   2  -3  -8 2077.86  130.23   1
   2  -3   8 1906.48  130.39   1
   2  -3   8 1952.06  103.77   1
   2  -3   8 2030.46  109.77   1
   2  -3   8 1879.60  101.27   1
   3   2  -8 2094.49   99.35   1
   3   2  -8 2300.26  108.71   1
   3   2   8 1535.74   91.83   1
   3   2   8 1849.64  121.71   1
   3   2   8 2004.37   81.25   1
  -3  -2   9 1159.60  105.63   1
  -3  -2   9  996.68  109.60   1
  -2   3  -9 1116.78   69.33   1
  -2   3  -9 1262.60   95.31   1
  -2   3  -9 1152.00   84.03   1
  -2   3   9 1018.66   87.82   1
   2  -3  -9 1137.98   88.93   1
   2  -3  -9 1196.81   98.49   1
   2  -3  -9 1268.63  112.10   1
   2  -3   9 1130.99  109.69   1
   2  -3   9 1165.68   90.61   1
   2  -3   9 1227.97   93.22   1
   2  -3   9 1225.53   89.93   1
   3   2  -9 1297.29   85.96   1
   3   2  -9 1257.46   89.34   1
   3   2   9  969.64   80.73   1
   3   2   9 1292.70   77.61   1
   3   2   9 1119.70  105.22   1
  -3  -2  10   28.19   42.40   1
  -3  -2  10   10.97   45.65   1
  -2   3 -10   84.25   32.78   1
  -2   3 -10   49.91   38.17   1
  -2   3 -10   62.15   32.48   1
  -2   3  10   36.50   33.67   1
   2  -3 -10   64.35   37.35   1
   2  -3 -10   16.92   36.53   1
   2  -3 -10   48.62   45.48   1
   2  -3  10   -2.13   41.88   1
   2  -3  10   18.46   32.56   1
   2  -3  10   23.96   36.16   1
   2  -3  10    3.69   29.03   1
   3   2 -10   24.26   29.92   1
   3   2 -10   47.42   33.28   1
   3   2  10   74.21   36.93   1
   3   2  10   40.57   31.33   1
   3   2  10   41.10   43.25   1
  -3  -2  11    3.11   46.40   1
  -3  -2  11   58.92   54.89   1
  -2   3 -11   60.73   34.57   1
  -2   3 -11   77.67   47.26   1
  -2   3 -11   32.58   33.23   1
  -2   3  11   39.20   39.69   1
   2  -3 -11   77.89   44.07   1
   2  -3 -11   57.10   45.27   1
   2  -3 -11   57.47   47.26   1
   2  -3  11   82.78   57.57   1
   2  -3  11   69.97   42.77   1
   2  -3  11   47.13   39.56   1
   2  -3  11   47.49   39.91   1
   3   2 -11   67.29   37.00   1
   3   2 -11   50.13   36.70   1
   3   2  11   22.49   33.68   1
   3   2  11   18.39   31.52   1
   3   2  11   71.05   52.57   1
  -3  -2  12  289.12   62.43   1
  -3  -2  12  237.82   75.34   1
  -3  -2  12  151.34   68.76   1
  -2   3 -12  257.95   56.23   1
  -2   3  12  236.46   64.92   1
   2  -3 -12  308.53   66.27   1
   2  -3 -12  264.60   76.02   1
   2  -3  12  206.26   80.70   1
   2  -3  12  209.10   64.36   1
   2  -3  12  297.52   70.81   1
   2  -3  12  191.36   59.01   1
   3   2 -12  238.63   56.64   1
   3   2  12  204.66   57.27   1
   3   2  12  295.13   61.61   1
   3   2  12  326.62   84.26   1
  -3  -2  13  116.10   53.62   1
  -3  -2  13   44.97   58.39   1
  -3  -2  13  111.60   70.75   1
  -2   3  13   84.68   54.17   1
   2  -3 -13   54.80   45.94   1
   2  -3 -13   76.95   64.07   1
   2  -3  13  120.91   69.83   1
   2  -3  13  142.78   61.09   1
   3   2 -13  112.73   49.04   1
   3   2  13   73.51   46.63   1
   3   2  13   55.06   44.65   1
   3   2  13   26.83   53.48   1
  -3  -2  14  853.99   99.69   1
  -3  -2  14  841.01  137.74   1
  -3  -2  14  717.68  128.73   1
  -2   3  14  635.62  110.26   1
   2  -3 -14  848.80  109.77   1
   2  -3 -14  835.94  130.00   1
   2  -3  14  791.98  136.08   1
   2  -3  14  833.04  115.92   1
   3   2 -14  924.48  104.72   1
   3   2  14  496.92   89.00   1
   3   2  14  804.43   97.66   1
   3   2  14  618.23  122.41   1
  -3  -2  15 1288.24  170.76   1
  -3  -2  15 1138.05  194.44   1
  -2   3  15 1167.99  136.70   1
   2  -3 -15 1473.31  139.40   1
   2  -3 -15 1659.36  181.84   1
   2  -3  15 1258.51  177.05   1
   2  -3  15 1542.76  149.21   1
   3   2 -15 1400.65  134.12   1
   3   2 -15 1534.32  141.64   1
   3   2  15 1032.52  121.80   1
  -2   3  16   23.73   76.63   1
   2  -3 -16   46.70   85.82   1
   2  -3 -16   52.06  110.77   1
   2  -3  16   20.84  114.37   1
   2  -3  16   -2.25   68.50   1
   3   2 -16    4.17   74.52   1
   3   2 -16  -73.18   56.11   1
   3   2  16   64.91   70.81   1
   2  -3 -17 1278.35  157.10   1
   2  -3 -17 1037.24  192.06   1
   2  -3  17 1116.63  204.56   1
   2  -3  17 1112.00  157.52   1
   3   2 -17 1390.17  164.36   1
   3   2 -17 1508.20  180.29   1
   3   2  17  990.98  142.49   1
   2  -3 -18  773.73  137.66   1
   2  -3 -18  657.57  186.71   1
   2  -3  18  833.49  200.57   1
   3   2 -18  734.87  141.59   1
   3   2 -18  881.23  153.03   1
   3   2  18  653.33  131.67   1
   2  -3 -19  138.43  167.48   1
   2  -3  19   24.58  153.76   1
   3   2 -19   91.12  111.32   1
   3   2 -19   96.40  111.36   1
   3   2  19   21.47   85.62   1
  -3  -3   0  622.67   52.93   1
  -3  -3   0  670.58   91.29   1
  -3  -3   0  653.13   76.47   1
  -3   3   0  681.58   51.24   1
  -3   3   0  742.97   55.11   1
   3  -3   0  712.43   61.60   1
   3  -3   0  688.49   75.07   1
   3  -3   0  664.12   48.66   1
   3  -3   0  768.57   84.61   1
  -3  -3  -1 8932.45  169.16   1
  -3  -3  -1 9808.99  256.73   1
  -3  -3   1 9108.84  179.01   1
  -3  -3   1 8754.38  236.56   1
  -3  -3   1 8063.55  225.05   1
  -3   3  -1 9730.62  176.24   1
  -3   3  -1 9333.87  180.76   1
  -3   3   1 9113.63  174.16   1
  -3   3   1 9094.53  168.16   1
   3  -3  -110150.36  203.11   1
   3  -3  -1 9660.05  234.24   1
   3  -3  -1 9586.39  249.43   1
   3  -3   1 9887.10  232.91   1
   3  -3   110029.89  171.80   1
   3  -3   110247.93  259.49   1
   3   3  -110309.01  167.07   1
   3   3  -1 9986.10  160.36   1
   3   3  -1 8325.36  171.26   1
  -3  -3  -2 9798.36  173.35   1
  -3  -3  -210293.38  276.17   1
  -3  -3   210829.75  199.87   1
  -3  -3   210716.79  263.99   1
  -3  -3   2 9472.69  254.42   1
  -3   3  -211497.00  190.31   1
  -3   3  -210206.49  194.47   1
  -3   3   210547.11  189.91   1
  -3   3   211037.68  179.57   1
   3  -3  -212094.35  225.00   1
   3  -3  -210982.32  262.71   1
   3  -3  -211592.38  290.13   1
   3  -3   211759.47  257.10   1
   3  -3   210874.09  186.19   1
   3  -3   211743.74  295.53   1
   3   3  -211863.90  186.84   1
   3   3  -211093.67  170.89   1
   3   3  -2 9740.08  184.06   1
   3   3   2 8945.09  162.13   1
   3   3   2 8914.35  225.16   1
   3   3   211563.75  318.45   1
  -3  -3  -3   94.84   26.44   1
  -3  -3  -3  149.84   67.81   1
  -3  -3   3  135.53   35.66   1
  -3  -3   3  120.57   49.31   1
  -3  -3   3  148.22   59.29   1
  -3   3  -3  143.14   30.14   1
  -3   3  -3  120.41   31.86   1
  -3   3   3  109.20   29.42   1
  -3   3   3  111.39   26.03   1
   3  -3  -3  137.31   38.15   1
   3  -3  -3  147.63   56.07   1
   3  -3  -3  127.67   56.13   1
   3  -3   3  156.98   70.62   1
   3  -3   3  164.25   32.71   1
   3  -3   3  111.81   42.29   1
   3  -3   3  136.73   32.39   1
   3  -3   3  112.10   55.82   1
   3   3  -3  121.91   28.95   1
   3   3  -3  104.66   26.24   1
   3   3  -3  142.97   32.11   1
   3   3   3   78.78   26.61   1
   3   3   3  111.93   42.43   1
  -3  -3  -4 3661.03  105.02   1
  -3  -3   4 3578.60  125.19   1
  -3  -3   4 3747.46  173.20   1
  -3  -3   4 2963.80  179.48   1
  -3   3  -4 3847.88  111.91   1
  -3   3  -4 3530.61  123.95   1
  -3   3   4 3762.03  118.93   1
  -3   3   4 3695.62  105.53   1
   3  -3  -4 4203.92  141.51   1
   3  -3  -4 4241.81  169.46   1
   3  -3  -4 4017.29  201.64   1
   3  -3   4 3910.26  225.50   1
   3  -3   4 3573.49  108.66   1
   3  -3   4 4000.23  161.18   1
   3  -3   4 3910.10  124.89   1
   3  -3   4 3745.11  207.20   1
   3   3  -4 4057.04  120.08   1
   3   3  -4 4140.16  115.48   1
   3   3  -4 3481.08  111.03   1
   3   3   4 3100.13  106.06   1
   3   3   4 3437.50  158.01   1
  -3  -3  -5 4610.87  116.69   1
  -3  -3   5 5061.20  152.73   1
  -3  -3   5 5060.34  202.69   1
  -3  -3   5 5113.28  254.18   1
  -3   3  -5 5375.81  133.18   1
  -3   3  -5 5002.44  151.39   1
  -3   3   5 5292.01  142.66   1
  -3   3   5 5059.44  131.73   1
   3  -3  -5 5877.30  171.55   1
   3  -3  -5 5397.22  193.98   1
   3  -3  -5 5254.45  229.06   1
   3  -3   5 5775.14  260.39   1
   3  -3   5 4793.10  133.78   1
   3  -3   5 5013.95  181.56   1
   3  -3   5 5479.20  154.63   1
   3  -3   5 5150.65  236.66   1
   3   3  -5 5234.59  142.05   1
   3   3  -5 5623.45  141.28   1
   3   3  -5 5039.06  132.70   1
   3   3   5 4158.13  128.52   1
   3   3   5 4453.27  187.12   1
  -3  -3  -6 4084.33  109.94   1
  -3  -3   6 4186.35  145.01   1
  -3  -3   6 4339.07  195.24   1
  -3  -3   6 3999.91  234.40   1
  -3   3  -6 3930.15  116.75   1
  -3   3  -6 3995.28  140.41   1
  -3   3   6 4122.45  128.54   1
  -3   3   6 3979.42  125.98   1
   3  -3  -6 4481.34  155.35   1
   3  -3  -6 4491.21  181.83   1
   3  -3  -6 3934.02  198.03   1
   3  -3   6 4393.21  222.00   1
   3  -3   6 4003.48  131.57   1
   3  -3   6 4168.13  169.59   1
   3  -3   6 4344.80  145.97   1
   3  -3   6 3914.69  203.98   1
   3   3  -6 4472.15  137.85   1
   3   3  -6 4831.28  139.19   1
   3   3  -6 3903.00  117.57   1
   3   3   6 3533.49  125.40   1
   3   3   6 3411.39  175.70   1
  -3  -3  -7 1220.92   65.12   1
  -3  -3   7 1125.10   86.58   1
  -3  -3   7 1160.98  118.65   1
  -3  -3   7 1267.46  153.30   1
  -3   3  -7 1199.56   70.14   1
  -3   3  -7 1226.25   86.51   1
  -3   3   7 1256.44   76.50   1
  -3   3   7 1172.15   78.54   1
   3  -3  -7 1359.16   95.06   1
   3  -3  -7 1223.22  109.69   1
   3  -3  -7 1266.77  125.79   1
   3  -3   7 1471.53  136.99   1
   3  -3   7 1299.48   85.30   1
   3  -3   7 1307.37  105.31   1
   3  -3   7 1293.78   89.15   1
   3   3  -7 1342.93   83.03   1
   3   3  -7 1336.11   82.22   1
   3   3  -7 1149.88   68.24   1
   3   3   7  961.34   73.94   1
   3   3   7 1082.60  117.20   1
  -3  -3   8  476.95   73.59   1
  -3  -3   8  615.65  102.03   1
  -3  -3   8  552.86  114.98   1
  -3   3  -8  644.55   58.31   1
  -3   3  -8  680.04   71.89   1
  -3   3   8  605.29   65.09   1
   3  -3  -8  714.47   79.10   1
   3  -3  -8  565.00   88.84   1
   3  -3  -8  575.59  100.13   1
   3  -3   8  606.41   82.85   1
   3  -3   8  931.09  116.37   1
   3  -3   8  567.62   66.49   1
   3  -3   8  724.13  100.15   1
   3  -3   8  660.43   73.87   1
   3   3  -8  779.32   69.82   1
   3   3  -8  640.75   66.38   1
   3   3  -8  607.41   53.52   1
   3   3   8  502.14   70.28   1
   3   3   8  547.79   98.00   1
  -3  -3   9 9409.90  305.65   1
  -3  -3   9 9581.48  347.26   1
  -3   3  -9 9017.92  190.88   1
  -3   3  -9 9362.88  232.94   1
  -3   3   9 8371.28  219.14   1
   3  -3  -9 9979.98  251.92   1
   3  -3  -9 9438.96  273.84   1
   3  -3  -9 9516.68  308.31   1
   3  -3   9 9584.71  320.30   1
   3  -3   9 8808.69  230.20   1
   3  -3   9 9164.76  268.25   1
   3  -3   9 9159.09  245.68   1
   3   3  -910027.56  232.43   1
   3   3  -9 9874.43  231.99   1
   3   3   9 7786.92  215.71   1
   3   3   9 8488.72  302.95   1
  -3  -3  10  934.39  131.36   1
  -3  -3  10  871.12  137.84   1
  -3   3 -10  946.55   89.72   1
  -3   3  10  865.89  102.92   1
  -3   3  10  880.77   87.87   1
   3  -3 -10 1052.13   98.93   1
   3  -3 -10  998.37  112.73   1
   3  -3 -10  988.15  133.77   1
   3  -3  10 1036.25  128.81   1
   3  -3  10 1036.40   95.35   1
   3  -3  10  860.45  101.25   1
   3  -3  10  994.85   98.57   1
   3   3 -10 1039.13   89.58   1
   3   3 -10  980.78   87.09   1
   3   3  10  837.68   85.46   1
   3   3  10  832.11  131.85   1
  -3  -3  11  106.89   68.70   1
  -3  -3  11  119.99   71.19   1
  -3   3 -11   79.48   41.28   1
  -3   3  11   62.90   49.97   1
  -3   3  11   54.14   42.48   1
   3  -3 -11  105.75   49.98   1
   3  -3 -11   99.51   66.05   1
   3  -3 -11   37.25   56.42   1
   3  -3  11   78.41   69.19   1
   3  -3  11   18.82   36.71   1
   3  -3  11  105.99   54.92   1
   3  -3  11  108.96   48.82   1
   3   3 -11  108.24   44.00   1
   3   3  11   52.98   39.37   1
   3   3  11   40.75   63.01   1
  -3  -3  12 7040.25  304.54   1
  -3  -3  12 7351.56  303.00   1
  -3   3 -12 7113.82  223.07   1
  -3   3  12 6046.67  255.86   1
   3  -3 -12 7768.57  248.73   1
   3  -3 -12 6835.24  290.67   1
   3  -3  12 7212.36  308.11   1
   3  -3  12 7059.60  243.65   1
   3  -3  12 7117.41  268.16   1
   3  -3  12 7491.09  261.26   1
   3   3 -12 7383.08  228.40   1
   3   3  12 5823.34  218.81   1
   3   3  12 6232.77  287.87   1
  -3  -3  13 1382.03  181.94   1
  -3  -3  13 1358.01  157.69   1
  -3   3 -13 1168.91  109.55   1
  -3   3  13 1120.08  137.68   1
   3  -3 -13 1331.82  124.19   1
   3  -3 -13 1187.32  161.05   1
   3  -3  13 1299.47  161.20   1
   3  -3  13 1108.38  117.39   1
   3  -3  13 1413.97  144.30   1
   3  -3  13 1321.38  134.06   1
   3   3 -13 1437.76  117.98   1
   3   3  13  952.11  108.17   1
   3   3  13 1335.19  162.41   1
  -3  -3  14  100.47   91.13   1
  -3  -3  14   52.76   84.94   1
  -3   3  14   62.18   67.91   1
   3  -3 -14   87.27   60.22   1
   3  -3 -14   40.52   76.76   1
   3  -3  14   16.35   75.41   1
   3  -3  14   49.67   56.83   1
   3  -3  14  -28.70   42.76   1
   3   3 -14   94.27   58.16   1
   3   3  14   45.40   48.95   1
  -3  -3  15 2317.77  258.20   1
  -3   3  15 2138.13  332.40   1
   3  -3 -15 2205.61  182.22   1
   3  -3 -15 1807.02  222.01   1
   3  -3  15 2284.49  242.76   1
   3  -3  15 2358.45  194.39   1
   3   3 -15 2344.76  175.89   1
   3   3  15 1655.54  158.01   1
  -3  -3  16  996.33  206.25   1
   3  -3 -16 1189.28  154.43   1
   3  -3 -16 1120.53  203.24   1
   3  -3  16 1310.76  231.93   1
   3  -3  16 1121.69  161.64   1
   3   3 -16 1307.36  156.70   1
   3   3  16  987.79  148.00   1
   3  -3 -17  806.04  140.18   1
   3  -3 -17  703.25  196.45   1
   3  -3  17  976.94  223.87   1
   3  -3  17  672.21  146.33   1
   3   3 -17  878.40  142.22   1
   3   3  17  815.97  148.53   1
   3  -3 -18  299.98  114.30   1
   3  -3 -18  153.90  170.20   1
   3  -3  18  169.87  176.21   1
   3  -3  18  133.41  109.41   1
   3   3 -18  199.48  110.36   1
   3   3  18  119.27   96.25   1
   3  -3 -19  727.74  158.99   1
   3  -3 -19  661.37  200.16   1
   3  -3  19  543.15  215.14   1
   3   3 -19  602.99  137.38   1
   3   3  19  473.60  117.48   1
  -4   3   0   56.82   24.70   1
  -4   3   0   17.66   21.40   1
  -3  -4   0   -1.50   22.81   1
  -3  -4   0    7.12   39.45   1
  -3  -4   0    3.54   34.85   1
   3   4   0    4.14   19.72   1
   4  -3   0   29.94   35.24   1
   4  -3   0   13.12   19.88   1
   4  -3   0   17.91   33.19   1
  -4   3  -1  380.91   46.55   1
  -4   3  -1  413.25   51.15   1
  -4   3   1  322.63   47.78   1
  -4   3   1  414.39   48.29   1
  -3  -4  -1  271.07   47.16   1
  -3  -4  -1  255.39   68.13   1
  -3  -4   1  289.45   49.88   1
  -3  -4   1  350.57   75.92   1
  -3  -4   1  372.08   74.77   1
   3   4  -1  382.87   43.50   1
   3   4  -1  317.78   51.22   1
   3   4   1  321.16   47.76   1
   4  -3  -1  500.10   66.61   1
   4  -3  -1  425.00   74.01   1
   4  -3  -1  400.90   48.23   1
   4  -3  -1  381.59   75.43   1
   4  -3   1  435.74   77.00   1
   4  -3   1  439.50   59.34   1
   4  -3   1  403.28   71.01   1
  -4   3  -2  249.46   41.84   1
  -4   3  -2  265.71   48.12   1
  -4   3   2  238.21   43.25   1
  -4   3   2  254.82   41.53   1
  -3  -4  -2  292.47   49.36   1
  -3  -4  -2  275.91   76.74   1
  -3  -4   2  271.29   49.02   1
  -3  -4   2  263.35   72.43   1
  -3  -4   2  194.25   59.93   1
   3   4  -2  216.23   38.99   1
   3   4  -2  278.19   47.59   1
   3   4   2  217.59   57.43   1
   4  -3  -2  194.75   44.68   1
   4  -3  -2  240.09   66.67   1
   4  -3  -2  220.38   41.21   1
   4  -3  -2  270.57   68.16   1
   4  -3   2  214.61   64.36   1
   4  -3   2  189.16   55.32   1
   4  -3   2  279.72   50.78   1
   4  -3   2  202.23   60.73   1
  -4   3  -3 3124.88  111.76   1
  -4   3  -3 3047.88  122.95   1
  -4   3   3 2945.18  116.12   1
  -4   3   3 3111.84  104.08   1
  -3  -4  -3 2907.51  112.53   1
  -3  -4  -3 2795.91  177.58   1
  -3  -4   3 2990.94  125.78   1
  -3  -4   3 3060.23  178.01   1
  -3  -4   3 2563.37  164.30   1
   3   4  -3 3359.76  117.05   1
   3   4  -3 2700.27  112.36   1
   3   4   3 2897.08  156.40   1
   4  -3  -3 2982.17  126.95   1
   4  -3  -3 3215.67  168.97   1
   4  -3  -3 3163.45  114.80   1
   4  -3  -3 3255.06  177.94   1
   4  -3   3 3284.03  168.15   1
   4  -3   3 3054.24  159.57   1
   4  -3   3 3030.44  120.39   1
   4  -3   3 3222.07  185.41   1
  -4   3  -4  794.55   60.40   1
  -4   3  -4  706.76   68.47   1
  -4   3   4  776.47   66.74   1
  -4   3   4  796.04   65.62   1
  -3  -4  -4  776.17   64.49   1
  -3  -4  -4  780.34  129.29   1
  -3  -4   4  723.14   73.38   1
  -3  -4   4  880.49  124.72   1
  -3  -4   4  670.02  124.80   1
   3   4  -4  840.25   65.84   1
   3   4  -4  730.83   64.52   1
   3   4   4  704.23   59.30   1
   3   4   4  730.47  108.48   1
   4  -3  -4  945.98   80.45   1
   4  -3  -4  722.83  109.61   1
   4  -3  -4  782.91  119.10   1
   4  -3   4  902.12  107.74   1
   4  -3   4  753.52   58.74   1
   4  -3   4  811.48   98.78   1
   4  -3   4  825.29   71.54   1
   4  -3   4  872.54  136.37   1
  -4   3  -5 1764.68   86.49   1
  -4   3  -5 1893.65  105.71   1
  -4   3   5 1922.00   99.47   1
  -4   3   5 1753.11   87.10   1
  -3  -4  -5 1910.71   92.72   1
  -3  -4   5 1613.98  102.94   1
  -3  -4   5 1775.73  160.87   1
  -3  -4   5 1379.16  207.47   1
   3   4  -5 2059.87  100.68   1
   3   4  -5 1845.19   85.84   1
   3   4  -5 1676.02   91.88   1
   3   4   5 1571.52   86.77   1
   3   4   5 1618.63  150.86   1
   4  -3  -5 2074.79  114.80   1
   4  -3  -5 1614.85  157.70   1
   4  -3   5 2187.69  157.34   1
   4  -3   5 1832.43   90.65   1
   4  -3   5 1729.64  136.71   1
   4  -3   5 1883.82  105.52   1
   4  -3   5 1959.39  225.39   1
  -4   3  -6 4188.26  130.42   1
  -4   3  -6 3796.62  149.34   1
  -4   3   6 4105.22  143.30   1
  -4   3   6 3981.77  134.15   1
  -3  -4  -6 4091.37  130.83   1
  -3  -4   6 4081.65  238.24   1
  -3  -4   6 3278.15  318.74   1
   3   4  -6 4619.35  152.88   1
   3   4  -6 4475.65  137.01   1
   3   4  -6 3925.69  135.93   1
   3   4   6 3495.76  130.78   1
   3   4   6 3448.41  232.84   1
   4  -3  -6 4413.23  167.40   1
   4  -3  -6 4360.92  200.59   1
   4  -3  -6 4099.54  233.90   1
   4  -3   6 4578.60  220.49   1
   4  -3   6 3766.29  134.36   1
   4  -3   6 3904.69  200.17   1
   4  -3   6 4370.93  162.94   1
  -4   3  -7  181.16   39.05   1
  -4   3  -7  155.48   44.73   1
  -4   3   7  188.98   44.29   1
  -4   3   7  161.82   44.57   1
  -3  -4  -7  207.89   43.26   1
  -3  -4   7  131.38   47.71   1
  -3  -4   7  224.44   92.59   1
  -3  -4   7  107.63  113.09   1
   3   4  -7  148.02   42.03   1
   3   4  -7  183.37   42.01   1
   3   4  -7  174.54   41.56   1
   3   4   7  153.08   44.66   1
   3   4   7  148.83   97.97   1
   4  -3  -7  196.72   53.58   1
   4  -3  -7  213.37   65.71   1
   4  -3  -7  194.61   83.65   1
   4  -3   7  202.63   74.92   1
   4  -3   7  145.98   42.71   1
   4  -3   7  130.15   58.72   1
   4  -3   7  187.50   51.50   1
   4  -3   7   99.38   97.42   1
  -4   3  -8 1369.24   84.23   1
  -4   3  -8 1297.82  100.51   1
  -4   3   8 1366.09   95.00   1
  -3  -4  -8 1334.48   81.63   1
  -3  -4   8 1277.84  183.05   1
  -3  -4   8 1062.21  179.40   1
   3   4  -8 1544.50  101.50   1
   3   4  -8 1546.90   96.36   1
   3   4  -8 1159.51   79.14   1
   3   4   8 1108.92   88.64   1
   3   4   8 1034.17  187.22   1
   4  -3  -8 1450.97  110.71   1
   4  -3  -8 1383.97  137.16   1
   4  -3  -8 1508.64  163.64   1
   4  -3   8 1476.62  141.51   1
   4  -3   8 1290.59   95.35   1
   4  -3   8 1268.52  134.92   1
   4  -3   8 1397.69  108.54   1
  -4   3  -9  936.68   86.68   1
  -4   3  -9  900.23   92.04   1
  -4   3   9  781.21   83.79   1
  -3  -4  -9  895.97   86.58   1
  -3  -4   9  813.61  154.50   1
  -3  -4   9  610.12  130.91   1
   3   4  -9  834.75   83.35   1
   3   4  -9  814.54   80.85   1
   3   4   9  693.52   79.22   1
   3   4   9  643.57  159.82   1
   4  -3  -9  905.41   96.89   1
   4  -3  -9  785.88  142.98   1
   4  -3  -9  731.79  133.48   1
   4  -3   9  872.33  135.98   1
   4  -3   9  775.05   84.63   1
   4  -3   9  767.01  121.58   1
   4  -3   9  915.62  100.62   1
  -4   3 -10   19.75   35.36   1
  -4   3  10   50.77   40.08   1
  -3  -4  10   95.92   93.97   1
  -3  -4  10   64.05   71.64   1
   3   4 -10   87.02   42.07   1
   3   4  10   19.10   32.48   1
   3   4  10  -43.76   73.58   1
   4  -3 -10   22.97   42.70   1
   4  -3 -10   -5.43   62.81   1
   4  -3  10   41.06   61.76   1
   4  -3  10   18.99   35.02   1
   4  -3  10   48.01   57.44   1
   4  -3  10   40.01   42.06   1
  -4   3 -11   35.40   40.31   1
  -4   3  11  127.57   77.41   1
  -4   3  11   40.40   42.07   1
  -3  -4  11   22.38   87.75   1
  -3  -4  11   41.32   67.41   1
   3   4 -11   33.11   38.23   1
   3   4  11   57.02   44.32   1
   3   4  11   53.16   80.97   1
   4  -3 -11   73.57   51.64   1
   4  -3 -11   58.76   77.30   1
   4  -3  11   69.96   65.13   1
   4  -3  11    6.05   37.56   1
   4  -3  11   51.76   62.68   1
   4  -3  11   81.89   50.43   1
  -4   3 -12  140.45   53.68   1
  -4   3  12  196.39   93.88   1
  -4   3  12  168.38   60.14   1
  -3  -4  12  226.48  122.06   1
  -3  -4  12  197.99   83.52   1
   3   4 -12  156.55   58.95   1
   3   4  12  229.42   66.99   1
   3   4  12  203.28   93.44   1
   4  -3 -12  223.64   70.17   1
   4  -3 -12  176.00   92.35   1
   4  -3  12  273.42   95.75   1
   4  -3  12  203.53   66.24   1
   4  -3  12  158.08   88.95   1
   4  -3  12  199.55   72.06   1
  -4   3 -13   85.69   49.84   1
  -4   3  13  -34.17   69.62   1
  -3  -4  13   92.38  117.61   1
   3   4 -13   72.47   54.37   1
   3   4  13   44.65   54.08   1
   4  -3 -13   31.78   58.84   1
   4  -3 -13  101.34   94.06   1
   4  -3  13   21.00   73.47   1
   4  -3  13   38.55   54.59   1
   4  -3  13   53.08   63.12   1
  -3  -4  14  610.65  209.00   1
   3   4 -14  581.15  109.93   1
   3   4  14  412.12  102.29   1
   4  -3 -14  614.13  119.21   1
   4  -3 -14  562.12  164.85   1
   4  -3  14  587.81  145.12   1
   4  -3  14  648.06  126.59   1
   4  -3  14  640.23  127.71   1
  -3  -4  15  820.27  247.24   1
   3   4 -15 1087.26  144.53   1
   3   4  15 1001.42  151.54   1
   4  -3 -15  997.36  150.57   1
   4  -3 -15 1016.76  212.16   1
   4  -3  15 1185.58  205.45   1
   4  -3  15  915.94  143.14   1
   4  -3  15 1093.05  160.92   1
  -3  -4  16    6.85  222.47   1
   3   4 -16  -44.07   89.99   1
   3   4  16   65.51   89.93   1
   4  -3 -16   -0.22   95.23   1
   4  -3 -16  -24.16  156.59   1
   4  -3  16  -47.80  117.99   1
   4  -3  16   36.55   94.62   1
   3   4 -17 1002.92  146.07   1
   3   4  17  854.12  145.12   1
   4  -3 -17 1200.73  162.34   1
   4  -3 -17  875.10  222.48   1
   4  -3  17 1223.57  213.24   1
   4  -3  17  812.58  159.56   1
   3   4 -18  656.45  135.06   1
   3   4  18  549.08  128.17   1
   4  -3 -18  514.23  125.05   1
   4  -3 -18  566.41  210.59   1
   4  -3  18  719.85  186.89   1
  -4   2   019144.67  253.42   1
  -4   2   015910.60  233.25   1
  -2  -4   018678.53  272.64   1
  -2  -4   018239.54  365.09   1
   2   4   020535.59  242.62   1
   2   4   017283.83  260.56   1
   4  -2   018282.22  344.80   1
   4  -2   020011.39  286.96   1
   4  -2   021178.86  362.98   1
  -4   2  -1  732.59   54.03   1
  -4   2  -1  626.05   54.47   1
  -4   2   1  665.55   54.12   1
  -4   2   1  794.50   55.67   1
  -2  -4  -1  696.50   61.12   1
  -2  -4  -1  673.09  102.24   1
  -2  -4   1  671.03   62.49   1
  -2  -4   1  635.05   96.83   1
  -2  -4   1  624.55   88.55   1
   2   4  -1  807.38   53.96   1
   2   4  -1  671.87   57.38   1
   2   4   1  695.31   58.97   1
   4  -2  -1  804.80   63.53   1
   4  -2  -1  652.38   89.19   1
   4  -2  -1  762.83   64.19   1
   4  -2  -1  730.33   86.37   1
   4  -2   1  763.68   88.30   1
   4  -2   1  634.36   59.23   1
   4  -2   1  752.65   87.49   1
  -4   2  -2  329.47   39.36   1
  -4   2  -2  320.05   46.76   1
  -4   2   2  265.41   41.81   1
  -4   2   2  328.85   38.94   1
  -4   2   2  387.97   41.75   1
  -2  -4  -2  319.73   48.65   1
  -2  -4  -2  402.78   89.53   1
  -2  -4   2  260.43   46.85   1
  -2  -4   2  311.76   78.25   1
  -2  -4   2  312.34   73.70   1
   2   4  -2  327.11   39.74   1
   2   4  -2  288.04   43.73   1
   2   4   2  285.53   46.12   1
   4  -2  -2  402.89   57.03   1
   4  -2  -2  287.12   69.58   1
   4  -2  -2  382.32   55.02   1
   4  -2  -2  303.86   70.83   1
   4  -2   2  397.99   70.86   1
   4  -2   2  316.15   37.14   1
   4  -2   2  352.52   74.89   1
   4  -2   2  307.54   52.74   1
   4  -2   2  291.95   71.43   1
  -4   2  -311729.67  189.30   1
  -4   2  -310880.41  212.77   1
  -4   2   311193.88  207.77   1
  -4   2   311244.01  176.40   1
  -4   2   311589.07  185.48   1
  -2  -4  -311072.78  204.72   1
  -2  -4  -310695.66  321.36   1
  -2  -4   310392.10  215.63   1
  -2  -4   310112.62  333.20   1
  -2  -4   310199.78  334.78   1
   2   4  -311534.33  201.43   1
   2   4  -313156.40  168.52   1
   2   4  -310388.81  203.90   1
   2   4   3 9643.28  162.07   1
   2   4   310343.74  287.17   1
   2   4   310352.72  207.80   1
   4  -2  -311765.32  224.66   1
   4  -2  -312518.68  297.32   1
   4  -2  -312718.34  231.47   1
   4  -2  -312609.80  334.97   1
   4  -2   312680.84  276.57   1
   4  -2   311762.89  188.56   1
   4  -2   311937.49  325.70   1
   4  -2   312299.06  240.78   1
   4  -2   311550.86  370.98   1
  -4   2  -4 2495.42   88.49   1
  -4   2  -4 2572.24  109.97   1
  -4   2   4 2830.72  109.72   1
  -4   2   4 2722.03   99.07   1
  -2  -4  -4 2924.40  108.24   1
  -2  -4   4 2711.04  117.51   1
  -2  -4   4 2516.49  209.55   1
  -2  -4   4 2308.15  227.15   1
   2   4  -4 2975.67  108.25   1
   2   4  -4 3017.66   90.52   1
   2   4  -4 2541.85  104.30   1
   2   4   4 2353.38   88.73   1
   2   4   4 2604.49  183.24   1
   4  -2  -4 2990.62  119.36   1
   4  -2  -4 3135.07  159.49   1
   4  -2  -4 3008.12  118.73   1
   4  -2  -4 3249.82  184.63   1
   4  -2   4 3296.87  146.85   1
   4  -2   4 2977.98  103.63   1
   4  -2   4 3275.19  194.99   1
   4  -2   4 2852.02  123.34   1
   4  -2   4 3383.75  272.77   1
  -4   2  -5 1420.01   68.40   1
  -4   2  -5 1448.22   88.34   1
  -4   2   5 1457.66   83.99   1
  -4   2   5 1483.75   80.47   1
  -2  -4  -5 1525.63   82.59   1
  -2  -4   5 1500.81   95.61   1
  -2  -4   5 1463.91  207.02   1
  -2  -4   5 1477.02  173.88   1
   2   4  -5 1696.85   86.58   1
   2   4  -5 1832.39   77.82   1
   2   4  -5 1466.98   82.05   1
   2   4   5 1340.39   73.29   1
   2   4   5 1246.03  175.87   1
   4  -2  -5 1556.99   92.75   1
   4  -2  -5 1542.49  121.00   1
   4  -2  -5 1664.55  139.70   1
   4  -2   5 1306.62  100.04   1
   4  -2   5 1816.39  113.23   1
   4  -2   5 1552.29   81.87   1
   4  -2   5 1409.20  146.94   1
   4  -2   5 1508.23   96.18   1
   4  -2   5 1798.11  201.21   1
  -4   2  -6 1648.65   73.54   1
  -4   2  -6 1723.05   99.43   1
  -4   2   6 1695.24   91.44   1
  -4   2   6 1793.91   92.97   1
  -2  -4  -6 1720.60   87.58   1
  -2  -4   6 1732.93  104.73   1
  -2  -4   6 1843.67  220.21   1
  -2  -4   6 1538.50  144.39   1
   2   4  -6 1811.34   93.04   1
   2   4  -6 1774.83   82.52   1
   2   4  -6 1621.61   87.45   1
   2   4   6 1445.01   80.43   1
   2   4   6 1330.98  183.57   1
   4  -2  -6 1751.32  100.90   1
   4  -2  -6 2053.70  137.51   1
   4  -2  -6 1826.05  145.80   1
   4  -2   6 1471.30  107.07   1
   4  -2   6 1821.55  115.02   1
   4  -2   6 1740.58   91.65   1
   4  -2   6 1631.95  156.73   1
   4  -2   6 1773.95  108.66   1
   4  -2   6 1954.24  178.36   1
  -4   2  -7 3969.60  111.64   1
  -4   2  -7 4417.27  157.54   1
  -4   2   7 4223.60  142.10   1
  -4   2   7 3923.92  140.81   1
  -2  -4  -7 4181.31  130.92   1
  -2  -4   7 4001.06  272.97   1
  -2  -4   7 3871.38  188.24   1
   2   4  -7 4768.74  152.18   1
   2   4  -7 4629.20  138.54   1
   2   4  -7 4103.66  135.27   1
   2   4   7 3668.25  132.00   1
   2   4   7 3867.26  225.63   1
   4  -2  -7 5024.86  169.52   1
   4  -2  -7 4591.09  198.20   1
   4  -2  -7 4642.43  217.39   1
   4  -2   7 3836.07  166.80   1
   4  -2   7 4631.62  179.54   1
   4  -2   7 4140.35  145.67   1
   4  -2   7 4014.76  221.35   1
   4  -2   7 4608.60  176.52   1
  -4   2  -8 5309.31  178.02   1
  -4   2   8 5094.31  158.81   1
  -4   2   8 4942.52  167.48   1
  -2  -4  -8 4828.55  142.62   1
  -2  -4   8 5638.33  306.05   1
  -2  -4   8 4866.77  196.82   1
   2   4  -8 5513.72  170.10   1
   2   4  -8 5676.27  162.71   1
   2   4  -8 4863.75  148.14   1
   2   4   8 4123.33  148.27   1
   2   4   8 4157.43  210.04   1
   4  -2  -8 5673.43  186.59   1
   4  -2  -8 5439.92  217.93   1
   4  -2  -8 5305.89  232.50   1
   4  -2   8 4111.52  176.60   1
   4  -2   8 5292.10  196.57   1
   4  -2   8 4880.41  167.46   1
   4  -2   8 4438.88  229.87   1
   4  -2   8 5057.09  193.84   1
  -4   2  -9  101.71   41.72   1
  -4   2   9   82.77   40.80   1
  -2  -4  -9  110.79   36.62   1
  -2  -4   9  179.27   93.19   1
   2   4  -9  111.88   40.23   1
   2   4  -9   87.76   34.20   1
   2   4  -9   72.86   30.66   1
   2   4   9   84.31   37.28   1
   4  -2  -9  100.68   46.17   1
   4  -2  -9   56.48   49.41   1
   4  -2  -9  105.96   60.49   1
   4  -2   9   95.16   51.73   1
   4  -2   9   41.80   43.79   1
   4  -2   9  104.33   44.24   1
   4  -2   9   44.00   53.40   1
   4  -2   9   71.28   43.99   1
  -4   2 -10 3084.48  148.25   1
  -4   2  10 2799.18  146.38   1
  -2  -4 -10 3057.24  120.50   1
  -2  -4  10 3009.60  238.93   1
   2   4 -10 3244.66  145.65   1
   2   4 -10 3328.53  142.93   1
   2   4  10 2367.17  129.52   1
   4  -2 -10 3510.91  161.31   1
   4  -2 -10 3102.78  194.00   1
   4  -2  10 2331.87  145.80   1
   4  -2  10 3161.29  168.13   1
   4  -2  10 2930.77  149.06   1
   4  -2  10 2800.65  191.70   1
   4  -2  10 2938.97  167.83   1
  -4   2 -11 6257.28  211.21   1
  -4   2  11 5457.40  263.27   1
  -4   2  11 6427.85  225.00   1
  -2  -4  11 6498.44  333.83   1
   2   4 -11 7015.17  216.19   1
   2   4  11 5664.13  204.25   1
   4  -2 -11 7873.45  244.06   1
   4  -2 -11 6730.29  281.62   1
   4  -2  11 5365.96  217.15   1
   4  -2  11 7369.07  259.38   1
   4  -2  11 5962.49  217.59   1
   4  -2  11 5446.78  262.28   1
   4  -2  11 6740.61  257.49   1
  -4   2 -12  105.90   50.44   1
  -4   2  12  125.69   77.41   1
  -4   2  12  123.67   58.96   1
  -2  -4  12  181.75  108.72   1
   2   4 -12   99.68   47.81   1
   2   4  12  130.82   53.88   1
   4  -2 -12  136.83   59.43   1
   4  -2 -12  116.11   71.57   1
   4  -2  12   84.36   52.79   1
   4  -2  12  186.46   72.31   1
   4  -2  12   75.85   50.81   1
   4  -2  12   71.28   67.33   1
   4  -2  12  127.74   63.13   1
  -4   2 -13 1218.48  116.68   1
  -4   2  13 1001.02  154.72   1
  -4   2  13 1158.82  123.45   1
  -2  -4  13 1392.35  208.66   1
   2   4 -13 1289.19  116.02   1
   2   4  13  930.00  105.36   1
   4  -2 -13 1443.28  129.56   1
   4  -2 -13 1327.96  161.68   1
   4  -2  13 1061.40  122.10   1
   4  -2  13 1402.35  140.21   1
   4  -2  13 1116.79  121.58   1
   4  -2  13 1135.28  165.96   1
   4  -2  13 1386.54  147.95   1
  -4   2  14 3333.65  199.58   1
  -2  -4  14 4215.38  314.91   1
   2   4 -14 3988.37  194.61   1
   2   4  14 3030.87  180.78   1
   4  -2 -14 4640.55  216.66   1
   4  -2 -14 3960.01  258.22   1
   4  -2  14 4544.42  237.17   1
   4  -2  14 3572.44  202.52   1
   4  -2  14 3855.62  232.83   1
  -4   2  15  384.54  110.66   1
  -2  -4  15  525.13  185.08   1
   2   4 -15  317.44   99.09   1
   2   4  15  322.86  102.72   1
   4  -2 -15  361.59  100.52   1
   4  -2 -15  246.12  131.10   1
   4  -2  15  381.18  118.07   1
   4  -2  15  225.50   90.51   1
   4  -2  15  413.45  123.87   1
  -2  -4  16  573.87  207.21   1
   2   4 -16  626.43  125.62   1
   2   4  16  567.36  124.22   1
   4  -2 -16  514.62  123.32   1
   4  -2 -16  684.40  176.52   1
   4  -2  16  763.93  151.40   1
   4  -2  16  515.80  126.72   1
   4  -2  16  680.85  150.14   1
   2   4 -17  776.02  140.94   1
   2   4  17  542.21  123.89   1
   4  -2 -17  735.30  138.81   1
   4  -2 -17  867.60  206.58   1
   4  -2  17  684.33  153.51   1
   4  -2  17  635.95  136.58   1
   4  -2  17  555.07  150.56   1
   2   4 -18 1270.58  168.38   1
   2   4  18 1292.83  174.07   1
   4  -2 -18 1419.96  168.57   1
   4  -2 -18 1501.63  243.86   1
   4  -2  18 1489.06  201.64   1
   2   4  19  407.71  118.55   1
   4  -2 -19  542.30  198.19   1
   4  -2  19  450.37  159.98   1
  -4   1   0    0.01   14.50   1
  -1  -4   0    0.95   18.62   1
  -1  -4   0  -41.60   35.12   1
   1   4   0   14.13   14.17   1
   1   4   0    6.34   16.23   1
   4  -1   0    3.59   27.82   1
   4  -1   0   -6.10   20.04   1
   4  -1   0    3.60   28.02   1
  -4   1  -1  452.75   40.68   1
  -4   1   1  590.39   47.88   1
  -4   1   1  468.70   43.96   1
  -1  -4  -1  453.42   51.30   1
  -1  -4  -1  453.35   88.24   1
  -1  -4   1  462.08   53.53   1
  -1  -4   1  559.12   91.53   1
   1   4  -1  614.18   46.37   1
   1   4  -1  550.51   29.23   1
   1   4  -1  404.55   44.79   1
   1   4   1  529.38   42.06   1
   1   4   1  467.58   48.08   1
   4  -1  -1  384.02   74.08   1
   4  -1  -1  492.94   63.99   1
   4  -1  -1  605.29   84.36   1
   4  -1   1  485.65   56.95   1
   4  -1   1  471.58   40.60   1
   4  -1   1  425.57   76.10   1
   4  -1   1  557.81   60.94   1
   4  -1   1  607.49   75.86   1
  -4   1  -2  270.21   33.54   1
  -4   1   2  311.56   41.53   1
  -4   1   2  328.79   40.64   1
  -1  -4  -2  350.09   50.04   1
  -1  -4  -2  388.30   84.99   1
  -1  -4   2  369.24   53.09   1
  -1  -4   2  284.54   81.89   1
   1   4  -2  319.91   37.33   1
   1   4  -2  393.17   29.69   1
   1   4  -2  292.79   44.55   1
   1   4   2  249.37   39.12   1
   4  -1  -2  385.82   45.99   1
   4  -1  -2  296.80   61.40   1
   4  -1  -2  375.49   57.87   1
   4  -1  -2  382.65   77.72   1
   4  -1   2  462.38   61.18   1
   4  -1   2  363.72   39.17   1
   4  -1   2  347.45   79.24   1
   4  -1   2  429.34   61.77   1
   4  -1   2  403.43   79.16   1
  -4   1  -3 4071.30  101.82   1
  -4   1   3 3980.06  119.23   1
  -4   1   3 3754.17  113.85   1
  -1  -4  -3 3646.92  119.86   1
  -1  -4   3 3944.19  132.65   1
  -1  -4   3 3299.77  250.05   1
   1   4  -3 4364.42  120.43   1
   1   4  -3 4766.80  100.63   1
   1   4  -3 3468.15  115.08   1
   1   4   3 3445.95   93.96   1
   1   4   3 4155.14  218.62   1
   1   4   3 3687.67  118.04   1
   4  -1  -3 4694.58  132.44   1
   4  -1  -3 4279.72  171.29   1
   4  -1  -3 4074.61  179.62   1
   4  -1   3 3498.02  143.01   1
   4  -1   3 4540.11  132.67   1
   4  -1   3 4077.50  115.48   1
   4  -1   3 3691.50  238.70   1
   4  -1   3 3853.26  143.16   1
   4  -1   3 4733.83  211.84   1
  -4   1  -4 1033.93   53.20   1
  -4   1   4 1112.84   68.92   1
  -4   1   4  925.22   64.33   1
  -1  -4  -4  992.70   67.89   1
  -1  -4   4 1075.55   78.36   1
  -1  -4   4 1062.02   61.55   1
  -1  -4   4 1069.23  181.60   1
   1   4  -4 1079.48   64.46   1
   1   4  -4 1140.31   56.34   1
   1   4  -4  947.53   65.14   1
   1   4   4  914.43   55.86   1
   1   4   4  704.77  141.95   1
   1   4   4  985.72   66.55   1
   4  -1  -4 1242.44   75.09   1
   4  -1  -4 1072.11   95.60   1
   4  -1  -4 1047.07  100.87   1
   4  -1   4  868.72   79.97   1
   4  -1   4 1160.72   73.22   1
   4  -1   4 1088.99   66.36   1
   4  -1   4  877.72  163.39   1
   4  -1   4 1063.31   83.77   1
   4  -1   4 1246.05  113.24   1
  -4   1  -5 2169.07   72.99   1
  -4   1   5 2335.36   99.27   1
  -4   1   5 2177.08   98.80   1
  -1  -4  -5 2134.00   95.98   1
  -1  -4   5 2202.80  109.54   1
  -1  -4   5 2546.54   92.32   1
  -1  -4   5 2655.85  215.54   1
   1   4  -5 2358.73   95.89   1
   1   4  -5 2693.57   91.03   1
   1   4  -5 2137.70   94.74   1
   1   4   5 1852.61   81.01   1
   1   4   5 2125.62   94.87   1
   4  -1  -5 2685.98  109.03   1
   4  -1  -5 2537.76  136.42   1
   4  -1  -5 2397.12  138.89   1
   4  -1   5 1822.36  108.64   1
   4  -1   5 2488.97  103.62   1
   4  -1   5 2270.11   98.10   1
   4  -1   5 1870.74  174.18   1
   4  -1   5 1998.80  113.23   1
   4  -1   5 2472.20  137.08   1
  -4   1  -6 5565.28  139.36   1
  -4   1   6 5125.15  147.82   1
  -4   1   6 5587.16  135.36   1
  -4   1   6 4791.10  150.23   1
  -1  -4  -6 5393.85  149.57   1
  -1  -4   6 5392.58  137.13   1
  -1  -4   6 5761.76  268.08   1
   1   4  -6 5485.99  148.96   1
   1   4  -6 5974.04  143.35   1
   1   4  -6 4726.57  140.15   1
   1   4   6 4113.51  126.14   1
   4  -1  -6 5421.97  157.64   1
   4  -1  -6 5430.09  194.33   1
   4  -1  -6 5590.77  200.37   1
   4  -1   6 3933.93  157.82   1
   4  -1   6 5652.42  158.54   1
   4  -1   6 4695.09  146.64   1
   4  -1   6 4515.20  224.54   1
   4  -1   6 5053.07  181.45   1
   4  -1   6 5631.17  189.51   1
  -4   1   7  230.81   44.71   1
  -4   1   7  238.86   50.49   1
  -1  -4  -7  235.10   45.72   1
  -1  -4   7  332.48   52.66   1
  -1  -4   7  247.27   77.95   1
   1   4  -7  195.88   40.83   1
   1   4  -7  284.46   45.42   1
   1   4  -7  217.59   42.08   1
   1   4   7  191.76   41.64   1
   4  -1  -7  245.17   48.83   1
   4  -1  -7  217.39   54.88   1
   4  -1  -7  211.92   57.68   1
   4  -1   7  178.49   51.16   1
   4  -1   7  212.61   49.01   1
   4  -1   7  252.08   48.11   1
   4  -1   7  200.04   65.09   1
   4  -1   7  242.16   61.63   1
  -4   1   8 1725.39   96.33   1
  -4   1   8 1686.78  105.51   1
  -1  -4  -8 1726.67   93.63   1
  -1  -4   8 1900.24   94.99   1
  -1  -4   8 1753.79  154.12   1
   1   4  -8 1964.46  100.05   1
   1   4  -8 2094.16  100.66   1
   1   4  -8 1606.40   89.05   1
   1   4   8 1428.41   88.13   1
   4  -1  -8 1790.30  103.42   1
   4  -1  -8 1804.13  125.00   1
   4  -1  -8 1824.89  128.53   1
   4  -1   8 1421.07  107.02   1
   4  -1   8 1775.32  102.30   1
   4  -1   8 1668.72  102.77   1
   4  -1   8 1498.13  131.61   1
   4  -1   8 1592.24  119.35   1
  -4   1  -9  929.90   86.08   1
  -4   1   9  955.83   90.61   1
  -1  -4  -9 1055.31   80.78   1
  -1  -4   9 1243.46   84.94   1
  -1  -4   9 1097.98  130.87   1
   1   4  -9 1113.35   83.38   1
   1   4  -9 1190.41   83.38   1
   1   4  -9  959.63   73.66   1
   1   4   9  854.98   76.37   1
   4  -1  -9 1078.33   88.61   1
   4  -1  -9  996.69  103.20   1
   4  -1  -9 1076.29  109.17   1
   4  -1   9  782.93   89.70   1
   4  -1   9 1238.83   92.16   1
   4  -1   9  985.75   88.66   1
   4  -1   9 1002.09  115.01   1
   4  -1   9  920.03  103.76   1
  -4   1 -10   32.17   34.48   1
  -4   1  10   48.51   40.27   1
  -1  -4 -10   35.42   34.76   1
  -1  -4  10   49.87   37.48   1
  -1  -4  10   18.38   55.30   1
   1   4 -10   26.80   29.87   1
   1   4 -10   34.51   31.45   1
   1   4 -10   14.86   25.89   1
   1   4  10    7.60   29.05   1
   4  -1 -10   37.01   34.43   1
   4  -1 -10    7.67   40.35   1
   4  -1 -10   39.78   43.80   1
   4  -1  10   37.58   40.90   1
   4  -1  10   98.49   43.88   1
   4  -1  10   28.53   33.25   1
   4  -1  10   28.63   46.98   1
   4  -1  10   49.86   47.01   1
  -4   1 -11   78.93   65.06   1
  -4   1 -11   31.19   35.21   1
  -4   1  11   20.10   47.51   1
  -4   1  11   92.90   50.78   1
  -1  -4 -11   87.44   40.92   1
  -1  -4  11  108.89   46.65   1
  -1  -4  11   72.67   64.55   1
   1   4 -11   69.11   39.19   1
   1   4  11   42.81   37.15   1
   4  -1 -11   64.86   43.74   1
   4  -1 -11   69.90   51.94   1
   4  -1  11   43.07   42.24   1
   4  -1  11   55.46   39.27   1
   4  -1  11   39.48   40.89   1
   4  -1  11   69.39   51.57   1
   4  -1  11   73.94   51.23   1
  -4   1 -12  178.49   54.97   1
  -4   1  12  195.91   68.16   1
  -4   1  12  258.91   73.42   1
  -1  -4 -12  272.03   58.09   1
  -1  -4  12  214.87   61.73   1
  -1  -4  12  250.06   85.65   1
   1   4 -12  255.77   61.51   1
   1   4  12  168.15   57.39   1
   4  -1 -12  225.37   61.26   1
   4  -1 -12  266.71   81.06   1
   4  -1  12  178.02   66.42   1
   4  -1  12  307.09   72.20   1
   4  -1  12  173.85   60.19   1
   4  -1  12  221.24   72.64   1
   4  -1  12  238.50   80.54   1
  -4   1 -13   43.54   59.65   1
  -4   1  13   92.23   63.49   1
  -4   1  13   82.58   57.83   1
  -1  -4  13   65.03   51.53   1
  -1  -4  13   56.99   69.86   1
   1   4 -13   77.04   48.06   1
   1   4  13   44.17   43.96   1
   4  -1 -13   52.65   45.33   1
   4  -1 -13   22.45   55.37   1
   4  -1  13   75.91   52.55   1
   4  -1  13   94.16   55.06   1
   4  -1  13  128.78   57.88   1
   4  -1  13  152.94   66.72   1
   4  -1  13   37.73   58.33   1
  -4   1  14  669.09  115.62   1
  -1  -4  14  762.99  110.25   1
  -1  -4  14  758.12  137.80   1
   1   4 -14  721.75  101.35   1
   1   4  14  433.01   86.32   1
   4  -1 -14  785.51  112.68   1
   4  -1 -14  654.78  123.07   1
   4  -1  14  591.12  110.81   1
   4  -1  14  726.40  114.16   1
   4  -1  14  532.14  105.77   1
   4  -1  14  730.53  132.92   1
  -4   1  15 1108.44  152.47   1
  -1  -4  15 1183.82  141.19   1
   1   4 -15 1311.37  153.50   1
   1   4  15  851.80  126.66   1
   4  -1 -15 1363.87  154.90   1
   4  -1 -15 1347.83  179.80   1
   4  -1  15 1278.40  156.75   1
   4  -1  15 1287.67  176.56   1
  -4   1  16   44.03   93.05   1
  -1  -4  16   56.86   94.93   1
   1   4 -16  -11.78   90.20   1
   1   4  16  -29.49   71.62   1
   4  -1 -16   -5.84   82.59   1
   4  -1 -16   23.47  102.00   1
   4  -1  16  -71.97   72.82   1
  -1  -4  17  979.21  152.54   1
   1   4 -17 1154.86  164.03   1
   1   4  17  953.81  146.52   1
   4  -1 -17 1179.98  160.63   1
   4  -1 -17 1042.97  185.14   1
   4  -1  17  930.08  159.27   1
  -1  -4  18  686.42  143.39   1
   1   4 -18  532.69  149.88   1
   1   4  18  726.04  143.82   1
   4  -1 -18  884.63  148.73   1
   4  -1 -18  736.44  182.28   1
   4  -1  18  556.65  133.37   1
   1   4  19   61.92   90.06   1
   4  -1 -19  106.47  105.03   1
   4  -1 -19   47.00  148.03   1
  -4   0   021489.15  240.40   1
  -4   0   018287.79  249.05   1
   0  -4   022041.40  292.89   1
   0  -4   022158.28  355.44   1
   0   4   022105.34  249.16   1
   0   4   021128.41  265.81   1
   4   0   020545.68  242.43   1
   4   0   022795.75  365.93   1
   4   0   022931.73  337.25   1
  -4   0  -1  797.78   48.54   1
  -4   0  -1  724.30   56.76   1
  -4   0   1  844.63   53.63   1
  -4   0   1  716.72   57.17   1
   0  -4  -1  788.27   61.03   1
   0  -4  -1  826.99   95.08   1
   0  -4   1  782.26   64.44   1
   0  -4   1  846.24   34.48   1
   0  -4   1  791.94   86.97   1
   0   4  -1  790.60   51.33   1
   0   4  -1  721.45   54.47   1
   0   4   1  834.53   50.87   1
   0   4   1  797.04   55.87   1
   4   0  -1  814.46   81.03   1
   4   0  -1  715.05   55.30   1
   4   0  -1  771.48   90.00   1
   4   0  -1  733.58   78.05   1
   4   0   1  805.52   54.42   1
   4   0   1  727.60   85.60   1
  -4   0  -2  318.58   33.21   1
  -4   0  -2  310.37   46.89   1
  -4   0   2  313.84   38.19   1
  -4   0   2  367.76   53.20   1
   0  -4  -2  332.53   48.49   1
   0  -4   2  347.35   52.41   1
   0  -4   2  428.53   67.38   1
   0  -4   2  395.56   29.48   1
   0  -4   2  296.99   71.98   1
   0  -4   2  405.98   41.93   1
   0   4  -2  358.16   37.91   1
   0   4  -2  320.30   46.08   1
   0   4   2  362.04   35.75   1
   0   4   2  324.04   40.47   1
   4   0  -2  400.88   43.29   1
   4   0  -2  412.62   65.81   1
   4   0  -2  296.22   62.88   1
   4   0   2  356.41   57.41   1
   4   0   2  333.14   40.29   1
   4   0   2  586.15  103.24   1
   4   0   2  366.38   62.95   1
  -4   0  -313393.62  171.33   1
  -4   0  -311130.62  198.80   1
  -4   0   312222.34  201.70   1
  -4   0   312533.87  223.06   1
   0  -4  -313342.34  231.44   1
   0  -4   313157.54  239.91   1
   0  -4   313296.78  249.18   1
   0  -4   314488.05  163.63   1
   0  -4   314783.86  260.59   1
   0  -4   313542.57  327.14   1
   0   4  -313877.59  209.32   1
   0   4  -312042.78  209.88   1
   0   4   313351.77  208.95   1
   0   4   311714.56  175.47   1
   0   4   312848.64  207.00   1
   4   0  -314912.53  220.01   1
   4   0  -313440.59  276.45   1
   4   0  -313412.97  276.09   1
   4   0   310832.00  232.83   1
   4   0   312993.69  215.85   1
   4   0   315216.97  443.34   1
   4   0   312419.34  268.73   1
  -4   0  -4 3270.20   83.59   1
  -4   0  -4 2738.94  104.55   1
  -4   0   4 3029.87  106.42   1
  -4   0   4 3344.59   97.42   1
  -4   0   4 3158.70  119.91   1
   0  -4  -4 3273.84  119.69   1
   0  -4   4 3266.95  127.83   1
   0  -4   4 3250.31  125.14   1
   0  -4   4 3500.16   90.25   1
   0  -4   4 3582.75  104.19   1
   0  -4   4 3480.56  166.81   1
   0   4  -4 3323.73  106.82   1
   0   4  -4 3756.13  103.80   1
   0   4  -4 2785.50  105.35   1
   0   4   4 2803.47   93.90   1
   0   4   4 3013.41  103.59   1
   4   0  -4 3483.40  112.59   1
   4   0  -4 3426.95  144.30   1
   4   0  -4 3297.13  139.10   1
   4   0   4 2486.16  117.18   1
   4   0   4 3046.50  112.05   1
   4   0   4 3166.84  193.08   1
   4   0   4 3135.61  145.55   1
  -4   0  -5 1735.11   60.86   1
  -4   0   5 1696.05   84.68   1
  -4   0   5 1841.24   80.22   1
  -4   0   5 1625.41   92.82   1
   0  -4  -5 1751.29   91.88   1
   0  -4   5 1773.76   95.20   1
   0  -4   5 2015.02   76.02   1
   0  -4   5 1881.76   83.36   1
   0  -4   5 2012.26  124.65   1
   0   4  -5 1755.44   81.49   1
   0   4  -5 1989.63   82.43   1
   0   4  -5 1560.36   82.64   1
   0   4   5 1493.67   74.95   1
   0   4   5 1676.52   80.81   1
   4   0  -5 1943.47   89.69   1
   4   0  -5 1751.18  107.02   1
   4   0  -5 1691.22  102.55   1
   4   0   5 1392.50   91.92   1
   4   0   5 1769.12   92.32   1
   4   0   5 1714.12  129.11   1
   4   0   5 1698.59  116.13   1
  -4   0   6 1933.10   93.74   1
  -4   0   6 2048.84   90.44   1
  -4   0   6 1695.05   99.57   1
   0  -4  -6 1910.27   97.35   1
   0  -4   6 1912.24   99.72   1
   0  -4   6 1984.47   82.12   1
   0  -4   6 2003.21   91.41   1
   0  -4   6 1918.92  120.33   1
   0   4  -6 2014.63   90.31   1
   0   4  -6 2240.30   92.86   1
   0   4  -6 1819.22   90.72   1
   0   4   6 1713.25   84.84   1
   0   4   6 1948.36   88.72   1
   4   0  -6 2153.93   98.66   1
   4   0  -6 2024.47  115.95   1
   4   0  -6 2123.10  114.46   1
   4   0   6 1534.97   98.10   1
   4   0   6 2178.20   86.23   1
   4   0   6 1980.07  102.02   1
   4   0   6 1921.93  126.34   1
   4   0   6 1948.69  128.37   1
  -4   0   7 4305.18  140.08   1
  -4   0   7 4735.16  140.59   1
  -4   0   7 4670.49  166.44   1
   0  -4  -7 4742.87  151.16   1
   0  -4   7 4924.62  158.07   1
   0  -4   7 5024.86  149.10   1
   0  -4   7 5370.70  186.30   1
   0   4  -7 5108.25  145.14   1
   0   4  -7 5673.75  153.74   1
   0   4  -7 4627.09  143.72   1
   0   4   7 4072.50  135.68   1
   4   0  -7 5315.53  157.54   1
   4   0  -7 4873.40  175.46   1
   4   0  -7 5146.83  174.93   1
   4   0   7 3939.98  154.58   1
   4   0   7 5266.10  139.29   1
   4   0   7 4529.15  158.42   1
   4   0   7 4949.76  187.75   1
   4   0   7 4376.46  192.07   1
  -4   0   8 5663.09  165.32   1
  -4   0   8 5539.13  163.01   1
  -4   0   8 5707.02  193.02   1
   0  -4  -8 5703.09  169.11   1
   0  -4   8 5539.90  173.57   1
   0  -4   8 5855.00  171.27   1
   0  -4   8 6170.64  201.62   1
   0   4  -8 5709.44  159.44   1
   0   4  -8 6384.01  172.62   1
   0   4  -8 5555.34  160.71   1
   0   4   8 4800.45  156.05   1
   4   0  -8 6290.93  178.71   1
   4   0  -8 5578.79  192.17   1
   4   0  -8 6007.17  194.71   1
   4   0   8 4661.19  173.61   1
   4   0   8 6189.24  160.29   1
   4   0   8 5204.13  178.61   1
   4   0   8 5262.01  192.93   1
   4   0   8 5386.42  218.98   1
  -4   0   9  107.05   42.44   1
  -4   0   9   90.34   49.20   1
   0  -4  -9  172.05   45.45   1
   0  -4   9   88.22   41.04   1
   0  -4   9  117.45   41.09   1
   0  -4   9  123.33   51.48   1
   0   4  -9   74.35   32.78   1
   0   4  -9  115.40   39.68   1
   0   4  -9  115.38   35.46   1
   0   4   9   88.67   35.44   1
   4   0  -9  128.14   41.00   1
   4   0  -9   94.91   40.88   1
   4   0  -9   85.99   40.12   1
   4   0   9  116.26   49.35   1
   4   0   9  174.32   44.23   1
   4   0   9  112.74   42.57   1
   4   0   9   69.39   40.25   1
   4   0   9  122.04   61.51   1
  -4   0 -10 3329.35  151.67   1
  -4   0  10 3446.17  150.29   1
  -4   0  10 3121.07  164.31   1
   0  -4 -10 3537.72  143.68   1
   0  -4  10 3480.51  154.33   1
   0  -4  10 3335.13  148.36   1
   0  -4  10 3399.46  163.89   1
   0   4 -10 3239.92  134.36   1
   0   4 -10 3798.14  151.75   1
   0   4 -10 3278.11  131.64   1
   0   4  10 2689.93  135.31   1
   4   0 -10 3738.12  153.76   1
   4   0 -10 3431.45  165.70   1
   4   0 -10 3587.02  168.51   1
   4   0  10 2615.57  144.59   1
   4   0  10 3664.57  142.46   1
   4   0  10 3131.38  158.01   1
   4   0  10 3211.25  159.64   1
   4   0  10 3246.35  183.86   1
  -4   0  11 7280.52  224.00   1
  -4   0  11 7406.88  256.72   1
   0  -4 -11 7899.67  215.56   1
   0  -4  11 7597.20  232.24   1
   0  -4  11 7484.22  229.00   1
   0  -4  11 8072.75  250.30   1
   0   4 -11 7266.18  205.93   1
   0   4 -11 6906.97  189.46   1
   0   4  11 6140.61  209.19   1
   4   0 -11 7993.69  230.32   1
   4   0 -11 8041.34  256.44   1
   4   0  11 5958.68  219.55   1
   4   0  11 7651.12  214.09   1
   4   0  11 6954.38  241.30   1
   4   0  11 7658.15  247.65   1
   4   0  11 6742.94  262.75   1
  -4   0 -12  170.42   54.63   1
  -4   0  12   79.45   54.19   1
   0  -4 -12  145.67   52.70   1
   0  -4  12  164.30   61.35   1
   0  -4  12  118.28   57.56   1
   0   4 -12  113.06   47.18   1
   0   4  12  143.53   53.25   1
   4   0 -12  122.05   48.88   1
   4   0 -12   82.24   50.06   1
   4   0  12   80.31   51.08   1
   4   0  12  141.36   49.42   1
   4   0  12  144.98   57.59   1
   4   0  12  128.16   57.18   1
   4   0  12  137.23   67.63   1
  -4   0  13 1242.93  136.57   1
   0  -4 -13 1453.22  114.13   1
   0  -4  13 1502.68  127.18   1
   0  -4  13 1525.46  136.32   1
   0   4 -13 1432.61  113.66   1
   0   4  13 1051.07  109.63   1
   4   0 -13 1694.56  127.56   1
   4   0 -13 1688.09  146.75   1
   4   0  13 1213.62  121.83   1
   4   0  13 1608.30  121.07   1
   4   0  13 1265.28  130.21   1
   4   0  13 1218.22  120.18   1
   4   0  13 1263.19  143.10   1
  -4   0  14 3570.62  215.54   1
   0  -4 -14 4184.23  174.60   1
   0  -4  14 4044.76  198.34   1
   0  -4  14 4444.33  215.33   1
   0   4 -14 4460.81  191.20   1
   0   4  14 3450.43  187.27   1
   4   0 -14 4592.40  201.31   1
   4   0 -14 4378.25  225.38   1
   4   0  14 3486.17  193.46   1
   4   0  14 4491.33  196.84   1
   4   0  14 3754.07  211.99   1
   4   0  14 4037.11  230.30   1
  -4   0  15  424.14  117.78   1
   0  -4  15  361.40  105.72   1
   0   4 -15  305.90   91.76   1
   0   4  15  252.83   82.76   1
   4   0 -15  422.99   96.66   1
   4   0 -15  335.02   97.53   1
   4   0  15  355.78   96.08   1
   4   0  15  359.90   99.04   1
  -4   0  16  721.52  154.56   1
   0  -4  16  501.87  134.95   1
   0   4 -16  502.13  129.30   1
   0   4  16  389.62  109.28   1
   4   0 -16  489.05  112.05   1
   4   0 -16  659.68  143.55   1
   4   0  16  472.57  121.39   1
  -4   0  17  833.08  166.11   1
   0  -4  17  717.07  151.19   1
   0   4 -17  745.39  177.73   1
   0   4  17  657.93  132.11   1
   4   0 -17  835.32  140.01   1
   4   0 -17  585.94  149.40   1
   4   0  17  629.80  145.90   1
   0  -4  18 1244.01  175.91   1
   0   4  18  931.09  148.07   1
   4   0 -18 1799.03  196.51   1
   4   0 -18 1598.75  219.01   1
   4   0  18 1285.44  184.21   1
   0  -4  19  536.32  146.59   1
   0   4  19  450.11  125.32   1
   4   0 -19  562.95  131.39   1
   4   0 -19  600.41  169.78   1
   4   0  19  375.45  137.86   1
  -4  -1   0   -1.08   14.11   1
  -4  -1   0   -2.23   18.99   1
  -1   4   0   18.56   15.19   1
  -1   4   0    9.27   15.57   1
   1  -4   0    3.49   21.35   1
   1  -4   0    0.96   13.79   1
   1  -4   0   72.74   31.74   1
   4   1   0   -5.80   15.31   1
   4   1   0   -1.63   29.63   1
  -4  -1  -1  521.79   42.69   1
  -4  -1  -1  465.47   55.94   1
  -4  -1   1  431.38   42.53   1
  -4  -1   1  485.16   69.05   1
  -1   4  -1  498.15   44.10   1
  -1   4  -1  468.35   47.10   1
  -1   4   1  476.57   42.77   1
  -1   4   1  474.05   46.05   1
   1  -4  -1  490.58   55.46   1
   1  -4  -1  526.26   41.53   1
   1  -4  -1  560.61   78.80   1
   1  -4  -1  506.05   62.96   1
   1  -4   1  473.80   62.44   1
   1  -4   1  521.69   40.52   1
   1  -4   1  485.91   60.79   1
   4   1  -1  545.24   73.77   1
   4   1  -1  473.31   48.71   1
   4   1  -1  479.29   75.12   1
   4   1   1  418.26   60.92   1
   4   1   1  429.04   48.37   1
   4   1   1  575.10   81.02   1
  -4  -1  -2  312.64   34.42   1
  -4  -1  -2  266.63   48.66   1
  -4  -1   2  298.51   43.06   1
  -4  -1   2  383.17   48.82   1
  -4  -1   2  291.44   52.01   1
  -1   4  -2  354.98   39.21   1
  -1   4  -2  387.98   45.36   1
  -1   4   2  302.46   36.32   1
  -1   4   2  323.20   40.14   1
   1  -4  -2  336.83   52.50   1
   1  -4  -2  347.41   39.73   1
   1  -4  -2  351.20   58.57   1
   1  -4   2  371.12   57.83   1
   1  -4   2  409.45   38.03   1
   1  -4   2  295.74   49.03   1
   4   1  -2  362.11   39.99   1
   4   1  -2  425.09   66.87   1
   4   1   2  362.96   57.96   1
   4   1   2  296.99   47.04   1
   4   1   2  427.35   73.58   1
   4   1   2  254.10   58.32   1
  -4  -1  -3 3832.50   95.53   1
  -4  -1   3 3787.14  116.82   1
  -4  -1   3 3979.72  117.30   1
  -4  -1   3 3868.91  142.53   1
  -1   4  -3 4039.56  116.91   1
  -1   4  -3 3513.61  118.86   1
  -1   4   3 4257.19  114.73   1
  -1   4   3 3749.44  112.01   1
   1  -4  -3 4120.82  136.71   1
   1  -4  -3 4246.85  116.40   1
   1  -4  -3 4287.34  161.24   1
   1  -4   3 3824.26  139.24   1
   1  -4   3 4165.86  193.13   1
   1  -4   3 4242.20  108.11   1
   1  -4   3 4357.52  105.48   1
   1  -4   3 4715.85  143.18   1
   4   1  -3 4341.07  119.65   1
   4   1  -3 4213.22  149.41   1
   4   1   3 3148.27  123.99   1
   4   1   3 3788.81  130.37   1
   4   1   3 4166.60  162.49   1
   4   1   3 3830.95  169.47   1
  -4  -1   4 1042.94   67.95   1
  -4  -1   4 1135.12   71.31   1
  -4  -1   4  936.24   79.52   1
  -1   4  -4 1136.27   66.29   1
  -1   4  -4  929.66   66.50   1
  -1   4   4  981.65   57.84   1
  -1   4   4 1046.65   63.20   1
   1  -4  -4 1090.06   77.07   1
   1  -4  -4  943.41   74.42   1
   1  -4  -4 1123.87  109.22   1
   1  -4   4 1100.12  105.95   1
   1  -4   4 1014.77   59.92   1
   1  -4   4 1119.34   61.74   1
   1  -4   4 1247.28   79.98   1
   4   1  -4 1229.58   69.96   1
   4   1  -4 1124.99   83.75   1
   4   1  -4 1083.48   77.28   1
   4   1   4  740.22   67.25   1
   4   1   4  983.61   74.19   1
   4   1   4 1135.14   86.74   1
   4   1   4  916.52  105.40   1
  -4  -1   5 2313.73  100.80   1
  -4  -1   5 2444.87  102.29   1
  -4  -1   5 2137.84  117.17   1
  -1   4  -5 2434.17   95.79   1
  -1   4  -5 2249.21  101.51   1
  -1   4   5 2267.06   89.74   1
   1  -4  -5 2565.66  113.82   1
   1  -4  -5 2257.24  150.80   1
   1  -4   5 2018.67  128.96   1
   1  -4   5 2729.87   98.15   1
   1  -4   5 2485.90   94.20   1
   4   1  -5 2457.69   99.92   1
   4   1  -5 2399.68  117.04   1
   4   1  -5 2456.89  108.58   1
   4   1   5 1934.70  102.33   1
   4   1   5 2189.47  109.50   1
   4   1   5 2424.21  112.56   1
   4   1   5 2216.87  157.78   1
  -4  -1   6 4828.56  146.25   1
  -4  -1   6 5291.75  153.24   1
  -4  -1   6 4483.92  171.74   1
  -1   4  -6 5117.23  140.49   1
  -1   4  -6 4764.82  148.19   1
  -1   4   6 4322.46  139.31   1
   1  -4  -6 5583.85  167.14   1
   1  -4  -6 5248.78  214.28   1
   1  -4   6 4898.99  188.93   1
   1  -4   6 5212.54  140.90   1
   1  -4   6 5204.58  142.92   1
   4   1  -6 5751.70  156.33   1
   4   1  -6 5461.55  173.33   1
   4   1  -6 5753.47  164.38   1
   4   1   6 3986.50  147.13   1
   4   1   6 4641.97  162.85   1
   4   1   6 5491.25  161.41   1
   4   1   6 4629.17  224.25   1
  -4  -1   7  204.54   45.61   1
  -4  -1   7  218.21   47.55   1
  -4  -1   7  124.85   49.22   1
  -1   4  -7  216.69   42.09   1
  -1   4  -7  245.43   49.34   1
  -1   4  -7  229.77   46.88   1
  -1   4   7  200.75   46.85   1
   1  -4  -7  346.27   58.42   1
   1  -4  -7  215.24   64.16   1
   1  -4   7  183.43   59.72   1
   1  -4   7  242.32   47.43   1
   1  -4   7  235.89   45.33   1
   4   1  -7  260.93   47.56   1
   4   1  -7  278.53   56.34   1
   4   1  -7  238.44   49.88   1
   4   1   7  197.23   48.59   1
   4   1   7  225.72   53.67   1
   4   1   7  219.53   45.82   1
   4   1   7  267.65   75.02   1
  -4  -1   8 1758.61  100.27   1
  -4  -1   8 1931.08  109.48   1
  -4  -1   8 1429.45  115.53   1
  -1   4  -8 1683.04   90.81   1
  -1   4  -8 1859.82  102.98   1
  -1   4  -8 1755.11   99.14   1
  -1   4   8 1333.11   91.80   1
   1  -4  -8 2045.18  112.77   1
   1  -4  -8 1709.73  135.49   1
   1  -4   8 1634.43  117.29   1
   1  -4   8 1804.27   97.99   1
   1  -4   8 1812.06  100.80   1
   4   1  -8 1880.36  103.07   1
   4   1  -8 1807.81  111.97   1
   4   1  -8 1991.27  110.74   1
   4   1   8 1246.17   95.01   1
   4   1   8 1600.06  111.51   1
   4   1   8 1783.99  100.55   1
   4   1   8 1376.36  126.25   1
  -4  -1   9  956.47   90.65   1
  -4  -1   9  995.78  108.71   1
  -1   4  -9 1035.05   77.25   1
  -1   4  -9 1195.20   90.52   1
  -1   4  -9 1042.65   83.34   1
  -1   4   9  876.30   82.54   1
   1  -4  -9 1134.07   92.47   1
   1  -4  -9 1054.44  117.75   1
   1  -4   9  907.37   96.34   1
   1  -4   9 1159.34   87.00   1
   1  -4   9 1208.82   90.97   1
   4   1  -9 1066.73   86.11   1
   4   1  -9 1156.28   97.57   1
   4   1  -9 1220.76   95.99   1
   4   1   9  893.77   87.86   1
   4   1   9  958.18   97.69   1
   4   1   9 1075.86   84.07   1
   4   1   9 1025.14  112.10   1
  -4  -1  10   66.85   42.47   1
  -4  -1  10   38.98   47.09   1
  -1   4 -10   47.98   31.25   1
  -1   4 -10   36.22   33.78   1
  -1   4 -10   32.27   30.53   1
  -1   4  10   22.00   30.82   1
   1  -4 -10   49.53   38.51   1
   1  -4 -10   33.67   51.76   1
   1  -4  10   53.39   48.52   1
   1  -4  10   29.68   33.75   1
   4   1 -10   42.20   33.99   1
   4   1 -10   89.09   46.80   1
   4   1 -10   87.96   41.56   1
   4   1  10   16.03   34.90   1
   4   1  10   20.55   31.42   1
   4   1  10   54.08   43.73   1
   4   1  10   72.73   38.18   1
   4   1  10    1.36   37.55   1
  -4  -1  11   29.88   44.86   1
  -4  -1  11   45.48   53.56   1
  -1   4 -11   40.16   36.09   1
  -1   4 -11   32.36   32.81   1
  -1   4  11   28.56   37.20   1
   1  -4 -11   21.43   39.22   1
   1  -4 -11   42.21   58.15   1
   1  -4  11   18.76   46.57   1
   1  -4  11   38.64   39.46   1
   4   1 -11  106.91   44.58   1
   4   1 -11   72.10   43.85   1
   4   1  11   24.90   37.13   1
   4   1  11    9.72   42.36   1
   4   1  11   57.91   38.83   1
   4   1  11   70.38   49.85   1
  -4  -1  12  260.01   73.10   1
  -4  -1  12  232.09   84.04   1
  -1   4 -12  200.63   54.73   1
  -1   4 -12  185.37   49.55   1
  -1   4  12  210.97   66.20   1
   1  -4 -12  248.17   64.66   1
   1  -4 -12  264.60   81.54   1
   1  -4  12  224.44   76.35   1
   1  -4  12  244.85   66.71   1
   4   1 -12  250.05   63.09   1
   4   1 -12  248.73   67.12   1
   4   1  12  171.13   58.71   1
   4   1  12  236.40   60.52   1
   4   1  12  213.22   72.37   1
   4   1  12  214.91   70.57   1
  -4  -1  13   24.87   54.76   1
  -4  -1  13   66.25   67.16   1
  -1   4 -13  121.42   53.80   1
  -1   4  13   81.54   50.06   1
   1  -4 -13   61.39   49.19   1
   1  -4 -13   25.13   64.75   1
   1  -4  13   94.44   64.04   1
   1  -4  13   41.93   44.51   1
   4   1 -13   63.29   45.56   1
   4   1 -13  109.20   58.71   1
   4   1  13   42.61   47.54   1
   4   1  13   77.75   45.90   1
   4   1  13   82.75   62.82   1
   4   1  13   62.70   59.16   1
  -4  -1  14  676.57  130.90   1
  -1   4 -14  782.83  104.15   1
  -1   4  14  603.06  101.77   1
   1  -4 -14  723.52   99.14   1
   1  -4 -14  668.95  126.24   1
   1  -4  14  637.51  121.56   1
   1  -4  14  649.91  105.60   1
   4   1 -14  804.75  111.67   1
   4   1 -14  876.47  124.27   1
   4   1  14  612.65  110.33   1
   4   1  14  612.45  119.20   1
  -4  -1  15 1220.43  182.19   1
  -1   4 -15 1095.26  140.20   1
  -1   4  15  836.90  132.06   1
   1  -4 -15 1372.52  149.55   1
   1  -4 -15 1203.14  181.15   1
   1  -4  15 1037.91  168.46   1
   4   1 -15 1404.08  149.83   1
   4   1 -15 1328.25  155.57   1
   4   1  15 1192.41  139.00   1
   4   1  15 1022.90  162.57   1
  -4  -1  16  -21.82  113.66   1
  -1   4  16  -32.75   74.66   1
   1  -4 -16   91.73   92.69   1
   1  -4  16   41.16  118.12   1
   4   1 -16   34.83   82.52   1
   4   1 -16   11.30   78.15   1
   4   1  16   -3.49   70.85   1
   4   1  16  -40.96   83.89   1
  -4  -1  17  946.61  196.04   1
  -1   4  17  806.21  141.26   1
   1  -4  17 1068.32  189.66   1
   4   1 -17 1215.69  157.58   1
   4   1 -17 1302.39  178.78   1
   4   1  17  801.21  138.36   1
  -4  -1  18  651.56  195.77   1
  -1   4  18  565.36  134.63   1
   1  -4  18  733.49  172.75   1
   4   1 -18  702.57  136.14   1
   4   1 -18  734.87  157.31   1
   4   1  18  548.11  126.50   1
  -1   4  19   24.73   99.67   1
   1  -4  19  -14.59  126.82   1
   4   1 -19   -7.61   99.09   1
   4   1 -19   46.12  125.04   1
  -4  -2   018405.46  245.04   1
  -4  -2   019959.43  299.78   1
  -4  -2   017029.78  307.53   1
  -2   4   019845.17  265.23   1
  -2   4   018982.79  265.28   1
   2  -4   020363.04  302.45   1
   2  -4   019770.04  271.03   1
   2  -4   021387.62  342.43   1
   4   2   014973.03  253.07   1
   4   2   017782.73  289.98   1
   4   2   020959.55  300.75   1
  -4  -2  -1  821.38   57.22   1
  -4  -2  -1  744.76   77.37   1
  -4  -2  -1  560.73   67.93   1
  -4  -2   1  764.00   59.24   1
  -4  -2   1  690.58   70.26   1
  -4  -2   1  657.53   74.27   1
  -2   4  -1  744.38   56.13   1
  -2   4  -1  680.81   57.01   1
  -2   4   1  844.32   59.32   1
  -2   4   1  653.03   54.09   1
   2  -4  -1  906.88   72.19   1
   2  -4  -1  822.99   65.38   1
   2  -4  -1  677.63   77.70   1
   2  -4   1  706.45   68.01   1
   2  -4   1  740.42   61.24   1
   2  -4   1  839.39   80.17   1
   4   2  -1  776.61   70.60   1
   4   2  -1  684.41   75.95   1
   4   2   1  586.58   62.37   1
   4   2   1  627.21   63.60   1
   4   2   1  700.37   66.18   1
   4   2   1  714.96   78.64   1
  -4  -2  -2  348.25   41.29   1
  -4  -2  -2  206.64   53.36   1
  -4  -2  -2  234.12   52.57   1
  -4  -2   2  239.53   41.13   1
  -4  -2   2  386.86   60.22   1
  -4  -2   2  249.41   59.71   1
  -2   4  -2  314.10   44.87   1
  -2   4  -2  305.46   49.01   1
  -2   4   2  340.65   41.90   1
  -2   4   2  352.89   43.84   1
   2  -4  -2  335.01   54.57   1
   2  -4  -2  343.38   53.72   1
   2  -4  -2  365.44   68.05   1
   2  -4   2  353.72   58.87   1
   2  -4   2  401.91   54.16   1
   2  -4   2  357.95   38.73   1
   2  -4   2  345.18   62.46   1
   4   2  -2  345.73   41.27   1
   4   2  -2  438.09   63.39   1
   4   2   2  262.33   48.85   1
   4   2   2  288.81   53.51   1
   4   2   2  372.06   51.14   1
   4   2   2  307.01   64.68   1
  -4  -2  -311037.76  175.02   1
  -4  -2  -311500.99  263.56   1
  -4  -2   310631.22  205.50   1
  -4  -2   311496.12  233.83   1
  -4  -2   3 9969.87  254.28   1
  -2   4  -312343.06  213.01   1
  -2   4  -311625.56  222.21   1
  -2   4   311656.08  205.37   1
  -2   4   311409.20  197.47   1
   2  -4  -312311.30  243.45   1
   2  -4  -311882.71  237.96   1
   2  -4  -312158.98  291.51   1
   2  -4   312204.13  383.77   1
   2  -4   312560.48  223.87   1
   2  -4   311973.38  187.14   1
   2  -4   313078.37  284.18   1
   4   2  -312611.97  206.48   1
   4   2  -311293.21  227.57   1
   4   2   3 9628.75  206.49   1
   4   2   310418.74  237.62   1
   4   2   312574.24  199.45   1
   4   2   311874.97  322.66   1
  -4  -2  -4 2801.38   88.91   1
  -4  -2  -4 2791.58  159.02   1
  -4  -2   4 2706.86  110.32   1
  -4  -2   4 2973.54  127.68   1
  -4  -2   4 2490.53  139.17   1
  -2   4  -4 3036.63  109.20   1
  -2   4  -4 2828.42  115.76   1
  -2   4   4 3064.77  108.19   1
  -2   4   4 2869.05  100.72   1
   2  -4  -4 2983.27  125.85   1
   2  -4  -4 2969.97  138.94   1
   2  -4  -4 3176.41  172.00   1
   2  -4   4 2501.54  224.41   1
   2  -4   4 3164.33  119.06   1
   2  -4   4 2698.61   97.35   1
   2  -4   4 3134.13  146.68   1
   4   2  -4 3071.57  108.96   1
   4   2  -4 2913.96  120.62   1
   4   2   4 2269.24  105.92   1
   4   2   4 2441.24  123.10   1
   4   2   4 2794.86  212.17   1
  -4  -2  -5 1586.02   67.55   1
  -4  -2  -5 1422.13  134.16   1
  -4  -2   5 1444.59   87.52   1
  -4  -2   5 1625.25  100.97   1
  -4  -2   5 1383.13  112.44   1
  -2   4  -5 1430.47   78.43   1
  -2   4  -5 1517.45   90.64   1
  -2   4   5 1739.58   83.51   1
   2  -4  -5 1630.00   99.23   1
   2  -4  -5 1776.35  150.08   1
   2  -4   5 1434.10  174.33   1
   2  -4   5 1638.38   91.37   1
   2  -4   5 1665.29   83.53   1
   2  -4   5 1653.63  113.18   1
   4   2  -5 1648.96   85.81   1
   4   2  -5 1627.56   95.18   1
   4   2   5 1275.01   84.47   1
   4   2   5 1347.51  100.13   1
   4   2   5 1427.86  214.02   1
  -4  -2   6 1658.91   96.22   1
  -4  -2   6 1767.46  109.31   1
  -4  -2   6 1441.33  122.63   1
  -2   4  -6 1772.09   88.66   1
  -2   4  -6 1744.79   98.88   1
   2  -4  -6 2010.51  111.68   1
   2  -4  -6 1876.62  157.68   1
   2  -4   6 1427.16  158.09   1
   2  -4   6 1709.82   96.54   1
   2  -4   6 1878.93   94.00   1
   4   2  -6 1936.47   96.48   1
   4   2  -6 1950.05  106.49   1
   4   2   6 1380.54   90.45   1
   4   2   6 1701.21  115.04   1
   4   2   6 1559.04  154.25   1
  -4  -2   7 4122.73  149.41   1
  -4  -2   7 4349.88  168.74   1
  -4  -2   7 4152.11  201.90   1
  -2   4  -7 4273.77  137.58   1
  -2   4  -7 4258.27  152.82   1
   2  -4  -7 4713.09  168.22   1
   2  -4  -7 4552.91  174.08   1
   2  -4  -7 4128.16  216.67   1
   2  -4   7 3286.52  209.76   1
   2  -4   7 4588.11  158.28   1
   2  -4   7 4493.69  149.51   1
   4   2  -7 4629.06  150.81   1
   4   2  -7 4625.99  162.64   1
   4   2  -7 4810.97  150.00   1
   4   2   7 3394.80  141.91   1
   4   2   7 3547.93  167.29   1
   4   2   7 3497.93  185.12   1
  -4  -2   8 5105.34  170.62   1
  -4  -2   8 5046.06  189.07   1
  -4  -2   8 4828.86  226.08   1
  -2   4  -8 4993.93  152.79   1
  -2   4  -8 5067.12  170.73   1
  -2   4   8 4079.59  165.21   1
   2  -4  -8 5473.05  185.79   1
   2  -4  -8 4725.62  236.97   1
   2  -4  -8 5507.59  245.42   1
   2  -4   8 4157.46  229.28   1
   2  -4   8 5011.56  172.29   1
   2  -4   8 5472.39  174.95   1
   4   2  -8 5339.74  169.42   1
   4   2  -8 5266.09  179.16   1
   4   2  -8 5546.97  168.66   1
   4   2   8 3846.56  157.44   1
   4   2   8 4873.06  205.41   1
   4   2   8 4743.83  199.25   1
  -4  -2   9   51.18   43.29   1
  -4  -2   9   96.07   64.16   1
  -2   4  -9   85.55   36.81   1
  -2   4  -9  113.64   46.63   1
  -2   4  -9   58.44   34.07   1
  -2   4   9   89.54   44.73   1
   2  -4  -9   86.04   43.72   1
   2  -4  -9   69.33   58.77   1
   2  -4   9   74.74   58.51   1
   2  -4   9  114.86   44.03   1
   2  -4   9  102.70   40.16   1
   4   2  -9   92.57   38.10   1
   4   2  -9  120.58   45.13   1
   4   2  -9   34.58   29.86   1
   4   2   9   41.67   36.42   1
   4   2   9   60.21   46.23   1
  -4  -2  10 3229.11  172.89   1
  -4  -2  10 2615.90  194.60   1
  -2   4 -10 3145.45  134.46   1
  -2   4 -10 2865.84  139.62   1
  -2   4  10 2368.46  144.32   1
   2  -4 -10 3258.12  156.95   1
   2  -4 -10 3189.50  203.99   1
   2  -4  10 2931.73  201.17   1
   2  -4  10 3236.94  156.21   1
   2  -4  10 3322.26  155.96   1
   4   2 -10 3319.74  149.58   1
   4   2 -10 3420.34  246.69   1
   4   2 -10 3160.98  145.91   1
   4   2  10 2543.29  144.18   1
   4   2  10 2661.27  174.16   1
  -4  -2  11 6832.88  252.28   1
  -4  -2  11 6273.31  296.64   1
  -2   4 -11 6803.84  201.30   1
  -2   4 -11 6793.29  212.84   1
  -2   4  11 5785.00  225.58   1
   2  -4 -11 7280.19  233.62   1
   2  -4 -11 6554.85  284.99   1
   2  -4  11 5888.52  279.79   1
   2  -4  11 7079.53  234.28   1
   2  -4  11 6748.21  228.51   1
   4   2 -11 7156.73  222.71   1
   4   2 -11 7074.79  222.70   1
   4   2  11 5496.24  213.44   1
   4   2  11 6365.54  270.89   1
  -4  -2  12   98.58   62.55   1
  -4  -2  12  120.43   84.30   1
  -2   4 -12  153.56   57.53   1
  -2   4 -12  127.97   49.14   1
  -2   4  12   56.44   48.51   1
   2  -4 -12  125.61   55.09   1
   2  -4 -12   51.80   73.98   1
   2  -4  12  148.72   82.80   1
   2  -4  12   70.98   48.97   1
   4   2 -12  107.52   49.74   1
   4   2 -12  153.16   54.94   1
   4   2  12   87.94   51.57   1
   4   2  12   62.19   62.08   1
  -4  -2  13 1276.15  144.28   1
  -4  -2  13 1072.80  170.66   1
  -2   4 -13 1305.68  116.32   1
  -2   4  13 1268.38  132.48   1
   2  -4 -13 1384.56  125.13   1
   2  -4 -13 1262.93  171.78   1
   2  -4  13 1230.72  177.65   1
   2  -4  13 1321.31  128.96   1
   4   2 -13 1436.22  122.73   1
   4   2 -13 1422.87  127.01   1
   4   2  13 1084.88  118.37   1
   4   2  13 1154.13  171.15   1
  -4  -2  14 4006.86  235.78   1
  -4  -2  14 3747.74  285.28   1
  -2   4  14 3083.58  200.23   1
   2  -4 -14 4212.69  204.84   1
   2  -4 -14 3710.91  262.03   1
   2  -4  14 3272.19  251.85   1
   2  -4  14 4079.90  213.64   1
   4   2 -14 4228.62  200.22   1
   4   2 -14 4333.97  213.32   1
   4   2  14 2977.81  184.23   1
   4   2  14 3378.31  244.89   1
  -4  -2  15  259.58  119.92   1
  -2   4  15  336.24  108.14   1
   2  -4 -15  303.80  100.90   1
   2  -4 -15  406.96  162.02   1
   2  -4  15  404.58  153.20   1
   2  -4  15  342.00  107.29   1
   4   2 -15  299.42   93.16   1
   4   2  15  141.36   82.66   1
  -2   4  16  579.47  134.18   1
   2  -4 -16  556.17  124.17   1
   2  -4 -16  702.29  201.38   1
   2  -4  16  633.87  189.05   1
   2  -4  16  440.51  115.40   1
   4   2 -16  694.35  125.73   1
   4   2  16  433.78  113.75   1
  -2   4  17  588.47  148.00   1
   2  -4 -17  791.38  137.42   1
   2  -4 -17  718.65  205.20   1
   2  -4  17  762.44  213.28   1
   4   2 -17  620.69  130.41   1
   4   2  17  651.10  134.46   1
  -2   4  18 1144.77  186.43   1
   2  -4 -18 1568.02  186.12   1
   2  -4 -18 1249.23  239.64   1
   2  -4  18  907.80  220.32   1
   4   2 -18 1521.12  187.91   1
   4   2  18 1193.51  163.66   1
  -2   4  19  522.56  183.96   1
   2  -4  19  433.30  209.36   1
   4   2 -19  485.18  149.00   1
   4   2  19  437.40  121.42   1
  -4  -3   0  133.21   35.89   1
  -4  -3   0    1.05   34.49   1
  -4  -3   0    8.75   32.27   1
  -3   4   0    8.66   18.28   1
  -3   4   0   -1.49   17.48   1
   3  -4   0   14.94   25.28   1
   3  -4   0    7.54   30.46   1
   3  -4   0  -34.69   27.26   1
  -4  -3  -1  403.67   50.17   1
  -4  -3  -1  451.84   77.30   1
  -4  -3  -1  241.15   57.31   1
  -4  -3   1  334.94   51.24   1
  -4  -3   1  424.99   74.71   1
  -4  -3   1  317.31   64.48   1
  -3   4  -1  348.97   48.68   1
  -3   4  -1  394.34   56.33   1
  -3   4   1  417.90   48.78   1
  -3   4   1  410.96   49.77   1
   3  -4  -1  486.05   67.29   1
   3  -4  -1  367.22   61.43   1
   3  -4  -1  489.21   78.44   1
   3  -4   1  418.10   64.04   1
   3  -4   1  385.02   70.22   1
   4   3   1  272.31   57.32   1
   4   3   1  346.66   64.69   1
  -4  -3  -2  248.14   41.56   1
  -4  -3  -2  227.19   63.42   1
  -4  -3   2  257.80   47.94   1
  -4  -3   2  229.87   55.72   1
  -4  -3   2  211.57   62.92   1
  -3   4  -2  267.67   45.35   1
  -3   4  -2  256.84   46.52   1
  -3   4   2  271.29   46.55   1
  -3   4   2  210.54   39.09   1
   3  -4  -2  250.79   51.51   1
   3  -4  -2  244.79   55.01   1
   3  -4  -2  176.11   54.72   1
   3  -4   2  230.90   52.27   1
   3  -4   2  283.51   43.05   1
   3  -4   2  285.87   63.96   1
   4   3  -2  294.93   44.78   1
   4   3  -2  254.97   52.56   1
   4   3   2  240.43   47.92   1
   4   3   2  194.69   50.41   1
   4   3   2  272.34   64.60   1
  -4  -3  -3 2998.40  106.06   1
  -4  -3  -3 3005.77  161.96   1
  -4  -3   3 3300.00  128.28   1
  -4  -3   3 3259.63  152.09   1
  -4  -3   3 2380.62  145.87   1
  -3   4  -3 2858.15  111.16   1
  -3   4  -3 2953.78  121.75   1
  -3   4   3 3120.32  118.04   1
  -3   4   3 2616.60  101.04   1
   3  -4  -3 2990.56  131.29   1
   3  -4  -3 3249.10  147.70   1
   3  -4  -3 3325.83  171.05   1
   3  -4   3 3266.07  192.06   1
   3  -4   3 3311.86  140.44   1
   3  -4   3 3379.40  113.38   1
   3  -4   3 3367.58  169.58   1
   4   3  -3 3474.59  117.52   1
   4   3  -3 3256.00  121.58   1
   4   3   3 2390.13  107.55   1
   4   3   3 2731.24  140.81   1
   4   3   3 3297.54  181.80   1
  -4  -3  -4  811.35   60.06   1
  -4  -3  -4  795.91  116.08   1
  -4  -3   4  759.90   73.08   1
  -4  -3   4  817.25   93.03   1
  -4  -3   4  612.89  102.40   1
  -3   4  -4  790.35   63.52   1
  -3   4  -4  885.97   74.69   1
  -3   4   4  841.78   67.44   1
   3  -4  -4  871.22   80.28   1
   3  -4  -4  749.52   92.76   1
   3  -4  -4  956.49  115.28   1
   3  -4   4  851.43  152.94   1
   3  -4   4  924.79   84.72   1
   3  -4   4  734.91   61.06   1
   3  -4   4  986.08  110.19   1
   4   3  -4  903.95   68.32   1
   4   3  -4  816.61   70.70   1
   4   3   4  667.39   65.49   1
   4   3   4  701.77   85.39   1
   4   3   4 1059.38  157.27   1
  -4  -3  -5 1673.70   79.79   1
  -4  -3  -5 1765.18  153.28   1
  -4  -3   5 1600.70   99.19   1
  -4  -3   5 1859.42  128.30   1
  -4  -3   5 1604.12  144.35   1
  -3   4  -5 1881.53   94.43   1
  -3   4  -5 1778.32  102.57   1
  -3   4   5 1877.47   95.80   1
   3  -4  -5 1978.98  114.48   1
   3  -4  -5 1858.84  140.70   1
   3  -4  -5 1961.61  162.05   1
   3  -4   5 1742.27  209.25   1
   3  -4   5 2041.51  119.14   1
   3  -4   5 1916.29   97.35   1
   3  -4   5 2136.45  157.12   1
   4   3  -5 1887.86   96.79   1
   4   3  -5 1920.65  101.50   1
   4   3   5 1490.40   92.00   1
   4   3   5 1508.04  120.24   1
  -4  -3  -6 4128.49  117.78   1
  -4  -3  -6 3613.79  212.42   1
  -4  -3   6 3735.38  148.64   1
  -4  -3   6 4045.06  184.63   1
  -4  -3   6 3483.75  215.89   1
  -3   4  -6 4152.05  138.96   1
  -3   4  -6 4063.55  154.17   1
  -3   4   6 4458.72  144.08   1
   3  -4  -6 4533.82  171.40   1
   3  -4  -6 4309.26  238.13   1
   3  -4   6 4421.17  342.46   1
   3  -4   6 4147.28  143.87   1
   3  -4   6 4152.53  168.76   1
   3  -4   6 4344.44  149.79   1
   3  -4   6 4238.81  219.47   1
   4   3  -6 4617.74  152.39   1
   4   3  -6 4248.46  150.48   1
   4   3   6 3269.70  136.22   1
   4   3   6 3773.90  188.91   1
  -4  -3  -7  203.92   44.49   1
  -4  -3   7  123.11   44.64   1
  -4  -3   7  220.98   65.91   1
  -4  -3   7   58.98   70.29   1
  -3   4  -7  178.03   43.35   1
  -3   4  -7  220.76   51.44   1
   3  -4  -7  196.87   53.11   1
   3  -4  -7  118.67   76.58   1
   3  -4   7   88.69  118.16   1
   3  -4   7  179.98   47.71   1
   3  -4   7  167.99   53.64   1
   3  -4   7  163.28   43.78   1
   4   3  -7  213.37   47.19   1
   4   3  -7  200.86   49.92   1
   4   3   7  138.67   45.62   1
   4   3   7  177.59   63.77   1
  -4  -3   8 1332.39  104.56   1
  -4  -3   8 1548.18  136.46   1
  -4  -3   8 1096.33  173.02   1
  -3   4  -8 1300.37   88.10   1
  -3   4  -8 1430.22  103.91   1
   3  -4  -8 1516.49  115.26   1
   3  -4  -8 1574.45  132.81   1
   3  -4  -8 1138.52  161.33   1
   3  -4   8 1424.84  253.47   1
   3  -4   8 1400.94  100.75   1
   3  -4   8 1479.84  115.72   1
   3  -4   8 1414.84  101.83   1
   4   3  -8 1388.38   97.16   1
   4   3  -8 1603.06  105.86   1
   4   3   8 1062.46   93.13   1
   4   3   8 1323.28  138.63   1
  -4  -3   9  791.94  116.93   1
  -4  -3   9  620.97  149.95   1
  -3   4  -9  841.93   80.38   1
  -3   4  -9  885.69   90.17   1
  -3   4   9  744.50  107.32   1
   3  -4  -9  852.02   97.08   1
   3  -4  -9  707.32  133.61   1
   3  -4   9  741.58  178.90   1
   3  -4   9  742.27   85.61   1
   3  -4   9  829.11   98.81   1
   3  -4   9  885.43   90.36   1
   4   3  -9 1005.24   91.28   1
   4   3  -9  876.63   88.77   1
   4   3   9  609.33   86.12   1
   4   3   9  646.20  121.05   1
  -4  -3  10   17.85   56.40   1
  -4  -3  10   61.00   90.21   1
  -3   4 -10  -11.65   29.11   1
  -3   4 -10   16.11   33.11   1
  -3   4  10   21.50   41.80   1
   3  -4 -10   37.27   43.05   1
   3  -4 -10   53.67   72.00   1
   3  -4  10  -38.68   85.83   1
   3  -4  10   16.41   42.93   1
   3  -4  10  -27.74   31.80   1
   4   3 -10   65.44   39.46   1
   4   3  10   31.07   36.97   1
   4   3  10   19.80   63.28   1
  -4  -3  11   -2.13   56.74   1
  -4  -3  11   45.62  105.68   1
  -3   4 -11   29.96   39.70   1
  -3   4 -11   55.07   39.27   1
  -3   4  11    6.56   44.56   1
   3  -4 -11   58.61   47.54   1
   3  -4 -11   76.25   79.03   1
   3  -4  11   13.73   93.49   1
   3  -4  11   57.83   54.41   1
   3  -4  11   31.52   43.85   1
   4   3 -11   36.15   38.11   1
   4   3  11   50.60   42.72   1
   4   3  11    4.64   67.39   1
  -4  -3  12  169.14   83.42   1
  -4  -3  12  178.49  123.53   1
  -3   4 -12  192.15   58.90   1
  -3   4  12  141.33   66.83   1
   3  -4 -12  245.64   73.51   1
   3  -4 -12  145.50   91.36   1
   3  -4  12  138.22  116.53   1
   3  -4  12  200.49   72.24   1
   3  -4  12  165.63   66.36   1
   4   3 -12  195.94   62.20   1
   4   3 -12  199.31   61.07   1
   4   3  12  137.26   61.42   1
   4   3  12   62.64   89.45   1
  -4  -3  13   29.40   80.57   1
  -4  -3  13   57.25  117.04   1
  -3   4 -13    1.68   43.28   1
  -3   4  13   32.28   63.44   1
   3  -4 -13   93.83   61.68   1
   3  -4 -13   21.62   87.89   1
   3  -4  13   10.92  114.11   1
   3  -4  13   91.85   62.24   1
   4   3 -13   14.21   47.86   1
   4   3  13   60.01   55.89   1
   4   3  13   18.73   93.76   1
  -4  -3  14  628.96  155.70   1
  -3   4  14  497.29  123.56   1
   3  -4 -14  555.83  115.04   1
   3  -4 -14  668.94  183.62   1
   3  -4  14  553.97  201.32   1
   3  -4  14  602.89  120.95   1
   4   3 -14  640.76  110.52   1
   4   3  14  465.71  105.07   1
  -4  -3  15 1119.44  198.43   1
  -3   4  15 1021.63  177.20   1
   3  -4 -15 1093.92  147.99   1
   3  -4 -15 1045.23  224.39   1
   3  -4  15  860.45  257.09   1
   3  -4  15 1250.68  168.01   1
   4   3 -15 1136.39  145.20   1
   4   3  15  945.76  147.53   1
  -4  -3  16  -76.56  136.23   1
  -3   4  16 -113.80  101.36   1
   3  -4 -16   -7.79   97.59   1
   3  -4 -16   54.09  170.23   1
   3  -4  16   44.96  207.71   1
   3  -4  16   -0.07   90.77   1
   4   3 -16  -22.44   88.38   1
   4   3  16   24.77   87.24   1
  -3   4  17  884.02  190.31   1
   3  -4 -17 1098.15  152.92   1
   3  -4 -17  614.05  211.89   1
   3  -4  17  745.32  289.70   1
   3  -4  17  852.99  152.18   1
   4   3 -17 1031.53  145.43   1
   4   3  17  980.17  153.66   1
  -3   4  18  591.43  178.19   1
   3  -4 -18  700.49  130.12   1
   3  -4 -18  703.26  223.59   1
   3  -4  18  305.02  283.78   1
   4   3 -18  840.50  141.42   1
   4   3  18  430.26  120.64   1
  -4  -4   013235.48  256.01   1
  -4  -4   013508.36  321.90   1
  -4  -4   012042.41  307.75   1
  -4   4   013073.38  252.03   1
  -4   4   013376.09  250.71   1
   4  -4   014144.09  301.71   1
   4  -4   014585.82  332.09   1
  -4  -4  -1  522.59   63.71   1
  -4  -4  -1  495.49   87.51   1
  -4  -4  -1  530.04   91.33   1
  -4  -4   1  490.65   67.31   1
  -4  -4   1  572.94   92.68   1
  -4  -4   1  464.51   85.98   1
  -4   4  -1  557.91   61.51   1
  -4   4  -1  479.30   63.84   1
  -4   4   1  519.33   60.42   1
  -4   4   1  498.80   57.20   1
   4  -4  -1  748.60   75.72   1
   4  -4  -1  471.02   75.34   1
   4  -4  -1  596.10   89.45   1
   4  -4   1  562.92   79.75   1
   4  -4   1  595.38   57.50   1
   4  -4   1  544.04   86.32   1
   4   4   1  468.13   78.45   1
  -4  -4  -2  252.99   48.63   1
  -4  -4  -2  201.05   65.96   1
  -4  -4  -2  312.38   69.43   1
  -4  -4   2  230.61   51.14   1
  -4  -4   2  241.29   68.37   1
  -4  -4   2  211.73   63.88   1
  -4   4  -2  235.53   45.67   1
  -4   4  -2  238.67   48.30   1
  -4   4   2  213.04   46.29   1
  -4   4   2  210.23   43.09   1
   4  -4  -2  169.39   49.46   1
   4  -4  -2  240.42   59.14   1
   4  -4  -2  242.48   65.51   1
   4  -4   2  269.95   70.45   1
   4  -4   2  229.33   58.88   1
   4  -4   2  264.22   48.72   1
   4  -4   2  258.20   67.83   1
   4   4   2  203.60   58.75   1
  -4  -4  -3 7089.02  180.50   1
  -4  -4  -3 8343.86  273.89   1
  -4  -4   3 7505.18  207.04   1
  -4  -4   3 7941.25  260.17   1
  -4  -4   3 6894.28  254.05   1
  -4   4  -3 8229.74  199.69   1
  -4   4  -3 8039.98  210.67   1
  -4   4   3 8369.59  207.94   1
  -4   4   3 7744.50  178.92   1
   4  -4  -3 8189.06  222.24   1
   4  -4  -3 8656.20  251.78   1
   4  -4  -3 8411.34  273.49   1
   4  -4   3 8594.85  281.12   1
   4  -4   3 8882.89  251.02   1
   4  -4   3 8656.78  199.43   1
   4  -4   3 8683.58  282.15   1
   4   4  -3 9060.60  201.09   1
   4   4   3 7384.67  245.85   1
  -4  -4  -4 2056.69  101.56   1
  -4  -4  -4 2016.39  159.44   1
  -4  -4   4 2112.17  119.69   1
  -4  -4   4 2133.09  151.04   1
  -4  -4   4 1890.08  155.17   1
  -4   4  -4 2158.81  106.74   1
  -4   4  -4 1904.01  110.82   1
  -4   4   4 2161.69  110.88   1
   4  -4  -4 2200.55  124.03   1
   4  -4  -4 2117.46  142.02   1
   4  -4  -4 1915.17  153.04   1
   4  -4   4 2031.40  157.37   1
   4  -4   4 2253.92  136.89   1
   4  -4   4 2303.14  111.48   1
   4  -4   4 2225.68  162.48   1
   4   4  -4 2226.38  108.21   1
   4   4   4 1718.64   98.43   1
   4   4   4 1921.40  140.40   1
  -4  -4  -5 1077.84   78.33   1
  -4  -4  -5  999.30  144.29   1
  -4  -4   5 1083.13   94.65   1
  -4  -4   5 1088.06  123.53   1
  -4  -4   5  948.04  148.81   1
  -4   4  -5 1002.18   77.00   1
  -4   4  -5 1118.66   91.13   1
  -4   4   5 1125.37   84.90   1
   4  -4  -5 1181.02   99.09   1
   4  -4  -5 1124.67  119.95   1
   4  -4  -5 1304.62  143.86   1
   4  -4   5 1182.71  137.56   1
   4  -4   5 1031.19   78.65   1
   4  -4   5 1058.71  105.02   1
   4  -4   5 1254.50   90.08   1
   4  -4   5 1247.14  145.29   1
   4   4  -5 1224.76   87.37   1
   4   4   5  935.40   79.76   1
   4   4   5 1012.17  117.55   1
  -4  -4  -6 1238.07   82.00   1
  -4  -4  -6 1245.34  167.01   1
  -4  -4   6 1269.73  103.67   1
  -4  -4   6 1271.82  136.36   1
  -4  -4   6  911.45  153.28   1
  -4   4  -6 1262.99   86.89   1
  -4   4  -6 1164.57   95.73   1
  -4   4   6 1288.44   91.00   1
   4  -4  -6 1466.74  111.60   1
   4  -4  -6 1467.15  143.69   1
   4  -4  -6 1392.10  159.42   1
   4  -4   6 1377.14  156.33   1
   4  -4   6 1249.10   88.33   1
   4  -4   6 1330.25  118.87   1
   4  -4   6 1287.54   94.95   1
   4  -4   6 1336.80  163.64   1
   4   4  -6 1449.04   97.29   1
   4   4   6  979.79   85.01   1
   4   4   6 1027.29  141.30   1
  -4  -4  -7 3020.23  117.77   1
  -4  -4  -7 2695.51  214.53   1
  -4  -4   7 2896.50  148.29   1
  -4  -4   7 2819.56  190.99   1
  -4  -4   7 2738.95  268.87   1
  -4   4  -7 3327.06  135.77   1
  -4   4  -7 2965.46  146.44   1
  -4   4   7 3290.36  140.02   1
   4  -4  -7 3441.93  164.92   1
   4  -4  -7 3037.86  203.46   1
   4  -4  -7 3295.35  233.24   1
   4  -4   7 3577.09  250.43   1
   4  -4   7 3110.36  136.94   1
   4  -4   7 3122.04  175.41   1
   4  -4   7 3244.25  150.06   1
   4   4  -7 3461.51  148.21   1
   4   4   7 2658.53  134.38   1
   4   4   7 3064.83  217.42   1
  -4  -4  -8 3649.70  127.64   1
  -4  -4  -8 3564.99  248.70   1
  -4  -4   8 3558.88  168.03   1
  -4  -4   8 3640.31  221.67   1
  -4   4  -8 3955.30  151.11   1
  -4   4  -8 3709.61  167.12   1
   4  -4  -8 4139.17  185.61   1
   4  -4  -8 3749.63  258.37   1
   4  -4   8 3973.75  276.34   1
   4  -4   8 3669.81  155.74   1
   4  -4   8 4009.33  202.43   1
   4  -4   8 3996.61  172.68   1
   4   4  -8 4108.86  167.07   1
   4   4   8 3189.77  151.89   1
   4   4   8 3643.58  258.25   1
  -4  -4   9   10.11   65.72   1
  -4  -4   9   78.20  139.91   1
  -4   4  -9  117.28   43.78   1
  -4   4  -9  100.55   46.73   1
   4  -4  -9   92.98   51.62   1
   4  -4  -9  101.14   86.20   1
   4  -4   9  -20.18   72.94   1
   4  -4   9   72.75   41.65   1
   4  -4   9   64.47   53.35   1
   4  -4   9   84.20   46.33   1
   4   4  -9   89.99   44.31   1
   4   4   9  123.93   49.51   1
   4   4   9   21.30   92.63   1
  -4  -4  10 1967.68  194.87   1
  -4  -4  10 1659.81  286.81   1
  -4   4 -10 2338.83  132.33   1
  -4   4 -10 2265.00  141.83   1
  -4   4  10 1952.15  169.65   1
   4  -4 -10 2414.75  156.15   1
   4  -4 -10 2488.33  236.48   1
   4  -4  10 2225.12  241.92   1
   4  -4  10 1974.37  131.69   1
   4  -4  10 2368.48  176.14   1
   4  -4  10 2470.22  153.46   1
   4   4 -10 2491.56  143.66   1
   4   4  10 2054.87  137.03   1
   4   4  10 2010.44  284.25   1
  -4  -4  11 4959.36  288.36   1
  -4   4 -11 4991.67  205.02   1
  -4   4  11 4584.39  252.18   1
   4  -4 -11 5675.78  232.01   1
   4  -4 -11 5337.81  322.58   1
   4  -4  11 5976.87  361.65   1
   4  -4  11 5062.30  207.07   1
   4  -4  11 5454.71  292.57   1
   4  -4  11 4993.91  217.74   1
   4   4 -11 5884.06  217.87   1
   4   4  11 4266.19  197.54   1
   4   4  11 4468.60  398.20   1
  -4  -4  12  209.12  113.15   1
  -4   4 -12  137.78   62.46   1
  -4   4  12  153.57   91.76   1
   4  -4 -12  160.73   72.86   1
   4  -4 -12   41.50  111.93   1
   4  -4  12  151.05  124.94   1
   4  -4  12   74.31   63.81   1
   4   4 -12  103.02   56.22   1
   4   4  12  104.29   63.41   1
  -4  -4  13  974.79  200.05   1
  -4   4  13  833.24  163.98   1
   4  -4 -13  988.51  136.79   1
   4  -4 -13 1062.63  215.75   1
   4  -4  13  985.64  227.77   1
   4  -4  13 1001.37  141.49   1
   4   4 -13 1123.56  136.18   1
   4   4  13  993.49  141.87   1
  -4  -4  14 2558.17  319.60   1
  -4   4  14 2744.12  268.44   1
   4  -4 -14 3232.08  213.10   1
   4  -4 -14 3213.28  357.82   1
   4  -4  14 3481.07  362.54   1
   4  -4  14 2937.67  217.20   1
   4   4 -14 3386.73  205.80   1
   4   4  14 2731.51  204.84   1
  -4  -4  15  133.61  188.94   1
  -4   4  15  236.97  156.46   1
   4  -4 -15  213.11  107.36   1
   4  -4 -15  295.75  191.88   1
   4  -4  15  196.40  193.74   1
   4  -4  15  240.79  110.77   1
   4   4 -15  264.23   98.73   1
   4   4  15  179.13  103.75   1
  -4  -4  16  276.46  198.15   1
  -4   4  16  364.23  175.70   1
   4  -4 -16  538.39  128.21   1
   4  -4 -16  389.28  205.07   1
   4  -4  16  471.30  220.63   1
   4  -4  16  411.31  122.63   1
   4   4 -16  608.80  127.89   1
   4   4  16  374.23  115.33   1
  -4   4  17  486.37  231.42   1
   4  -4 -17  612.62  127.29   1
   4  -4 -17  512.58  203.38   1
   4  -4  17  673.18  243.74   1
   4  -4  17  524.20  133.71   1
   4   4 -17  735.90  131.73   1
   4   4  17  503.20  125.19   1
  -5   4   0    0.19   24.11   1
  -5   4   0   12.22   24.55   1
  -4  -5   0   27.56   33.90   1
  -4  -5   0  -18.81   44.55   1
  -4  -5   0   16.15   45.39   1
   5  -4   0    6.61   36.96   1
   5  -4   0  -13.92   32.94   1
  -5   4  -1  182.31   46.83   1
  -5   4  -1  200.73   48.93   1
  -5   4   1  234.82   51.25   1
  -5   4   1  257.50   51.27   1
  -4  -5  -1  178.84   50.52   1
  -4  -5  -1  242.75   78.17   1
  -4  -5  -1  168.25   61.12   1
  -4  -5   1  219.83   54.19   1
  -4  -5   1  233.39   74.21   1
  -4  -5   1  252.03   71.85   1
   4   5   1  252.89   67.84   1
   5  -4  -1  313.77   73.25   1
   5  -4  -1  206.25   64.15   1
   5  -4   1  242.74   67.44   1
   5  -4   1  221.93   61.84   1
   5  -4   1  249.05   51.03   1
   5  -4   1  323.72   79.18   1
  -5   4  -2  161.48   45.86   1
  -5   4  -2  186.64   48.23   1
  -5   4   2  142.06   42.95   1
  -5   4   2  149.13   40.62   1
  -4  -5  -2  201.15   50.75   1
  -4  -5  -2  209.81   73.39   1
  -4  -5  -2  112.68   62.18   1
  -4  -5   2  140.95   49.98   1
  -4  -5   2  167.38   67.28   1
  -4  -5   2  168.41   66.67   1
   4   5   2  151.73   58.16   1
   5  -4  -2  189.52   61.40   1
   5  -4  -2  193.98   66.10   1
   5  -4   2  234.36   70.30   1
   5  -4   2  182.80   58.11   1
   5  -4   2  162.33   43.69   1
   5  -4   2  150.58   62.53   1
  -5   4  -3 2015.32  112.26   1
  -5   4  -3 1858.47  114.80   1
  -5   4   3 1843.40  112.05   1
  -4  -5  -3 1770.60  110.62   1
  -4  -5  -3 1917.72  159.15   1
  -4  -5  -3 1675.31  142.79   1
  -4  -5   3 2031.34  126.60   1
  -4  -5   3 2160.35  163.72   1
  -4  -5   3 1700.13  144.65   1
   4   5   3 1893.51  144.17   1
   5  -4  -3 2110.51  125.83   1
   5  -4  -3 2061.16  141.78   1
   5  -4  -3 1921.98  148.78   1
   5  -4   3 1988.68  141.58   1
   5  -4   3 2069.36  141.03   1
   5  -4   3 2249.59  118.47   1
   5  -4   3 2174.51  155.93   1
  -5   4  -4  483.66   68.54   1
  -5   4  -4  590.60   80.55   1
  -5   4   4  491.30   71.65   1
  -4  -5  -4  522.89   73.25   1
  -4  -5  -4  465.62  101.70   1
  -4  -5   4  611.82   88.86   1
  -4  -5   4  672.76  120.96   1
  -4  -5   4  511.96  104.37   1
   4   5  -4  544.97   72.75   1
   4   5   4  516.03  102.51   1
   5  -4  -4  493.96   81.00   1
   5  -4  -4  522.69   94.72   1
   5  -4  -4  535.30  103.54   1
   5  -4   4  583.14  102.42   1
   5  -4   4  549.28   89.44   1
   5  -4   4  633.94   83.72   1
   5  -4   4  541.43  100.32   1
  -5   4  -5 1276.65   94.65   1
  -5   4  -5 1206.48  101.08   1
  -5   4   5 1145.53   94.97   1
  -4  -5  -5 1241.65   96.23   1
  -4  -5  -5 1241.54  154.06   1
  -4  -5   5 1273.85  147.39   1
  -4  -5   5 1155.93  156.15   1
   4   5  -5 1419.47  101.10   1
   4   5   5 1200.56  135.43   1
   5  -4  -5 1334.86  110.46   1
   5  -4  -5 1255.95  129.22   1
   5  -4  -5 1239.59  143.59   1
   5  -4   5 1386.26  133.30   1
   5  -4   5 1297.45  126.67   1
   5  -4   5 1328.77  102.18   1
   5  -4   5 1199.32  141.96   1
  -5   4  -6 2686.71  129.51   1
  -5   4  -6 2583.89  142.32   1
  -5   4   6 2687.46  136.75   1
  -4  -5  -6 2526.70  124.72   1
  -4  -5  -6 2742.14  208.23   1
  -4  -5   6 2603.64  150.33   1
  -4  -5   6 2852.87  206.10   1
  -4  -5   6 2456.95  206.47   1
   4   5  -6 3152.97  146.69   1
   4   5   6 2523.33  195.46   1
   5  -4  -6 3071.23  160.51   1
   5  -4  -6 2703.25  183.16   1
   5  -4  -6 2783.10  200.58   1
   5  -4   6 3196.10  193.59   1
   5  -4   6 2855.72  178.66   1
   5  -4   6 2798.66  145.26   1
   5  -4   6 3068.95  220.13   1
  -5   4  -7  163.46   46.63   1
  -5   4  -7  220.01   59.32   1
  -5   4   7  134.10   46.96   1
  -4  -5  -7   91.27   42.04   1
  -4  -5  -7  187.90   92.49   1
  -4  -5   7  189.50   59.74   1
  -4  -5   7   84.92   75.24   1
  -4  -5   7   83.37   85.41   1
   4   5  -7   72.81   42.85   1
   4   5   7  124.76   47.42   1
   4   5   7  143.66   88.92   1
   5  -4  -7  190.50   62.72   1
   5  -4  -7   68.53   68.04   1
   5  -4  -7  208.62   88.82   1
   5  -4   7   98.57   64.91   1
   5  -4   7  134.41   48.12   1
   5  -4   7  175.86   68.86   1
   5  -4   7   85.69   44.99   1
  -5   4  -8  980.19   90.78   1
  -5   4  -8  978.23  101.78   1
  -4  -5  -8 1064.75   89.94   1
  -4  -5  -8 1072.10  177.89   1
  -4  -5   8  851.77  148.67   1
  -4  -5   8  869.33  164.32   1
   4   5  -8  998.64   99.65   1
   4   5   8  745.10   90.63   1
   4   5   8  964.51  187.35   1
   5  -4  -8 1029.13  110.44   1
   5  -4  -8  946.74  147.28   1
   5  -4  -8  911.69  151.58   1
   5  -4   8 1106.75  159.62   1
   5  -4   8  977.39   94.66   1
   5  -4   8 1024.75  141.54   1
   5  -4   8  948.01  103.86   1
  -5   4  -9  711.50   90.63   1
  -5   4  -9  527.94   86.67   1
  -4  -5  -9  695.94   78.88   1
  -4  -5  -9  660.58  154.72   1
  -4  -5   9  482.08  129.97   1
  -4  -5   9  466.89  133.52   1
   4   5  -9  827.47   97.58   1
   4   5   9  548.45   91.85   1
   4   5   9  769.25  191.54   1
   5  -4  -9  672.06  104.47   1
   5  -4  -9  428.33  118.78   1
   5  -4  -9  623.49  139.48   1
   5  -4   9  697.08  136.37   1
   5  -4   9  564.40   83.87   1
   5  -4   9  587.62  125.39   1
   5  -4   9  615.13   96.90   1
  -5   4 -10    2.98   41.24   1
  -4  -5 -10  -42.37  106.87   1
  -4  -5  10   65.70   97.64   1
   4   5 -10   29.03   45.78   1
   4   5  10   11.69   48.18   1
   5  -4 -10   28.22   49.66   1
   5  -4 -10   25.00   98.30   1
   5  -4  10   14.70   73.21   1
   5  -4  10    1.17   41.84   1
   5  -4  10    9.35   52.87   1
  -5   4  11   66.03   87.70   1
  -4  -5 -11   -4.89  148.91   1
  -4  -5  11  -33.90  122.49   1
   4   5 -11   28.07   53.88   1
   4   5  11   56.99   72.74   1
   5  -4 -11   56.28   67.44   1
   5  -4 -11   21.16  125.75   1
   5  -4  11   88.87   91.38   1
   5  -4  11   49.43   69.60   1
   5  -4  11   48.60   72.02   1
  -5   4  12   95.29  109.86   1
  -4  -5 -12    0.19  176.86   1
  -4  -5  12  121.18  157.67   1
   4   5 -12  139.02   75.44   1
   4   5  12  147.62   94.87   1
   5  -4 -12  115.08   82.16   1
   5  -4 -12  197.77  156.82   1
   5  -4  12  162.54  114.18   1
   5  -4  12  176.46   91.63   1
  -5   4  13   -5.45  118.75   1
  -4  -5 -13  169.88  193.99   1
  -4  -5  13   49.34  174.98   1
   4   5 -13   38.72   77.48   1
   4   5  13   -8.06   86.43   1
   5  -4 -13   55.38   84.60   1
   5  -4 -13  -15.26  155.74   1
   5  -4  13  -11.18  111.26   1
   5  -4  13   48.23   86.96   1
  -5   4  14  290.60  154.76   1
  -4  -5 -14  540.63  219.95   1
  -4  -5  14  379.11  215.53   1
   4   5 -14  609.86  117.42   1
   4   5  14  492.14  124.58   1
   5  -4 -14  516.56  119.70   1
   5  -4 -14  426.78  194.90   1
   5  -4  14  587.70  162.78   1
   5  -4  14  440.86  119.64   1
  -5   4  15  636.01  195.57   1
  -4  -5 -15  682.34  220.41   1
  -4  -5  15  849.85  245.03   1
   4   5 -15 1153.57  146.02   1
   4   5  15  808.24  142.57   1
   5  -4 -15  988.37  142.80   1
   5  -4 -15  790.24  214.80   1
   5  -4  15 1011.94  187.69   1
   5  -4  15  857.92  151.64   1
  -4  -5 -16 -153.64  167.00   1
  -4  -5  16   29.04  204.55   1
   4   5 -16    0.07   85.99   1
   4   5  16   -5.43   90.83   1
   5  -4 -16   -2.99   91.84   1
   5  -4 -16   74.26  163.92   1
   5  -4  16    6.03  112.22   1
   5  -4  16   55.93   93.30   1
  -5   3   0  349.36   54.88   1
  -5   3   0  431.82   60.96   1
  -3  -5   0  429.42   66.29   1
  -3  -5   0  427.98   86.62   1
  -3  -5   0  327.81   73.98   1
   3   5   0  378.01   63.00   1
   5  -3   0  406.84   76.81   1
   5  -3   0  475.51   66.28   1
   5  -3   0  444.17   80.14   1
  -5   3  -1 5132.21  159.67   1
  -5   3  -1 5401.77  167.21   1
  -5   3   1 5460.11  168.62   1
  -5   3   1 5038.06  153.13   1
  -3  -5  -1 5316.85  173.66   1
  -3  -5  -1 5705.07  233.53   1
  -3  -5  -1 5140.21  207.58   1
  -3  -5   1 5222.51  176.31   1
  -3  -5   1 5608.57  230.57   1
  -3  -5   1 5435.25  213.47   1
   3   5  -1 5374.96  175.84   1
   3   5   1 5415.04  178.06   1
   5  -3  -1 6003.78  218.86   1
   5  -3  -1 5905.15  171.37   1
   5  -3  -1 5712.83  216.57   1
   5  -3   1 5941.37  205.05   1
   5  -3   1 6001.95  219.33   1
   5  -3   1 5910.40  177.55   1
   5  -3   1 6329.42  226.17   1
  -5   3  -2 6821.02  181.50   1
  -5   3  -2 6531.58  188.05   1
  -5   3   2 6796.25  190.05   1
  -5   3   2 6560.55  168.52   1
  -3  -5  -2 6555.32  190.26   1
  -3  -5  -2 6673.96  256.89   1
  -3  -5   2 6631.32  201.39   1
  -3  -5   2 6768.35  258.43   1
  -3  -5   2 6473.97  238.72   1
   3   5  -2 7687.97  187.18   1
   3   5  -2 6490.75  192.43   1
   3   5   2 6242.86  229.35   1
   5  -3  -2 6898.26  237.70   1
   5  -3  -2 6470.18  177.11   1
   5  -3  -2 7067.38  246.06   1
   5  -3   2 7636.41  234.32   1
   5  -3   2 7319.18  245.07   1
   5  -3   2 6965.71  196.53   1
   5  -3   2 7352.11  249.87   1
  -5   3  -3  128.17   37.23   1
  -5   3  -3   86.50   37.21   1
  -5   3   3  104.69   36.28   1
  -5   3   3   99.20   43.65   1
  -3  -5  -3   60.62   33.93   1
  -3  -5  -3  165.27   72.60   1
  -3  -5   3   53.32   36.80   1
  -3  -5   3   58.50   59.19   1
  -3  -5   3  109.98   60.01   1
   3   5  -3   95.13   34.29   1
   3   5  -3  143.23   42.42   1
   3   5   3   65.95   51.56   1
   5  -3  -3   96.25   41.72   1
   5  -3  -3  110.58   54.80   1
   5  -3  -3   75.49   34.55   1
   5  -3  -3   45.98   49.16   1
   5  -3   3  110.89   51.26   1
   5  -3   3   84.39   49.53   1
   5  -3   3  107.95   39.56   1
   5  -3   3  105.83   54.89   1
  -5   3  -4 2552.48  113.00   1
  -5   3  -4 2423.51  125.11   1
  -5   3   4 2211.99  116.46   1
  -3  -5  -4 2350.95  118.46   1
  -3  -5  -4 2599.41  190.73   1
  -3  -5   4 2363.70  131.25   1
  -3  -5   4 2192.41  179.17   1
  -3  -5   4 2416.79  176.50   1
   3   5  -4 2633.58  120.53   1
   3   5  -4 2280.84  118.99   1
   3   5   4 2577.72  174.46   1
   5  -3  -4 2374.21  127.08   1
   5  -3  -4 2423.25  164.82   1
   5  -3  -4 2501.58  153.92   1
   5  -3  -4 2460.07  171.80   1
   5  -3   4 2769.31  154.70   1
   5  -3   4 2401.47  161.10   1
   5  -3   4 2303.47  124.14   1
   5  -3   4 2589.40  178.72   1
  -5   3  -5 3206.62  125.25   1
  -5   3  -5 3245.88  146.49   1
  -5   3   5 3202.64  140.00   1
  -3  -5  -5 3145.68  134.46   1
  -3  -5  -5 3242.07  221.64   1
  -3  -5   5 3406.32  157.23   1
  -3  -5   5 3328.81  225.46   1
  -3  -5   5 3067.81  208.50   1
   3   5  -5 3624.38  144.61   1
   3   5  -5 3189.62  138.72   1
   3   5   5 3193.68  213.73   1
   5  -3  -5 3651.28  159.78   1
   5  -3  -5 3502.25  203.35   1
   5  -3  -5 3453.61  210.99   1
   5  -3   5 3716.26  181.82   1
   5  -3   5 3208.25  125.66   1
   5  -3   5 3437.78  198.05   1
   5  -3   5 3252.00  151.33   1
   5  -3   5 3756.75  233.66   1
  -5   3  -6 2850.07  119.84   1
  -5   3  -6 2503.93  134.32   1
  -5   3   6 2734.17  132.44   1
  -5   3   6 2676.33  120.49   1
  -3  -5  -6 2513.70  121.11   1
  -3  -5  -6 2604.89  217.78   1
  -3  -5   6 2628.95  145.64   1
  -3  -5   6 2408.18  218.76   1
  -3  -5   6 2322.92  193.84   1
   3   5  -6 3086.68  139.18   1
   3   5  -6 2650.75  128.59   1
   3   5   6 2346.11  115.85   1
   3   5   6 2671.52  237.36   1
   5  -3  -6 2855.42  147.66   1
   5  -3  -6 2552.23  193.39   1
   5  -3  -6 2991.04  214.33   1
   5  -3   6 3447.23  182.46   1
   5  -3   6 2410.06  116.68   1
   5  -3   6 2812.89  193.87   1
   5  -3   6 2801.51  146.77   1
   5  -3   6 3059.24  240.52   1
  -5   3  -7  924.93   76.50   1
  -5   3  -7  705.67   86.32   1
  -5   3   7  777.96   80.58   1
  -5   3   7  824.11   81.59   1
  -3  -5  -7  800.82   79.79   1
  -3  -5  -7  615.03  144.27   1
  -3  -5   7  904.26  101.34   1
  -3  -5   7  734.67  161.47   1
  -3  -5   7  520.91  118.55   1
   3   5  -7  958.87   89.22   1
   3   5  -7  780.36   79.76   1
   3   5   7  721.94   77.19   1
   3   5   7  768.96  193.59   1
   5  -3  -7  974.60   98.79   1
   5  -3  -7  833.13  147.63   1
   5  -3   7  994.24  114.97   1
   5  -3   7  855.82   81.68   1
   5  -3   7  699.31  124.42   1
   5  -3   7  835.14   95.29   1
  -5   3  -8  430.82   62.81   1
  -5   3  -8  356.32   69.65   1
  -5   3   8  452.04   70.39   1
  -5   3   8  408.28   70.28   1
  -3  -5  -8  368.74   62.31   1
  -3  -5   8  338.47  137.59   1
  -3  -5   8  359.94  101.91   1
   3   5  -8  383.04   67.86   1
   3   5  -8  442.46   67.02   1
   3   5   8  391.77   69.33   1
   3   5   8  490.76  183.63   1
   5  -3  -8  484.10   87.27   1
   5  -3  -8  377.69  122.60   1
   5  -3   8  547.60  106.45   1
   5  -3   8  352.33   65.58   1
   5  -3   8  474.23  118.94   1
   5  -3   8  371.67   77.90   1
  -5   3  -9 6077.88  218.35   1
  -5   3   9 5727.94  198.36   1
  -3  -5  -9 6246.02  183.54   1
  -3  -5   9 6235.78  417.19   1
   3   5  -9 7040.24  225.96   1
   3   5   9 5724.35  201.56   1
   3   5   9 6405.93  543.44   1
   5  -3  -9 6936.54  242.97   1
   5  -3  -9 6730.15  339.99   1
   5  -3   9 6843.18  271.53   1
   5  -3   9 5780.08  203.14   1
   5  -3   9 5950.79  315.27   1
   5  -3   9 6431.52  243.51   1
  -5   3 -10  743.69  100.15   1
  -5   3  10  597.44   87.03   1
  -3  -5 -10  688.12   79.93   1
  -3  -5  10  513.27  205.19   1
   3   5 -10  648.11   92.84   1
   3   5  10  663.31   96.42   1
   5  -3 -10  835.36  113.18   1
   5  -3 -10  627.59  144.78   1
   5  -3  10  846.41  133.48   1
   5  -3  10  554.36   86.66   1
   5  -3  10  627.66  142.18   1
   5  -3  10  809.24  116.42   1
  -5   3 -11   47.93   48.16   1
  -5   3  11  200.86  113.35   1
  -5   3  11   57.66   48.67   1
  -3  -5  11   92.55  174.89   1
   3   5 -11  101.94   53.59   1
   3   5  11   91.14   50.41   1
   5  -3 -11   81.22   57.14   1
   5  -3 -11   83.00   94.12   1
   5  -3  11   99.11   71.09   1
   5  -3  11   66.85   47.80   1
   5  -3  11   82.33   60.81   1
  -5   3  12 4818.81  364.54   1
  -5   3  12 5129.61  223.46   1
   3   5 -12 5549.67  227.76   1
   3   5  12 4441.15  212.68   1
   5  -3 -12 5886.62  247.60   1
   5  -3 -12 5310.17  348.98   1
   5  -3  12 5914.45  277.96   1
   5  -3  12 5076.64  224.11   1
   5  -3  12 5707.80  264.59   1
  -3  -5  13  522.51  315.10   1
   3   5 -13  991.26  130.26   1
   3   5  13  949.26  137.83   1
   5  -3 -13 1096.13  146.21   1
   5  -3 -13  639.43  185.86   1
   5  -3  13  891.61  133.37   1
   5  -3  13  949.41  149.17   1
  -3  -5  14   48.23  315.66   1
   3   5 -14    7.12   77.26   1
   3   5  14   96.97   92.34   1
   5  -3 -14   82.09   89.76   1
   5  -3 -14  -67.91  152.27   1
   5  -3  14   75.35   84.17   1
   5  -3  14   -4.73   86.92   1
   3   5 -15 1771.11  182.04   1
   3   5  15 1493.02  180.12   1
   5  -3 -15 1658.33  184.79   1
   5  -3 -15 1485.89  254.68   1
   5  -3  15 1560.13  176.02   1
   5  -3  15 1515.07  190.90   1
  -3  -5  16  658.09  358.45   1
   3   5 -16 1069.92  150.81   1
   3   5  16  835.58  141.19   1
   5  -3 -16 1040.44  154.59   1
   5  -3 -16  810.46  228.19   1
   5  -3  16 1006.16  176.19   1
   5  -3  16  778.85  154.22   1
   3   5 -17  680.76  127.72   1
   3   5  17  548.92  129.09   1
   5  -3 -17  592.60  126.71   1
   5  -3 -17  563.94  210.82   1
   5  -3  17  472.18  135.93   1
  -5   2   0   15.26   21.86   1
  -5   2   0   -0.31   19.24   1
  -2  -5   0   -4.66   25.44   1
  -2  -5   0    2.40   40.56   1
  -2  -5   0   -3.95   36.77   1
   2   5   0   -5.79   18.22   1
   2   5   0    3.66   22.11   1
   5  -2   0   -7.45   33.53   1
   5  -2   0   15.68   24.13   1
   5  -2   0  -27.19   27.43   1
  -5   2  -1  350.51   49.89   1
  -5   2  -1  249.17   46.98   1
  -5   2   1  305.36   51.08   1
  -5   2   1  306.13   47.08   1
  -2  -5  -1  265.12   52.59   1
  -2  -5  -1  334.93   80.49   1
  -2  -5   1  299.80   54.74   1
  -2  -5   1  366.07   81.91   1
  -2  -5   1  278.14   63.89   1
   2   5  -1  371.45   52.84   1
   2   5  -1  283.28   49.35   1
   2   5   1  377.51   59.50   1
   5  -2  -1  304.48   69.77   1
   5  -2  -1  275.34   56.33   1
   5  -2  -1  390.70   74.35   1
   5  -2   1  419.46   71.18   1
   5  -2   1  278.25   64.79   1
   5  -2   1  347.14   59.71   1
   5  -2   1  318.22   66.94   1
  -5   2  -2  166.98   38.13   1
  -5   2  -2  193.40   42.16   1
  -5   2   2  180.27   41.43   1
  -5   2   2  213.71   40.63   1
  -2  -5  -2  212.86   49.04   1
  -2  -5  -2  196.19   72.37   1
  -2  -5   2  134.44   42.94   1
  -2  -5   2  192.00   67.36   1
  -2  -5   2  162.68   60.42   1
   2   5  -2  220.40   41.56   1
   2   5  -2  206.96   45.39   1
   2   5   2  155.84   40.33   1
   5  -2  -2  206.63   65.68   1
   5  -2  -2  275.23   54.53   1
   5  -2  -2  231.17   61.58   1
   5  -2   2  250.57   57.93   1
   5  -2   2  236.52   66.83   1
   5  -2   2  280.16   60.58   1
   5  -2   2  310.27   68.84   1
  -5   2  -3 2640.90  105.64   1
  -5   2  -3 2646.01  120.65   1
  -5   2   3 2576.23  116.76   1
  -5   2   3 2525.04   98.23   1
  -5   2   3 2707.97  104.84   1
  -2  -5  -3 2522.10  119.25   1
  -2  -5  -3 2764.96  183.61   1
  -2  -5   3 2666.83  130.57   1
  -2  -5   3 2643.26  183.03   1
  -2  -5   3 2615.14  158.77   1
   2   5  -3 2723.70  114.15   1
   2   5  -3 2496.80  117.84   1
   2   5   3 2768.80  168.32   1
   2   5   3 2624.77  121.85   1
   5  -2  -3 2888.76  126.13   1
   5  -2  -3 2751.05  169.06   1
   5  -2  -3 2857.65  129.44   1
   5  -2  -3 2980.93  170.05   1
   5  -2   3 2965.72  137.27   1
   5  -2   3 2459.68   98.50   1
   5  -2   3 2763.91  169.11   1
   5  -2   3 2665.20  131.44   1
   5  -2   3 2996.49  170.06   1
  -5   2  -4  714.05   59.34   1
  -5   2  -4  611.36   68.13   1
  -5   2   4  817.94   73.88   1
  -5   2   4  645.11   62.20   1
  -2  -5  -4  653.75   69.82   1
  -2  -5  -4  506.39  113.30   1
  -2  -5   4  754.49   82.51   1
  -2  -5   4  664.95  131.86   1
  -2  -5   4  689.88  109.74   1
   2   5  -4  728.31   67.27   1
   2   5  -4  661.49   68.32   1
   2   5   4  750.73  126.15   1
   2   5   4  785.25   74.93   1
   5  -2  -4  889.32   78.83   1
   5  -2  -4  588.66  108.57   1
   5  -2  -4  844.23   79.20   1
   5  -2  -4  774.20  120.46   1
   5  -2   4  788.17   82.01   1
   5  -2   4  839.19   66.57   1
   5  -2   4  790.82  126.67   1
   5  -2   4  714.76   77.92   1
   5  -2   4  778.69  122.25   1
  -5   2  -5 1532.16   81.51   1
  -5   2  -5 1483.25   99.88   1
  -5   2   5 1483.80   96.31   1
  -5   2   5 1559.56   91.56   1
  -2  -5  -5 1495.34   95.61   1
  -2  -5   5 1605.75  111.28   1
  -2  -5   5 1339.03  199.53   1
   2   5  -5 1868.21  102.34   1
   2   5  -5 1445.42   94.04   1
   2   5   5 1317.57   79.60   1
   2   5   5 1736.05  201.80   1
   5  -2  -5 1798.22  109.13   1
   5  -2  -5 1584.51  137.78   1
   5  -2  -5 1792.13  109.87   1
   5  -2  -5 1664.35  159.05   1
   5  -2   5 1746.52  112.34   1
   5  -2   5 1500.96   88.75   1
   5  -2   5 1360.66  158.53   1
   5  -2   5 1731.00  116.76   1
   5  -2   5 2086.13  175.01   1
  -5   2  -6 3533.71  118.46   1
  -5   2  -6 3591.14  152.73   1
  -5   2   6 3731.83  147.61   1
  -5   2   6 3364.46  134.43   1
  -2  -5  -6 3560.22  140.67   1
  -2  -5   6 3330.71  157.14   1
  -2  -5   6 3361.94  325.80   1
   2   5  -6 3900.57  148.91   1
   2   5  -6 3128.51  134.02   1
   2   5   6 3169.73  124.37   1
   5  -2  -6 3838.04  158.37   1
   5  -2  -6 3706.88  197.62   1
   5  -2  -6 3852.96  155.79   1
   5  -2  -6 3726.76  226.52   1
   5  -2   6 3920.29  164.92   1
   5  -2   6 3680.67  140.34   1
   5  -2   6 3720.93  268.72   1
   5  -2   6 3413.73  163.55   1
   5  -2   6 4388.59  243.24   1
  -5   2  -7  179.77   39.75   1
  -5   2  -7   94.69   41.77   1
  -5   2   7  145.38   42.81   1
  -5   2   7  124.41   44.00   1
  -2  -5  -7  180.35   48.33   1
  -2  -5   7  184.15  147.61   1
   2   5  -7  160.72   46.60   1
   2   5  -7  144.72   42.11   1
   2   5   7  146.65   44.41   1
   5  -2  -7  182.73   53.92   1
   5  -2  -7   96.90   59.85   1
   5  -2  -7  224.82   56.90   1
   5  -2  -7  109.44   73.27   1
   5  -2   7  216.68   60.68   1
   5  -2   7  168.70   45.40   1
   5  -2   7   85.47   91.61   1
   5  -2   7  152.46   52.45   1
  -5   2  -8 1266.18  104.91   1
  -5   2   8 1293.65   97.91   1
  -5   2   8 1332.55  101.32   1
  -2  -5  -8 1212.66   92.47   1
  -2  -5   8  945.31  225.15   1
   2   5  -8 1294.04   98.70   1
   2   5  -8 1137.21   88.81   1
   2   5   8  992.25   85.30   1
   5  -2  -8 1432.29  112.51   1
   5  -2  -8 1437.64  164.11   1
   5  -2   8 1095.59  115.57   1
   5  -2   8 1320.79  110.85   1
   5  -2   8 1211.27   96.57   1
   5  -2   8 1195.87  225.54   1
   5  -2   8 1359.88  120.85   1
  -5   2  -9  763.51   91.61   1
  -5   2   9  735.66   95.99   1
  -2  -5  -9  842.82   83.22   1
  -2  -5   9  530.36  184.52   1
   2   5  -9  780.32   86.75   1
   2   5  -9  750.50   78.02   1
   2   5   9  690.35   78.18   1
   5  -2  -9  850.48   95.99   1
   5  -2  -9  590.42  120.93   1
   5  -2   9  711.41  113.56   1
   5  -2   9  835.19   96.85   1
   5  -2   9  722.12   85.66   1
   5  -2   9  825.18  191.17   1
   5  -2   9  683.75  105.75   1
  -5   2 -10   30.92   40.83   1
  -5   2  10   -0.76   37.38   1
  -2  -5 -10    0.64   34.23   1
  -2  -5  10  -14.56  121.63   1
   2   5 -10   21.42   36.37   1
   2   5  10   23.22   36.74   1
   5  -2 -10   49.14   44.91   1
   5  -2 -10   24.02   65.84   1
   5  -2  10   70.42   53.90   1
   5  -2  10   42.04   48.31   1
   5  -2  10   14.37   39.82   1
   5  -2  10   21.20   89.87   1
   5  -2  10    1.87   46.77   1
  -5   2 -11    5.43   40.38   1
  -5   2  11   56.58   48.53   1
  -2  -5 -11   60.74   41.32   1
  -2  -5  11   21.53  109.81   1
   2   5 -11   71.69   47.00   1
   2   5  11    2.82   38.19   1
   5  -2 -11   49.73   48.40   1
   5  -2 -11   28.09   71.00   1
   5  -2  11   -1.58   47.18   1
   5  -2  11   45.63   51.26   1
   5  -2  11   37.88   45.47   1
   5  -2  11   50.08   93.29   1
   5  -2  11   17.41   52.73   1
  -5   2 -12  122.11   54.82   1
  -5   2  12   23.51  113.65   1
  -5   2  12  162.40   63.83   1
  -2  -5  12  152.61  138.81   1
   2   5 -12  209.49   65.96   1
   2   5  12  122.58   56.52   1
   5  -2 -12  172.16   64.99   1
   5  -2 -12  279.63  105.92   1
   5  -2  12  133.19   68.21   1
   5  -2  12  277.22   80.53   1
   5  -2  12  139.58   61.30   1
   5  -2  12  137.21   73.99   1
  -5   2  13   32.41   70.60   1
  -2  -5  13   20.64  126.94   1
   2   5 -13   67.84   70.55   1
   2   5  13    7.72   62.40   1
   5  -2 -13   53.27   66.68   1
   5  -2 -13    4.54   97.62   1
   5  -2  13   86.82   69.58   1
   5  -2  13    7.18   78.41   1
  -5   2  14  443.49  113.59   1
  -2  -5  14  520.82  301.87   1
   2   5 -14  649.10  120.36   1
   2   5  14  435.57  109.31   1
   5  -2 -14  653.69  122.58   1
   5  -2 -14  690.95  178.13   1
   5  -2  14  537.83  117.44   1
   5  -2  14  555.08  140.95   1
  -5   2  15  980.96  147.93   1
   2   5 -15 1065.53  147.62   1
   2   5  15 1028.40  151.89   1
   5  -2 -15  988.52  147.98   1
   5  -2 -15  984.57  206.55   1
   5  -2  15  781.29  136.95   1
   5  -2  15  966.02  179.96   1
   2   5 -16   71.15  100.80   1
   2   5  16  -28.08   85.39   1
   5  -2 -16  -51.14   89.35   1
   5  -2 -16  -59.93  147.33   1
   5  -2  16  -37.31   85.44   1
   5  -2  16   43.04  114.79   1
   2   5 -17 1051.55  155.41   1
   2   5  17  775.51  137.89   1
   5  -2 -17 1057.80  151.36   1
   5  -2 -17 1039.56  225.59   1
   5  -2  17  807.29  145.32   1
   5  -2  17  612.64  170.92   1
   2   5  18  459.36  134.80   1
   5  -2 -18  685.69  161.38   1
   5  -2 -18  823.38  237.11   1
  -5   1   0  542.15   53.56   1
  -5   1   0  539.52   53.71   1
  -1  -5   0  534.97   65.99   1
  -1  -5   0  507.86   85.81   1
   1   5   0  568.65   51.93   1
   1   5   0  472.21   56.68   1
   5  -1   0  544.70   85.81   1
   5  -1   0  526.74   76.48   1
   5  -1   0  664.93   86.95   1
  -5   1  -1 6297.05  153.91   1
  -5   1   1 6582.93  165.10   1
  -5   1   1 6958.88  158.84   1
  -1  -5  -1 6908.42  188.80   1
  -1  -5  -1 6873.84  233.67   1
  -1  -5   1 6309.70  184.08   1
  -1  -5   1 6543.54  224.87   1
   1   5  -1 7503.12  171.36   1
   1   5  -1 6976.02  183.23   1
   1   5   1 7739.59  166.33   1
   1   5   1 6709.33  179.17   1
   5  -1  -1 6706.92  224.88   1
   5  -1  -1 7073.53  204.73   1
   5  -1  -1 7226.48  213.16   1
   5  -1   1 8492.43  282.66   1
   5  -1   1 7093.31  153.21   1
   5  -1   1 7084.53  230.48   1
   5  -1   1 7197.60  208.47   1
   5  -1   1 7573.06  215.24   1
  -5   1  -2 8351.36  173.41   1
  -5   1   2 7995.23  186.38   1
  -5   1   2 7632.57  172.20   1
  -1  -5  -2 7904.24  201.45   1
  -1  -5  -2 7890.99  263.20   1
  -1  -5   2 8192.16  211.42   1
  -1  -5   2 8068.41  260.74   1
   1   5  -2 8819.64  189.96   1
   1   5  -2 7738.77  194.08   1
   1   5   2 8036.41  196.86   1
   5  -1  -2 8190.61  260.22   1
   5  -1  -2 8044.06  218.24   1
   5  -1  -2 8737.71  248.82   1
   5  -1   2 8557.02  175.90   1
   5  -1   2 8943.80  272.40   1
   5  -1   2 8414.20  227.87   1
   5  -1   2 9391.48  249.38   1
  -5   1  -3  114.99   29.78   1
  -5   1   3   92.29   31.88   1
  -5   1   3  110.84   34.22   1
  -1  -5  -3  100.63   37.27   1
  -1  -5  -3  148.28   71.18   1
  -1  -5   3  114.93   41.55   1
  -1  -5   3   72.66   57.76   1
   1   5  -3  109.14   31.45   1
   1   5  -3  112.29   34.04   1
   1   5   3  104.09   35.23   1
   5  -1  -3  127.30   37.36   1
   5  -1  -3  146.31   53.65   1
   5  -1  -3   85.87   61.72   1
   5  -1  -3  216.11   56.24   1
   5  -1  -3   72.37   49.57   1
   5  -1   3  103.26   30.89   1
   5  -1   3  144.26   65.56   1
   5  -1   3   98.65   42.57   1
   5  -1   3  142.46   54.72   1
  -5   1  -4 2957.42  101.79   1
  -5   1   4 2834.59  119.99   1
  -5   1   4 2841.52  118.14   1
  -1  -5  -4 2871.00  126.70   1
  -1  -5   4 2794.15  135.58   1
  -1  -5   4 2841.50  197.89   1
   1   5  -4 3199.67  122.76   1
   1   5  -4 3202.27  115.75   1
   1   5  -4 2939.92  124.91   1
   1   5   4 2394.98   93.75   1
   1   5   4 2875.33  123.16   1
   5  -1  -4 3311.76  130.59   1
   5  -1  -4 2871.84  161.51   1
   5  -1  -4 2906.25  138.99   1
   5  -1  -4 2920.14  175.32   1
   5  -1   4 2947.61  116.39   1
   5  -1   4 3167.07  223.22   1
   5  -1   4 2652.09  141.17   1
   5  -1   4 3496.99  170.81   1
  -5   1  -5 3843.26  113.07   1
  -5   1   5 3852.83  142.48   1
  -5   1   5 3997.19  144.89   1
  -1  -5  -5 3699.62  143.19   1
  -1  -5   5 3911.54  162.53   1
  -1  -5   5 3976.61  245.87   1
   1   5  -5 4400.92  147.49   1
   1   5  -5 4725.81  126.30   1
   1   5  -5 3977.93  145.79   1
   1   5   5 3085.93  112.45   1
   1   5   5 3841.00  143.58   1
   5  -1  -5 4711.58  159.16   1
   5  -1  -5 4216.04  195.22   1
   5  -1  -5 4044.50  208.67   1
   5  -1   5 3400.79  164.96   1
   5  -1   5 4390.27  141.83   1
   5  -1   5 3966.97  140.68   1
   5  -1   5 4057.66  307.70   1
   5  -1   5 4341.46  183.75   1
   5  -1   5 4609.41  188.79   1
  -5   1  -6 3296.01  104.83   1
  -5   1   6 3257.53  135.33   1
  -5   1   6 3146.86  135.58   1
  -1  -5  -6 3062.64  132.54   1
  -1  -5   6 3686.28  240.38   1
   1   5  -6 3617.89  138.96   1
   1   5  -6 3746.66  121.68   1
   1   5  -6 3282.16  135.15   1
   1   5   6 2722.54  112.50   1
   5  -1  -6 3762.90  148.42   1
   5  -1  -6 3400.39  179.97   1
   5  -1  -6 3565.85  198.89   1
   5  -1   6 3052.91  161.15   1
   5  -1   6 3691.84  135.27   1
   5  -1   6 2873.38  127.72   1
   5  -1   6 3561.76  333.94   1
   5  -1   6 2912.66  158.92   1
   5  -1   6 3978.78  173.52   1
  -5   1   7  980.84   84.10   1
  -5   1   7  904.04   86.79   1
  -1  -5  -7 1003.19   86.00   1
  -1  -5   7  795.73  135.92   1
   1   5  -7 1024.11   83.26   1
   1   5  -7  909.04   79.23   1
   1   5   7  844.05   73.10   1
   5  -1  -7 1144.38   93.24   1
   5  -1  -7  998.55  114.98   1
   5  -1  -7  943.99  129.64   1
   5  -1   7  916.06  100.78   1
   5  -1   7 1067.99   84.12   1
   5  -1   7  828.91   79.25   1
   5  -1   7 1081.28  203.34   1
   5  -1   7  865.91  102.88   1
  -5   1   8  530.36   73.22   1
  -5   1   8  476.79   75.12   1
  -1  -5  -8  468.20   70.48   1
  -1  -5   8  507.92   81.05   1
  -1  -5   8  727.68  134.34   1
   1   5  -8  529.48   75.25   1
   1   5  -8  650.54   66.57   1
   1   5  -8  554.86   68.82   1
   1   5   8  453.79   67.96   1
   5  -1  -8  597.54   82.69   1
   5  -1  -8  581.75  108.20   1
   5  -1  -8  533.69  104.76   1
   5  -1   8  410.05   80.66   1
   5  -1   8  599.96   81.59   1
   5  -1   8  493.30   75.50   1
   5  -1   8  547.75  140.24   1
   5  -1   8  563.23   98.02   1
  -5   1  -9 7472.14  230.98   1
  -5   1   9 7342.12  234.26   1
  -1  -5  -9 7201.26  206.61   1
  -1  -5   9 8066.62  211.81   1
  -1  -5   9 8042.76  322.09   1
   1   5  -9 8149.88  227.16   1
   1   5  -9 8759.82  219.28   1
   1   5  -9 7293.15  205.48   1
   1   5   9 6199.24  197.73   1
   5  -1  -9 8411.80  242.80   1
   5  -1  -9 7799.88  296.74   1
   5  -1   9 5556.83  227.35   1
   5  -1   9 8912.65  232.94   1
   5  -1   9 6974.15  225.47   1
   5  -1   9 6893.21  345.11   1
   5  -1   9 7571.16  286.83   1
  -5   1 -10  838.13   98.75   1
  -5   1  10  802.16  113.15   1
  -1  -5 -10  794.49   86.45   1
  -1  -5  10  852.46   85.68   1
  -1  -5  10  821.39  135.03   1
   1   5 -10  830.69   90.20   1
   1   5 -10  827.26   83.50   1
   1   5  10  578.82   84.09   1
   5  -1 -10 1006.79  103.23   1
   5  -1 -10  912.76  135.03   1
   5  -1  10  592.16  101.01   1
   5  -1  10  923.75   91.91   1
   5  -1  10  747.23   92.36   1
   5  -1  10  867.74  156.34   1
   5  -1  10  611.24  115.61   1
  -5   1 -11   35.38   45.55   1
  -5   1  11   47.24   73.20   1
  -5   1  11   43.10   48.07   1
  -1  -5 -11   99.12   44.01   1
  -1  -5  11  119.92   50.83   1
  -1  -5  11  103.28   76.34   1
   1   5 -11   24.22   40.33   1
   1   5  11   31.89   37.36   1
   5  -1 -11   38.59   44.73   1
   5  -1 -11   48.19   66.30   1
   5  -1  11   16.11   43.65   1
   5  -1  11  120.61   52.50   1
   5  -1  11   28.56   44.08   1
   5  -1  11   95.01   78.63   1
   5  -1  11   80.92   66.15   1
  -5   1 -12 5482.33  216.26   1
  -5   1  12 4757.84  302.06   1
  -5   1  12 5692.17  237.40   1
  -1  -5 -12 5660.78  192.65   1
  -1  -5  12 6388.26  213.12   1
  -1  -5  12 6336.34  293.60   1
   1   5 -12 6032.27  219.92   1
   1   5  12 5048.54  208.20   1
   5  -1 -12 6492.46  237.89   1
   5  -1 -12 6205.28  290.39   1
   5  -1  12 4996.68  235.06   1
   5  -1  12 6916.10  234.50   1
   5  -1  12 5735.47  235.82   1
   5  -1  12 6229.63  319.60   1
   5  -1  12 5545.31  292.60   1
  -5   1 -13 1068.36  120.16   1
  -5   1  13 1044.04  137.37   1
  -1  -5 -13 1163.16  107.03   1
   1   5 -13 1354.74  133.18   1
   1   5  13  890.37  123.49   1
   5  -1 -13 1277.62  133.38   1
   5  -1 -13 1137.01  165.12   1
   5  -1  13  897.95  130.15   1
   5  -1  13 1112.52  134.43   1
   5  -1  13 1104.73  178.05   1
  -5   1  14   42.52   81.30   1
   1   5 -14   74.79   80.98   1
   1   5  14   82.19   74.27   1
   5  -1 -14   54.51   74.86   1
   5  -1 -14  100.75  105.30   1
   5  -1  14   32.73   76.82   1
   5  -1  14   13.39  100.25   1
  -5   1  15 1699.63  198.97   1
   1   5 -15 1951.62  193.76   1
   1   5  15 1573.37  173.12   1
   5  -1 -15 2025.53  184.84   1
   5  -1 -15 1814.38  232.46   1
   5  -1  15 1671.87  185.32   1
   5  -1  15 1739.17  251.44   1
  -5   1  16  870.01  158.26   1
   1   5 -16  987.06  154.88   1
   1   5  16  632.57  126.92   1
   5  -1 -16  932.18  145.07   1
   5  -1 -16  985.39  199.05   1
   5  -1  16  867.29  149.98   1
   1   5 -17  620.46  141.90   1
   1   5  17  680.61  131.28   1
   5  -1 -17  708.62  137.51   1
   5  -1 -17  802.84  199.07   1
   5  -1  17  515.74  125.27   1
   1   5 -18   48.93  152.83   1
   1   5  18  158.00  102.84   1
   5  -1 -18  126.23  101.07   1
   5  -1 -18  148.26  160.73   1
   5  -1  18  120.18  100.10   1
  -5   0   0   71.27   26.03   1
  -5   0   0    7.30   22.32   1
   0  -5   0    2.96   25.69   1
   0  -5   0    2.92   32.82   1
   0   5   0    8.09   18.11   1
   0   5   0  102.06   33.41   1
   5   0   0    2.66   18.45   1
   5   0   0   11.07   30.44   1
   5   0   0   -5.78   24.55   1
  -5   0  -1  286.53   41.70   1
  -5   0  -1  324.19   52.03   1
  -5   0   1  384.64   47.17   1
  -5   0   1  306.82   52.76   1
   0  -5  -1  432.26   65.77   1
   0  -5  -1  372.56   74.40   1
   0  -5   1  360.41   60.83   1
   0  -5   1  360.07   69.96   1
   0   5  -1  438.55   49.27   1
   0   5  -1  382.12   55.41   1
   0   5   1  369.60   45.08   1
   0   5   1  388.02   55.28   1
   5   0  -1  344.25   47.79   1
   5   0  -1  495.50   81.49   1
   5   0  -1  384.86   69.13   1
   5   0  -1  441.78   93.55   1
   5   0   1  372.74   46.10   1
   5   0   1  364.05   70.04   1
   5   0   1  372.00   70.43   1
  -5   0  -2  228.16   37.50   1
  -5   0  -2  247.59   46.13   1
  -5   0   2  221.46   42.40   1
  -5   0   2  202.52   45.70   1
   0  -5  -2  211.45   48.95   1
   0  -5  -2  302.28   74.11   1
   0  -5   2  281.73   55.84   1
   0  -5   2  259.45   61.38   1
   0  -5   2  231.38   62.63   1
   0  -5   2  282.82   44.01   1
   0   5  -2  230.11   42.68   1
   0   5  -2  301.48   33.62   1
   0   5  -2  259.06   48.47   1
   0   5   2  262.13   42.04   1
   0   5   2  215.49   42.95   1
   5   0  -2  278.01   67.38   1
   5   0  -2  269.41   43.39   1
   5   0  -2  316.76   76.28   1
   5   0  -2  325.04   62.63   1
   5   0  -2  213.85   56.29   1
   5   0   2  207.65   41.67   1
   5   0   2  279.64   69.76   1
   5   0   2  259.97   60.88   1
  -5   0  -3 2868.10   97.99   1
  -5   0  -3 2740.59  111.78   1
  -5   0   3 2836.83  114.93   1
  -5   0   3 2724.89  120.87   1
   0  -5  -3 3021.68  131.21   1
   0  -5   3 3015.05  137.07   1
   0  -5   3 3086.28  135.90   1
   0  -5   3 3045.21  160.68   1
   0   5  -3 3286.97  120.81   1
   0   5  -3 3394.90   99.32   1
   0   5  -3 2994.53  123.80   1
   0   5   3 3181.91  112.44   1
   0   5   3 2609.61   94.26   1
   0   5   3 2767.48  115.71   1
   5   0  -3 3021.01  115.39   1
   5   0  -3 3100.58  157.19   1
   5   0  -3 3123.23  161.55   1
   5   0   3 2539.60  136.63   1
   5   0   3 2936.57  117.26   1
   5   0   3 3384.73  189.30   1
   5   0   3 3221.49  156.42   1
  -5   0  -4  734.81   53.50   1
  -5   0  -4  724.03   67.12   1
  -5   0   4  886.77   71.83   1
  -5   0   4  705.88   69.70   1
   0  -5  -4  766.35   75.41   1
   0  -5   4  874.96   87.02   1
   0  -5   4  878.92   81.63   1
   0  -5   4  869.50  111.17   1
   0   5  -4  911.96   69.20   1
   0   5  -4  922.89   59.35   1
   0   5  -4  779.22   69.88   1
   0   5   4  683.77   56.22   1
   0   5   4  688.91   65.24   1
   5   0  -4  828.72   68.91   1
   5   0  -4  695.29  100.05   1
   5   0  -4  764.61  106.87   1
   5   0   4  687.10   83.75   1
   5   0   4  920.91   73.39   1
   5   0   4  941.25  136.99   1
   5   0   4  644.43   93.90   1
  -5   0  -5 1798.75   76.05   1
  -5   0   5 1793.97  100.79   1
  -5   0   5 1607.56  103.79   1
   0  -5  -5 1669.46  103.98   1
   0  -5   5 1890.95  109.95   1
   0  -5   5 2013.46  136.54   1
   0   5  -5 1903.60   98.52   1
   0   5  -5 2104.45   90.77   1
   0   5  -5 1563.27   95.05   1
   0   5   5 1577.49   84.42   1
   0   5   5 1636.68   94.29   1
   5   0  -5 2021.57  103.92   1
   5   0  -5 1762.74  128.80   1
   5   0  -5 1834.13  134.60   1
   5   0   5 1469.25  111.25   1
   5   0   5 1703.88  100.28   1
   5   0   5 2121.52  170.06   1
   5   0   5 1727.12  131.17   1
  -5   0   6 4049.21  149.72   1
  -5   0   6 4076.07  134.18   1
  -5   0   6 3568.70  153.08   1
   0  -5  -6 4424.69  162.76   1
   0  -5   6 3989.47  155.11   1
   0  -5   6 4462.46  189.77   1
   0   5  -6 4237.29  147.60   1
   0   5  -6 4815.82  142.39   1
   0   5  -6 3977.62  148.87   1
   0   5   6 3562.30  130.48   1
   0   5   6 4021.36  145.44   1
   5   0  -6 4468.56  155.84   1
   5   0  -6 4092.66  187.02   1
   5   0  -6 4543.62  199.15   1
   5   0   6 3332.16  162.12   1
   5   0   6 3586.31  147.44   1
   5   0   6 4702.35  233.43   1
   5   0   6 3817.47  196.87   1
  -5   0   7  151.37   45.62   1
  -5   0   7  142.74   42.84   1
  -5   0   7  159.41   51.82   1
   0  -5  -7  192.11   50.95   1
   0  -5   7  135.48   48.14   1
   0  -5   7  198.38   65.02   1
   0   5  -7  180.56   44.99   1
   0   5  -7  221.27   44.95   1
   0   5  -7  139.67   40.69   1
   0   5   7  181.62   47.64   1
   5   0  -7  214.99   52.86   1
   5   0  -7  138.35   60.85   1
   5   0  -7  125.86   54.00   1
   5   0   7  122.38   49.72   1
   5   0   7  175.77   47.60   1
   5   0   7  148.04   66.05   1
   5   0   7  151.76   68.50   1
  -5   0   8 1451.53  101.75   1
  -5   0   8 1559.66  100.18   1
  -5   0   8 1330.61  111.90   1
   0  -5  -8 1325.19  102.18   1
   0  -5   8 1408.04  104.67   1
   0  -5   8 1642.93  125.85   1
   0   5  -8 1355.32   94.92   1
   0   5  -8 1663.29   98.49   1
   0   5  -8 1355.04   96.82   1
   0   5   8 1329.23   94.82   1
   5   0  -8 1622.87  108.81   1
   5   0  -8 1348.64  124.59   1
   5   0  -8 1380.49  126.19   1
   5   0   8 1161.64  111.77   1
   5   0   8 1277.27  103.92   1
   5   0   8 1360.92  130.98   1
   5   0   8 1210.01  141.64   1
  -5   0   9  808.23   90.77   1
  -5   0   9  887.99   88.70   1
  -5   0   9  741.32  101.72   1
   0  -5  -9  886.28   91.81   1
   0  -5   9  826.06   90.81   1
   0  -5   9  870.47  104.58   1
   0   5  -9  923.40   87.00   1
   0   5  -9 1029.82   85.82   1
   0   5  -9  828.46   83.05   1
   0   5   9  627.47   75.53   1
   5   0  -9  914.79   91.41   1
   5   0  -9  774.43  113.14   1
   5   0   9  637.32   98.01   1
   5   0   9  735.36   98.82   1
   5   0   9  967.24  129.96   1
   5   0   9  865.96  146.88   1
  -5   0  10   25.43   42.18   1
  -5   0  10   82.87   54.59   1
   0  -5 -10    0.25   37.31   1
   0  -5  10   17.66   44.57   1
   0  -5  10    6.51   44.67   1
   0   5 -10   72.46   40.40   1
   0   5 -10   77.75   37.63   1
   0   5  10   24.27   35.10   1
   5   0 -10   53.85   40.71   1
   5   0 -10   12.35   43.39   1
   5   0  10   14.50   38.18   1
   5   0  10   40.92   38.90   1
   5   0  10   20.50   47.88   1
   5   0  10   42.93   69.97   1
  -5   0  11   97.49   58.38   1
   0  -5 -11  111.41   51.31   1
   0  -5  11   40.54   48.66   1
   0  -5  11   39.62   51.22   1
   0   5 -11   30.09   39.87   1
   0   5 -11   20.33   35.90   1
   0   5  11   45.24   40.75   1
   5   0 -11   16.02   38.40   1
   5   0 -11   33.10   53.57   1
   5   0  11   63.12   53.42   1
   5   0  11   23.47   44.87   1
   5   0  11   38.07   50.80   1
   5   0  11   42.74   81.91   1
  -5   0 -12  263.35   69.26   1
  -5   0  12  104.10   62.76   1
   0  -5 -12  229.23   65.88   1
   0  -5  12  274.53   77.57   1
   0  -5  12  194.35   70.67   1
   0   5 -12  242.51   66.17   1
   0   5  12  135.03   57.60   1
   5   0 -12  171.13   60.84   1
   5   0 -12  159.79   70.87   1
   5   0  12  205.59   71.31   1
   5   0  12  263.59   77.51   1
   5   0  12  232.10   78.05   1
   5   0  12  112.21   96.14   1
  -5   0  13   64.59   69.08   1
   0  -5 -13   29.12   48.61   1
   0  -5  13   46.61   55.44   1
   0   5 -13   61.86   56.13   1
   0   5  13   74.12   61.57   1
   5   0 -13   47.42   54.81   1
   5   0 -13   82.79   66.45   1
   5   0  13   57.23   58.28   1
   5   0  13   78.62   60.51   1
   5   0  13   49.44   87.98   1
  -5   0  14  587.99  130.67   1
   0  -5 -14  649.16  110.81   1
   0  -5  14  778.69  134.57   1
   0   5 -14  650.18  120.47   1
   0   5  14  476.54  103.02   1
   5   0 -14  661.80  112.65   1
   5   0 -14  554.47  126.11   1
   5   0  14  525.89  121.08   1
   5   0  14  466.89  117.36   1
  -5   0  15  993.05  163.50   1
   0  -5 -15 1109.49  136.59   1
   0  -5  15 1309.80  172.15   1
   0   5 -15  962.21  150.60   1
   0   5  15  862.66  136.33   1
   5   0 -15 1246.35  154.27   1
   5   0 -15 1311.76  180.31   1
   5   0  15  868.80  143.84   1
   5   0  15  932.31  156.14   1
  -5   0  16    9.23  104.63   1
   0  -5  16  -15.40  106.64   1
   0   5 -16   57.47  114.00   1
   0   5  16    8.82   90.70   1
   5   0 -16   16.28   88.07   1
   5   0 -16   25.65  108.63   1
   5   0  16   37.53   87.88   1
   5   0  16   12.23   91.83   1
  -5   0  17  854.62  169.64   1
   0  -5  17 1065.54  165.61   1
   0   5 -17  871.40  171.71   1
   0   5  17  792.21  144.58   1
   5   0 -17 1199.14  163.00   1
   5   0 -17  978.46  186.24   1
   5   0  17  832.47  145.66   1
   5   0  17  840.81  156.16   1
   0  -5  18  590.56  144.17   1
   0   5  18  577.54  133.36   1
   5   0 -18  686.96  134.73   1
   5   0 -18  679.95  181.55   1
   5   0  18  439.79  132.41   1
  -5  -1   0  462.97   49.76   1
  -5  -1   0  467.73   70.46   1
  -1   5   0  490.48   51.66   1
  -1   5   0  552.75   59.44   1
   1  -5   0  506.39   71.37   1
   1  -5   0  645.89  109.34   1
   1  -5   0  589.19   63.05   1
   5   1   0  522.19   57.37   1
   5   1   0  566.09   80.17   1
   5   1   0  426.36   71.63   1
  -5  -1  -1 6293.61  151.70   1
  -5  -1  -1 6172.48  181.66   1
  -5  -1   1 6545.17  163.69   1
  -5  -1   1 6384.78  188.18   1
  -1   5  -1 7255.72  175.44   1
  -1   5  -1 6224.69  173.02   1
  -1   5   1 7214.67  171.72   1
  -1   5   1 6978.18  179.15   1
   1  -5  -1 6756.36  192.49   1
   1  -5  -1 6598.44  197.16   1
   1  -5  -1 7821.13  191.49   1
   1  -5   1 7280.75  201.74   1
   1  -5   1 7999.92  193.41   1
   5   1  -1 6462.11  170.23   1
   5   1  -1 7265.60  216.43   1
   5   1  -1 7213.24  219.60   1
   5   1   1 6332.58  174.18   1
   5   1   1 8155.15  227.00   1
   5   1   1 7026.62  220.62   1
  -5  -1  -2 8142.14  167.43   1
  -5  -1  -2 6843.34  191.28   1
  -5  -1   2 8003.53  185.84   1
  -5  -1   2 7695.89  210.93   1
  -1   5  -2 8733.26  194.39   1
  -1   5  -2 8142.31  200.04   1
  -1   5   2 8663.07  186.46   1
  -1   5   2 8364.97  194.32   1
   1  -5  -2 8067.82  210.71   1
   1  -5  -2 7750.40  230.59   1
   1  -5  -2 9255.60  211.61   1
   1  -5   2 8106.42  215.91   1
   1  -5   2 8633.56  252.08   1
   1  -5   2 9648.95  213.68   1
   5   1  -2 9386.78  248.31   1
   5   1  -2 7807.02  185.08   1
   5   1  -2 8370.03  248.82   1
   5   1   2 6441.64  201.23   1
   5   1   2 7599.56  194.78   1
   5   1   2 9833.69  257.63   1
   5   1   2 7790.23  237.46   1
  -5  -1  -3  100.71   27.67   1
  -5  -1  -3   93.01   37.64   1
  -5  -1   3  104.35   34.27   1
  -5  -1   3  163.20   39.19   1
  -5  -1   3   90.82   41.89   1
  -1   5  -3  134.03   34.69   1
  -1   5  -3  127.27   37.58   1
  -1   5   3  109.68   31.62   1
  -1   5   3   77.05   30.61   1
   1  -5  -3  108.58   40.29   1
   1  -5  -3  206.17   50.16   1
   1  -5   3  166.53   50.21   1
   1  -5   3  133.87   56.91   1
   1  -5   3  102.76   27.08   1
   1  -5   3  118.91   37.97   1
   5   1  -3  108.83   33.28   1
   5   1  -3  133.53   49.19   1
   5   1  -3   63.94   29.35   1
   5   1   3   99.17   42.58   1
   5   1   3  145.11   41.64   1
   5   1   3  156.74   54.96   1
   5   1   3  149.74   53.64   1
  -5  -1  -4 2848.52   96.57   1
  -5  -1  -4 2473.87  122.66   1
  -5  -1   4 2930.24  123.03   1
  -5  -1   4 3083.46  114.95   1
  -5  -1   4 2542.97  132.42   1
  -1   5  -4 3164.50  123.70   1
  -1   5  -4 2771.29  124.19   1
  -1   5   4 3033.69  110.85   1
  -1   5   4 2438.28  104.14   1
  -1   5   4 2964.06  119.08   1
   1  -5  -4 2944.96  134.41   1
   1  -5  -4 3305.52  145.79   1
   1  -5   4 3034.87  167.62   1
   1  -5   4 3214.96  104.10   1
   1  -5   4 2982.92  127.12   1
   5   1  -4 3215.92  121.25   1
   5   1  -4 3076.21  155.06   1
   5   1  -4 2756.02  113.24   1
   5   1   4 2246.28  126.82   1
   5   1   4 2763.56  128.97   1
   5   1   4 3406.17  157.37   1
   5   1   4 3068.06  172.84   1
  -5  -1  -5 3659.22  105.32   1
  -5  -1  -5 3582.75  149.40   1
  -5  -1   5 3583.32  139.40   1
  -5  -1   5 4083.85  136.66   1
  -5  -1   5 3863.09  166.94   1
  -1   5  -5 4253.77  145.18   1
  -1   5  -5 3896.15  148.60   1
  -1   5   5 3596.57  131.64   1
  -1   5   5 3618.51  132.35   1
   1  -5  -5 4151.30  161.21   1
   1  -5  -5 4343.65  176.51   1
   1  -5   5 4128.15  192.43   1
   1  -5   5 4499.90  128.96   1
   1  -5   5 4481.20  135.43   1
   5   1  -5 4552.31  149.27   1
   5   1  -5 4321.82  181.20   1
   5   1   5 3197.10  151.13   1
   5   1   5 3722.33  153.19   1
   5   1   5 4371.33  172.92   1
   5   1   5 4044.02  215.27   1
  -5  -1   6 3312.03  139.18   1
  -5  -1   6 3186.41  129.07   1
  -5  -1   6 3000.97  155.00   1
  -1   5  -6 3416.91  134.39   1
  -1   5  -6 3818.54  137.76   1
  -1   5  -6 3351.27  141.58   1
  -1   5   6 2851.08  123.95   1
   1  -5  -6 3245.11  146.73   1
   1  -5  -6 3752.56  181.30   1
   1  -5   6 3212.07  173.56   1
   1  -5   6 3778.62  125.97   1
   1  -5   6 3792.67  133.77   1
   5   1  -6 3485.11  137.22   1
   5   1  -6 3416.56  166.62   1
   5   1  -6 3320.10  166.60   1
   5   1   6 2429.23  137.45   1
   5   1   6 3223.81  149.97   1
   5   1   6 3537.38  154.20   1
   5   1   6 3192.84  216.44   1
  -5  -1   7  973.01   86.61   1
  -5  -1   7 1007.56   84.77   1
  -5  -1   7  921.03  102.30   1
  -1   5  -7 1112.35   84.92   1
  -1   5  -7 1198.66   86.02   1
  -1   5  -7 1071.57   88.75   1
  -1   5   7  841.45   77.62   1
   1  -5  -7 1046.20   95.68   1
   1  -5  -7 1137.91  132.58   1
   1  -5   7  896.92  105.09   1
   1  -5   7 1108.02   79.55   1
   1  -5   7 1169.48   86.01   1
   5   1  -7 1088.45   86.60   1
   5   1  -7 1074.18  104.76   1
   5   1  -7 1063.01  102.90   1
   5   1   7  781.38   89.14   1
   5   1   7  955.83   94.52   1
   5   1   7 1061.07   93.46   1
   5   1   7  839.57  159.03   1
  -5  -1   8  494.52   74.48   1
  -5  -1   8  533.13   78.10   1
  -5  -1   8  400.85   83.31   1
  -1   5  -8  568.64   70.71   1
  -1   5  -8  555.29   68.41   1
  -1   5  -8  514.39   76.68   1
  -1   5   8  480.38   73.63   1
   1  -5  -8  543.95   83.31   1
   1  -5  -8  480.02  104.65   1
   1  -5   8  485.02   94.59   1
   1  -5   8  623.57   69.35   1
   1  -5   8  541.10   73.43   1
   5   1  -8  593.61   74.00   1
   5   1  -8  645.98  103.16   1
   5   1  -8  536.04   86.94   1
   5   1   8  560.64   96.89   1
   5   1   8  471.64   81.83   1
   5   1   8  564.23   82.24   1
   5   1   8  523.86  148.81   1
  -5  -1   9 7342.79  218.26   1
  -5  -1   9 7318.05  218.80   1
  -5  -1   9 7135.00  263.76   1
  -1   5  -9 8008.53  221.68   1
  -1   5  -9 7253.02  217.40   1
  -1   5   9 6291.10  209.80   1
   1  -5  -9 7737.21  235.00   1
   1  -5  -9 7233.66  344.15   1
   1  -5   9 7373.94  264.42   1
   1  -5   9 8137.29  227.30   1
   5   1  -9 8311.29  234.30   1
   5   1  -9 8110.47  255.23   1
   5   1   9 6153.70  230.95   1
   5   1   9 6872.39  244.63   1
   5   1   9 7889.09  227.99   1
   5   1   9 6607.49  366.66   1
  -5  -1  10  904.76  100.74   1
  -5  -1  10  684.28  114.66   1
  -1   5 -10  797.91   87.25   1
  -1   5 -10  770.84   87.05   1
  -1   5  10  710.91  102.27   1
   1  -5 -10  839.29   95.75   1
   1  -5  10  789.17  121.39   1
   1  -5  10  887.47   94.94   1
   5   1 -10 1151.46  104.55   1
   5   1 -10  934.86  110.42   1
   5   1  10  654.42  101.61   1
   5   1  10  726.56  111.94   1
   5   1  10  869.72   91.79   1
   5   1  10  809.67  160.77   1
  -5  -1  11   66.36   53.60   1
  -5  -1  11  118.82   69.32   1
  -1   5 -11   24.37   39.17   1
  -1   5 -11  134.05   47.74   1
  -1   5  11   62.08   47.25   1
   1  -5 -11  102.19   51.89   1
   1  -5  11  109.67   65.18   1
   1  -5  11  102.30   51.04   1
   5   1 -11   99.69   50.69   1
   5   1 -11   63.35   54.65   1
   5   1  11   69.30   53.44   1
   5   1  11   72.99   53.63   1
   5   1  11   -5.51   68.59   1
  -5  -1  12 6053.88  231.07   1
  -5  -1  12 5854.44  275.29   1
  -1   5 -12 6202.70  220.54   1
  -1   5 -12 5756.65  205.26   1
  -1   5  12 5194.00  221.69   1
   1  -5 -12 6130.86  225.24   1
   1  -5  12 5781.68  257.02   1
   1  -5  12 6446.08  235.82   1
   5   1 -12 6420.08  231.58   1
   5   1 -12 6463.85  257.34   1
   5   1  12 5058.22  230.64   1
   5   1  12 5641.38  254.41   1
   5   1  12 5351.50  298.04   1
  -5  -1  13 1106.51  134.37   1
  -5  -1  13 1095.11  160.01   1
  -1   5 -13 1047.52  128.07   1
  -1   5  13  856.61  127.96   1
   1  -5 -13 1058.74  126.42   1
   1  -5  13 1297.88  155.93   1
   5   1 -13 1354.77  130.61   1
   5   1 -13 1242.16  144.44   1
   5   1  13  712.57  118.27   1
   5   1  13 1091.48  154.24   1
  -5  -1  14   84.66  105.41   1
  -1   5 -14  -21.76   86.52   1
  -1   5  14   40.67   75.38   1
   1  -5 -14   75.85   81.07   1
   1  -5  14  124.48  110.95   1
   5   1 -14   63.96   71.95   1
   5   1  14   86.27   79.87   1
   5   1  14   87.50   88.48   1
  -5  -1  15 1819.36  232.32   1
  -1   5 -15 1987.58  220.81   1
  -1   5  15 1494.09  177.34   1
   1  -5 -15 1801.04  179.29   1
   1  -5  15 2121.30  226.77   1
   5   1 -15 2130.01  180.21   1
   5   1  15 1605.06  178.90   1
   5   1  15 1715.47  207.08   1
  -5  -1  16 1114.93  206.91   1
  -1   5 -16  933.65  190.10   1
  -1   5  16  903.67  146.75   1
   1  -5 -16 1102.40  143.69   1
   1  -5  16 1001.68  184.25   1
   5   1 -16 1082.50  149.92   1
   5   1  16  911.47  157.07   1
   5   1  16 1076.48  185.82   1
  -5  -1  17  469.73  171.66   1
  -1   5  17  452.07  126.34   1
   1  -5  17  775.90  178.13   1
   5   1 -17  622.30  130.76   1
   5   1  17  649.07  139.58   1
   5   1  17  594.32  156.13   1
  -5  -1  18  157.16  159.52   1
  -1   5  18   40.96   97.44   1
   1  -5  18  138.69  132.47   1
   5   1 -18   99.73   99.51   1
   5   1  18  108.73   97.67   1
   5   1  18   28.22  124.35   1
  -5  -2   0   24.11   23.51   1
  -5  -2   0   43.68   31.01   1
  -5  -2   0   20.44   32.88   1
  -2   5   0   -1.72   19.79   1
  -2   5   0   22.86   22.61   1
   2  -5   0    8.07   28.24   1
   2  -5   0    2.28   21.72   1
   2  -5   0   11.20   29.53   1
   5   2   0   39.74   28.99   1
   5   2   0  -12.97   26.45   1
   5   2   0   26.34   35.07   1
  -5  -2  -1  325.52   48.22   1
  -5  -2  -1  370.52   60.06   1
  -5  -2  -1  223.77   54.26   1
  -5  -2   1  320.39   53.79   1
  -5  -2   1  340.97   55.77   1
  -5  -2   1  247.50   60.98   1
  -2   5  -1  332.95   51.44   1
  -2   5  -1  335.69   58.19   1
  -2   5   1  263.53   46.82   1
  -2   5   1  344.24   54.00   1
   2  -5  -1  268.36   56.17   1
   2  -5  -1  419.96   53.33   1
   2  -5  -1  456.07   72.21   1
   2  -5   1  313.13   61.11   1
   2  -5   1  398.22   53.25   1
   2  -5   1  379.99   66.54   1
   5   2  -1  324.54   60.22   1
   5   2  -1  368.70   64.41   1
   5   2   1  286.35   57.79   1
   5   2   1  383.04   65.33   1
   5   2   1  258.74   60.27   1
  -5  -2  -2  269.35   44.24   1
  -5  -2  -2  220.95   54.75   1
  -5  -2  -2  210.02   56.91   1
  -5  -2   2  169.26   41.83   1
  -5  -2   2  294.19   56.14   1
  -5  -2   2   97.22   42.77   1
  -2   5  -2  200.50   43.21   1
  -2   5  -2  234.16   49.56   1
  -2   5   2  193.42   43.06   1
  -2   5   2  227.19   44.64   1
   2  -5  -2  222.14   52.80   1
   2  -5  -2  214.75   55.47   1
   2  -5   2  288.60   58.94   1
   2  -5   2  241.80   68.33   1
   2  -5   2  206.93   40.46   1
   2  -5   2  276.74   58.10   1
   5   2  -2  225.02   55.31   1
   5   2  -2  192.79   49.24   1
   5   2  -2  289.37   63.37   1
   5   2   2  149.40   48.53   1
   5   2   2  206.11   50.77   1
   5   2   2  170.19   54.72   1
  -5  -2  -3 2542.28   99.23   1
  -5  -2  -3 2847.23  134.44   1
  -5  -2  -3 2131.51  126.14   1
  -5  -2   3 2485.51  115.65   1
  -5  -2   3 2790.26  124.23   1
  -5  -2   3 2477.13  141.54   1
  -2   5  -3 2744.68  118.26   1
  -2   5  -3 2593.18  121.24   1
  -2   5   3 2719.29  113.84   1
  -2   5   3 2829.91  117.47   1
   2  -5  -3 2661.53  132.15   1
   2  -5  -3 3053.94  150.53   1
   2  -5   3 3049.47  177.97   1
   2  -5   3 2940.85  113.39   1
   2  -5   3 2875.13  141.91   1
   5   2  -3 3053.91  115.88   1
   5   2  -3 2616.45  135.86   1
   5   2   3 2245.07  123.61   1
   5   2   3 2542.79  131.92   1
   5   2   3 2586.05  155.12   1
  -5  -2  -4  935.45  153.57   1
  -5  -2  -4  581.52   83.43   1
  -5  -2   4  501.75   67.39   1
  -5  -2   4  717.33   76.32   1
  -5  -2   4  606.09   89.46   1
  -2   5  -4  983.37   76.58   1
  -2   5  -4  686.04   70.16   1
  -2   5   4  771.35   65.70   1
  -2   5   4  777.38   70.00   1
   2  -5  -4  704.02   79.56   1
   2  -5  -4  805.39   96.19   1
   2  -5   4  844.20  130.55   1
   2  -5   4  797.73   67.88   1
   2  -5   4  694.62   82.78   1
   5   2  -4  708.66   65.62   1
   5   2  -4  788.50   90.04   1
   5   2   4  579.69   83.03   1
   5   2   4  665.84   79.97   1
   5   2   4  886.51  128.79   1
  -5  -2   5 1642.99  103.93   1
  -5  -2   5 1672.42  107.18   1
  -5  -2   5 1305.44  117.61   1
  -2   5  -5 1675.21   98.41   1
  -2   5  -5 1481.88   98.35   1
  -2   5   5 1570.09  102.49   1
   2  -5  -5 1553.65  109.64   1
   2  -5  -5 1697.63  133.38   1
   2  -5   5 1596.04  161.48   1
   2  -5   5 1691.35   95.85   1
   2  -5   5 1862.48   94.46   1
   2  -5   5 1883.16  124.57   1
   5   2  -5 1828.26  100.04   1
   5   2  -5 1695.05  117.60   1
   5   2   5 1423.81  106.28   1
   5   2   5 1550.67  113.40   1
   5   2   5 1783.44  182.15   1
  -5  -2  -6 3504.85  108.40   1
  -5  -2   6 3498.24  148.91   1
  -5  -2   6 3525.07  151.79   1
  -5  -2   6 3361.43  183.06   1
  -2   5  -6 3828.58  146.43   1
  -2   5  -6 3378.84  146.50   1
   2  -5  -6 3547.81  160.08   1
   2  -5  -6 4313.36  209.68   1
   2  -5   6 3514.58  237.84   1
   2  -5   6 4219.85  149.99   1
   2  -5   6 4104.27  142.52   1
   5   2  -6 4255.07  153.13   1
   5   2  -6 3748.77  167.36   1
   5   2   6 2872.48  146.85   1
   5   2   6 3227.50  163.69   1
   5   2   6 3458.12  300.05   1
  -5  -2   7  114.33   43.43   1
  -5  -2   7  238.27   60.28   1
  -5  -2   7   90.08   56.29   1
  -2   5  -7   89.55   38.15   1
  -2   5  -7  124.22   42.24   1
  -2   5   7  151.41   47.21   1
   2  -5  -7  159.84   54.02   1
   2  -5  -7  191.84   77.65   1
   2  -5   7   86.76   80.45   1
   2  -5   7  152.69   44.80   1
   2  -5   7  222.52   50.04   1
   5   2  -7  176.72   47.94   1
   5   2  -7  172.47   56.99   1
   5   2   7  170.79   55.67   1
   5   2   7  132.58   55.59   1
   5   2   7  122.68  118.66   1
  -5  -2   8 1344.69  107.10   1
  -5  -2   8 1250.04  110.44   1
  -5  -2   8 1024.38  127.55   1
  -2   5  -8 1305.84   97.92   1
  -2   5  -8 1273.33  101.99   1
  -2   5   8 1005.12   97.96   1
   2  -5  -8 1468.09  116.57   1
   2  -5  -8 1403.46  166.71   1
   2  -5   8 1153.92  183.49   1
   2  -5   8 1366.25  102.06   1
   2  -5   8 1416.57  100.97   1
   5   2  -8 1404.32  104.34   1
   5   2  -8 1297.86  116.85   1
   5   2   8 1255.87  110.94   1
   5   2   8 1266.37  123.00   1
   5   2   8 1251.55  205.38   1
  -5  -2   9  733.57   88.94   1
  -5  -2   9  868.97  104.73   1
  -5  -2   9  726.58  130.70   1
  -2   5  -9  812.60   86.66   1
  -2   5  -9  793.34   89.11   1
  -2   5   9  706.56  102.59   1
   2  -5  -9  910.65  101.66   1
   2  -5  -9  766.48  138.20   1
   2  -5   9  817.99  159.83   1
   2  -5   9  836.14   91.24   1
   2  -5   9  913.63   90.96   1
   5   2  -9  991.38   94.67   1
   5   2   9  633.25   96.65   1
   5   2   9  772.09  119.12   1
   5   2   9  714.38  142.69   1
  -5  -2  10  -12.70   44.02   1
  -5  -2  10   40.10   59.32   1
  -2   5 -10   24.60   36.30   1
  -2   5 -10   18.41   39.21   1
  -2   5  10    6.53   41.71   1
   2  -5 -10   34.96   45.44   1
   2  -5 -10   39.30   80.15   1
   2  -5  10   34.17   74.09   1
   2  -5  10   33.19   41.85   1
   2  -5  10   52.54   40.64   1
   5   2 -10   -7.76   35.68   1
   5   2  10    6.74   41.21   1
   5   2  10   33.65   54.04   1
  -5  -2  11    5.41   48.38   1
  -5  -2  11  106.82   76.12   1
  -2   5 -11    5.20   39.44   1
  -2   5 -11   39.46   43.14   1
  -2   5  11   11.35   44.41   1
   2  -5 -11   80.71   53.82   1
   2  -5 -11   54.58   87.14   1
   2  -5  11   23.15   78.39   1
   2  -5  11   37.16   46.07   1
   5   2 -11   64.64   46.06   1
   5   2 -11   18.48   47.21   1
   5   2  11   37.58   49.36   1
   5   2  11   18.83   54.53   1
  -5  -2  12  190.58   73.22   1
  -5  -2  12  192.48  100.40   1
  -2   5 -12  134.89   60.29   1
  -2   5 -12  160.60   59.36   1
  -2   5  12  109.64   66.98   1
   2  -5 -12  151.02   61.60   1
   2  -5 -12  178.47   99.70   1
   2  -5  12  210.40  101.89   1
   2  -5  12  173.38   64.85   1
   5   2 -12  171.98   62.74   1
   5   2  12  116.05   64.71   1
   5   2  12  195.45   87.91   1
  -5  -2  13   69.65   84.36   1
  -5  -2  13   45.13   96.78   1
  -2   5 -13   49.74   77.21   1
  -2   5  13   21.98   67.91   1
   2  -5 -13  161.29   83.02   1
   2  -5 -13  -46.82  126.33   1
   2  -5  13   50.45  118.62   1
   2  -5  13   54.55   71.18   1
   5   2 -13   40.87   59.87   1
   5   2  13    2.50   62.71   1
   5   2  13   14.56   81.60   1
  -5  -2  14  624.87  138.10   1
  -5  -2  14  455.23  166.53   1
  -2   5 -14  557.70  137.84   1
  -2   5  14  509.12  121.01   1
   2  -5 -14  660.63  124.50   1
   2  -5 -14  491.30  194.16   1
   2  -5  14  444.58  173.94   1
   2  -5  14  608.30  119.64   1
   5   2 -14  735.13  118.94   1
   5   2  14  465.07  117.37   1
   5   2  14  560.96  147.90   1
  -5  -2  15  804.00  216.81   1
  -2   5  15  831.33  147.71   1
   2  -5 -15 1056.39  148.58   1
   2  -5  15 1006.16  219.04   1
   2  -5  15  898.41  143.77   1
   5   2 -15 1098.03  141.26   1
   5   2  15  743.38  135.90   1
   5   2  15  934.65  198.27   1
  -5  -2  16  -10.63  181.84   1
  -2   5  16   76.20  102.93   1
   2  -5 -16   61.32   96.32   1
   2  -5  16   -6.07  157.57   1
   5   2 -16  -23.37   84.28   1
   5   2  16   -0.58   89.40   1
   5   2  16   -4.00  130.10   1
  -5  -2  17  940.82  276.97   1
  -2   5  17  944.08  163.36   1
   2  -5 -17 1077.05  147.26   1
   2  -5  17  777.41  210.47   1
   5   2 -17 1003.06  145.67   1
   5   2  17  882.54  149.84   1
  -2   5  18  481.75  145.22   1
   2  -5  18  481.66  224.22   1
   5   2 -18  654.55  147.70   1
   5   2  18  468.30  140.37   1
  -5  -3   0  482.66   75.61   1
  -5  -3   0  315.80   69.43   1
  -3   5   0  373.84   57.29   1
  -3   5   0  303.76   53.35   1
   3  -5   0  500.61   73.12   1
   3  -5   0  486.76   66.78   1
   3  -5   0  412.60   75.24   1
   5   3   0  420.00   76.38   1
   5   3   0  352.34   68.28   1
  -5  -3  -1 5818.97  168.03   1
  -5  -3  -1 5836.43  195.89   1
  -5  -3  -1 5195.11  204.43   1
  -5  -3   1 5340.67  168.12   1
  -5  -3   1 5382.76  186.52   1
  -5  -3   1 5031.96  202.36   1
  -3   5  -1 5490.24  170.61   1
  -3   5  -1 5599.92  174.95   1
  -3   5   1 5605.01  171.92   1
  -3   5   1 5702.25  170.49   1
   3  -5  -1 5667.73  187.41   1
   3  -5  -1 6279.80  179.73   1
   3  -5  -1 6175.76  214.01   1
   3  -5   1 6269.93  180.54   1
   3  -5   1 6259.55  216.32   1
   5   3  -1 5153.35  187.77   1
   5   3   1 5520.87  197.30   1
   5   3   1 5730.58  206.22   1
  -5  -3  -2 6643.36  174.24   1
  -5  -3  -2 7004.58  217.60   1
  -5  -3  -2 5951.05  218.84   1
  -5  -3   2 6424.14  187.67   1
  -5  -3   2 6746.01  207.99   1
  -5  -3   2 5774.30  219.48   1
  -3   5  -2 6833.93  190.41   1
  -3   5  -2 6730.74  195.22   1
  -3   5   2 6196.02  180.57   1
  -3   5   2 6662.74  181.14   1
   3  -5  -2 7060.55  211.21   1
   3  -5  -2 7397.19  196.50   1
   3  -5  -2 7666.42  241.18   1
   3  -5   2 6681.35  243.76   1
   3  -5   2 7403.46  197.94   1
   3  -5   2 7445.51  239.23   1
   5   3   2 5024.42  179.27   1
   5   3   2 6335.52  214.73   1
   5   3   2 7218.52  237.43   1
  -5  -3  -3  143.52   38.54   1
  -5  -3  -3   94.89   51.10   1
  -5  -3  -3   87.29   47.88   1
  -5  -3   3  110.65   40.14   1
  -5  -3   3   89.14   46.26   1
  -5  -3   3  139.12   56.49   1
  -3   5  -3  118.49   39.17   1
  -3   5  -3   54.89   31.66   1
  -3   5   3   90.03   33.94   1
  -3   5   3   72.75   32.27   1
   3  -5  -3  135.03   46.89   1
   3  -5  -3   79.24   38.35   1
   3  -5  -3  108.73   52.82   1
   3  -5   3  126.81   61.71   1
   3  -5   3  115.99   40.26   1
   3  -5   3  117.95   51.45   1
   5   3   3  103.82   44.87   1
   5   3   3   89.16   46.31   1
   5   3   3  104.23   55.23   1
  -5  -3  -4 2516.28  107.55   1
  -5  -3  -4 2535.70  151.20   1
  -5  -3  -4 2071.17  141.74   1
  -5  -3   4 2221.77  122.00   1
  -5  -3   4 2418.23  138.26   1
  -5  -3   4 2145.03  150.81   1
  -3   5  -4 2540.41  121.65   1
  -3   5  -4 2473.73  126.87   1
  -3   5   4 2186.89  111.07   1
   3  -5  -4 2440.48  135.51   1
   3  -5  -4 2420.45  125.83   1
   3  -5  -4 2618.98  160.32   1
   3  -5   4 2348.40  175.45   1
   3  -5   4 2597.21  128.12   1
   3  -5   4 2608.75  110.13   1
   3  -5   4 2745.57  161.02   1
   5   3  -4 2661.14  118.23   1
   5   3   4 1880.25  117.19   1
   5   3   4 2189.70  139.37   1
   5   3   4 2712.29  177.63   1
  -5  -3  -5 3327.50  120.03   1
  -5  -3  -5 3642.36  186.45   1
  -5  -3   5 3225.50  147.83   1
  -5  -3   5 3464.41  164.31   1
  -5  -3   5 3036.14  182.78   1
  -3   5  -5 3327.10  140.22   1
  -3   5  -5 3335.87  149.03   1
  -3   5   5 3138.50  131.54   1
   3  -5  -5 3078.91  152.65   1
   3  -5  -5 2797.61  166.94   1
   3  -5  -5 3743.27  196.71   1
   3  -5   5 3188.24  220.87   1
   3  -5   5 3310.77  146.71   1
   3  -5   5 3770.72  137.14   1
   3  -5   5 3618.22  189.48   1
   5   3  -5 3597.97  142.04   1
   5   3   5 2952.44  146.09   1
   5   3   5 2802.73  161.04   1
   5   3   5 3937.31  241.93   1
  -5  -3  -6 2685.03  107.05   1
  -5  -3  -6 2726.56  177.36   1
  -5  -3   6 2612.78  138.73   1
  -5  -3   6 2876.53  157.92   1
  -5  -3   6 2309.14  172.93   1
  -3   5  -6 2887.12  134.11   1
  -3   5  -6 2545.14  135.35   1
   3  -5  -6 2872.61  152.83   1
   3  -5  -6 2958.88  190.73   1
   3  -5   6 2571.37  230.61   1
   3  -5   6 2873.43  142.57   1
   3  -5   6 3081.29  131.74   1
   3  -5   6 3069.90  184.06   1
   5   3  -6 3067.56  136.93   1
   5   3   6 2213.96  131.64   1
   5   3   6 2484.04  159.10   1
  -5  -3  -7  924.00  137.23   1
  -5  -3   7  860.14   92.61   1
  -5  -3   7  903.82  109.10   1
  -5  -3   7  678.87  122.95   1
  -3   5  -7  890.97   84.97   1
  -3   5  -7  785.99   86.24   1
   3  -5  -7 1035.02  104.15   1
   3  -5  -7  746.00  125.82   1
   3  -5   7  835.64  192.94   1
   3  -5   7  979.45   96.75   1
   3  -5   7  862.18   82.32   1
   5   3  -7  815.92   83.45   1
   5   3   7  744.22   90.13   1
   5   3   7  818.08  120.08   1
  -5  -3  -8  410.57  112.30   1
  -5  -3   8  353.05   70.07   1
  -5  -3   8  456.22   89.05   1
  -5  -3   8  377.68  105.12   1
  -3   5  -8  453.40   73.20   1
  -3   5  -8  433.14   73.83   1
  -3   5   8  358.61   77.35   1
   3  -5  -8  465.28   85.15   1
   3  -5  -8  408.20  109.48   1
   3  -5   8  191.77  148.10   1
   3  -5   8  484.64   83.53   1
   3  -5   8  482.53   77.40   1
   5   3  -8  523.70   80.29   1
   5   3   8  275.70   68.55   1
   5   3   8  370.01   92.50   1
  -5  -3  -9 6209.71  294.10   1
  -5  -3   9 5506.62  291.01   1
  -5  -3   9 6405.52  249.66   1
  -5  -3   9 5982.77  320.67   1
  -3   5  -9 6760.17  214.79   1
  -3   5  -9 6324.00  220.57   1
  -3   5   9 5446.41  227.41   1
   3  -5  -9 6497.98  236.95   1
   3  -5  -9 6905.97  322.03   1
   3  -5   9 5150.55  430.31   1
   3  -5   9 6838.44  235.21   1
   3  -5   9 6968.65  223.19   1
   5   3  -9 7159.51  227.49   1
   5   3   9 5006.59  210.56   1
   5   3   9 5898.93  273.58   1
  -5  -3 -10  754.47  152.36   1
  -5  -3  10  723.32  115.33   1
  -5  -3  10  597.69  148.87   1
  -3   5 -10  696.33   95.37   1
  -3   5 -10  564.24   86.10   1
  -3   5  10  608.29  106.14   1
   3  -5 -10  783.56  109.40   1
   3  -5 -10  735.80  150.73   1
   3  -5  10  604.54  215.96   1
   3  -5  10  685.94  103.74   1
   3  -5  10  683.67   94.62   1
   5   3 -10  778.18   96.42   1
   5   3  10  546.47   93.79   1
   5   3  10  659.15  129.17   1
  -5  -3  11   45.80   62.32   1
  -5  -3  11  -47.77   90.63   1
  -3   5 -11  105.60   55.25   1
  -3   5 -11  102.89   49.79   1
  -3   5  11   75.10   61.72   1
   3  -5 -11  120.74   63.59   1
   3  -5 -11   22.07   85.81   1
   3  -5  11   43.91  144.03   1
   3  -5  11   47.93   48.95   1
   5   3 -11   75.41   49.29   1
   5   3  11   94.63   56.73   1
   5   3  11   77.81   82.54   1
  -5  -3  12 5017.46  263.62   1
  -3   5 -12 5285.77  231.98   1
  -3   5  12 4436.64  243.80   1
   3  -5 -12 5219.56  235.09   1
   3  -5 -12 5433.91  352.58   1
   3  -5  12 4189.30  450.41   1
   3  -5  12 5426.61  234.75   1
   5   3 -12 5226.59  219.39   1
   5   3  12 4050.65  220.40   1
   5   3  12 4666.04  303.23   1
  -5  -3  13  844.09  155.55   1
  -5  -3  13  779.18  253.12   1
  -3   5 -13  875.04  154.96   1
  -3   5  13  701.52  136.37   1
   3  -5 -13  866.32  131.92   1
   3  -5 -13  891.29  209.05   1
   3  -5  13  655.74  276.87   1
   3  -5  13  940.31  137.94   1
   5   3 -13 1174.19  142.55   1
   5   3  13  764.17  134.72   1
   5   3  13 1203.94  219.16   1
  -5  -3  14  -31.80  114.60   1
  -3   5  14  -21.69   93.60   1
   3  -5 -14   39.06   89.49   1
   3  -5 -14  150.41  172.99   1
   3  -5  14  -81.10  242.48   1
   3  -5  14   54.31   87.99   1
   5   3 -14   30.15   76.33   1
   5   3  14  136.57   96.57   1
  -5  -3  15 1607.95  208.17   1
  -3   5  15 1105.39  175.33   1
   3  -5 -15 1586.64  187.46   1
   3  -5 -15 1565.03  255.11   1
   3  -5  15 1163.24  336.80   1
   3  -5  15 1742.01  186.33   1
   5   3 -15 1873.58  177.15   1
   5   3  15 1452.47  182.95   1
  -3   5  16  757.25  164.11   1
   3  -5 -16  834.17  138.79   1
   3  -5 -16  719.67  204.56   1
   3  -5  16  659.12  310.36   1
   3  -5  16  735.88  135.13   1
   5   3 -16 1089.74  144.58   1
   5   3  16  678.61  139.63   1
  -3   5  17  529.58  151.11   1
   3  -5 -17  611.10  122.56   1
   3  -5  17  632.83  306.29   1
   5   3 -17  809.55  131.20   1
   5   3  17  641.48  138.20   1
  -5  -4   0   11.74   32.44   1
  -5  -4   0   21.24   45.00   1
  -5  -4   0    3.04   40.44   1
  -4   5   0   22.72   28.03   1
  -4   5   0  -11.69   22.89   1
   4  -5   0   34.76   36.60   1
   4  -5   0   20.15   37.51   1
   5   4   0   -0.42   32.16   1
   5   4   0   10.70   35.00   1
  -5  -4  -1  214.20   52.94   1
  -5  -4  -1  210.69   66.89   1
  -5  -4  -1  257.41   72.65   1
  -5  -4   1  223.20   55.89   1
  -5  -4   1  229.29   65.65   1
  -5  -4   1  212.29   71.61   1
  -4   5  -1  260.72   55.80   1
  -4   5  -1  225.25   50.01   1
  -4   5   1  245.14   51.26   1
  -4   5   1  246.63   50.71   1
   4  -5  -1  295.36   63.04   1
   4  -5  -1  278.58   69.10   1
   4  -5   1  292.94   62.42   1
   4  -5   1  280.25   68.93   1
   5   4  -1  219.91   60.50   1
   5   4   1  299.98   73.08   1
   5   4   1  243.60   63.04   1
  -5  -4  -2  173.75   48.18   1
  -5  -4  -2  147.24   62.49   1
  -5  -4  -2  124.29   58.02   1
  -5  -4   2  148.76   56.18   1
  -5  -4   2  177.62   64.02   1
  -4   5  -2  170.72   46.27   1
  -4   5  -2  110.24   38.37   1
  -4   5   2   99.83   38.25   1
  -4   5   2  182.86   45.47   1
   4  -5  -2  165.56   51.20   1
   4  -5  -2  177.80   54.29   1
   4  -5  -2  141.81   56.64   1
   4  -5   2  193.66   68.14   1
   4  -5   2  136.42   48.49   1
   4  -5   2  147.34   56.21   1
   5   4   2  153.19   59.21   1
  -5  -4  -3 1926.04  109.09   1
  -5  -4  -3 2275.87  154.86   1
  -5  -4  -3 1605.01  137.48   1
  -5  -4   3 1875.96  119.66   1
  -5  -4   3 2210.41  147.72   1
  -5  -4   3 1721.99  145.22   1
  -4   5  -3 2025.14  115.39   1
  -4   5  -3 1974.93  119.10   1
  -4   5   3 1952.04  113.98   1
   4  -5  -3 1876.46  122.30   1
   4  -5  -3 2201.46  131.19   1
   4  -5  -3 2286.96  154.15   1
   4  -5   3 2118.17  154.14   1
   4  -5   3 2109.77  127.99   1
   4  -5   3 2274.08  155.84   1
   5   4   3 1596.53  128.30   1
  -5  -4  -4  543.51   71.18   1
  -5  -4  -4  563.54   98.48   1
  -5  -4  -4  485.78   93.59   1
  -5  -4   4  487.27   76.24   1
  -5  -4   4  463.09   86.80   1
  -5  -4   4  543.31  105.49   1
  -4   5  -4  525.32   73.16   1
  -4   5  -4  497.49   76.10   1
  -4   5   4  528.63   73.72   1
   4  -5  -4  484.28   79.67   1
   4  -5  -4  618.30   91.47   1
   4  -5  -4  585.91  102.41   1
   4  -5   4  617.69  115.11   1
   4  -5   4  489.62   78.41   1
   4  -5   4  696.96   72.03   1
   4  -5   4  507.64   94.90   1
   5   4   4  487.51   93.33   1
  -5  -4  -5 1085.86   84.54   1
  -5  -4  -5 1082.59  131.76   1
  -5  -4   5 1215.87  105.61   1
  -5  -4   5 1105.02  120.90   1
  -5  -4   5  925.17  131.95   1
  -4   5  -5 1229.57   96.38   1
  -4   5  -5 1212.26  101.62   1
  -4   5   5 1296.29   98.17   1
   4  -5  -5 1216.04  108.46   1
   4  -5  -5 1219.64  113.33   1
   4  -5  -5 1339.18  139.80   1
   4  -5   5 1104.07  135.13   1
   4  -5   5 1240.25  109.52   1
   4  -5   5 1365.14   96.19   1
   4  -5   5 1279.57  134.80   1
   5   4  -5 1401.98   98.29   1
   5   4   5 1080.40  100.81   1
   5   4   5  958.18  114.25   1
  -5  -4  -6 2771.75  121.22   1
  -5  -4  -6 2935.75  192.26   1
  -5  -4   6 2702.54  148.71   1
  -5  -4   6 2671.71  172.34   1
  -5  -4   6 2480.88  192.99   1
  -4   5  -6 2853.94  139.39   1
  -4   5  -6 2753.50  147.08   1
  -4   5   6 2718.90  134.32   1
   4  -5  -6 2878.98  158.95   1
   4  -5  -6 2639.99  160.06   1
   4  -5  -6 3102.84  200.97   1
   4  -5   6 2677.18  206.66   1
   4  -5   6 2955.22  159.49   1
   4  -5   6 2955.30  139.02   1
   4  -5   6 3006.01  197.72   1
   5   4  -6 3017.29  142.25   1
   5   4   6 2180.62  133.11   1
   5   4   6 2438.50  172.37   1
  -5  -4  -7  119.76   40.46   1
  -5  -4  -7   98.92   78.34   1
  -5  -4   7   79.69   48.73   1
  -5  -4   7   55.42   59.84   1
  -5  -4   7   50.42   68.41   1
  -4   5  -7  126.71   45.48   1
  -4   5  -7  127.16   48.01   1
   4  -5  -7  199.85   64.95   1
   4  -5  -7   67.02   69.89   1
   4  -5   7  147.82   93.12   1
   4  -5   7  108.85   55.95   1
   4  -5   7  111.89   46.53   1
   5   4  -7  170.97   52.38   1
   5   4   7  101.59   50.50   1
   5   4   7  112.27   65.06   1
  -5  -4  -8  954.92  150.61   1
  -5  -4   8  744.90  100.14   1
  -5  -4   8  796.07  121.72   1
  -5  -4   8  730.75  150.41   1
  -4   5  -8 1016.87   97.08   1
  -4   5  -8  985.89  104.08   1
   4  -5  -8  910.36  106.77   1
   4  -5  -8  847.01  139.57   1
   4  -5   8  998.75  185.22   1
   4  -5   8 1104.11  117.44   1
   4  -5   8 1016.70   99.60   1
   5   4  -8 1107.48  102.77   1
   5   4   8  849.03  101.23   1
   5   4   8  759.89  132.71   1
  -5  -4  -9  550.23  133.01   1
  -5  -4   9  551.73  109.24   1
  -5  -4   9  539.40  149.81   1
  -4   5  -9  747.88   96.11   1
  -4   5  -9  556.11   87.47   1
  -4   5   9  413.60   92.44   1
   4  -5  -9  709.52  108.51   1
   4  -5  -9  689.07  136.98   1
   4  -5   9  869.35  189.02   1
   4  -5   9  664.81  109.38   1
   4  -5   9  712.94   96.29   1
   5   4  -9  700.52   96.23   1
   5   4   9  667.48  107.92   1
   5   4   9  556.67  127.03   1
  -5  -4 -10   22.95   91.91   1
  -5  -4  10    5.51   69.89   1
  -5  -4  10  -38.92   98.19   1
  -4   5 -10   31.44   46.71   1
  -4   5 -10   -0.93   42.55   1
  -4   5  10   33.55   62.65   1
   4  -5 -10   11.79   51.53   1
   4  -5 -10    2.81   86.20   1
   4  -5  10   11.70  112.39   1
   4  -5  10  -30.31   43.68   1
   5   4 -10   49.64   48.01   1
   5   4  10   53.96   59.22   1
   5   4  10    4.07   74.66   1
  -5  -4 -11   42.86  144.08   1
  -5  -4  11    7.02   96.40   1
  -4   5 -11    9.33   71.00   1
  -4   5  11   69.37   84.60   1
   4  -5 -11   12.98   68.75   1
   4  -5 -11   53.88  121.35   1
   4  -5  11   32.64  157.28   1
   4  -5  11   25.44   68.89   1
   5   4 -11   69.14   56.56   1
   5   4  11  -17.82   69.01   1
   5   4  11    2.15  165.45   1
  -5  -4 -12  134.53  175.54   1
  -5  -4  12  177.63  122.49   1
  -4   5  12   81.28   93.50   1
   4  -5 -12  160.59   89.17   1
   4  -5 -12   92.67  146.52   1
   4  -5  12  180.30  204.84   1
   4  -5  12  151.75   87.14   1
   5   4 -12  143.97   77.30   1
   5   4  12   95.31   93.36   1
  -5  -4 -13  127.85  188.73   1
  -5  -4  13  -69.26  122.22   1
  -4   5  13  -29.65   88.37   1
   4  -5 -13   57.04   91.30   1
   4  -5 -13   22.87  153.55   1
   4  -5  13   77.07  201.20   1
   4  -5  13   23.82   84.03   1
   5   4 -13  127.23   80.36   1
   5   4  13   13.12   90.97   1
  -5  -4  14  517.68  162.80   1
  -4   5  14  472.17  141.85   1
   4  -5 -14  548.21  126.67   1
   4  -5 -14  364.02  173.64   1
   4  -5  14  264.36  230.78   1
   4  -5  14  491.40  119.11   1
   5   4 -14  660.52  119.55   1
   5   4  14  357.06  122.54   1
  -5  -4  15  801.11  185.64   1
  -4   5  15 1070.17  183.15   1
   4  -5 -15  877.63  141.18   1
   4  -5 -15  565.37  183.20   1
   4  -5  15  817.72  274.46   1
   4  -5  15  940.83  146.44   1
   5   4 -15  926.52  133.53   1
   5   4  15  688.09  139.88   1
  -5  -4  16   68.94  139.88   1
  -4   5  16   86.97  116.64   1
   4  -5 -16    0.13   90.22   1
   4  -5 -16  -63.40  138.82   1
   4  -5  16   13.97  194.13   1
   4  -5  16    0.61   89.10   1
   5   4 -16   36.58   82.29   1
   5   4  16   35.05   95.04   1
  -5  -5   0  289.13   64.75   1
  -5  -5   0  275.15   75.11   1
  -5  -5   0  288.36   77.17   1
  -5   5   0  234.96   55.26   1
  -5   5   0  273.64   58.74   1
   5  -5   0  296.57   76.66   1
   5  -5   0  315.26   71.89   1
   5  -5   0  266.79   72.02   1
   5   5   0  340.18   77.27   1
  -5  -5  -1 3658.51  162.07   1
  -5  -5  -1 4130.75  205.86   1
  -5  -5  -1 3720.91  199.62   1
  -5  -5   1 3670.34  168.25   1
  -5  -5   1 4203.90  208.26   1
  -5  -5   1 3748.51  200.69   1
  -5   5  -1 3918.27  165.34   1
  -5   5  -1 3733.36  158.91   1
  -5   5   1 4109.18  170.11   1
  -5   5   1 3963.93  156.52   1
   5  -5  -1 4013.05  179.57   1
   5  -5  -1 4246.72  203.44   1
   5  -5   1 4264.48  202.53   1
   5  -5   1 4185.53  183.78   1
   5  -5   1 4283.69  204.62   1
   5   5  -1 3642.04  189.78   1
   5   5   1 3578.66  189.08   1
  -5  -5  -2 4644.99  178.74   1
  -5  -5  -2 4884.07  223.35   1
  -5  -5  -2 4201.19  211.75   1
  -5  -5   2 4691.16  189.56   1
  -5  -5   2 4695.28  219.38   1
  -5  -5   2 4091.01  209.99   1
  -5   5  -2 4147.36  169.53   1
  -5   5  -2 4695.84  180.70   1
  -5   5   2 4486.01  177.94   1
   5  -5  -2 5133.41  202.13   1
   5  -5  -2 5181.76  225.10   1
   5  -5   2 4936.52  218.51   1
   5  -5   2 4898.27  199.46   1
   5  -5   2 4995.09  222.55   1
   5   5   2 4504.45  212.51   1
  -5  -5  -3  137.65   48.31   1
  -5  -5  -3  128.44   67.98   1
  -5  -5  -3  110.80   62.92   1
  -5  -5   3   58.81   55.12   1
  -5  -5   3  127.22   68.32   1
  -5   5  -3   60.61   39.10   1
  -5   5  -3   96.22   44.76   1
  -5   5   3  100.22   44.40   1
   5  -5  -3  107.25   53.59   1
   5  -5  -3  116.48   61.02   1
   5  -5   3  101.94   59.87   1
   5  -5   3  160.78   58.42   1
   5  -5   3   14.69   45.90   1
   5   5   3   81.29   54.19   1
  -5  -5  -4 1688.10  112.86   1
  -5  -5  -4 1869.97  161.66   1
  -5  -5  -4 1501.30  145.61   1
  -5  -5   4 1716.84  128.45   1
  -5  -5   4 1488.27  144.91   1
  -5  -5   4 1584.47  151.68   1
  -5   5  -4 1597.29  112.21   1
  -5   5  -4 1728.32  120.97   1
  -5   5   4 1702.09  117.56   1
   5  -5  -4 1640.24  123.24   1
   5  -5  -4 1819.30  134.65   1
   5  -5  -4 1753.17  150.68   1
   5  -5   4 1919.24  151.63   1
   5  -5   4 1883.42  135.98   1
   5  -5   4 1851.18  112.86   1
   5  -5   4 2009.85  157.79   1
   5   5   4 1660.95  145.28   1
  -5  -5  -5 2390.19  128.76   1
  -5  -5  -5 2359.49  182.40   1
  -5  -5  -5 1945.09  162.65   1
  -5  -5   5 2154.34  142.70   1
  -5  -5   5 2387.52  175.06   1
  -5  -5   5 2135.02  175.19   1
  -5   5  -5 2310.26  131.32   1
  -5   5  -5 2319.19  139.15   1
  -5   5   5 2393.73  135.78   1
   5  -5  -5 2390.00  148.23   1
   5  -5  -5 2390.62  153.81   1
   5  -5  -5 2429.37  178.00   1
   5  -5   5 2366.63  171.67   1
   5  -5   5 2483.85  155.35   1
   5  -5   5 2468.45  130.64   1
   5  -5   5 2764.10  185.53   1
   5   5   5 2064.35  164.20   1
  -5  -5  -6 1837.73  114.39   1
  -5  -5  -6 1911.44  171.55   1
  -5  -5  -6 1625.36  157.15   1
  -5  -5   6 1852.54  136.92   1
  -5  -5   6 2048.96  169.18   1
  -5  -5   6 1671.60  168.55   1
  -5   5  -6 2189.72  130.41   1
  -5   5  -6 1875.14  129.29   1
  -5   5   6 1870.51  121.88   1
   5  -5  -6 1975.42  138.71   1
   5  -5  -6 2161.53  153.38   1
   5  -5  -6 2181.54  178.60   1
   5  -5   6 2076.81  169.40   1
   5  -5   6 1989.82  147.44   1
   5  -5   6 1825.08  121.01   1
   5  -5   6 2077.28  171.54   1
   5   5  -6 2058.24  127.39   1
   5   5   6 1867.16  163.73   1
  -5  -5  -7  592.98   77.39   1
  -5  -5  -7  709.85  132.13   1
  -5  -5   7  565.69   92.03   1
  -5  -5   7  552.87  111.46   1
  -5  -5   7  663.74  137.76   1
  -5   5  -7  692.89   91.14   1
  -5   5  -7  589.75   87.67   1
   5  -5  -7  639.28  102.57   1
   5  -5  -7  430.44   93.18   1
   5  -5  -7  731.01  128.34   1
   5  -5   7  650.08  125.65   1
   5  -5   7  613.97   84.84   1
   5   5  -7  771.52  101.03   1
   5   5   7  558.75  117.60   1
  -5  -5  -8  300.37   60.22   1
  -5  -5  -8  345.61  120.53   1
  -5  -5   8  252.25  100.12   1
  -5  -5   8  292.02  107.75   1
  -5   5  -8  342.21   73.51   1
   5  -5  -8  446.20   92.06   1
   5  -5  -8  394.31  113.61   1
   5  -5   8  308.90  105.89   1
   5  -5   8  319.87   76.14   1
   5   5   8  293.99   99.36   1
  -5  -5  -9 4809.59  313.39   1
  -5  -5   9 4894.66  281.99   1
  -5   5  -9 4766.15  203.78   1
   5  -5  -9 4834.46  222.02   1
   5  -5  -9 5009.37  296.40   1
   5  -5   9 4952.85  278.45   1
   5  -5   9 5104.50  220.51   1
   5   5   9 4106.12  209.04   1
  -5  -5 -10  658.99  177.62   1
  -5  -5  10  593.38  150.70   1
  -5   5 -10  584.30  107.75   1
  -5   5  10  470.44  127.82   1
   5  -5 -10  590.23  113.92   1
   5  -5 -10  450.71  145.95   1
   5  -5  10  526.27  144.84   1
   5  -5  10  497.70  107.27   1
   5   5  10  406.57  110.09   1
  -5  -5 -11  115.02  155.14   1
  -5  -5  11  184.38  130.24   1
  -5   5  11   76.98   99.09   1
   5  -5 -11   78.37   82.03   1
   5  -5 -11   99.12  134.49   1
   5  -5  11  174.74  123.01   1
   5  -5  11   85.92   83.69   1
   5   5 -11   39.47   64.90   1
   5   5  11   71.48   94.28   1
  -5  -5 -12 3966.58  354.68   1
  -5  -5  12 3589.11  285.63   1
  -5   5  12 3549.96  248.63   1
   5  -5 -12 4033.89  221.97   1
   5  -5  12 4214.53  290.32   1
   5  -5  12 4052.81  225.21   1
   5   5 -12 4432.20  216.09   1
   5   5  12 3743.03  230.60   1
  -5  -5 -13  845.18  201.27   1
  -5  -5  13  794.29  182.40   1
  -5   5  13  462.86  134.88   1
   5  -5 -13  832.86  134.02   1
   5  -5 -13  892.41  183.07   1
   5  -5  13  707.00  175.57   1
   5  -5  13  713.27  130.99   1
   5   5 -13  742.82  122.48   1
   5   5  13  623.75  134.71   1
  -5  -5 -14   50.97  153.32   1
  -5  -5  14   98.58  144.22   1
  -5   5  14   -5.18  100.47   1
   5  -5 -14   11.04   87.30   1
   5  -5 -14   20.85  137.70   1
   5  -5  14   75.97  120.99   1
   5  -5  14   58.76   88.42   1
   5   5 -14   43.62   79.06   1
   5   5  14  -10.94   97.24   1
  -5  -5  15 1163.27  196.31   1
  -5   5  15 1005.88  163.34   1
   5  -5 -15 1302.27  161.24   1
   5  -5 -15 1407.30  220.23   1
   5  -5  15 1325.38  201.24   1
   5  -5  15 1371.28  167.08   1
   5   5 -15 1652.41  163.54   1
   5   5  15 1294.38  197.72   1
  -6   5   0   21.22   35.67   1
  -6   5   0   16.27   52.23   1
  -5  -6   0   10.05   42.24   1
  -5  -6   0   -9.78   50.75   1
  -5  -6   0   32.41   56.06   1
   5   6   0   26.52   48.35   1
   6  -5   0  -23.76   43.69   1
   6  -5   0   -3.64   40.54   1
  -6   5  -1  115.48   49.70   1
  -6   5  -1   78.27   44.74   1
  -6   5   1  127.60   50.85   1
  -5  -6  -1   85.68   52.99   1
  -5  -6  -1  157.59   74.13   1
  -5  -6  -1  102.36   63.78   1
  -5  -6   1  154.84   57.54   1
  -5  -6   1  180.85   79.56   1
  -5  -6   1  175.29   73.81   1
   5   6  -1  193.38   70.14   1
   5   6   1  182.91   66.63   1
   6  -5  -1  142.52   65.05   1
   6  -5  -1  161.42   65.04   1
   6  -5   1  213.01   71.76   1
   6  -5   1  205.66   71.82   1
  -6   5  -2  135.46   53.32   1
  -6   5  -2  109.41   48.49   1
  -6   5   2   75.57   45.95   1
  -5  -6  -2   92.91   52.74   1
  -5  -6  -2  121.95   73.39   1
  -5  -6  -2   95.06   63.35   1
  -5  -6   2  144.89   60.49   1
  -5  -6   2  122.72   69.97   1
  -5  -6   2  125.55   66.62   1
   5   6  -2  114.81   61.79   1
   5   6   2   91.85   60.18   1
   6  -5  -2  152.15   66.93   1
   6  -5   2   76.62   57.25   1
   6  -5   2   88.93   59.32   1
  -6   5  -3 1234.42  111.25   1
  -6   5  -3 1320.68  110.95   1
  -6   5   3 1289.81  112.64   1
  -5  -6  -3 1090.87  111.97   1
  -5  -6  -3 1438.66  161.40   1
  -5  -6  -3 1294.68  142.58   1
  -5  -6   3 1396.98  155.28   1
  -5  -6   3 1216.05  139.19   1
   5   6   3 1172.79  131.07   1
   6  -5  -3 1386.15  139.66   1
   6  -5   3 1489.18  132.97   1
   6  -5   3 1382.73  138.42   1
  -6   5  -4  310.87   71.01   1
  -6   5   4  388.53   73.83   1
  -5  -6  -4  310.06   75.04   1
  -5  -6  -4  473.95  112.13   1
  -5  -6  -4  249.62   84.62   1
  -5  -6   4  308.66   78.33   1
  -5  -6   4  304.31   97.77   1
  -5  -6   4  277.48   86.94   1
   5   6   4  323.80   85.82   1
   6  -5  -4  405.96   96.69   1
   6  -5   4  475.66  101.47   1
   6  -5   4  399.87   95.51   1
  -6   5  -5  796.02  103.76   1
  -5  -6  -5  752.07  102.40   1
  -5  -6  -5  780.46  145.26   1
  -5  -6  -5  620.31  125.71   1
  -5  -6   5  721.55  112.46   1
  -5  -6   5  806.71  136.94   1
   5   6   5  867.19  132.13   1
   6  -5  -5  754.70  125.56   1
   6  -5   5  893.99  135.05   1
   6  -5   5  738.10   96.70   1
   6  -5   5  755.78  123.09   1
  -6   5  -6 1945.78  148.52   1
  -5  -6  -6 1887.67  143.63   1
  -5  -6  -6 2129.75  229.37   1
  -5  -6  -6 1627.28  176.50   1
  -5  -6   6 2013.50  204.61   1
   6  -5  -6 1938.57  192.24   1
   6  -5   6 2004.11  162.16   1
   6  -5   6 1959.40  150.50   1
   6  -5   6 2238.75  185.05   1
  -6   5  -7   53.11   64.67   1
  -5  -6  -7   67.85   67.73   1
  -5  -6  -7  113.52  119.68   1
  -5  -6  -7   98.33   91.69   1
  -5  -6   7   84.42  106.53   1
   6  -5  -7   81.87   94.47   1
   6  -5   7  133.11   80.42   1
   6  -5   7  129.26   77.87   1
  -6   5  -8  646.77  106.16   1
  -5  -6  -8  792.80  108.62   1
  -5  -6  -8  698.26  167.19   1
  -5  -6  -8  559.67  132.90   1
  -5  -6   8  804.84  158.12   1
   6  -5  -8  699.26  145.02   1
   6  -5   8  716.53  130.30   1
   6  -5   8  714.48  114.22   1
  -6   5  -9  466.98  100.60   1
  -5  -6  -9  402.78  152.52   1
  -5  -6  -9  256.19  116.39   1
  -5  -6   9  512.17  146.90   1
   6  -5  -9  608.65  145.12   1
   6  -5   9  577.67  128.57   1
   6  -5   9  517.11  108.89   1
  -6   5  10   12.58   85.66   1
  -5  -6 -10   -6.04  135.15   1
  -5  -6  10  -11.71  114.52   1
   6  -5 -10    7.50  108.78   1
   6  -5  10   10.29   81.11   1
   6  -5  10   -7.39   75.91   1
  -6   5  11   25.80   93.67   1
  -5  -6 -11  -43.34  131.35   1
  -5  -6  11  -22.20  121.03   1
   6  -5 -11   13.78   69.84   1
   6  -5 -11   42.53  115.34   1
   6  -5  11   62.41   89.67   1
   6  -5  11   37.84   82.98   1
  -6   5  12  106.05  100.37   1
  -5  -6 -12  -22.82  132.95   1
  -5  -6  12  117.76  133.14   1
   5   6 -12   94.73   76.30   1
   6  -5 -12  147.28   87.21   1
   6  -5 -12  123.25  123.30   1
   6  -5  12   77.15   93.45   1
   6  -5  12   57.56   84.03   1
  -6   5  13   24.40   88.73   1
  -5  -6 -13    0.51  132.92   1
  -5  -6  13   34.80  123.29   1
   5   6 -13   50.77   71.56   1
   6  -5 -13   29.47   74.12   1
   6  -5 -13    2.50  112.20   1
   6  -5  13   79.83   85.23   1
   6  -5  13  -20.81   78.14   1
  -6   4   0 7830.69  230.86   1
  -6   4   0 7839.46  219.41   1
  -4  -6   0 7967.41  243.86   1
  -4  -6   0 8670.62  302.61   1
  -4  -6   0 7680.69  272.30   1
   4   6   0 8786.15  289.85   1
   6  -4   0 9015.18  270.47   1
   6  -4   0 8514.55  271.77   1
   6  -4   0 8882.75  228.10   1
   6  -4   0 9620.94  296.87   1
  -6   4  -1  316.25   62.33   1
  -6   4  -1  333.58   64.28   1
  -6   4   1  333.57   65.14   1
  -6   4   1  260.72   59.30   1
  -4  -6  -1  363.29   69.68   1
  -4  -6  -1  487.72  101.29   1
  -4  -6  -1  356.67   84.26   1
  -4  -6   1  350.61   73.13   1
  -4  -6   1  295.34   87.02   1
  -4  -6   1  273.02   75.29   1
   4   6   1  392.60   86.90   1
   6  -4  -1  369.66   84.96   1
   6  -4  -1  328.23   75.34   1
   6  -4  -1  367.07   81.53   1
   6  -4   1  419.72   86.63   1
   6  -4   1  348.69   79.83   1
   6  -4   1  333.85   62.85   1
   6  -4   1  307.57   75.83   1
  -6   4  -2  187.00   49.39   1
  -6   4  -2  214.62   55.37   1
  -6   4   2  125.37   44.96   1
  -4  -6  -2  165.36   55.66   1
  -4  -6  -2  174.41   76.38   1
  -4  -6  -2  158.01   67.82   1
  -4  -6   2  152.52   57.69   1
  -4  -6   2  125.78   73.47   1
  -4  -6   2  103.40   61.48   1
   4   6   2  202.68   70.17   1
   6  -4  -2  166.35   62.27   1
   6  -4  -2  124.83   62.10   1
   6  -4   2  155.92   60.69   1
   6  -4   2  149.98   61.08   1
   6  -4   2  205.45   54.07   1
   6  -4   2  114.88   55.39   1
  -6   4  -3 5142.37  185.61   1
  -6   4  -3 5073.53  191.67   1
  -6   4   3 4497.16  181.24   1
  -4  -6  -3 4609.98  183.41   1
  -4  -6  -3 5428.63  251.97   1
  -4  -6  -3 4565.14  221.99   1
  -4  -6   3 5024.23  204.50   1
  -4  -6   3 5486.99  252.40   1
  -4  -6   3 4901.77  226.47   1
   4   6   3 4800.90  226.92   1
   6  -4  -3 5392.71  224.87   1
   6  -4  -3 5605.27  240.17   1
   6  -4   3 5809.43  224.53   1
   6  -4   3 5245.19  223.23   1
   6  -4   3 5529.71  195.08   1
   6  -4   3 5228.38  230.47   1
  -6   4  -4 1381.32  104.56   1
  -6   4  -4 1224.39  106.26   1
  -6   4   4 1245.98  105.36   1
  -4  -6  -4 1225.92  106.66   1
  -4  -6  -4 1560.02  162.76   1
  -4  -6  -4 1049.04  140.03   1
  -4  -6   4 1278.99  118.85   1
  -4  -6   4 1325.01  152.40   1
  -4  -6   4 1269.82  136.19   1
   4   6   4 1191.37  134.57   1
   6  -4  -4 1323.77  131.47   1
   6  -4  -4 1354.02  140.74   1
   6  -4   4 1387.82  125.12   1
   6  -4   4 1182.55  125.71   1
   6  -4   4 1294.13  106.73   1
   6  -4   4 1371.69  136.87   1
  -6   4  -5  806.74   86.76   1
  -6   4  -5  702.80   93.93   1
  -6   4   5  733.15   88.33   1
  -4  -6  -5  799.13   92.94   1
  -4  -6  -5  743.19  129.17   1
  -4  -6   5  852.66  111.42   1
  -4  -6   5  778.88  131.88   1
  -4  -6   5  671.19  111.45   1
   4   6  -5  851.33   91.27   1
   4   6   5  770.05  127.33   1
   6  -4  -5  672.39  110.05   1
   6  -4  -5  757.96  117.24   1
   6  -4   5  880.20  123.56   1
   6  -4   5  696.73  111.35   1
   6  -4   5  830.02   94.93   1
   6  -4   5  907.65  136.48   1
  -6   4  -6  824.91   88.11   1
  -6   4  -6  803.54   95.36   1
  -6   4   6  905.58   96.57   1
  -4  -6  -6  844.67   96.14   1
  -4  -6  -6  949.11  147.70   1
  -4  -6   6  911.17  109.77   1
  -4  -6   6  876.06  143.15   1
  -4  -6   6  684.56  119.70   1
   4   6  -6  795.66   92.84   1
   4   6   6  894.85  139.73   1
   6  -4  -6  987.31  111.59   1
   6  -4  -6  793.58  146.08   1
   6  -4  -6  948.86  141.83   1
   6  -4   6 1007.87  115.89   1
   6  -4   6  887.32  100.20   1
   6  -4   6  949.77  141.72   1
  -6   4  -7 2025.20  124.74   1
  -6   4  -7 1861.50  137.75   1
  -4  -6  -7 1942.43  127.22   1
  -4  -6  -7 1971.54  205.33   1
  -4  -6   7 1944.03  194.82   1
   4   6  -7 2318.16  161.71   1
   6  -4  -7 2190.13  192.63   1
   6  -4   7 2167.63  156.87   1
   6  -4   7 1993.41  142.38   1
  -6   4  -8 2554.96  145.99   1
  -4  -6  -8 2532.46  148.21   1
  -4  -6  -8 2686.43  256.09   1
  -4  -6   8 2658.26  240.88   1
   6  -4  -8 2914.94  232.03   1
   6  -4   8 2559.64  171.60   1
  -6   4  -9   59.87   71.14   1
  -4  -6  -9   99.27   70.18   1
  -4  -6  -9   41.02  129.70   1
  -4  -6   9   22.64  115.23   1
   6  -4  -9   36.85   99.68   1
   6  -4   9  102.52   77.80   1
  -4  -6 -10 1395.35  227.12   1
  -4  -6  10 1519.90  225.59   1
   4   6 -10 1873.99  152.79   1
   6  -4 -10 1765.11  225.16   1
   6  -4  10 1415.04  146.34   1
   6  -4  10 1361.25  161.30   1
  -6   4  11 3098.35  245.94   1
  -4  -6 -11 3443.31  336.05   1
  -4  -6  11 3922.58  330.63   1
   4   6 -11 4227.56  210.13   1
   4   6  11 3254.82  209.39   1
   6  -4 -11 3900.56  212.52   1
   6  -4 -11 3939.70  309.80   1
   6  -4  11 3854.30  225.98   1
  -6   4  12  155.27  116.16   1
  -4  -6 -12    2.23  156.28   1
  -4  -6  12  106.77  161.46   1
   4   6 -12  135.77   81.61   1
   4   6  12   35.32   94.34   1
   6  -4 -12  107.56   86.48   1
   6  -4 -12  148.30  138.43   1
   6  -4  12  154.64   95.04   1
  -6   4  13  701.95  163.24   1
  -4  -6 -13  687.37  192.80   1
  -4  -6  13  737.71  216.20   1
   4   6 -13  862.86  129.37   1
   4   6  13  568.38  125.43   1
   6  -4 -13  758.95  130.01   1
   6  -4 -13  756.86  183.44   1
   6  -4  13  618.51  127.29   1
  -6   4  14 1910.19  240.89   1
  -4  -6 -14 2083.18  252.08   1
  -4  -6  14 2114.53  277.53   1
   4   6 -14 2649.57  187.03   1
   4   6  14 2053.88  190.08   1
   6  -4 -14 2599.54  188.64   1
   6  -4 -14 2442.69  289.21   1
   6  -4  14 2274.10  194.30   1
   6  -4 -15  231.65  222.59   1
   6  -4  15  143.84  132.96   1
  -6   3   0   52.42   34.49   1
  -6   3   0   23.35   27.45   1
  -3  -6   0   18.16   34.67   1
  -3  -6   0   11.16   46.32   1
  -3  -6   0  -42.20   35.37   1
   3   6   0  -13.87   26.23   1
   6  -3   0   14.89   38.00   1
   6  -3   0   15.68   41.92   1
   6  -3   0   -9.50   28.44   1
   6  -3   0    1.73   37.23   1
  -6   3  -1  232.64   52.78   1
  -6   3  -1  165.95   46.42   1
  -6   3   1  181.46   48.70   1
  -6   3   1  223.40   50.13   1
  -3  -6  -1  206.60   57.19   1
  -3  -6  -1  210.42   75.20   1
  -3  -6  -1  138.30   59.59   1
  -3  -6   1  155.09   51.19   1
  -3  -6   1  226.10   74.75   1
  -3  -6   1  200.23   65.59   1
   3   6  -1  203.87   52.26   1
   3   6   1  289.64   74.04   1
   3   6   1  203.07   53.47   1
   6  -3  -1  226.30   69.54   1
   6  -3  -1  227.59   55.89   1
   6  -3  -1  259.24   69.19   1
   6  -3   1  251.72   65.83   1
   6  -3   1  201.08   66.08   1
   6  -3   1  225.00   56.92   1
   6  -3   1  212.48   63.66   1
  -6   3  -2  146.66   44.35   1
  -6   3  -2  122.08   43.77   1
  -6   3   2  152.54   46.04   1
  -3  -6  -2  121.61   46.16   1
  -3  -6  -2  152.75   70.53   1
  -3  -6  -2  152.38   63.09   1
  -3  -6   2  180.07   55.47   1
  -3  -6   2  284.46   80.67   1
  -3  -6   2   85.31   53.78   1
   3   6  -2  166.67   51.65   1
   3   6   2  168.49   67.22   1
   6  -3  -2  169.98   67.18   1
   6  -3  -2  123.64   47.17   1
   6  -3  -2  167.68   64.25   1
   6  -3   2  177.60   58.27   1
   6  -3   2  176.69   63.31   1
   6  -3   2  156.88   50.02   1
   6  -3   2  126.63   55.45   1
  -6   3  -3 1834.93  108.12   1
  -6   3  -3 1763.00  115.20   1
  -6   3   3 1661.32  111.74   1
  -3  -6  -3 1862.12  122.28   1
  -3  -6  -3 1654.56  156.97   1
  -3  -6   3 1898.81  130.67   1
  -3  -6   3 1905.48  163.34   1
  -3  -6   3 1633.64  133.95   1
   3   6  -3 1989.99  113.11   1
   3   6  -3 1607.37  113.89   1
   3   6   3 1807.12  146.60   1
   6  -3  -3 1798.98  143.33   1
   6  -3  -3 1755.05  110.06   1
   6  -3  -3 1967.40  149.65   1
   6  -3   3 1958.28  127.75   1
   6  -3   3 1734.28  140.87   1
   6  -3   3 1875.75  122.93   1
   6  -3   3 2098.86  149.05   1
  -6   3  -4  512.47   71.07   1
  -6   3  -4  552.38   80.23   1
  -6   3   4  411.56   69.78   1
  -3  -6  -4  455.09   76.10   1
  -3  -6  -4  453.15  104.00   1
  -3  -6   4  553.54   90.73   1
  -3  -6   4  385.76  100.61   1
  -3  -6   4  581.26  100.21   1
   3   6  -4  504.46   73.87   1
   3   6  -4  472.37   75.36   1
   3   6   4  420.89   94.77   1
   6  -3  -4  412.03   92.31   1
   6  -3  -4  504.68   75.37   1
   6  -3  -4  422.68   89.68   1
   6  -3   4  554.50   92.43   1
   6  -3   4  511.11   96.46   1
   6  -3   4  511.40   85.92   1
   6  -3   4  524.84   96.89   1
  -6   3  -5 1104.02   87.29   1
  -6   3  -5  976.29   97.07   1
  -6   3   5 1021.89   96.18   1
  -3  -6  -5 1068.96   99.54   1
  -3  -6  -5  865.74  138.59   1
  -3  -6   5 1113.98  112.26   1
  -3  -6   5 1168.18  160.90   1
   3   6  -5 1364.29  103.32   1
   3   6  -5  901.33   91.79   1
   3   6   5 1132.47  136.50   1
   6  -3  -5 1123.88  103.09   1
   6  -3  -5 1180.37  135.42   1
   6  -3  -5 1156.41  153.25   1
   6  -3   5 1190.67  109.10   1
   6  -3   5 1065.31  128.48   1
   6  -3   5 1225.76  110.15   1
   6  -3   5 1351.64  136.83   1
  -6   3  -6 2470.86  122.59   1
  -6   3  -6 2334.49  139.81   1
  -6   3   6 2727.91  144.72   1
  -3  -6  -6 2650.40  140.73   1
  -3  -6  -6 2485.49  208.54   1
  -3  -6   6 2620.94  159.55   1
  -3  -6   6 2638.43  218.16   1
   3   6  -6 2699.16  142.58   1
   3   6  -6 2300.62  133.13   1
   3   6   6 2604.66  195.25   1
   6  -3  -6 2494.53  146.72   1
   6  -3  -6 2736.22  191.89   1
   6  -3  -6 2577.64  194.36   1
   6  -3   6 2917.56  161.94   1
   6  -3   6 2509.53  182.29   1
   6  -3   6 2623.07  155.27   1
   6  -3   6 3126.56  199.50   1
  -6   3  -7  143.30   46.02   1
  -6   3  -7  109.89   47.52   1
  -6   3   7  121.23   46.63   1
  -3  -6  -7   81.53   46.42   1
  -3  -6  -7   -9.73   79.93   1
  -3  -6   7  211.19   99.32   1
   3   6  -7  156.19   55.35   1
   3   6  -7   78.55   43.10   1
   6  -3  -7  128.83   55.07   1
   6  -3  -7  174.12   85.86   1
   6  -3  -7  168.75   82.14   1
   6  -3   7   95.99   55.70   1
   6  -3   7  186.45   52.91   1
   6  -3   7   69.77   64.19   1
   6  -3   7  143.54   57.73   1
  -6   3  -8  884.98   87.32   1
  -6   3  -8  838.38  101.37   1
  -6   3   8  822.96   93.22   1
  -6   3   8  827.43  115.03   1
  -3  -6  -8  941.98   97.25   1
  -3  -6  -8  775.47  156.89   1
  -3  -6   8  855.60  174.63   1
   3   6  -8  961.22  102.32   1
   3   6  -8  969.87   97.72   1
   6  -3  -8  866.88  105.94   1
   6  -3  -8  924.84  184.28   1
   6  -3  -8  925.78  155.21   1
   6  -3   8  978.39  129.21   1
   6  -3   8  864.92   91.73   1
   6  -3   8  903.42  120.84   1
  -6   3  -9  483.22   86.10   1
  -6   3   9  564.69   86.49   1
  -3  -6  -9  563.74   83.37   1
  -3  -6  -9  592.19  157.96   1
  -3  -6   9  464.26  153.17   1
   3   6  -9  598.60   95.81   1
   3   6   9  459.02   83.04   1
   6  -3  -9  654.62  104.32   1
   6  -3  -9  514.75  135.69   1
   6  -3   9  507.71   82.77   1
   6  -3   9  480.34   97.57   1
  -6   3  10   -2.74   58.95   1
  -3  -6 -10   48.47   60.02   1
  -3  -6 -10   46.71  133.86   1
  -3  -6  10  -69.41  126.27   1
   3   6 -10   13.74   53.52   1
   3   6  10  -12.68   61.52   1
   6  -3 -10  -21.47   49.29   1
   6  -3 -10   56.99  104.00   1
   6  -3  10   -7.97   56.11   1
   6  -3  10   23.59   69.58   1
  -6   3  11   12.75   73.98   1
  -3  -6 -11   28.66   68.68   1
  -3  -6 -11   60.51  153.90   1
  -3  -6  11   65.14  174.52   1
   3   6 -11   78.06   68.66   1
   3   6  11   11.06   72.45   1
   6  -3 -11   82.44   71.50   1
   6  -3 -11   95.20  131.63   1
   6  -3  11   33.60   71.48   1
   6  -3  11   -8.88   73.51   1
  -6   3  12  111.93   87.19   1
  -3  -6 -12  -55.03  158.88   1
  -3  -6  12  139.50  186.63   1
   3   6 -12  136.18   80.15   1
   3   6  12  144.09   92.85   1
   6  -3 -12  154.58   87.87   1
   6  -3 -12  171.39  150.51   1
   6  -3  12  162.87   88.74   1
   6  -3  12  112.36   92.31   1
  -3  -6 -13   -4.32  168.13   1
  -3  -6  13  -95.60  180.40   1
   3   6 -13   49.66   81.52   1
   3   6  13   44.06   92.10   1
   6  -3 -13   76.42   82.99   1
   6  -3 -13   46.29  150.87   1
   6  -3  13   17.04   83.09   1
   6  -3  13   -9.27   93.25   1
  -3  -6 -14  317.46  193.50   1
  -3  -6  14  386.62  216.24   1
   3   6 -14  421.87  110.97   1
   3   6  14  336.55  115.00   1
   6  -3 -14  386.10  108.52   1
   6  -3 -14  492.28  187.37   1
   6  -3  14  335.06  105.88   1
   6  -3  14  405.52  126.11   1
  -3  -6 -15  624.56  201.85   1
  -3  -6  15  815.50  218.08   1
   3   6 -15  909.86  134.76   1
   3   6  15  853.69  136.48   1
   6  -3 -15  888.90  139.70   1
   6  -3 -15  965.04  216.34   1
   6  -3  15  929.51  149.87   1
   6  -3 -16   22.99  187.52   1
   6  -3  16   17.08  123.07   1
  -6   2   010704.92  242.93   1
  -6   2   010362.77  234.93   1
  -2  -6   010685.80  266.59   1
  -2  -6   011297.87  321.06   1
  -2  -6   0 9502.62  261.79   1
   2   6   010472.64  259.13   1
   6  -2   012819.64  302.70   1
   6  -2   011356.22  305.59   1
   6  -2   010367.46  262.45   1
   6  -2   011511.19  290.85   1
  -6   2  -1  417.44   62.49   1
  -6   2  -1  441.18   65.12   1
  -6   2   1  365.15   60.17   1
  -6   2   1  441.04   62.52   1
  -2  -6  -1  464.56   76.13   1
  -2  -6  -1  413.22   89.62   1
  -2  -6  -1  360.42   76.63   1
  -2  -6   1  373.77   68.56   1
  -2  -6   1  419.19   89.71   1
  -2  -6   1  537.30   86.68   1
   2   6  -1  470.46   64.35   1
   2   6  -1  418.78   67.13   1
   2   6   1  458.61   72.65   1
   6  -2  -1  443.48   82.71   1
   6  -2  -1  391.20   69.27   1
   6  -2  -1  499.70   84.66   1
   6  -2   1  462.02   79.42   1
   6  -2   1  562.82   94.65   1
   6  -2   1  494.02   78.18   1
   6  -2   1  646.04   93.69   1
  -6   2  -2  177.86   44.40   1
  -6   2  -2  130.02   41.11   1
  -6   2   2  186.58   48.84   1
  -6   2   2  202.65   44.40   1
  -2  -6  -2  176.10   53.04   1
  -2  -6  -2  170.72   70.41   1
  -2  -6   2  147.50   52.92   1
  -2  -6   2  221.64   72.90   1
   2   6  -2  250.68   51.34   1
   2   6  -2  237.42   56.58   1
   2   6   2  186.90   61.69   1
   2   6   2  197.02   52.36   1
   6  -2  -2  178.45   63.07   1
   6  -2  -2  215.34   56.32   1
   6  -2  -2  211.98   66.67   1
   6  -2   2  271.29   71.55   1
   6  -2   2  155.86   53.02   1
   6  -2   2  193.18   60.34   1
  -6   2  -3 6617.70  183.89   1
  -6   2  -3 6221.01  198.43   1
  -6   2   3 6474.05  200.28   1
  -2  -6  -3 6274.07  206.45   1
  -2  -6  -3 6521.94  266.69   1
  -2  -6   3 5971.05  208.53   1
  -2  -6   3 6478.15  261.12   1
   2   6  -3 7059.85  199.51   1
   2   6  -3 6679.77  210.02   1
   2   6   3 6822.32  243.42   1
   2   6   3 6272.68  204.69   1
   6  -2  -3 6916.24  256.05   1
   6  -2  -3 6922.24  215.86   1
   6  -2  -3 6834.76  246.41   1
   6  -2   3 6938.88  257.12   1
   6  -2   3 6432.97  219.60   1
   6  -2   3 7303.16  245.44   1
  -6   2  -4 1555.26   93.43   1
  -6   2  -4 1640.96  110.69   1
  -6   2   4 1636.61  110.32   1
  -2  -6  -4 1513.71  111.48   1
  -2  -6  -4 1644.41  163.75   1
  -2  -6   4 1663.98  123.13   1
  -2  -6   4 1641.87  156.70   1
   2   6  -4 1825.94  109.77   1
   2   6  -4 1596.49  110.64   1
   2   6   4 1452.90  107.17   1
   6  -2  -4 1610.69  144.20   1
   6  -2  -4 1823.06  120.69   1
   6  -2  -4 1831.43  148.22   1
   6  -2   4 1809.33  149.98   1
   6  -2   4 1698.77  123.62   1
   6  -2   4 1748.07  137.08   1
  -6   2  -5  870.34   74.89   1
  -6   2  -5  902.85   90.80   1
  -6   2   5  891.67   87.84   1
  -6   2   5  876.33   83.53   1
  -2  -6  -5  979.96   95.22   1
  -2  -6  -5  821.92  141.92   1
  -2  -6   5  912.35  104.43   1
  -2  -6   5  852.52  140.49   1
   2   6  -5 1005.24   89.19   1
   2   6  -5  900.77   89.31   1
   6  -2  -5 1074.77   96.32   1
   6  -2  -5  985.44  148.59   1
   6  -2  -5  929.74   95.73   1
   6  -2  -5 1113.81  132.89   1
   6  -2   5  838.25   76.86   1
   6  -2   5  912.40  134.53   1
   6  -2   5  914.89  100.97   1
   6  -2   5 1176.63  122.53   1
  -6   2  -6  952.90   76.57   1
  -6   2  -6  966.55   95.98   1
  -6   2   6  914.10   89.78   1
  -6   2   6 1016.16   91.14   1
  -2  -6  -6 1031.62   95.40   1
  -2  -6  -6 1109.54  167.46   1
  -2  -6   6  966.55  155.87   1
  -2  -6   6  862.84  149.52   1
   2   6  -6 1171.50   98.00   1
   2   6  -6 1166.88   99.49   1
   6  -2  -6 1157.46  103.36   1
   6  -2  -6  922.98  142.77   1
   6  -2  -6 1152.39  105.87   1
   6  -2  -6  897.44  139.00   1
   6  -2   6 1021.60  123.36   1
   6  -2   6 1119.97   90.29   1
   6  -2   6 1090.58  164.52   1
   6  -2   6 1009.91  107.95   1
   6  -2   6 1428.47  137.02   1
  -6   2  -7 2426.65  112.20   1
  -6   2  -7 2573.41  146.99   1
  -6   2   7 2334.35  134.00   1
  -6   2   7 2440.09  133.02   1
  -2  -6  -7 2448.76  136.14   1
  -2  -6  -7 2208.43  213.41   1
  -2  -6   7 2447.87  222.35   1
   2   6  -7 2883.60  147.11   1
   2   6  -7 2706.38  142.09   1
   2   6   7 2182.28  124.21   1
   6  -2  -7 2801.47  152.83   1
   6  -2  -7 2548.75  208.70   1
   6  -2  -7 2614.80  146.64   1
   6  -2  -7 2884.16  217.84   1
   6  -2   7 2358.65  128.07   1
   6  -2   7 2570.33  225.47   1
   6  -2   7 2569.55  164.26   1
  -6   2  -8 3418.61  171.56   1
  -6   2   8 3193.13  156.01   1
  -6   2   8 2890.47  148.81   1
  -2  -6  -8 3270.38  154.43   1
  -2  -6  -8 2873.12  243.35   1
  -2  -6   8 3201.49  262.41   1
   2   6  -8 3600.36  168.68   1
   2   6  -8 3279.11  155.74   1
   2   6   8 2632.46  133.65   1
   6  -2  -8 3436.35  173.67   1
   6  -2  -8 3303.81  163.31   1
   6  -2  -8 3580.66  250.83   1
   6  -2   8 3593.76  170.02   1
   6  -2   8 3035.03  151.25   1
   6  -2   8 3317.80  277.65   1
   6  -2   8 3044.70  182.58   1
  -6   2  -9   56.50   44.60   1
  -6   2   9   64.59   45.96   1
  -2  -6  -9   60.55   45.30   1
  -2  -6   9   81.40   98.59   1
   2   6  -9   62.79   45.68   1
   2   6  -9   69.72   42.94   1
   2   6   9   18.53   37.29   1
   6  -2  -9   47.98   47.35   1
   6  -2  -9  131.67   89.18   1
   6  -2   9   72.90   49.88   1
   6  -2   9   47.73   42.30   1
   6  -2   9  135.57  111.63   1
   6  -2   9   55.61   57.88   1
  -6   2 -10 1913.63  141.08   1
  -6   2  10 1955.46  139.39   1
  -2  -6 -10 2035.27  130.88   1
  -2  -6  10 1699.36  229.42   1
   2   6 -10 2251.93  148.20   1
   2   6  10 1553.68  120.30   1
   6  -2 -10 2091.02  149.38   1
   6  -2 -10 2110.63  222.90   1
   6  -2  10 1911.38  137.68   1
   6  -2  10 1917.95  168.27   1
  -6   2  11 4190.89  207.19   1
  -2  -6 -11 4383.89  188.19   1
  -2  -6  11 4428.72  386.87   1
   2   6 -11 5094.87  222.19   1
   2   6  11 3706.16  191.61   1
   6  -2 -11 4811.53  221.48   1
   6  -2 -11 4617.08  314.49   1
   6  -2  11 3920.03  201.18   1
   6  -2  11 4757.49  259.90   1
  -6   2  12  103.24   84.06   1
  -2  -6 -12  100.73   75.32   1
   2   6 -12  120.65   77.01   1
   2   6  12   88.51   82.49   1
   6  -2 -12   77.71   71.86   1
   6  -2 -12   53.18  125.96   1
   6  -2  12   93.60   80.02   1
   6  -2  12  123.70   98.86   1
  -6   2  13 1018.55  141.58   1
   2   6 -13 1034.89  139.85   1
   2   6  13  744.65  129.31   1
   6  -2 -13 1052.33  144.67   1
   6  -2 -13  900.83  205.30   1
   6  -2  13  957.67  140.57   1
   6  -2  13 1004.78  172.24   1
  -6   2  14 2466.86  200.76   1
   2   6 -14 2833.61  205.75   1
   2   6  14 2418.99  197.95   1
   6  -2 -14 2960.47  203.68   1
   6  -2 -14 2726.47  326.83   1
   6  -2  14 2703.25  200.39   1
   6  -2  14 2535.12  240.02   1
  -6   2  15  138.82  100.17   1
   2   6 -15  190.31  107.50   1
   2   6  15  120.98   97.84   1
   6  -2 -15  159.07   97.25   1
   6  -2 -15   96.60  165.65   1
   6  -2  15  116.85   93.81   1
   6  -2  15  146.81  120.04   1
   2   6 -16  403.67  119.54   1
   2   6  16  364.55  114.59   1
   6  -2 -16  406.37  110.27   1
   6  -2 -16  410.62  185.47   1
   6  -2  16  309.39  105.14   1
   6  -2  16  370.45  142.35   1
  -6   1   0    0.72   22.28   1
  -1  -6   0    7.75   33.37   1
  -1  -6   0   -9.01   37.81   1
   1   6   0   -2.56   22.63   1
   1   6   0    2.07   23.10   1
   6  -1   0   -4.02   32.21   1
   6  -1   0    7.26   33.63   1
   6  -1   0   25.41   36.12   1
  -6   1  -1  248.47   49.32   1
  -6   1   1  235.96   49.43   1
  -1  -6  -1  235.91   56.14   1
  -1  -6  -1  226.26   67.44   1
  -1  -6   1  240.62   58.79   1
  -1  -6   1  246.20   68.76   1
   1   6  -1  305.93   52.22   1
   1   6  -1  246.06   53.18   1
   1   6   1  322.02   59.90   1
   6  -1  -1  310.99   71.74   1
   6  -1  -1  289.42   65.26   1
   6  -1  -1  306.23   65.77   1
   6  -1   1  238.59   63.56   1
   6  -1   1  279.62   64.39   1
   6  -1   1  372.05   70.40   1
  -6   1  -2  190.98   41.87   1
  -6   1   2  119.39   39.93   1
  -6   1   2  200.33   47.31   1
  -1  -6  -2  172.39   51.74   1
  -1  -6  -2  180.23   66.68   1
  -1  -6   2  172.96   54.34   1
  -1  -6   2  121.23   57.33   1
   1   6  -2  184.80   44.71   1
   1   6  -2  160.61   43.61   1
   1   6   2  164.43   44.68   1
   6  -1  -2  193.25   63.50   1
   6  -1  -2  162.56   53.02   1
   6  -1  -2  110.12   49.73   1
   6  -1   2  198.07   43.73   1
   6  -1   2  151.00   56.70   1
   6  -1   2  138.21   48.49   1
   6  -1   2  196.17   55.77   1
  -6   1  -3 2147.47  103.30   1
  -6   1   3 1948.16  112.31   1
  -6   1   3 2072.61  110.12   1
  -1  -6  -3 2049.38  124.57   1
  -1  -6  -3 1901.37  155.62   1
  -1  -6   3 1994.69  127.13   1
  -1  -6   3 2192.02  153.87   1
   1   6  -3 2395.78  118.99   1
   1   6  -3 2186.71  122.34   1
   1   6   3 2123.49  120.54   1
   6  -1  -3 2085.57  152.60   1
   6  -1  -3 2036.82  130.46   1
   6  -1  -3 2169.88  142.29   1
   6  -1   3 2164.25  107.06   1
   6  -1   3 2314.32  156.66   1
   6  -1   3 2345.71  142.70   1
  -6   1  -4  588.61   59.85   1
  -6   1   4  589.08   71.65   1
  -6   1   4  666.18   74.46   1
  -1  -6  -4  603.26   87.17   1
  -1  -6  -4  570.81  109.52   1
  -1  -6   4  504.03   81.58   1
  -1  -6   4  560.16  100.75   1
   1   6  -4  628.82   71.39   1
   1   6  -4  512.11   74.48   1
   1   6   4  558.00   77.90   1
   6  -1  -4  522.87  101.47   1
   6  -1  -4  569.83   88.61   1
   6  -1  -4  593.13  100.58   1
   6  -1   4  545.22   64.16   1
   6  -1   4  633.89  109.16   1
   6  -1   4  522.67   88.01   1
  -6   1  -5 1285.29   81.08   1
  -6   1   5 1307.29   99.38   1
  -6   1   5 1276.08   98.58   1
  -1  -6  -5 1358.90  108.17   1
  -1  -6  -5 1092.69  153.39   1
  -1  -6   5 1348.02  122.89   1
  -1  -6   5 1436.74  145.82   1
   1   6  -5 1377.91   99.24   1
   1   6  -5 1329.91  102.10   1
   1   6   5 1168.89   96.71   1
   6  -1  -5 1415.87  104.27   1
   6  -1  -5 1050.95  155.22   1
   6  -1  -5 1372.09  115.52   1
   6  -1  -5 1404.87  141.95   1
   6  -1   5 1276.50   92.93   1
   6  -1   5 1305.76  145.96   1
   6  -1   5 1227.66  115.53   1
  -6   1  -6 2937.93  116.08   1
  -6   1   6 2917.12  144.49   1
  -6   1   6 3022.57  145.21   1
  -1  -6  -6 2986.36  150.03   1
  -1  -6  -6 2557.98  209.87   1
  -1  -6   6 3123.06  204.32   1
   1   6  -6 3008.20  142.91   1
   1   6  -6 3140.62  149.72   1
   1   6   6 2654.99  120.04   1
   6  -1  -6 3128.50  150.16   1
   6  -1  -6 3149.33  166.06   1
   6  -1  -6 3204.80  209.82   1
   6  -1   6 3029.52  141.66   1
   6  -1   6 3338.59  234.80   1
   6  -1   6 3043.48  175.00   1
  -6   1   7  173.37   49.92   1
  -6   1   7  110.86   46.62   1
  -1  -6  -7  113.91   49.25   1
  -1  -6   7   85.16   70.84   1
   1   6  -7  119.04   45.58   1
   1   6  -7  149.77   48.72   1
   1   6   7  118.30   42.83   1
   6  -1  -7  158.93   54.60   1
   6  -1  -7  159.18   60.61   1
   6  -1  -7  112.89   70.44   1
   6  -1   7  115.49   48.35   1
   6  -1   7  149.91   97.07   1
   6  -1   7   80.15   53.23   1
  -6   1  -8 1015.97  105.44   1
  -6   1   8 1064.54  100.43   1
  -6   1   8 1049.25  103.87   1
  -1  -6  -8  984.50  100.62   1
  -1  -6   8 1092.44  150.23   1
   1   6  -8 1094.10   99.72   1
   1   6  -8 1059.31   98.01   1
   1   6   8  788.32   82.18   1
   6  -1  -8 1231.02  110.51   1
   6  -1  -8 1037.86  161.70   1
   6  -1   8  888.46  126.57   1
   6  -1   8 1123.96  102.62   1
   6  -1   8 1064.78  183.89   1
   6  -1   8 1073.30  130.53   1
  -6   1  -9  553.44   87.99   1
  -6   1   9  741.50   92.26   1
  -6   1   9  596.17   91.69   1
  -1  -6  -9  642.64   92.85   1
  -1  -6   9  648.74  121.78   1
   1   6  -9  717.74   95.74   1
   1   6  -9  648.16   86.46   1
   1   6   9  553.84   83.53   1
   6  -1  -9  844.27  101.62   1
   6  -1  -9  716.59  141.74   1
   6  -1   9  568.40  107.24   1
   6  -1   9  543.51   87.84   1
   6  -1   9  636.50  157.59   1
   6  -1   9  564.67  108.68   1
  -6   1 -10    4.13   41.40   1
  -6   1  10   16.23   45.48   1
  -1  -6 -10   38.64   45.36   1
  -1  -6  10   57.22   70.27   1
   1   6 -10   23.02   43.59   1
   1   6 -10   18.43   39.54   1
   1   6  10   41.95   42.05   1
   6  -1 -10   37.61   44.56   1
   6  -1 -10   10.51   68.82   1
   6  -1  10   24.12   54.60   1
   6  -1  10    9.59   40.10   1
   6  -1  10   61.77   89.90   1
   6  -1  10   -5.17   62.82   1
  -6   1 -11   32.37   53.16   1
  -6   1  11   25.14   55.68   1
  -1  -6 -11   28.99   52.82   1
   1   6 -11   86.14   59.03   1
   1   6  11   -3.80   48.03   1
   6  -1 -11   -7.85   48.82   1
   6  -1 -11  -41.58   70.86   1
   6  -1  11   55.91   64.57   1
   6  -1  11   24.74   53.87   1
   6  -1  11   17.76   68.69   1
  -6   1  12  176.24   87.58   1
  -1  -6 -12  133.37   77.30   1
   1   6 -12  113.67   76.71   1
   1   6  12  163.10   82.31   1
   6  -1 -12  105.75   72.31   1
   6  -1 -12  156.29  106.10   1
   6  -1  12  191.40   91.83   1
   6  -1  12  139.92   81.07   1
   6  -1  12  114.45  104.97   1
  -6   1  13   -8.12   82.35   1
  -1  -6 -13   76.00   81.62   1
   1   6 -13   51.17   87.51   1
   1   6  13   68.99   82.02   1
   6  -1 -13  108.05   80.68   1
   6  -1 -13   54.88  110.70   1
   6  -1  13  109.68   88.70   1
   6  -1  13   49.06   83.60   1
   6  -1  13   58.87  114.77   1
  -6   1  14  405.67  124.82   1
  -1  -6 -14  576.69  139.68   1
   1   6 -14  748.19  135.08   1
   1   6  14  326.27  107.56   1
   6  -1 -14  672.27  125.62   1
   6  -1 -14  433.85  163.60   1
   6  -1  14  391.11  122.52   1
   6  -1  14  538.52  124.94   1
   6  -1  14  539.55  180.13   1
  -6   1  15  863.05  152.32   1
   1   6 -15 1005.63  149.54   1
   1   6  15  600.48  126.60   1
   6  -1 -15  958.34  141.56   1
   6  -1 -15  881.87  202.09   1
   6  -1  15  727.14  134.02   1
   6  -1  15  891.62  215.52   1
  -6   1  16   98.37   99.98   1
   1   6 -16   87.66  109.72   1
   1   6  16   33.27   92.59   1
   6  -1 -16   42.78   85.95   1
   6  -1 -16   -1.50  149.48   1
   6  -1  16   88.22   93.10   1
   1   6  17  885.81  164.32   1
   6  -1 -17  657.57  138.87   1
   6  -1  17  648.15  142.90   1
  -6   0   011104.25  233.38   1
  -6   0   011580.05  242.77   1
   0  -6   011510.92  275.84   1
   0  -6   012045.76  291.68   1
   0   6   012528.30  248.28   1
   0   6   011654.99  262.11   1
   6   0   011451.41  225.66   1
   6   0   012834.58  306.41   1
   6   0   011933.61  300.21   1
  -6   0  -1  471.07   57.77   1
  -6   0  -1  531.35   71.97   1
  -6   0   1  411.59   60.56   1
  -6   0   1  431.47   65.41   1
   0  -6  -1  492.47   78.75   1
   0  -6  -1  480.51   84.58   1
   0  -6   1  485.09   76.37   1
   0  -6   1  513.93   80.74   1
   0  -6   1  561.61   87.24   1
   0   6  -1  490.34   60.07   1
   0   6  -1  504.39   70.90   1
   0   6   1  538.04   59.81   1
   0   6   1  521.19   71.38   1
   6   0  -1  455.07   55.92   1
   6   0  -1  414.00   79.04   1
   6   0  -1  575.07   91.42   1
   6   0   1  462.74   62.61   1
   6   0   1  615.15   93.01   1
   6   0   1  540.75   86.96   1
  -6   0  -2  217.40   44.29   1
  -6   0  -2  232.83   50.13   1
  -6   0   2  226.35   49.65   1
  -6   0   2  170.00   48.35   1
   0  -6  -2  204.07   55.64   1
   0  -6  -2  206.67   64.77   1
   0  -6   2  207.71   57.21   1
   0  -6   2  250.69   63.75   1
   0  -6   2  215.57   61.56   1
   0   6  -2  195.87   44.90   1
   0   6  -2  213.80   49.77   1
   0   6   2  206.04   42.65   1
   0   6   2  209.43   50.19   1
   6   0  -2  224.58   63.24   1
   6   0  -2  256.90   63.41   1
   6   0   2  213.85   46.64   1
   6   0   2  228.42   62.86   1
   6   0   2  173.16   56.64   1
  -6   0  -3 6731.36  171.12   1
  -6   0   3 7060.07  201.14   1
  -6   0   3 7025.21  204.97   1
   0  -6  -3 7340.76  223.07   1
   0  -6  -3 6837.63  252.67   1
   0  -6   3 7538.94  231.79   1
   0  -6   3 8120.02  225.50   1
   0  -6   3 7282.47  235.22   1
   0   6  -3 7540.12  204.82   1
   0   6  -3 7362.08  214.72   1
   0   6   3 6925.80  203.68   1
   6   0  -3 7022.28  254.30   1
   6   0  -3 7410.22  242.17   1
   6   0   3 7406.69  200.65   1
   6   0   3 8041.23  263.72   1
   6   0   3 6693.78  236.90   1
  -6   0  -4 1778.06   91.19   1
  -6   0   4 1996.46  115.80   1
  -6   0   4 1761.67  114.95   1
   0  -6  -4 1941.67  123.57   1
   0  -6  -4 1779.84  154.63   1
   0  -6   4 1994.39  120.89   1
   0  -6   4 1989.40  138.02   1
   0   6  -4 1936.07  110.86   1
   0   6  -4 1785.28  113.65   1
   0   6   4 1789.86  110.16   1
   6   0  -4 2056.93  148.08   1
   6   0  -4 1908.25  156.74   1
   6   0  -4 1800.53  130.82   1
   6   0   4 1770.89  107.26   1
   6   0   4 1989.43  152.75   1
   6   0   4 1941.92  140.70   1
  -6   0  -5 1018.44   71.96   1
  -6   0   5  767.03   81.32   1
  -6   0   5  973.02   93.89   1
   0  -6  -5  837.90   91.25   1
   0  -6  -5  663.05  123.41   1
   0  -6   5 1009.51   92.68   1
   0  -6   5 1090.24  111.55   1
   0   6  -5 1059.63   88.64   1
   0   6  -5 1019.19   92.48   1
   0   6   5  913.49   75.24   1
   0   6   5  949.84   88.10   1
   6   0  -5 1144.36   93.03   1
   6   0  -5 1093.52  123.10   1
   6   0  -5 1063.94  126.95   1
   6   0   5  819.12  109.95   1
   6   0   5 1013.23   88.48   1
   6   0   5 1055.45  126.97   1
   6   0   5 1015.01  114.88   1
  -6   0  -6 1045.32   71.90   1
  -6   0   6 1209.44  100.42   1
  -6   0   6 1132.86  104.91   1
   0  -6  -6 1200.13  105.45   1
   0  -6   6 1281.27  105.76   1
   0  -6   6 1322.19  121.47   1
   0   6  -6 1163.82   94.84   1
   0   6  -6 1105.73   97.84   1
   0   6   6 1053.52   82.78   1
   6   0  -6 1247.52   99.99   1
   6   0  -6 1302.82  144.98   1
   6   0   6 1118.51  118.43   1
   6   0   6 1139.96   97.40   1
   6   0   6 1329.46  139.87   1
   6   0   6  918.83  128.99   1
  -6   0   7 3035.25  150.26   1
  -6   0   7 2646.18  151.76   1
   0  -6  -7 2847.22  151.69   1
   0  -6   7 3206.53  154.73   1
   0  -6   7 3036.65  166.06   1
   0   6  -7 3048.59  147.08   1
   0   6  -7 2851.95  146.38   1
   0   6   7 2579.35  127.80   1
   6   0  -7 3328.46  155.58   1
   6   0  -7 2834.95  195.41   1
   6   0   7 2405.08  163.88   1
   6   0   7 2738.87  147.29   1
   6   0   7 3288.85  201.17   1
   6   0   7 2712.38  189.36   1
  -6   0   8 3669.14  166.08   1
  -6   0   8 3114.11  169.57   1
   0  -6  -8 3458.02  167.12   1
   0  -6   8 3646.84  167.16   1
   0  -6   8 3625.83  182.95   1
   0   6  -8 3955.39  171.27   1
   0   6  -8 3425.87  161.26   1
   0   6   8 3057.44  144.33   1
   6   0  -8 3944.29  174.00   1
   6   0  -8 3710.40  223.33   1
   6   0   8 2963.64  182.08   1
   6   0   8 3227.23  165.86   1
   6   0   8 3827.87  213.46   1
   6   0   8 3204.16  218.24   1
  -6   0   9   61.12   44.59   1
  -6   0   9  108.91   56.00   1
   0  -6  -9   22.17   42.31   1
   0  -6   9   56.00   47.31   1
   0   6  -9   70.23   45.52   1
   0   6  -9  104.83   47.02   1
   0   6   9   28.37   37.76   1
   6   0  -9   87.15   48.69   1
   6   0  -9   66.05   60.71   1
   6   0   9   20.07   47.25   1
   6   0   9   43.42   45.01   1
   6   0   9   77.25   61.60   1
   6   0   9  131.48   84.60   1
  -6   0  10 2012.44  154.09   1
   0  -6 -10 2107.24  140.78   1
   0  -6  10 2119.18  140.41   1
   0   6 -10 2210.87  141.51   1
   0   6 -10 2122.96  134.53   1
   0   6  10 1750.94  127.07   1
   6   0 -10 2429.13  151.71   1
   6   0 -10 2302.69  192.43   1
   6   0  10 1795.31  155.67   1
   6   0  10 2003.16  147.53   1
   6   0  10 2527.45  183.38   1
   6   0  10 2123.23  224.41   1
  -6   0 -11 4531.65  206.65   1
  -6   0  11 4665.81  228.13   1
   0  -6 -11 4496.08  197.18   1
   0  -6  11 4969.31  205.82   1
   0   6 -11 5359.27  218.61   1
   0   6 -11 5007.59  196.74   1
   0   6  11 4138.96  193.12   1
   6   0 -11 5459.51  222.46   1
   6   0 -11 4746.00  272.08   1
   6   0  11 4081.93  224.83   1
   6   0  11 4519.10  220.99   1
   6   0  11 4519.68  333.21   1
  -6   0  12   54.63   81.19   1
   0  -6 -12  116.48   78.36   1
   0  -6  12  208.16   90.95   1
   0   6 -12   99.37   77.95   1
   0   6  12   83.27   74.06   1
   6   0 -12  100.10   65.78   1
   6   0  12   78.73   80.99   1
   6   0  12   98.11   78.97   1
  -6   0  13  880.22  150.41   1
   0  -6 -13 1008.69  133.23   1
   0  -6  13 1057.50  149.29   1
   0   6 -13 1029.10  141.38   1
   0   6  13  847.07  131.23   1
   6   0 -13 1007.52  136.68   1
   6   0  13 1013.97  162.92   1
   6   0  13  798.00  139.75   1
  -6   0  14 2430.09  221.41   1
   0  -6 -14 2740.15  189.22   1
   0  -6  14 2916.61  209.49   1
   0   6 -14 3134.38  224.33   1
   0   6  14 2321.51  194.78   1
   6   0 -14 3011.53  199.78   1
   6   0  14 2770.88  215.96   1
  -6   0  15  267.44  121.73   1
   0  -6 -15  234.12   97.87   1
   0   6 -15  275.06  122.35   1
   0   6  15  196.60  102.67   1
   6   0 -15  170.15   94.38   1
   6   0  15  225.93  110.40   1
   6   0  15  256.78  109.76   1
  -6   0  16  423.57  133.70   1
   0   6 -16  459.17  136.48   1
   0   6  16  439.55  119.71   1
   6   0 -16  426.19  111.14   1
   6   0  16  327.63  117.71   1
   6   0  16  387.84  124.41   1
  -6   0  17  378.67  131.69   1
   0   6  17  440.28  120.35   1
   6   0 -17  586.15  120.31   1
   6   0  17  440.01  136.36   1
   6   0  17  478.84  129.79   1
  -6  -1   0   -4.54   23.17   1
  -6  -1   0    2.53   28.71   1
  -1   6   0    9.35   24.80   1
  -1   6   0   43.18   32.63   1
   1  -6   0   17.58   33.56   1
   1  -6   0  -18.29   24.90   1
   6   1   0   30.14   26.79   1
   6   1   0    3.34   31.56   1
   6   1   0    1.56   31.80   1
  -6  -1  -1  256.38   48.20   1
  -6  -1  -1  184.79   50.15   1
  -6  -1   1  226.51   49.50   1
  -6  -1   1  255.96   58.24   1
  -1   6  -1  283.79   52.90   1
  -1   6  -1  361.43   64.85   1
  -1   6   1  294.32   51.47   1
  -1   6   1  327.67   59.33   1
   1  -6  -1  317.51   63.13   1
   1  -6  -1  329.30   56.82   1
   1  -6   1  260.20   62.70   1
   1  -6   1  260.89   66.27   1
   1  -6   1  304.13   57.16   1
   6   1  -1  248.49   51.20   1
   6   1  -1  236.43   59.21   1
   6   1  -1  238.96   64.44   1
   6   1   1  239.12   51.78   1
   6   1   1  347.83   68.96   1
   6   1   1  260.82   65.13   1
  -6  -1  -2  165.05   39.70   1
  -6  -1  -2  142.07   44.30   1
  -6  -1   2  168.26   45.87   1
  -6  -1   2  162.66   49.82   1
  -1   6  -2  194.71   45.74   1
  -1   6  -2  174.33   48.74   1
  -1   6   2  161.34   41.40   1
  -1   6   2  228.03   51.49   1
   1  -6  -2  224.63   55.90   1
   1  -6   2  143.51   51.14   1
   1  -6   2  155.37   58.67   1
   1  -6   2  184.51   47.30   1
   6   1  -2  184.86   45.78   1
   6   1  -2  178.45   58.82   1
   6   1  -2  166.96   59.63   1
   6   1   2  162.35   45.68   1
   6   1   2  189.71   57.44   1
   6   1   2  166.44   57.60   1
  -6  -1  -3 2015.02   99.13   1
  -6  -1  -3 1897.69  115.84   1
  -6  -1   3 2133.95  117.27   1
  -6  -1   3 1994.69  125.77   1
  -1   6  -3 2390.01  121.73   1
  -1   6  -3 1978.12  117.96   1
  -1   6   3 2322.57  112.45   1
  -1   6   3 1936.91   97.06   1
  -1   6   3 2162.33  118.25   1
   1  -6  -3 2048.89  126.60   1
   1  -6  -3 1876.08  136.50   1
   1  -6   3 2365.86  144.51   1
   1  -6   3 2473.16  121.66   1
   6   1  -3 2076.87  107.56   1
   6   1  -3 2247.65  148.24   1
   6   1  -3 2036.05  140.04   1
   6   1   3 1937.69  115.29   1
   6   1   3 2611.10  147.11   1
   6   1   3 2184.36  146.96   1
  -6  -1  -4  631.36   61.23   1
  -6  -1  -4  480.67   76.64   1
  -6  -1   4  519.07   72.06   1
  -6  -1   4  587.25   88.13   1
  -1   6  -4  511.72   71.28   1
  -1   6  -4  511.30   73.65   1
  -1   6   4  554.97   63.46   1
  -1   6   4  570.27   75.79   1
   1  -6  -4  444.63   76.50   1
   1  -6  -4  558.98  100.13   1
   1  -6   4  776.42  112.87   1
   6   1  -4  700.86  109.22   1
   6   1  -4  582.52   68.00   1
   6   1  -4  712.11  115.46   1
   6   1   4  472.35   84.16   1
   6   1   4  571.29   80.90   1
   6   1   4  653.35   93.66   1
   6   1   4  585.74  101.61   1
  -6  -1  -5 1285.25   78.91   1
  -6  -1  -5 1193.97  100.02   1
  -6  -1   5 1291.83  101.38   1
  -6  -1   5 1058.68  105.00   1
  -1   6  -5 1386.07  100.31   1
  -1   6  -5 1493.89  108.91   1
  -1   6   5 1144.94   86.46   1
  -1   6   5 1276.11  110.59   1
   1  -6  -5 1298.15  108.01   1
   1  -6  -5 1251.72  140.23   1
   1  -6   5 1293.85  119.69   1
   6   1  -5 1476.69  105.23   1
   6   1  -5 1398.85  129.84   1
   6   1   5 1062.11  110.66   1
   6   1   5 1142.89   99.51   1
   6   1   5 1307.13  114.21   1
   6   1   5 1220.83  130.95   1
  -6  -1  -6 2725.83  119.56   1
  -6  -1  -6 2721.10  141.17   1
  -6  -1   6 2738.82  142.14   1
  -6  -1   6 2436.89  151.29   1
  -1   6  -6 3160.63  147.34   1
  -1   6  -6 3073.49  151.86   1
  -1   6   6 2691.43  130.15   1
   1  -6  -6 3039.24  157.53   1
   1  -6   6 3065.48  173.59   1
   6   1  -6 3386.88  149.28   1
   6   1   6 2435.01  157.73   1
   6   1   6 2968.23  155.87   1
   6   1   6 3363.76  164.47   1
   6   1   6 2825.75  197.79   1
  -6  -1  -7  166.08   70.82   1
  -6  -1   7  132.42   48.39   1
  -6  -1   7  153.49   63.81   1
  -1   6  -7  163.19   50.40   1
  -1   6  -7  150.90   51.26   1
  -1   6   7   97.83   41.24   1
   1  -6  -7   85.45   51.28   1
   1  -6   7  205.27   71.69   1
   6   1  -7  114.67   45.31   1
   6   1   7   69.48   51.93   1
   6   1   7  133.28   53.15   1
   6   1   7  141.73   57.74   1
   6   1   7   84.89   71.98   1
  -6  -1   8 1079.44  101.60   1
  -6  -1   8 1085.91   99.91   1
  -6  -1   8 1089.08  122.14   1
  -1   6  -8 1186.15  103.99   1
  -1   6  -8 1038.94  103.64   1
  -1   6   8  916.32   93.04   1
   1  -6  -8 1108.05  110.22   1
   1  -6   8 1063.54  121.12   1
   6   1  -8 1076.81  102.08   1
   6   1   8  927.66  130.14   1
   6   1   8  910.12  105.32   1
   6   1   8 1040.10  187.08   1
  -6  -1   9  628.24   91.88   1
  -6  -1   9  580.33   87.04   1
  -6  -1   9  589.43  110.69   1
  -1   6  -9  657.48   90.43   1
  -1   6  -9  535.76   82.38   1
  -1   6   9  493.07   83.92   1
   1  -6  -9  687.89  102.82   1
   1  -6   9  601.98  110.16   1
   6   1  -9  708.98   98.78   1
   6   1   9  610.39  104.91   1
   6   1   9  708.81  107.83   1
   6   1   9  794.59  193.05   1
  -6  -1  10    5.78   44.72   1
  -6  -1  10  -10.03   52.85   1
  -1   6 -10   14.32   47.63   1
  -1   6 -10    0.14   38.87   1
  -1   6  10    1.03   37.00   1
   1  -6 -10    5.52   44.08   1
   1  -6  10   51.03   58.57   1
   6   1 -10   24.20   41.97   1
   6   1  10    4.20   50.22   1
   6   1  10   33.82   52.88   1
   6   1  10  -16.55  131.96   1
  -6  -1  11   31.08   55.19   1
  -6  -1  11   63.12   75.18   1
  -1   6 -11   40.44   55.16   1
  -1   6 -11   40.61   44.97   1
  -1   6  11   60.03   57.91   1
   1  -6 -11   21.20   58.78   1
   1  -6  11   66.65   76.99   1
   6   1 -11   61.89   50.45   1
   6   1  11   35.24   61.32   1
   6   1  11    9.76   58.63   1
  -6  -1  12  173.65  102.71   1
  -1   6 -12  179.00   87.89   1
  -1   6  12   65.11   76.90   1
   1  -6 -12  216.76   89.39   1
   1  -6  12  218.41  114.54   1
   6   1 -12  181.63   76.08   1
   6   1  12  117.72   89.45   1
   6   1  12   85.03   85.81   1
  -6  -1  13   33.73  100.23   1
  -1   6 -13   56.07   92.61   1
  -1   6  13   69.01   84.62   1
   1  -6 -13   29.66   84.33   1
   1  -6  13   94.30  110.79   1
   6   1 -13   46.57   69.89   1
   6   1  13   59.49   89.70   1
   6   1  13   13.28   82.07   1
  -6  -1  14  463.19  141.40   1
  -1   6 -14  613.13  140.03   1
  -1   6  14  478.16  121.22   1
   1  -6 -14  520.74  118.70   1
   1  -6  14  485.99  145.11   1
   6   1 -14  531.10  110.31   1
   6   1  14  407.14  126.02   1
   6   1  14  546.51  134.97   1
  -6  -1  15  939.55  173.24   1
  -1   6 -15 1181.32  175.91   1
  -1   6  15  819.23  143.50   1
   1  -6 -15  956.96  136.03   1
   1  -6  15  903.71  165.69   1
   6   1 -15  932.14  139.56   1
   6   1  15  831.27  157.70   1
  -6  -1  16  -25.27  119.98   1
  -1   6 -16    9.76  135.10   1
  -1   6  16   -7.27   90.64   1
   1  -6 -16   -7.57   91.20   1
   1  -6  16  -61.94  112.63   1
   6   1 -16  -28.29   80.04   1
   6   1  16  -16.84   92.94   1
   6   1  16    6.52   96.73   1
  -6  -1  17  765.48  185.72   1
  -1   6  17  782.49  158.86   1
   6   1 -17 1179.75  179.77   1
   6   1  17  723.83  166.96   1
   6   1  17  790.64  183.17   1
  -6  -2   010035.51  231.81   1
  -6  -2   0 8904.25  256.43   1
  -2   6   010685.21  248.02   1
  -2   6   010741.14  253.99   1
   2  -6   011096.19  272.67   1
   2  -6   011562.24  270.40   1
   6   2   0 9766.10  250.45   1
   6   2   010522.36  293.93   1
  -6  -2  -1  381.93   58.70   1
  -6  -2  -1  425.89   75.14   1
  -6  -2   1  389.36   62.24   1
  -6  -2   1  388.03   76.54   1
  -2   6  -1  426.29   66.03   1
  -2   6  -1  386.42   63.47   1
  -2   6   1  441.49   65.41   1
  -2   6   1  430.60   67.93   1
   2  -6  -1  454.93   76.03   1
   2  -6  -1  483.37   75.59   1
   2  -6   1  552.99   83.71   1
   2  -6   1  545.00   94.08   1
   2  -6   1  654.62   87.08   1
   6   2  -1  388.75   68.43   1
   6   2  -1  464.46  106.70   1
   6   2  -1  435.43   82.85   1
   6   2   1  480.79   77.51   1
   6   2   1  419.04   81.74   1
  -6  -2  -2  180.17   42.62   1
  -6  -2  -2  120.04   50.00   1
  -6  -2   2  177.34   48.32   1
  -6  -2   2  145.63   54.27   1
  -2   6  -2  250.78   53.87   1
  -2   6  -2  171.85   46.15   1
  -2   6   2  201.36   46.13   1
  -2   6   2  235.13   52.73   1
   2  -6  -2  465.72   78.47   1
   2  -6  -2  209.53   57.13   1
   2  -6   2  271.15   74.77   1
   2  -6   2  202.85   54.63   1
   6   2  -2  235.75   54.29   1
   6   2  -2  183.85   57.15   1
   6   2  -2  255.69   69.72   1
   6   2   2  199.16   55.73   1
   6   2   2  237.84   67.52   1
  -6  -2  -3 6343.57  173.87   1
  -6  -2  -3 5986.28  213.79   1
  -6  -2   3 6223.99  197.67   1
  -6  -2   3 5824.79  219.25   1
  -2   6  -3 6968.15  207.63   1
  -2   6  -3 6229.36  203.21   1
  -2   6   3 6767.58  194.66   1
  -2   6   3 6161.84  190.14   1
   2  -6  -3 6360.47  215.80   1
   2  -6  -3 7231.98  220.44   1
   2  -6   3 7167.11  258.45   1
   2  -6   3 7800.00  232.85   1
   6   2  -3 6321.27  199.34   1
   6   2  -3 6830.21  224.53   1
   6   2   3 5762.83  212.94   1
   6   2   3 6232.67  213.63   1
   6   2   3 6777.71  247.04   1
  -6  -2  -4 1570.64   90.38   1
  -6  -2  -4 1510.77  119.46   1
  -6  -2   4 1607.59  111.77   1
  -6  -2   4 1652.73  108.80   1
  -6  -2   4 1535.76  127.34   1
  -2   6  -4 1651.66  108.93   1
  -2   6  -4 1746.44  115.81   1
  -2   6   4 1700.45  102.61   1
  -2   6   4 1544.93  100.69   1
  -2   6   4 1610.89  119.79   1
   2  -6  -4 1659.92  121.77   1
   2  -6  -4 1796.28  126.60   1
   2  -6   4 1512.83  135.43   1
   2  -6   4 1915.60  126.41   1
   6   2  -4 1586.06  107.69   1
   6   2  -4 1549.92  133.24   1
   6   2   4 1157.38  110.71   1
   6   2   4 1530.40  117.25   1
   6   2   4 1584.19  136.02   1
  -6  -2  -5  960.86   73.47   1
  -6  -2  -5  860.57   97.83   1
  -6  -2   5  910.30   91.97   1
  -6  -2   5 1015.45   95.30   1
  -6  -2   5  960.35  112.17   1
  -2   6  -5  999.13   91.71   1
  -2   6  -5  994.98   93.98   1
  -2   6   5  781.50   81.75   1
   2  -6  -5 1019.63  103.65   1
   2  -6  -5 1070.28  110.13   1
   2  -6   5 1026.80  125.57   1
   6   2  -5  864.78   85.50   1
   6   2  -5  723.89  114.93   1
   6   2   5  869.18  115.33   1
   6   2   5  868.17   98.36   1
   6   2   5  885.60  132.42   1
  -6  -2  -6 1015.69   75.60   1
  -6  -2  -6  825.08  101.89   1
  -6  -2   6 1025.99   98.61   1
  -6  -2   6 1008.12   97.02   1
  -6  -2   6  926.39  115.23   1
  -2   6  -6 1183.13  100.02   1
  -2   6  -6 1024.92   98.79   1
  -2   6   6  958.43   91.86   1
   2  -6  -6 1024.99  105.77   1
   2  -6  -6 1241.67  123.33   1
   2  -6   6 1212.82  140.19   1
   6   2  -6 1156.21   95.43   1
   6   2  -6  965.91   90.50   1
   6   2   6  928.06  108.23   1
   6   2   6  962.55  106.28   1
   6   2   6 1333.30  154.85   1
  -6  -2  -7 2174.01  144.89   1
  -6  -2   7 2688.61  149.04   1
  -6  -2   7 2637.83  142.88   1
  -6  -2   7 2207.26  164.06   1
  -2   6  -7 2890.94  149.06   1
  -2   6  -7 2461.38  143.26   1
  -2   6   7 2378.07  137.88   1
   2  -6  -7 2577.25  154.00   1
   2  -6  -7 2809.54  171.79   1
   2  -6   7 2912.54  203.04   1
   6   2  -7 3012.15  147.44   1
   6   2   7 2323.81  155.73   1
   6   2   7 2587.68  163.41   1
   6   2   7 2703.92  229.61   1
  -6  -2  -8 2787.50  167.39   1
  -6  -2   8 3146.16  163.00   1
  -6  -2   8 3328.93  163.92   1
  -6  -2   8 2575.84  183.05   1
  -2   6  -8 3148.26  159.03   1
  -2   6  -8 3180.78  163.34   1
  -2   6   8 2787.91  155.54   1
   2  -6  -8 3125.68  171.20   1
   2  -6  -8 3368.48  192.28   1
   2  -6   8 3513.93  226.89   1
   2  -6   8 3475.58  153.52   1
   6   2  -8 3756.91  169.09   1
   6   2   8 2769.42  172.62   1
   6   2   8 3153.14  184.37   1
   6   2   8 4250.73  308.23   1
  -6  -2  -9   51.87   56.21   1
  -6  -2   9   87.21   48.98   1
  -6  -2   9   36.57   48.12   1
  -6  -2   9   61.55   63.06   1
  -2   6  -9  113.25   51.43   1
  -2   6  -9   86.71   47.48   1
  -2   6   9   54.71   47.20   1
   2  -6  -9   97.85   57.67   1
   2  -6  -9   14.50   67.06   1
   2  -6   9   94.36   78.56   1
   2  -6   9   74.80   47.99   1
   6   2  -9  124.99   52.43   1
   6   2   9   -5.33   46.22   1
   6   2   9   83.89   57.95   1
   6   2   9   75.07   99.53   1
  -6  -2 -10 1920.12  189.12   1
  -6  -2  10 2119.53  147.05   1
  -6  -2  10 1566.86  167.81   1
  -2   6 -10 2239.59  149.83   1
  -2   6 -10 1780.66  134.33   1
  -2   6  10 1908.11  146.12   1
   2  -6 -10 2140.93  155.77   1
   2  -6  10 2117.50  203.79   1
   2  -6  10 2302.58  142.60   1
   6   2 -10 2234.06  145.15   1
   6   2  10 1695.35  156.02   1
   6   2  10 1799.94  161.58   1
  -6  -2  11 4696.99  222.27   1
  -6  -2  11 4368.63  268.64   1
  -2   6 -11 4795.88  223.64   1
  -2   6  11 3795.84  211.14   1
   2  -6 -11 4669.58  224.37   1
   2  -6  11 4492.62  294.61   1
   2  -6  11 4822.23  212.68   1
   6   2  11 3603.51  223.69   1
   6   2  11 4176.94  244.43   1
  -6  -2  12  139.00   97.39   1
  -6  -2  12  121.66  115.03   1
  -2   6 -12  113.03   94.67   1
  -2   6  12   81.51   87.18   1
   2  -6 -12  124.53   86.03   1
   2  -6  12  154.63  138.59   1
   2  -6  12   53.73   79.05   1
   6   2 -12  137.13   71.88   1
   6   2  12  111.42   93.45   1
   6   2  12   73.96   95.08   1
  -6  -2  13  967.50  146.83   1
  -6  -2  13  722.84  168.46   1
  -2   6 -13 1011.74  154.60   1
  -2   6  13  835.29  144.52   1
   2  -6 -13  913.10  141.47   1
   2  -6  13  915.70  200.32   1
   6   2 -13  983.60  135.34   1
   6   2  13  737.26  148.92   1
   6   2  13  815.34  156.33   1
  -6  -2  14 2154.28  263.36   1
  -2   6 -14 2545.16  243.70   1
  -2   6  14 2284.61  203.82   1
   2  -6 -14 2787.61  204.11   1
   2  -6  14 2528.64  276.76   1
   6   2  14 2288.15  211.73   1
   6   2  14 2389.02  230.72   1
  -6  -2  15  157.85  145.81   1
  -2   6 -15  203.65  148.38   1
  -2   6  15  228.23  110.91   1
   2  -6 -15  223.39  106.81   1
   2  -6  15  325.72  160.58   1
   6   2 -15  177.33   89.58   1
   6   2  15  130.52  106.88   1
   6   2  15  250.21  124.40   1
  -6  -2  16  350.86  160.37   1
  -2   6  16  336.46  118.66   1
   2  -6 -16  407.28  113.74   1
   2  -6  16  310.98  159.44   1
   6   2 -16  424.87  104.54   1
   6   2  16  242.95  111.80   1
   6   2  16  350.25  139.30   1
  -6  -3   0   -8.60   28.24   1
  -6  -3   0   -0.89   36.45   1
  -6  -3   0    3.36   37.00   1
  -3   6   0   -0.21   27.21   1
  -3   6   0   12.10   27.43   1
   3  -6   0   23.67   60.79   1
   3  -6   0   50.23   42.61   1
   6   3   0  -23.70   26.04   1
   6   3   0    5.49   34.92   1
  -6  -3  -1  179.42   48.19   1
  -6  -3  -1  272.75   62.27   1
  -6  -3  -1  199.86   64.44   1
  -6  -3   1  167.89   48.59   1
  -6  -3   1  178.32   52.84   1
  -6  -3   1  158.10   57.67   1
  -3   6  -1  185.32   49.93   1
  -3   6  -1  225.88   51.29   1
  -3   6   1  164.91   47.66   1
  -3   6   1  169.98   45.35   1
   3  -6  -1  263.58   64.69   1
   3  -6  -1  214.85   60.84   1
   3  -6   1  259.47   74.37   1
   3  -6   1  241.74   62.82   1
   6   3  -1  196.03   57.11   1
   6   3  -1  190.88   63.06   1
   6   3   1  190.00   59.19   1
   6   3   1  260.04   69.80   1
  -6  -3  -2  109.58   40.09   1
  -6  -3  -2  209.62   63.09   1
  -6  -3  -2  231.98   66.21   1
  -6  -3   2  165.31   51.92   1
  -6  -3   2  122.78   49.83   1
  -6  -3   2  179.50   64.51   1
  -3   6  -2  174.43   48.76   1
  -3   6  -2  140.09   45.37   1
  -3   6   2  163.81   46.93   1
  -3   6   2   99.98   39.70   1
   3  -6  -2  244.17   65.06   1
   3  -6  -2  203.29   62.79   1
   3  -6   2  211.87   70.71   1
   3  -6   2  129.91   53.38   1
   6   3  -2  157.04   52.31   1
   6   3  -2  294.70   75.15   1
   6   3   2  145.00   53.78   1
   6   3   2  234.35   68.25   1
  -6  -3  -3 1795.61  105.52   1
  -6  -3  -3 1730.51  135.51   1
  -6  -3   3 1555.94  111.30   1
  -6  -3   3 1812.04  122.20   1
  -6  -3   3 1477.13  133.06   1
  -3   6  -3 1846.03  116.72   1
  -3   6  -3 1885.74  121.63   1
  -3   6   3 1720.03  109.51   1
   3  -6  -3 1864.92  128.20   1
   3  -6  -3 2049.05  138.44   1
   3  -6   3 1881.71  147.15   1
   3  -6   3 2022.97  138.74   1
   6   3  -3 1633.96  119.71   1
   6   3   3 1551.70  121.17   1
   6   3   3 1788.55  131.81   1
   6   3   3 1773.27  137.22   1
  -6  -3  -4  449.24   63.64   1
  -6  -3  -4  328.37   76.63   1
  -6  -3   4  374.46   68.05   1
  -6  -3   4  435.81   76.19   1
  -6  -3   4  347.28   80.64   1
  -3   6  -4  354.14   66.35   1
  -3   6  -4  476.32   76.28   1
  -3   6   4  426.71   67.45   1
   3  -6  -4  454.00   82.67   1
   3  -6  -4  480.75   87.37   1
   3  -6   4  500.42  107.78   1
   3  -6   4  632.83   96.93   1
   6   3  -4  467.38   82.95   1
   6   3   4  412.06   80.13   1
   6   3   4  513.91   91.98   1
   6   3   4  458.31   92.18   1
  -6  -3  -5 1007.58   81.94   1
  -6  -3  -5  951.89  115.38   1
  -6  -3   5 1122.40  104.81   1
  -6  -3   5 1169.92  109.16   1
  -6  -3   5 1038.44  140.43   1
  -3   6  -5 1181.59  101.51   1
  -3   6  -5 1234.19  105.53   1
   3  -6  -5 1010.09  106.08   1
   3  -6  -5 1424.24  131.07   1
   3  -6   5 1139.64  134.73   1
   3  -6   5 1134.75  118.03   1
   6   3  -5 1055.81  102.19   1
   6   3   5  987.67  108.82   1
   6   3   5 1038.49  113.29   1
   6   3   5 1376.53  139.69   1
  -6  -3  -6 2373.76  111.39   1
  -6  -3  -6 2124.10  154.14   1
  -6  -3   6 2565.77  149.38   1
  -6  -3   6 2418.74  145.46   1
  -6  -3   6 2265.52  173.33   1
  -3   6  -6 2593.46  141.49   1
  -3   6  -6 2228.19  137.66   1
   3  -6  -6 2429.52  152.56   1
   3  -6  -6 2858.78  176.14   1
   3  -6   6 2551.82  194.08   1
   6   3  -6 2875.85  145.52   1
   6   3   6 2238.84  148.44   1
   6   3   6 2368.12  161.80   1
  -6  -3  -7   99.71   58.64   1
  -6  -3   7   70.76   43.51   1
  -6  -3   7  183.53   63.68   1
  -6  -3   7   96.97   66.02   1
  -3   6  -7  109.13   49.75   1
  -3   6  -7   90.72   46.37   1
  -3   6   7  100.55   51.93   1
   3  -6  -7  131.44   59.61   1
   3  -6  -7  116.27   63.79   1
   3  -6   7  118.33   80.05   1
   6   3  -7  177.22   55.16   1
   6   3   7  161.91   65.07   1
   6   3   7  112.57   61.87   1
  -6  -3  -8  790.31  118.19   1
  -6  -3   8  824.51  102.24   1
  -6  -3   8  944.38  113.06   1
  -6  -3   8  784.39  129.43   1
  -3   6  -8 1012.03  104.05   1
  -3   6  -8  878.56  102.86   1
  -3   6   8  871.48  116.48   1
   3  -6  -8  987.30  113.06   1
   3  -6  -8  922.00  131.86   1
   3  -6   8  808.39  159.60   1
   3  -6   8  994.00   95.96   1
   6   3  -8  934.52  100.23   1
   6   3   8  752.21  112.09   1
   6   3   8  824.64  125.45   1
  -6  -3  -9  546.67  106.43   1
  -6  -3   9  518.05   97.71   1
  -6  -3   9  562.10  120.70   1
  -3   6  -9  710.01  100.96   1
  -3   6  -9  517.04   85.82   1
  -3   6   9  489.35   95.31   1
   3  -6  -9  670.93  112.45   1
   3  -6  -9  585.96  116.93   1
   3  -6   9  478.53  142.09   1
   3  -6   9  596.86   87.54   1
   6   3  -9  545.57  110.89   1
   6   3   9  582.16  111.04   1
   6   3   9  426.29  101.08   1
  -6  -3 -10   26.28   83.65   1
  -6  -3  10    3.44   77.71   1
  -6  -3  10  -21.16   79.29   1
  -3   6 -10   25.00   65.31   1
  -3   6  10    3.38   66.48   1
   3  -6 -10   39.25   65.24   1
   3  -6 -10   81.99  100.91   1
   3  -6  10   10.93  124.86   1
   3  -6  10   40.13   63.70   1
   6   3  10   -0.54   77.09   1
   6   3  10   20.83   69.71   1
  -6  -3 -11  -12.08   92.03   1
  -6  -3  11   80.67   94.65   1
  -6  -3  11   17.52  108.22   1
  -3   6 -11   30.28   80.84   1
  -3   6  11   24.25   79.59   1
   3  -6 -11   57.19   78.24   1
   3  -6 -11  148.95  124.13   1
   3  -6  11  -26.81  143.78   1
   3  -6  11    6.25   73.54   1
   6   3  11  -10.03   83.91   1
   6   3  11   27.87   89.46   1
  -6  -3 -12   75.57  108.60   1
  -6  -3  12  149.78  106.60   1
  -6  -3  12  188.45  136.98   1
  -3   6 -12   20.08   97.59   1
  -3   6  12   54.15   91.50   1
   3  -6 -12  143.16   92.11   1
   3  -6 -12  234.94  140.65   1
   3  -6  12  178.10  166.28   1
   3  -6  12  126.31   86.89   1
   6   3 -12  163.26   78.03   1
   6   3  12   37.79  101.36   1
   6   3  12  148.77  107.05   1
  -6  -3 -13   91.20  111.23   1
  -6  -3  13   21.77  107.76   1
  -6  -3  13  -15.16  130.19   1
  -3   6 -13  122.28  115.04   1
  -3   6  13   40.19   93.94   1
   3  -6 -13  -45.17   88.04   1
   3  -6 -13    9.00  134.82   1
   3  -6  13   41.64  172.33   1
   3  -6  13  105.75   88.53   1
   6   3 -13   11.83   70.76   1
   6   3  13    2.69   98.30   1
   6   3  13   85.37  109.58   1
  -6  -3  14  503.60  138.47   1
  -6  -3  14  407.92  175.38   1
  -3   6  14  457.94  124.29   1
   3  -6 -14  496.24  122.20   1
   3  -6  14  333.93  186.18   1
   3  -6  14  495.05  118.20   1
   6   3 -14  502.89  109.25   1
   6   3  14  412.03  126.46   1
   6   3  14  325.15  142.81   1
  -6  -3  15  636.69  193.44   1
  -3   6  15  553.97  133.93   1
   3  -6 -15  696.06  127.12   1
   3  -6  15  821.67  216.44   1
   6   3 -15  843.78  126.86   1
   6   3  15  596.22  135.96   1
   6   3  15  586.16  163.05   1
  -6  -4   0 8051.79  233.79   1
  -6  -4   0 8714.58  261.27   1
  -6  -4   0 7587.10  273.14   1
  -4   6   0 8536.75  243.58   1
  -4   6   0 8376.91  234.08   1
   4  -6   0 9264.90  284.66   1
   6   4   0 7776.54  261.42   1
   6   4   0 8510.35  266.54   1
  -6  -4  -1  284.76   62.08   1
  -6  -4  -1  282.69   72.73   1
  -6  -4  -1  405.64   90.44   1
  -6  -4   1  286.83   63.96   1
  -6  -4   1  430.77   82.05   1
  -6  -4   1  310.00   81.28   1
  -4   6  -1  364.45   67.72   1
  -4   6  -1  354.31   64.52   1
  -4   6   1  315.41   64.13   1
  -4   6   1  302.18   59.91   1
   4  -6  -1  347.72   77.48   1
   4  -6   1  299.60   85.74   1
   4  -6   1  318.24   74.91   1
   6   4  -1  360.72   78.41   1
   6   4  -1  328.33   75.50   1
   6   4   1  295.92   75.54   1
   6   4   1  371.07   82.20   1
  -6  -4  -2  144.33   48.47   1
  -6  -4  -2  189.69   65.97   1
  -6  -4  -2  206.64   71.17   1
  -6  -4   2  192.43   57.82   1
  -6  -4   2  184.74   64.54   1
  -6  -4   2  127.39   65.42   1
  -4   6  -2  175.11   51.58   1
  -4   6  -2  141.24   48.11   1
  -4   6   2  164.63   50.42   1
   4  -6  -2  136.15   51.49   1
   4  -6  -2  113.29   57.21   1
   4  -6   2  216.15   74.79   1
   4  -6   2  193.69   65.98   1
   6   4  -2  119.73   56.29   1
   6   4  -2  150.59   60.15   1
   6   4   2  140.18   61.74   1
  -6  -4  -3 5612.54  219.42   1
  -6  -4  -3 4569.37  219.77   1
  -6  -4   3 4937.78  195.14   1
  -6  -4   3 5023.79  207.87   1
  -6  -4   3 4993.60  231.69   1
  -4   6  -3 4791.98  187.12   1
  -4   6  -3 5014.65  194.01   1
  -4   6   3 5281.23  192.47   1
   4  -6  -3 5288.25  205.58   1
   4  -6  -3 5336.79  223.33   1
   4  -6   3 5488.88  239.79   1
   4  -6   3 6055.05  240.85   1
   6   4  -3 4348.53  199.00   1
   6   4   3 4824.96  216.32   1
  -6  -4  -4 1319.99  131.98   1
  -6  -4  -4 1220.14  133.66   1
  -6  -4   4 1163.48  109.47   1
  -6  -4   4 1285.54  123.75   1
  -6  -4   4 1128.62  131.13   1
  -4   6  -4 1385.85  110.46   1
  -4   6  -4 1089.04  101.38   1
  -4   6   4 1319.42  105.72   1
   4  -6  -4 1314.41  116.64   1
   4  -6  -4 1488.62  138.85   1
   4  -6   4 1282.59  134.97   1
   4  -6   4 1430.70  134.68   1
   6   4  -4 1343.04  122.20   1
   6   4   4 1190.07  123.75   1
  -6  -4  -5  923.40  120.22   1
  -6  -4  -5  776.73  117.58   1
  -6  -4   5  631.10   92.41   1
  -6  -4   5  731.18  103.06   1
  -6  -4   5  599.02  111.08   1
  -4   6  -5  778.51   89.66   1
  -4   6  -5  746.33   89.10   1
  -4   6   5  807.25   88.67   1
   4  -6  -5  712.31  101.77   1
   4  -6  -5  830.68  118.31   1
   4  -6   5  878.66  138.34   1
   4  -6   5  888.47  122.62   1
   6   4   5  686.35  112.45   1
  -6  -4  -6  835.86  119.10   1
  -6  -4  -6  723.08  118.32   1
  -6  -4   6  749.70  102.10   1
  -6  -4   6  816.59  111.79   1
  -6  -4   6  796.02  134.92   1
  -4   6  -6  855.73   96.34   1
  -4   6  -6  850.76   95.45   1
   4  -6  -6  903.82  108.75   1
   4  -6  -6  915.87  128.69   1
   4  -6   6  806.75  139.52   1
   6   4   6  828.95  125.63   1
  -6  -4  -7 1877.15  164.97   1
  -6  -4   7 2126.01  145.65   1
  -6  -4   7 2024.17  159.16   1
  -6  -4   7 1850.65  176.06   1
  -4   6  -7 2201.50  141.36   1
  -4   6  -7 1858.60  137.59   1
   4  -6  -7 2080.35  149.76   1
   4  -6  -7 2481.78  187.50   1
   4  -6   7 1940.97  184.76   1
   6   4   7 1813.26  140.63   1
   6   4   7 1858.28  160.64   1
  -6  -4  -8 2391.70  199.24   1
  -6  -4   8 2597.55  192.35   1
  -6  -4   8 2157.30  199.81   1
  -4   6  -8 2685.28  165.54   1
  -4   6   8 2426.97  175.15   1
   4  -6  -8 2518.43  168.57   1
   4  -6  -8 2922.19  221.16   1
   4  -6   8 2846.40  232.93   1
   4  -6   8 2770.67  155.06   1
   6   4   8 2220.95  170.57   1
   6   4   8 2425.69  190.72   1
  -6  -4  -9   82.65   96.76   1
  -6  -4   9   90.25   91.94   1
  -6  -4   9   42.18   89.55   1
  -4   6  -9   91.00   73.82   1
  -4   6   9   46.93   79.63   1
   4  -6  -9   86.61   68.17   1
   4  -6  -9   63.92  102.22   1
   4  -6   9  157.99  119.88   1
   4  -6   9   89.28   72.06   1
   6   4   9   57.35   86.04   1
   6   4   9   94.45   83.59   1
  -6  -4 -10 1321.49  174.92   1
  -6  -4  10 1391.74  169.63   1
  -6  -4  10 1630.59  217.55   1
  -4   6 -10 1501.42  163.43   1
  -4   6  10 1545.70  174.51   1
   4  -6 -10 1450.62  158.15   1
   4  -6 -10 1682.47  201.56   1
   4  -6  10 1416.25  223.02   1
   4  -6  10 1878.56  162.85   1
   6   4  10 1428.56  173.04   1
   6   4  10 1405.33  181.93   1
  -6  -4 -11 3564.64  249.48   1
  -6  -4  11 3719.80  245.82   1
  -6  -4  11 3071.99  276.31   1
  -4   6 -11 4107.66  223.47   1
  -4   6  11 3106.67  219.54   1
   4  -6 -11 3557.13  212.64   1
   4  -6 -11 3719.89  281.47   1
   4  -6  11 3658.40  311.59   1
   4  -6  11 3965.20  210.48   1
   6   4  11 2909.89  221.83   1
   6   4  11 3743.09  262.82   1
  -6  -4 -12  113.30  115.86   1
  -6  -4  12   96.78  116.34   1
  -6  -4  12  172.78  136.72   1
  -4   6 -12  153.41  103.11   1
  -4   6  12   24.32   93.85   1
   4  -6 -12  116.33   89.40   1
   4  -6 -12   55.14  128.87   1
   4  -6  12   -7.82  147.46   1
   4  -6  12  175.49   94.17   1
   6   4  12    4.34  102.29   1
   6   4  12   79.79  109.93   1
  -6  -4 -13  718.63  152.78   1
  -6  -4  13  823.79  152.10   1
  -6  -4  13  495.90  190.87   1
  -4   6  13  648.27  137.84   1
   4  -6 -13  690.91  128.94   1
   4  -6 -13  674.76  161.63   1
   4  -6  13  760.30  202.17   1
   4  -6  13  904.64  136.82   1
   6   4 -13  797.43  119.18   1
   6   4  13  555.68  133.97   1
   6   4  13  875.84  174.38   1
  -6  -4 -14 2041.11  215.60   1
  -6  -4  14 2237.07  224.17   1
  -4   6  14 1861.02  188.21   1
   4  -6 -14 2157.67  184.06   1
   4  -6 -14 2216.91  246.64   1
   4  -6  14 2414.45  279.83   1
   4  -6  14 2461.78  184.03   1
   6   4  14 1739.96  196.17   1
  -4   6  15  164.50  117.19   1
  -6  -5   0   -0.78   40.42   1
  -6  -5   0  -11.79   49.12   1
  -6  -5   0   11.26   49.58   1
  -5   6   0   -0.60   34.33   1
  -5   6   0   46.98   39.66   1
   5  -6   0   12.66   45.77   1
   5  -6   0   71.09   56.97   1
   6   5   0   31.67   48.09   1
  -6  -5  -1  120.03   65.15   1
  -6  -5  -1   61.20   60.64   1
  -6  -5   1  124.09   54.44   1
  -6  -5   1  125.97   66.07   1
  -6  -5   1  112.03   65.53   1
  -5   6  -1  156.98   52.45   1
  -5   6  -1  166.74   53.81   1
  -5   6   1   75.84   42.64   1
   5  -6  -1  172.86   67.53   1
   5  -6  -1  151.46   63.91   1
   5  -6   1  193.19   68.51   1
   5  -6   1  169.04   65.53   1
   6   5  -1  116.50   59.81   1
   6   5   1  115.46   59.49   1
  -6  -5  -2  139.60   65.12   1
  -6  -5  -2   72.59   65.70   1
  -6  -5   2   83.37   52.90   1
  -6  -5   2  105.59   60.93   1
  -6  -5   2  105.21   64.15   1
  -5   6  -2   94.41   47.85   1
  -5   6  -2  115.72   45.03   1
  -5   6   2  164.90   53.08   1
   5  -6  -2  138.07   65.50   1
   5  -6   2  108.31   62.52   1
   5  -6   2  135.31   61.97   1
   6   5  -2  128.69   62.87   1
   6   5   2  114.63   60.38   1
  -6  -5  -3 1477.80  148.95   1
  -6  -5  -3 1136.31  139.26   1
  -6  -5   3 1310.67  121.05   1
  -6  -5   3 1408.47  143.97   1
  -6  -5   3 1308.41  143.56   1
  -5   6  -3 1346.44  116.56   1
  -5   6  -3 1149.13  104.98   1
  -5   6   3 1278.51  108.73   1
   5  -6  -3 1395.12  140.72   1
   5  -6   3 1387.74  137.26   1
   5  -6   3 1544.58  143.57   1
   6   5  -3 1308.40  133.23   1
   6   5   3 1123.07  128.03   1
  -6  -5  -4  400.73   77.29   1
  -6  -5  -4  371.36  100.08   1
  -6  -5  -4  286.09   89.11   1
  -6  -5   4  304.09   74.65   1
  -6  -5   4  357.26   91.03   1
  -6  -5   4  340.92   93.32   1
  -5   6  -4  339.57   75.06   1
   5  -6  -4  323.33   89.76   1
   5  -6   4  403.85  101.49   1
   5  -6   4  357.59   95.11   1
   6   5  -4  424.73   96.79   1
   6   5   4  486.50  103.49   1
  -6  -5  -5  810.49  101.40   1
  -6  -5  -5  951.84  142.32   1
  -6  -5  -5  750.63  128.31   1
  -6  -5   5  738.92  104.47   1
  -6  -5   5  747.16  124.83   1
  -6  -5   5  679.47  129.40   1
  -5   6  -5  956.42  115.94   1
   5  -6  -5  947.57  140.35   1
   5  -6   5 1027.74  151.35   1
   5  -6   5  921.91  138.74   1
   6   5  -5  785.73  123.84   1
   6   5   5  813.24  128.12   1
  -6  -5  -6 2009.73  139.21   1
  -6  -5  -6 1954.75  205.09   1
  -6  -5  -6 1577.85  179.67   1
  -6  -5   6 2076.42  191.81   1
  -6  -5   6 1837.16  180.59   1
  -5   6  -6 1943.25  149.89   1
   5  -6  -6 2225.15  199.13   1
   5  -6   6 2079.75  182.92   1
   6   5   6 2038.38  175.68   1
  -6  -5  -7   78.80  109.93   1
  -6  -5  -7   74.92   94.13   1
  -6  -5   7   95.28   95.83   1
  -6  -5   7   72.12   84.43   1
  -5   6  -7   87.95   71.51   1
   5  -6  -7  174.12  103.13   1
   5  -6   7  107.22   87.07   1
   6   5   7   41.79   75.58   1
  -6  -5  -8  800.48  153.60   1
  -6  -5  -8  779.97  149.64   1
  -6  -5   8  673.00  137.24   1
  -6  -5   8  659.74  143.83   1
  -5   6  -8  718.42  112.12   1
  -5   6   8  650.16  123.79   1
   5  -6  -8  682.20  141.29   1
   5  -6   8  771.01  150.60   1
   6   5   8  581.86  126.49   1
  -6  -5  -9  497.20  141.82   1
  -6  -5  -9  434.26  134.36   1
  -6  -5   9  480.84  130.16   1
  -6  -5   9  350.40  159.18   1
  -5   6  -9  381.70   98.14   1
  -5   6   9  310.30  108.58   1
   5  -6  -9  420.34  102.33   1
   5  -6  -9  476.05  134.44   1
   5  -6   9  435.36  130.16   1
   5  -6   9  532.23  105.31   1
   6   5   9  353.88  114.29   1
  -6  -5 -10    3.04  104.54   1
  -6  -5  10   28.22  105.22   1
  -5   6 -10   29.41   80.49   1
  -5   6  10  -21.27   86.02   1
   5  -6 -10   -6.91   70.49   1
   5  -6 -10   57.78  112.25   1
   5  -6  10   34.27  102.34   1
   5  -6  10   -1.94   77.82   1
   6   5  10    9.09   86.55   1
  -6  -5 -11  -41.87   98.08   1
  -6  -5  11   86.30  116.46   1
  -5   6 -11   -9.37   83.39   1
  -5   6  11   -6.54   87.67   1
   5  -6 -11  -13.97   76.45   1
   5  -6 -11   57.42  112.70   1
   5  -6  11   37.13  102.49   1
   5  -6  11   52.63   82.23   1
  -6  -5 -12   93.80  108.90   1
  -6  -5  12   99.49  116.25   1
  -5   6  12  166.70  102.18   1
   5  -6 -12   85.79   82.24   1
   5  -6 -12  213.37  125.08   1
   5  -6  12  169.07  117.99   1
   5  -6  12   83.28   87.56   1
   6   5  12  156.58  111.63   1
  -6  -5 -13   33.51  101.05   1
  -6  -5  13  101.66  112.65   1
  -5   6  13   54.23   91.09   1
   5  -6 -13   94.07   85.03   1
   5  -6 -13   31.30  106.89   1
   5  -6  13   15.77  105.51   1
   5  -6  13   21.23   89.62   1
  -6  -6   0 5439.11  225.45   1
  -6  -6   0 6137.69  273.44   1
  -6  -6   0 5383.67  256.56   1
  -6   6   0 5559.52  219.15   1
   6  -6   0 6211.33  251.31   1
   6  -6   0 6867.77  274.72   1
   6   6   0 5406.26  248.28   1
  -6  -6  -1  329.28  113.82   1
  -6  -6  -1  339.09  101.93   1
  -6  -6   1  273.66   86.15   1
  -6  -6   1  326.75  109.03   1
  -6  -6   1  115.32   82.60   1
  -6   6  -1  268.66   76.71   1
  -6   6   1  275.96   74.13   1
   6  -6  -1  300.06   93.69   1
   6  -6  -1  360.71  102.25   1
   6  -6   1  177.74   81.82   1
   6  -6   1  280.64   93.22   1
   6   6  -1  188.05   87.81   1
   6   6   1  197.42   85.27   1
  -6  -6  -2  172.86  102.84   1
  -6  -6  -2  131.32   89.95   1
  -6  -6   2  164.81   76.35   1
  -6  -6   2  116.51   99.40   1
  -6  -6   2  126.69   83.29   1
  -6   6  -2  196.25   72.14   1
  -6   6   2   68.43   56.85   1
   6  -6  -2  122.46   78.55   1
   6  -6  -2  183.86   88.94   1
   6  -6   2   78.99   71.09   1
   6  -6   2  118.15   81.00   1
   6   6  -2  160.30   81.16   1
   6   6   2  181.59   88.72   1
  -6  -6  -3 3865.71  196.60   1
  -6  -6  -3 3929.55  246.27   1
  -6  -6  -3 3325.49  219.31   1
  -6  -6   3 3452.01  191.81   1
  -6  -6   3 3683.69  234.36   1
  -6  -6   3 3369.38  215.41   1
  -6   6  -3 3582.72  188.14   1
  -6   6   3 3312.40  174.21   1
   6  -6  -3 3565.69  202.16   1
   6  -6  -3 3845.44  224.41   1
   6  -6   3 3682.07  206.40   1
   6  -6   3 4002.15  220.52   1
   6   6  -3 3533.52  211.56   1
   6   6   3 3254.26  205.08   1
  -6  -6  -4  903.67  121.18   1
  -6  -6  -4  919.62  153.59   1
  -6  -6  -4 1017.38  151.54   1
  -6  -6   4  669.69  107.08   1
  -6  -6   4  890.60  149.06   1
  -6  -6   4  712.66  127.93   1
  -6   6  -4  939.55  120.30   1
   6  -6  -4 1068.41  153.57   1
   6  -6   4 1117.66  149.49   1
   6  -6   4  961.56  142.09   1
   6   6  -4  811.64  131.62   1
   6   6   4  744.09  127.91   1
  -6  -6  -5  522.32  101.41   1
  -6  -6  -5  787.87  148.95   1
  -6  -6  -5  470.38  118.73   1
  -6  -6   5  540.99  129.94   1
  -6  -6   5  557.49  129.72   1
  -6  -6   5  568.32  125.85   1
  -6   6  -5  585.65  102.34   1
   6  -6  -5  679.07  130.16   1
   6  -6   5  641.86  123.07   1
   6  -6   5  560.75  114.21   1
   6   6  -5  479.01  110.06   1
   6   6   5  602.18  118.91   1
  -6  -6  -6  692.14  108.77   1
  -6  -6  -6  742.22  152.21   1
  -6  -6  -6  634.09  136.38   1
  -6  -6   6  608.34  139.17   1
  -6   6  -6  714.61  112.22   1
   6  -6  -6  657.90  132.84   1
   6  -6   6  706.74  128.04   1
   6   6  -6  550.52  118.48   1
   6   6   6  540.67  116.18   1
  -6  -6  -7 1601.88  187.54   1
  -6  -6  -7 1197.26  170.37   1
  -6  -6   7 1394.88  173.29   1
  -6   6  -7 1513.99  155.51   1
   6  -6  -7 1648.56  195.70   1
   6  -6   7 1594.05  162.22   1
   6   6  -7 1139.75  150.49   1
   6   6   7 1321.88  161.94   1
  -6  -6  -8 1918.90  229.86   1
  -6  -6  -8 1683.20  198.55   1
  -6  -6   8 1841.45  210.08   1
  -6   6  -8 2017.75  163.91   1
  -6   6   8 1577.66  175.49   1
   6  -6  -8 2275.57  212.59   1
   6  -6   8 2029.12  176.26   1
  -6  -6  -9   18.29  117.15   1
  -6  -6  -9  114.19  107.08   1
  -6  -6   9   69.27  113.89   1
  -6   6  -9   47.23   76.74   1
  -6   6   9   95.06   91.00   1
   6  -6  -9   51.43  100.59   1
   6  -6   9   45.24   81.03   1
  -6  -6 -10 1374.37  177.53   1
  -6  -6 -10 1217.41  175.95   1
  -6  -6  10 1084.17  163.22   1
  -6   6 -10 1070.62  124.52   1
  -6   6  10  924.03  138.84   1
   6  -6 -10 1671.10  186.06   1
   6  -6  10 1358.55  170.92   1
  -6  -6 -11 2521.12  210.32   1
  -6  -6  11 2664.56  219.79   1
  -6   6  11 2183.74  183.93   1
   6  -6 -11 3063.04  224.36   1
   6  -6  11 3004.92  194.60   1
  -7   6   0   37.96   61.72   1
  -6  -7   0  -20.59   71.68   1
  -6  -7   0    6.94   93.41   1
  -6  -7   0   30.87   76.83   1
   6   7   0  -24.41   70.26   1
   7  -6   0   16.82   73.32   1
  -7   6  -1  111.61   70.14   1
  -7   6   1   95.27   65.79   1
  -6  -7  -1   53.94   76.00   1
  -6  -7  -1   89.98  101.01   1
  -6  -7  -1   95.87   84.33   1
  -6  -7   1  139.41   81.80   1
  -6  -7   1  118.64  106.13   1
  -6  -7   1   35.97   81.09   1
   6   7  -1   36.68   74.31   1
   6   7   1   35.53   72.74   1
   7  -6  -1  112.88   87.07   1
   7  -6   1  115.59   83.47   1
  -7   6  -2  124.32   71.91   1
  -7   6   2   86.41   63.62   1
  -6  -7  -2  110.84  106.10   1
  -6  -7  -2  103.27   85.21   1
  -6  -7   2   94.00   74.97   1
  -6  -7   2   78.82  101.95   1
   6   7  -2  123.94   84.35   1
   6   7   2   81.59   78.92   1
   7  -6  -2  155.48   90.63   1
   7  -6   2  114.15   75.89   1
  -7   6  -3  831.02  112.96   1
  -7   6   3  821.84  108.69   1
  -6  -7  -3  958.62  151.71   1
  -6  -7  -3  765.62  130.97   1
  -6  -7   3  895.07  122.48   1
  -6  -7   3  897.60  144.74   1
   6   7  -3  913.54  136.72   1
   6   7   3  784.68  126.69   1
   7  -6  -3 1020.86  146.12   1
   7  -6   3  998.04  136.96   1
  -7   6  -4  263.76   82.43   1
  -6  -7  -4  229.71  113.43   1
  -6  -7  -4  260.34  103.28   1
  -6  -7   4  216.81   84.14   1
  -6  -7   4  280.25  111.59   1
   6   7  -4  243.58   95.27   1
   6   7   4  207.97   89.80   1
   7  -6  -4  265.32  102.83   1
   7  -6   4  226.88   89.14   1
  -7   6  -5  657.80  107.18   1
  -6  -7  -5  614.83  137.56   1
  -6  -7  -5  508.13  122.40   1
  -6  -7   5  506.65  126.32   1
   6   7  -5  507.64  112.48   1
   6   7   5  597.66  123.66   1
   7  -6  -5  655.47  124.78   1
  -7   6  -6 1237.91  142.46   1
  -6  -7  -6 1394.16  172.61   1
  -6  -7  -6 1244.54  167.12   1
   6   7  -6 1278.82  157.53   1
   7  -6  -6 1456.11  175.17   1
  -7   6  -7  120.34   76.56   1
  -6  -7  -7   31.32  103.37   1
  -6  -7  -7   66.04   94.62   1
  -6  -7   7   51.99   96.79   1
   6   7  -7   30.49   76.90   1
   7  -6  -7   31.69   90.83   1
  -7   6  -8  554.45  134.42   1
  -7   6   8  380.98  104.68   1
  -6  -7  -8  535.38  147.40   1
  -6  -7  -8  381.63  112.71   1
  -6  -7   8  471.00  125.03   1
   6   7  -8  525.18  109.53   1
   7  -6  -8  568.58  120.72   1
  -7   5   0  176.62   71.67   1
  -5  -7   0  120.91   76.41   1
  -5  -7   0  183.73  110.70   1
   5   7   0  213.24   84.79   1
   7  -5   0  275.07   87.24   1
  -7   5  -1 2340.10  160.01   1
  -7   5   1 2556.63  165.36   1
  -5  -7  -1 2527.48  177.41   1
  -5  -7  -1 2530.32  222.37   1
  -5  -7   1 2482.71  174.77   1
  -5  -7   1 2616.00  219.47   1
   5   7  -1 2448.44  182.74   1
   5   7   1 2444.74  181.23   1
   7  -5  -1 3045.28  197.66   1
   7  -5   1 2624.66  182.98   1
  -7   5  -2 2858.09  172.81   1
  -7   5   2 2891.48  171.38   1
  -5  -7  -2 2762.40  181.63   1
  -5  -7  -2 2977.58  238.57   1
  -5  -7  -2 2561.66  188.74   1
  -5  -7   2 3079.99  188.21   1
  -5  -7   2 3294.97  233.54   1
   5   7  -2 2836.22  195.03   1
   5   7   2 2987.05  199.81   1
   7  -5  -2 3107.19  200.44   1
   7  -5   2 3194.72  198.05   1
  -7   5  -3   43.60   64.40   1
  -7   5   3   83.48   60.93   1
  -5  -7  -3   49.24   74.99   1
  -5  -7  -3   93.07  106.03   1
  -5  -7  -3   71.75   77.59   1
  -5  -7   3  107.75  100.85   1
   5   7  -3   98.87   74.79   1
   7  -5  -3   68.24   77.37   1
   7  -5   3   76.15   71.18   1
  -7   5  -4 1122.40  127.67   1
  -7   5   4 1053.19  125.17   1
  -5  -7  -4 1027.28  130.39   1
  -5  -7  -4 1148.07  168.93   1
  -5  -7  -4  802.54  134.02   1
  -5  -7   4 1183.69  169.62   1
   5   7  -4 1040.70  145.05   1
   7  -5  -4 1323.90  163.68   1
   7  -5   4 1258.89  147.73   1
  -7   5  -5 1430.90  145.45   1
  -5  -7  -5 1410.42  150.40   1
  -5  -7  -5 1581.85  192.03   1
  -5  -7  -5 1505.22  173.33   1
  -5  -7   5 1394.65  175.57   1
   7  -5  -5 1554.64  175.05   1
   7  -5   5 1560.24  220.17   1
   7  -5   5 1664.51  160.46   1
  -7   5  -6 1292.73  144.34   1
  -5  -7  -6 1228.26  147.70   1
  -5  -7  -6 1297.95  180.26   1
  -5  -7  -6 1265.00  166.25   1
  -5  -7   6 1297.66  172.18   1
   7  -5  -6 1423.40  168.04   1
   7  -5   6 1236.68  147.35   1
  -7   5  -7  512.26   97.88   1
  -5  -7  -7  459.78  100.09   1
  -5  -7  -7  351.89  134.59   1
  -5  -7  -7  462.17  127.65   1
  -5  -7   7  373.10  129.21   1
   7  -5  -7  506.87  124.83   1
   7  -5   7  349.11   94.46   1
  -7   5  -8  185.51   82.81   1
  -5  -7  -8  267.93   90.49   1
  -5  -7  -8  197.29  125.52   1
  -5  -7  -8  258.16  113.36   1
  -5  -7   8  260.47  125.14   1
   7  -5  -8  234.78  106.83   1
   7  -5   8  240.09   89.23   1
  -5  -7  -9 2859.89  168.88   1
  -5  -7  -9 3193.01  265.05   1
  -5  -7  -9 2754.47  215.94   1
   7  -5  -9 3639.65  239.19   1
   7  -5   9 3410.30  195.50   1
  -7   5  10  400.27  111.21   1
  -5  -7 -10  355.25  136.68   1
  -5  -7 -10  281.30  115.02   1
  -5  -7  10  295.68  131.84   1
   7  -5 -10  472.17  125.62   1
   7  -5  10  409.74  100.07   1
  -7   5  11   93.12   99.10   1
  -5  -7 -11  -21.93  139.20   1
  -5  -7 -11   29.79   95.33   1
  -5  -7  11   38.44  115.44   1
   7  -5 -11   23.27   96.90   1
  -7   4   0   24.19   44.11   1
  -4  -7   0   37.71   55.41   1
  -4  -7   0   -3.52   70.24   1
   4   7   0  -12.65   45.34   1
   7  -4   0   -5.90   42.52   1
  -7   4  -1  187.28   63.72   1
  -7   4  -1  138.17   62.05   1
  -7   4   1  128.30   55.09   1
  -4  -7  -1  147.78   63.65   1
  -4  -7  -1  130.69   84.75   1
  -4  -7   1  153.68   65.83   1
  -4  -7   1  157.76   85.45   1
   4   7  -1  189.54   74.16   1
   4   7   1  131.18   68.90   1
   7  -4  -1  171.39   68.73   1
   7  -4   1  163.34   59.42   1
   7  -4   1  130.23   63.66   1
  -7   4  -2  104.33   54.51   1
  -7   4   2  145.89   57.16   1
  -4  -7  -2   79.79   61.26   1
  -4  -7  -2  197.55   97.82   1
  -4  -7   2   48.06   57.60   1
  -4  -7   2  103.22   80.36   1
   7  -4  -2   90.22   63.04   1
   7  -4   2  147.30   62.23   1
   7  -4   2  115.72   60.86   1
  -7   4  -3 1205.22  119.73   1
  -7   4   3 1216.15  117.94   1
  -4  -7  -3 1263.38  134.80   1
  -4  -7  -3 1195.20  161.80   1
  -4  -7   3 1127.57  126.02   1
  -4  -7   3 1227.13  158.86   1
   7  -4  -3 1242.02  138.77   1
   7  -4   3 1402.02  130.80   1
   7  -4   3 1437.13  136.89   1
  -7   4  -4  304.49   76.15   1
  -7   4   4  320.33   72.26   1
  -4  -7  -4  281.58   85.91   1
  -4  -7  -4  325.41  113.86   1
  -4  -7  -4  266.68  105.35   1
  -4  -7   4  292.56  110.30   1
   7  -4  -4  296.03   90.72   1
   7  -4   4  301.59   82.33   1
   7  -4   4  317.46   88.05   1
  -7   4  -5  765.02  104.08   1
  -7   4   5  754.41  116.88   1
  -4  -7  -5  770.36  112.72   1
  -4  -7  -5  665.56  139.70   1
  -4  -7  -5  642.25  118.05   1
  -4  -7   5  782.25  147.69   1
   7  -4  -5  769.44  125.88   1
   7  -4   5  785.89  113.88   1
  -7   4  -6 1605.33  142.95   1
  -4  -7  -6 1459.79  148.98   1
  -4  -7  -6 1778.66  208.01   1
  -4  -7  -6 1720.52  176.94   1
  -4  -7   6 1585.30  196.05   1
   7  -4  -6 1835.23  183.53   1
   7  -4   6 1766.87  160.15   1
  -7   4  -7   66.02   70.58   1
  -4  -7  -7   46.59   76.07   1
  -4  -7  -7   64.71  118.37   1
  -4  -7  -7   36.35   81.07   1
  -4  -7   7   98.52  106.47   1
   7  -4  -7   73.07   87.07   1
   7  -4   7   78.94   76.36   1
  -7   4  -8  703.23  105.42   1
  -4  -7  -8  674.47  109.32   1
  -4  -7  -8  632.40  160.36   1
  -4  -7   8  586.49  143.47   1
   7  -4  -8  706.45  139.78   1
   7  -4   8  797.89  125.76   1
  -4  -7  -9  437.64   98.43   1
  -4  -7  -9  352.58  147.31   1
  -4  -7   9  458.63  146.37   1
   7  -4  -9  439.97  127.29   1
   7  -4   9  492.39  110.08   1
  -4  -7 -10  -14.27   75.17   1
  -4  -7 -10    4.65  131.16   1
  -4  -7  10   39.85  118.46   1
   7  -4 -10   17.83   98.20   1
   7  -4  10   10.21   76.90   1
  -7   4  11  -26.73   86.32   1
  -4  -7 -11  -54.62  128.56   1
  -4  -7  11   -4.02  117.39   1
   4   7 -11   39.24   69.35   1
   7  -4 -11   -5.99   99.10   1
   7  -4  11   69.06   84.89   1
  -7   4  12   94.96   96.39   1
  -4  -7 -12   12.96  125.54   1
  -4  -7  12   89.35  121.79   1
   4   7 -12   87.41   75.64   1
   7  -4 -12   50.80  105.48   1
   7  -4  12   14.40   78.03   1
  -7   3   0  305.60   65.92   1
  -7   3   0  281.77   60.29   1
  -3  -7   0  261.82   68.52   1
  -3  -7   0  201.25   78.54   1
  -3  -7   0  227.63   70.50   1
   3   7   0  222.34   72.75   1
   3   7   0  194.41   57.48   1
   7  -3   0  275.17   75.52   1
   7  -3   0  245.64   62.91   1
   7  -3   0  289.71   72.98   1
  -7   3  -1 3293.68  156.82   1
  -7   3  -1 3065.84  149.29   1
  -7   3   1 3220.89  158.30   1
  -3  -7  -1 3288.51  171.11   1
  -3  -7  -1 3498.12  205.86   1
  -3  -7  -1 3073.27  174.52   1
  -3  -7   1 3269.44  172.46   1
  -3  -7   1 3285.38  200.98   1
   3   7  -1 3356.48  169.15   1
   3   7   1 3104.56  176.73   1
   7  -3  -1 3379.11  187.93   1
   7  -3  -1 3775.05  169.69   1
   7  -3  -1 3726.67  188.25   1
   7  -3   1 3344.02  186.81   1
   7  -3   1 3536.05  169.11   1
   7  -3   1 3669.51  184.76   1
  -7   3  -2 3762.94  163.69   1
  -7   3  -2 3521.59  162.70   1
  -7   3   2 3694.54  169.79   1
  -3  -7  -2 3984.17  185.60   1
  -3  -7  -2 3962.18  219.06   1
  -3  -7  -2 3746.45  192.66   1
  -3  -7   2 3493.77  179.00   1
  -3  -7   2 4157.72  221.50   1
   3   7  -2 3870.94  181.41   1
   3   7   2 3830.03  194.76   1
   7  -3  -2 3938.81  230.69   1
   7  -3  -2 4313.04  179.12   1
   7  -3  -2 4082.82  197.79   1
   7  -3   2 3890.20  225.44   1
   7  -3   2 4087.55  182.60   1
   7  -3   2 4181.42  196.82   1
  -7   3  -3   68.17   40.42   1
  -7   3  -3   70.78   42.30   1
  -7   3   3   58.32   41.00   1
  -3  -7  -3   71.11   48.69   1
  -3  -7  -3   62.03   63.01   1
  -3  -7  -3   49.86   51.65   1
  -3  -7   3   93.65   56.05   1
  -3  -7   3   17.41   58.29   1
   3   7  -3   65.44   46.99   1
   3   7   3   47.38   51.66   1
   7  -3  -3  140.96   52.50   1
   7  -3  -3   73.82   54.75   1
   7  -3   3   95.24   48.47   1
   7  -3   3   46.68   48.61   1
  -7   3  -4 1379.31  105.45   1
  -7   3  -4 1431.81  116.29   1
  -7   3   4 1370.42  115.34   1
  -3  -7  -4 1249.09  118.24   1
  -3  -7  -4 1624.47  164.51   1
  -3  -7  -4 1231.13  132.05   1
  -3  -7   4 1342.76  126.81   1
  -3  -7   4 1535.57  157.15   1
   3   7  -4 1417.19  119.34   1
   7  -3  -4 1664.67  145.85   1
   7  -3   4 1556.77  128.60   1
   7  -3   4 1664.94  137.08   1
  -7   3  -5 1927.27  122.11   1
  -7   3  -5 1728.38  131.80   1
  -7   3   5 1930.49  133.50   1
  -3  -7  -5 1867.05  139.63   1
  -3  -7  -5 1933.06  184.52   1
  -3  -7   5 1799.00  173.42   1
   3   7  -5 1718.97  140.89   1
   7  -3  -5 2144.36  167.03   1
   7  -3   5 1921.34  147.50   1
  -7   3  -6 1605.57  121.28   1
  -7   3   6 1446.85  123.18   1
  -3  -7  -6 1655.14  142.21   1
  -3  -7  -6 1681.10  194.64   1
  -3  -7   6 1734.03  182.04   1
   7  -3  -6 1770.11  164.25   1
   7  -3   6 1522.47  144.06   1
  -7   3  -7  545.22   88.33   1
  -3  -7  -7  562.31  102.66   1
  -3  -7  -7  486.51  141.54   1
  -3  -7   7  449.22  123.25   1
   7  -3  -7  624.06  125.17   1
   7  -3   7  632.24  114.10   1
  -3  -7  -8  262.59   86.68   1
  -3  -7  -8  228.56  133.70   1
  -3  -7   8  267.50  117.82   1
   7  -3  -8  308.02  106.85   1
   7  -3   8  246.20   91.10   1
  -3  -7  -9 4077.44  199.16   1
  -3  -7  -9 4053.11  304.63   1
   3   7  -9 4810.52  214.18   1
   7  -3  -9 4049.87  260.06   1
   7  -3   9 4140.35  232.08   1
  -3  -7 -10  439.01  100.02   1
  -3  -7 -10  516.41  169.41   1
  -3  -7  10  371.81  139.12   1
   3   7 -10  534.43  103.14   1
   7  -3 -10  613.08  147.60   1
   7  -3  10  503.23  109.88   1
   7  -3  10  592.49  123.11   1
  -3  -7 -11   68.87   77.01   1
  -3  -7 -11  -22.65  134.82   1
  -3  -7  11   40.02  114.92   1
   3   7 -11  102.52   78.34   1
   7  -3 -11   84.85  113.30   1
   7  -3  11   92.03   83.29   1
   7  -3  11   68.42   88.87   1
  -3  -7 -12 3431.62  307.22   1
  -3  -7  12 3140.35  262.16   1
   3   7 -12 4013.25  211.73   1
   7  -3  12 3354.07  193.77   1
   7  -3  12 3636.18  226.32   1
  -3  -7 -13  621.47  179.20   1
  -3  -7  13  518.47  145.70   1
   3   7 -13  850.85  126.32   1
   7  -3 -13  818.04  124.66   1
   7  -3 -13  634.66  157.35   1
   7  -3  13  617.03  116.87   1
   7  -3  13  615.74  131.16   1
  -3  -7 -14   23.22  145.96   1
   3   7 -14  146.55  132.36   1
   7  -3 -14  -81.88  130.18   1
   7  -3  14   39.76   96.88   1
  -7   2   0   15.08   31.50   1
  -7   2   0  -16.63   26.27   1
  -2  -7   0   18.35   43.14   1
  -2  -7   0    6.39   50.14   1
   2   7   0   23.62   34.27   1
   7  -2   0  -27.32   35.63   1
   7  -2   0  -21.14   32.23   1
   7  -2   0   38.31   39.83   1
  -7   2  -1  129.31   45.36   1
  -7   2  -1  149.93   46.99   1
  -7   2   1  148.34   50.42   1
  -7   2   1  129.26   44.75   1
  -2  -7  -1  216.07   65.65   1
  -2  -7  -1  185.05   73.57   1
  -2  -7   1  205.44   65.91   1
  -2  -7   1  170.60   73.26   1
   2   7  -1  165.15   52.36   1
   2   7   1  179.59   62.70   1
   2   7   1  190.43   56.22   1
   7  -2  -1  161.72   62.59   1
   7  -2  -1  196.61   59.16   1
   7  -2  -1  200.75   65.63   1
   7  -2   1  181.66   64.45   1
   7  -2   1  202.95   61.25   1
   7  -2   1  191.29   60.62   1
  -7   2  -2  102.71   42.42   1
  -7   2  -2  139.33   47.84   1
  -7   2   2  123.09   47.46   1
  -2  -7  -2  165.66   60.29   1
  -2  -7  -2  200.27   74.14   1
  -2  -7  -2  166.44   61.51   1
  -2  -7   2  172.82   58.79   1
  -2  -7   2   97.72   63.85   1
   2   7  -2  155.37   49.04   1
   2   7  -2   95.94   46.56   1
   2   7   2  157.15   52.20   1
   7  -2  -2  136.25   59.09   1
   7  -2  -2  126.64   52.83   1
   7  -2  -2  163.19   61.42   1
   7  -2   2  183.71   67.65   1
   7  -2   2  135.22   56.66   1
   7  -2   2  152.48   56.49   1
  -7   2  -3 1396.66  101.11   1
  -7   2  -3 1336.28  108.81   1
  -7   2   3 1604.79  117.98   1
  -2  -7  -3 1599.14  127.00   1
  -2  -7  -3 1589.97  155.06   1
  -2  -7   3 1572.32  129.73   1
  -2  -7   3 1545.52  147.11   1
   2   7  -3 1695.20  114.38   1
   2   7  -3 1414.01  116.43   1
   2   7   3 1545.96  120.43   1
   7  -2  -3 1487.48  136.06   1
   7  -2  -3 1274.78  114.30   1
   7  -2  -3 1676.76  136.49   1
   7  -2   3 1532.26  135.52   1
   7  -2   3 1467.06  123.28   1
   7  -2   3 1776.49  130.40   1
  -7   2  -4  346.16   62.05   1
  -7   2  -4  277.31   63.55   1
  -7   2   4  415.44   74.83   1
  -2  -7  -4  435.18   86.18   1
  -2  -7  -4  366.75   97.22   1
  -2  -7   4  357.84   79.02   1
  -2  -7   4  434.19  101.54   1
   2   7  -4  568.44   82.43   1
   2   7  -4  314.80   68.87   1
   7  -2  -4  410.27   86.63   1
   7  -2  -4  349.18   76.31   1
   7  -2  -4  358.03   84.54   1
   7  -2   4  455.46   93.09   1
   7  -2   4  486.02   89.93   1
   7  -2   4  600.78   97.42   1
  -7   2  -5  894.85   83.63   1
  -7   2  -5  912.40   99.04   1
  -7   2   5  815.48   94.45   1
  -2  -7  -5 1082.43  110.62   1
  -2  -7  -5 1166.41  160.57   1
  -2  -7   5  939.76  114.86   1
  -2  -7   5  849.97  128.37   1
   2   7  -5 1145.29  104.69   1
   2   7  -5  971.29  103.93   1
   7  -2  -5  950.07  135.17   1
   7  -2  -5 1078.44  110.09   1
   7  -2  -5 1007.69  124.35   1
   7  -2   5 1081.26  128.93   1
   7  -2   5  951.92  110.33   1
  -7   2  -6 2187.53  117.62   1
  -7   2  -6 1996.16  136.62   1
  -7   2   6 2021.81  134.55   1
  -2  -7  -6 2163.61  143.75   1
  -2  -7  -6 2282.02  194.74   1
  -2  -7   6 2230.78  182.26   1
   2   7  -6 2567.34  147.70   1
   2   7  -6 2171.43  140.70   1
   7  -2  -6 2378.39  147.84   1
   7  -2  -6 2380.24  178.20   1
   7  -2   6 2301.52  160.19   1
  -7   2   7   87.09   47.65   1
  -2  -7  -7   77.67   58.48   1
  -2  -7  -7   89.39   89.59   1
  -2  -7   7   24.65   65.60   1
   2   7  -7  156.76   59.20   1
   2   7  -7  175.64   65.20   1
   7  -2  -7  133.73   62.09   1
   7  -2  -7   57.35   62.34   1
   7  -2   7  135.13   62.05   1
   7  -2   7  103.41   61.75   1
  -7   2   8  806.61  108.40   1
  -2  -7  -8  848.53  116.08   1
  -2  -7  -8  612.38  151.93   1
   2   7  -8  810.53  108.06   1
   7  -2  -8  743.20  115.46   1
   7  -2   8  813.08  107.03   1
   7  -2   8  594.89  113.99   1
  -7   2   9  478.40   97.59   1
  -2  -7  -9  535.34  107.08   1
  -2  -7  -9  571.92  157.43   1
   2   7  -9  481.44   94.80   1
   7  -2   9  532.33   99.30   1
   7  -2   9  544.05  116.58   1
  -7   2  10   31.05   75.19   1
  -2  -7 -10   -4.49   76.47   1
  -2  -7 -10   17.50  131.87   1
   2   7 -10   51.32   69.26   1
   7  -2  10    3.85   69.26   1
   7  -2  10   49.94   81.68   1
  -7   2  11   42.68   84.05   1
  -2  -7 -11   36.07   82.57   1
  -2  -7 -11   64.21  139.78   1
   2   7 -11   28.96   74.25   1
   7  -2 -11  -58.68  100.07   1
   7  -2  11   35.19   76.55   1
   7  -2  11   37.01   87.50   1
  -7   2  12  127.44   91.74   1
  -2  -7 -12   80.74   81.29   1
  -2  -7 -12  137.22  154.01   1
   2   7 -12  180.30   87.72   1
   2   7  12  178.55  100.50   1
   7  -2 -12  144.32  130.63   1
   7  -2  12  118.20   84.81   1
   7  -2  12   86.62   95.34   1
  -7   2  13  -40.00   83.40   1
  -2  -7 -13  -15.71  136.92   1
   2   7 -13   58.56   84.74   1
   2   7  13   -7.90   89.53   1
   7  -2 -13   27.59   79.15   1
   7  -2 -13   20.49  127.08   1
   7  -2  13   94.28   84.04   1
   7  -2  13   17.89   88.65   1
  -7   2  14  363.72  104.95   1
  -2  -7 -14  385.04  166.00   1
   2   7 -14  389.49  106.93   1
   2   7  14  401.54  111.50   1
   7  -2 -14  475.37  109.28   1
   7  -2 -14  589.02  171.87   1
   7  -2  14  368.76  103.48   1
   7  -2  14  356.21  122.25   1
  -7   1   0  245.00   56.29   1
  -1  -7   0  335.00   72.44   1
  -1  -7   0  314.17   79.38   1
   1   7   0  347.56   66.93   1
   7  -1   0  272.42   71.98   1
   7  -1   0  389.89   79.99   1
  -7   1  -1 3713.76  155.41   1
  -7   1   1 3630.14  158.93   1
  -1  -7  -1 3937.78  182.69   1
  -1  -7  -1 3970.35  199.36   1
  -1  -7   1 4241.67  189.43   1
  -1  -7   1 4014.36  198.18   1
   1   7  -1 4372.87  166.66   1
   1   7  -1 4029.16  177.31   1
   1   7   1 3890.58  173.59   1
   7  -1  -1 3693.24  185.57   1
   7  -1  -1 4037.72  189.86   1
   7  -1   1 4193.74  196.10   1
   7  -1   1 3844.93  185.88   1
  -7   1  -2 4672.00  170.06   1
  -7   1   2 4281.44  174.80   1
  -1  -7  -2 4744.96  199.39   1
  -1  -7  -2 4544.24  216.63   1
  -1  -7   2 4123.20  187.77   1
  -1  -7   2 4626.07  210.73   1
   1   7  -2 4893.87  179.14   1
   1   7  -2 4289.72  182.53   1
   1   7   2 4650.36  188.77   1
   7  -1  -2 4961.07  215.99   1
   7  -1  -2 4664.18  202.81   1
   7  -1   2 4922.42  214.06   1
   7  -1   2 4928.69  210.97   1
  -7   1  -3   64.29   36.75   1
  -7   1   3  119.07   46.22   1
  -1  -7  -3   88.03   50.71   1
  -1  -7  -3  114.39   65.94   1
  -1  -7   3   77.45   50.69   1
  -1  -7   3   95.92   60.29   1
   1   7  -3   87.92   41.25   1
   1   7  -3   87.63   43.69   1
   1   7   3   95.26   44.82   1
   7  -1  -3  188.15   65.83   1
   7  -1  -3   86.37   51.67   1
   7  -1   3   92.50   52.60   1
   7  -1   3   82.33   49.58   1
  -7   1  -4 1751.33  106.18   1
  -7   1   4 1549.46  116.58   1
  -7   1   4 1683.68  113.04   1
  -1  -7  -4 1573.23  126.57   1
  -1  -7  -4 1622.21  155.95   1
  -1  -7   4 1860.56  139.33   1
  -1  -7   4 1911.85  150.14   1
   1   7  -4 1762.77  118.32   1
   1   7  -4 1416.94  115.72   1
   1   7   4 1671.41  122.28   1
   7  -1  -4 1559.82  142.34   1
   7  -1  -4 1801.67  138.31   1
   7  -1  -4 1721.50  136.36   1
   7  -1   4 1564.43  105.60   1
   7  -1   4 1727.11  145.01   1
   7  -1   4 1707.18  139.41   1
  -7   1  -5 2397.06  120.67   1
  -7   1   5 2251.92  138.26   1
  -7   1   5 2103.54  127.43   1
  -1  -7  -5 2211.99  144.12   1
  -1  -7  -5 2194.26  181.59   1
  -1  -7   5 2298.00  164.11   1
   1   7  -5 2532.18  141.40   1
   1   7  -5 2059.83  135.38   1
   1   7   5 2251.39  141.38   1
   7  -1  -5 2447.08  174.99   1
   7  -1  -5 2684.53  164.65   1
   7  -1  -5 2352.14  162.64   1
   7  -1   5 2163.29  124.44   1
   7  -1   5 2224.11  166.21   1
   7  -1   5 2247.74  157.21   1
  -7   1  -6 1787.59  104.19   1
  -7   1   6 1836.29  129.38   1
  -7   1   6 1894.84  126.54   1
  -1  -7  -6 1819.92  134.82   1
  -1  -7  -6 1890.00  180.29   1
  -1  -7   6 2142.43  164.29   1
   1   7  -6 2083.20  134.07   1
   1   7  -6 1909.75  132.99   1
   7  -1  -6 1835.85  165.24   1
   7  -1  -6 1950.28  144.83   1
   7  -1  -6 1919.69  157.76   1
   7  -1   6 1868.69  121.77   1
   7  -1   6 1969.71  161.56   1
   7  -1   6 1676.42  144.27   1
  -7   1  -7  536.01   86.74   1
  -7   1   7  605.13   91.79   1
  -7   1   7  660.62   93.43   1
  -1  -7  -7  584.20   95.73   1
  -1  -7  -7  559.97  131.23   1
  -1  -7   7  517.46  103.22   1
   1   7  -7  631.78   92.93   1
   1   7  -7  661.38   95.71   1
   7  -1  -7  743.03  112.05   1
   7  -1  -7  586.38  112.06   1
   7  -1   7  687.66   95.44   1
   7  -1   7  656.11  112.08   1
  -7   1   8  321.95   76.66   1
  -1  -7  -8  249.77   75.83   1
  -1  -7  -8  316.90  119.49   1
   1   7  -8  275.94   69.90   1
   1   7  -8  366.80  102.27   1
   7  -1  -8  261.21   80.80   1
   7  -1   8  297.88   73.95   1
   7  -1   8  312.86   92.76   1
  -7   1   9 4427.99  213.15   1
  -1  -7  -9 4583.80  212.27   1
  -1  -7  -9 4378.46  293.65   1
   1   7  -9 5294.08  223.20   1
   7  -1  -9 4737.71  232.02   1
   7  -1   9 4295.34  205.43   1
   7  -1   9 4697.93  256.42   1
  -7   1  10  502.72  107.91   1
  -1  -7 -10  498.35  107.62   1
  -1  -7 -10  466.18  160.74   1
   1   7 -10  673.24  112.00   1
   1   7  10  416.94   99.41   1
   7  -1 -10  474.69  117.34   1
   7  -1  10  518.86  104.96   1
   7  -1  10  514.93  129.48   1
  -7   1  11    2.23   80.67   1
  -1  -7 -11   45.08   83.49   1
  -1  -7 -11  -17.54  131.61   1
   1   7 -11   33.71   80.01   1
   1   7  11   19.03   81.17   1
   7  -1 -11   81.72   97.19   1
   7  -1  11   83.46   82.04   1
   7  -1  11  104.76   98.08   1
  -7   1  12 3706.91  221.58   1
  -1  -7 -12 3899.20  206.80   1
  -1  -7 -12 3220.04  313.84   1
   1   7 -12 4609.42  234.75   1
   1   7  12 3502.93  206.68   1
   7  -1  12 3727.82  217.31   1
   7  -1  12 3631.26  261.46   1
  -7   1  13  649.78  126.55   1
  -1  -7 -13  733.94  119.97   1
  -1  -7 -13  607.73  191.91   1
   1   7 -13  863.22  138.58   1
   1   7  13  685.80  125.59   1
   7  -1 -13  742.62  123.72   1
   7  -1  13  666.69  124.50   1
   7  -1  13  753.52  161.62   1
  -7   1  14   -1.74   89.09   1
  -1  -7 -14   23.24   83.84   1
  -1  -7 -14   31.39  145.17   1
   1   7 -14   -4.74   91.16   1
   1   7  14   93.12   95.13   1
   7  -1 -14   30.07   74.99   1
   7  -1  14   75.28   85.99   1
   7  -1  14   73.93  108.88   1
  -7   1  15 1135.48  150.92   1
  -1  -7 -15 1020.28  205.85   1
   1   7 -15 1350.16  158.19   1
   7  -1  15 1244.96  155.38   1
  -7   0   0   -1.65   26.90   1
  -7   0   0   79.37   44.53   1
   0  -7   0   72.94   49.26   1
   0  -7   0   -1.05   42.02   1
   0   7   0    8.47   28.23   1
   0   7   0  113.93   46.88   1
   7   0   0   22.72   38.19   1
   7   0   0   -7.54   37.88   1
  -7   0  -1  206.54   52.10   1
  -7   0   1  201.04   53.59   1
  -7   0   1  147.62   49.60   1
   0  -7  -1  247.87   69.21   1
   0  -7  -1  190.92   77.48   1
   0  -7  -1  223.41   70.11   1
   0  -7   1  171.15   59.36   1
   0  -7   1  215.06   64.84   1
   0   7  -1  249.29   56.49   1
   0   7  -1  160.21   49.33   1
   0   7   1  254.11   53.59   1
   0   7   1  153.77   48.68   1
   7   0  -1  172.91   59.83   1
   7   0  -1  227.25   67.30   1
   7   0   1  234.08   52.82   1
   7   0   1  200.73   61.59   1
   7   0   1  193.58   65.54   1
  -7   0  -2  111.05   39.65   1
  -7   0   2  118.01   45.69   1
  -7   0   2  144.80   52.07   1
   0  -7  -2   93.36   48.45   1
   0  -7  -2  112.93   60.55   1
   0  -7   2   60.95   48.49   1
   0  -7   2  186.45   60.49   1
   0   7  -2  151.40   48.06   1
   0   7  -2  173.79   53.55   1
   0   7   2  179.29   53.74   1
   7   0  -2  175.65   59.21   1
   7   0  -2  145.55   58.05   1
   7   0   2  123.47   44.11   1
   7   0   2  133.88   54.84   1
   7   0   2  118.93   58.49   1
  -7   0  -3 1538.33   99.81   1
  -7   0   3 1673.75  117.53   1
  -7   0   3 1536.78  112.33   1
   0  -7  -3 1581.51  125.05   1
   0  -7  -3 1643.70  139.01   1
   0  -7   3 1538.75  126.93   1
   0  -7   3 1666.90  130.63   1
   0   7  -3 1843.60  119.34   1
   0   7  -3 1612.19  118.05   1
   0   7   3 1563.57  115.04   1
   7   0  -3 1581.54  133.90   1
   7   0  -3 1780.86  139.73   1
   7   0   3 1652.42  109.46   1
   7   0   3 1721.23  135.19   1
   7   0   3 1585.97  135.47   1
  -7   0  -4  432.32   64.26   1
  -7   0   4  420.73   74.35   1
  -7   0   4  376.02   70.28   1
   0  -7  -4  453.68   82.32   1
   0  -7  -4  476.46   98.33   1
   0   7  -4  430.63   72.14   1
   0   7  -4  422.86   77.41   1
   0   7   4  482.45   78.97   1
   7   0  -4  354.26   82.54   1
   7   0  -4  383.87   83.78   1
   7   0   4  466.67   76.00   1
   7   0   4  480.17   92.43   1
   7   0   4  383.43   85.10   1
  -7   0  -5 1023.36   83.62   1
  -7   0   5  989.26  100.78   1
  -7   0   5  987.31  102.23   1
   0  -7  -5 1132.03  113.98   1
   0  -7  -5  904.58  132.84   1
   0   7  -5 1081.92  100.90   1
   0   7  -5  889.72   97.94   1
   7   0  -5 1158.25  148.25   1
   7   0  -5 1193.20  122.24   1
   7   0   5 1033.22   97.23   1
   7   0   5 1159.10  126.54   1
   7   0   5 1062.56  124.43   1
  -7   0  -6 2209.87  109.83   1
  -7   0   6 2093.07  135.68   1
  -7   0   6 2221.11  143.25   1
   0  -7  -6 2176.19  146.25   1
   0  -7  -6 2164.43  182.65   1
   0   7  -6 2572.90  147.42   1
   0   7  -6 2336.91  145.01   1
   7   0  -6 2389.40  182.61   1
   7   0  -6 2443.03  165.30   1
   7   0   6 2324.18  140.14   1
   7   0   6 2703.35  178.52   1
   7   0   6 2118.49  163.82   1
  -7   0   7  109.88   49.04   1
  -7   0   7   47.25   48.53   1
   0  -7  -7  124.52   60.43   1
   0  -7  -7   35.09   71.54   1
   0   7  -7  103.53   48.67   1
   0   7  -7   86.23   49.56   1
   7   0  -7  129.40   63.33   1
   7   0   7  126.35   53.92   1
   7   0   7  138.05   67.71   1
   7   0   7  126.44   66.78   1
  -7   0   8  678.85  128.98   1
  -7   0   8  772.44  117.02   1
   0  -7  -8  916.93  118.85   1
   0  -7  -8  884.07  162.47   1
   0   7  -8  950.31  109.53   1
   0   7  -8  855.07  111.51   1
   0   7   8  689.85   92.98   1
   7   0  -8  879.28  126.66   1
   7   0   8  652.70  100.65   1
   7   0   8  682.38  129.06   1
  -7   0   9  510.36  105.83   1
   0  -7  -9  508.64  103.71   1
   0   7  -9  630.04  103.33   1
   0   7   9  378.34   85.08   1
   7   0  -9  526.74  116.26   1
   7   0   9  483.95  100.82   1
   7   0   9  512.57  121.33   1
  -7   0  10   53.18   81.14   1
   0  -7 -10   28.94   76.60   1
   0   7 -10   -6.17   64.29   1
   0   7  10  -16.21   70.00   1
   7   0 -10   -6.81   86.07   1
   7   0  10   22.95   71.79   1
   7   0  10   42.57   89.19   1
  -7   0  11   21.03   89.14   1
   0  -7 -11   -5.25   81.13   1
   0   7 -11   35.21   75.23   1
   0   7  11   39.10   80.19   1
   7   0 -11   33.55   94.15   1
   7   0  11  -11.78   74.82   1
   7   0  11    9.73   96.19   1
  -7   0  12  103.69   95.51   1
   0  -7 -12  132.50   94.88   1
   0   7 -12  157.10   95.87   1
   0   7  12  193.80   96.02   1
   7   0 -12   93.32  104.92   1
   7   0  12  105.76   89.94   1
  -7   0  13   65.16   97.65   1
   0  -7 -13   75.40   89.32   1
   0   7 -13   -9.42   94.30   1
   0   7  13   44.89   88.21   1
   7   0 -13    6.30   73.37   1
   7   0 -13   36.67  103.44   1
   7   0  13    2.93   83.09   1
  -7   0  14  345.17  115.07   1
   0  -7 -14  387.95  106.92   1
   0   7 -14  462.49  122.00   1
   0   7  14  468.51  117.82   1
   7   0 -14  450.92  103.83   1
   7   0 -14  516.17  131.95   1
   7   0  14  383.91  111.16   1
  -7   0  15  708.70  133.63   1
   0  -7 -15  794.49  223.40   1
   0   7 -15  805.08  139.22   1
   0   7  15  651.09  125.70   1
   7   0  15  664.11  127.37   1
  -7  -1   0  278.54   56.96   1
  -7  -1   0  337.00   68.72   1
  -1   7   0  290.85   59.94   1
  -1   7   0  297.45   62.95   1
   1  -7   0  262.66   68.86   1
   1  -7   0  306.87   73.93   1
   7   1   0  298.30   60.48   1
   7   1   0  337.21   73.75   1
   7   1   0  288.13   73.11   1
  -7  -1  -1 3621.80  152.27   1
  -7  -1  -1 3678.80  165.34   1
  -7  -1   1 3671.38  160.13   1
  -7  -1   1 3754.65  170.57   1
  -1   7  -1 3929.32  165.41   1
  -1   7  -1 3907.11  172.60   1
  -1   7   1 4387.58  169.54   1
  -1   7   1 3999.83  173.08   1
   1  -7  -1 3723.79  178.09   1
   1  -7   1 4123.81  185.60   1
   1  -7   1 4218.28  186.28   1
   7   1  -1 3821.85  154.16   1
   7   1  -1 3997.60  178.25   1
   7   1  -1 3593.75  188.29   1
   7   1   1 3727.81  157.99   1
   7   1   1 4089.69  178.35   1
   7   1   1 3996.90  197.25   1
  -7  -1  -2 4074.78  157.42   1
  -7  -1  -2 4175.65  172.19   1
  -7  -1   2 4000.33  169.68   1
  -7  -1   2 4442.21  186.93   1
  -1   7  -2 5037.43  188.31   1
  -1   7  -2 4105.82  177.66   1
  -1   7   2 4969.97  177.54   1
  -1   7   2 4514.28  182.14   1
   1  -7  -2 4546.23  195.56   1
   1  -7   2 4900.61  200.86   1
   1  -7   2 4691.35  195.85   1
   7   1  -2 4175.99  185.70   1
   7   1  -2 4649.84  195.51   1
   7   1  -2 4559.73  211.33   1
   7   1   2 4474.67  176.38   1
   7   1   2 4795.27  214.16   1
   7   1   2 4682.73  212.51   1
  -7  -1  -3   71.52   37.75   1
  -7  -1  -3  119.24   50.69   1
  -7  -1   3   55.40   41.28   1
  -7  -1   3  138.79   55.66   1
  -1   7  -3   71.98   39.93   1
  -1   7  -3  161.57   53.74   1
  -1   7   3   58.73   37.97   1
   1  -7  -3   82.74   49.90   1
   1  -7   3   95.85   54.43   1
   7   1  -3   97.31   50.77   1
   7   1  -3   64.38   51.49   1
   7   1   3   81.54   43.09   1
   7   1   3   53.29   48.72   1
  -7  -1  -4 1504.35   97.73   1
  -7  -1  -4 1454.45  112.43   1
  -7  -1   4 1692.56  121.90   1
  -7  -1   4 1522.72  124.32   1
  -1   7  -4 1709.14  120.04   1
  -1   7  -4 1523.32  117.73   1
  -1   7   4 1525.55  137.98   1
   1  -7  -4 1822.83  134.15   1
   1  -7   4 1772.54  134.23   1
   7   1  -4 1736.92  140.65   1
   7   1  -4 1691.00  141.40   1
   7   1   4 1657.10  120.64   1
   7   1   4 1815.80  147.78   1
  -7  -1  -5 2257.92  113.55   1
  -7  -1   5 2204.42  138.81   1
  -7  -1   5 1897.41  139.16   1
  -1   7  -5 2565.64  145.54   1
  -1   7  -5 2257.87  142.21   1
   1  -7  -5 2317.57  149.80   1
   1  -7  -5 2148.42  192.03   1
   1  -7   5 2652.97  160.55   1
   7   1  -5 2388.71  168.14   1
   7   1  -5 2358.71  166.04   1
   7   1   5 2377.95  144.76   1
   7   1   5 2459.22  172.31   1
  -7  -1  -6 1715.25  109.44   1
  -7  -1   6 1793.16  129.55   1
  -7  -1   6 1726.73  137.58   1
  -1   7  -6 2259.55  139.74   1
  -1   7  -6 1996.01  137.34   1
  -1   7   6 1736.55  112.88   1
   1  -7  -6 1806.39  135.32   1
   1  -7  -6 1752.54  160.60   1
   1  -7   6 1973.13  143.79   1
   7   1  -6 1911.79  164.47   1
   7   1  -6 1915.45  154.42   1
   7   1   6 1844.37  134.65   1
   7   1   6 1667.64  152.97   1
  -7  -1   7  577.56   89.22   1
  -7  -1   7  552.36   95.20   1
  -1   7  -7  665.90   95.40   1
  -1   7  -7  496.95   83.01   1
  -1   7   7  626.56   88.92   1
   1  -7  -7  642.39  104.23   1
   1  -7  -7  527.19  172.05   1
   1  -7   7  774.53  118.41   1
   7   1   7  568.85   94.92   1
   7   1   7  639.89  118.36   1
  -7  -1   8  235.07   80.38   1
  -1   7  -8  369.71   78.95   1
  -1   7   8  354.06   78.29   1
   1  -7  -8  353.76   85.26   1
   1  -7   8  326.40   90.35   1
   7   1   8  249.38   91.79   1
   7   1   8  307.29   82.57   1
   7   1   8  335.27  103.22   1
  -7  -1   9 4316.67  231.11   1
  -1   7  -9 5419.62  230.07   1
  -1   7   9 3889.29  192.74   1
   1  -7  -9 4477.45  217.72   1
   1  -7   9 5253.50  244.31   1
   7   1   9 3759.99  236.03   1
   7   1   9 4355.03  224.10   1
  -7  -1  10  550.72  125.69   1
  -1   7 -10  595.88  113.60   1
  -1   7  10  409.89  103.29   1
   1  -7 -10  428.08  106.18   1
   1  -7  10  634.12  133.94   1
   7   1  10  404.03  120.53   1
   7   1  10  436.67  112.06   1
  -7  -1  11  100.86   98.08   1
  -1   7 -11   73.15   82.04   1
  -1   7  11   25.34   82.22   1
   1  -7 -11   44.56   82.65   1
   1  -7  11  102.83  109.17   1
   7   1  11   47.99   96.45   1
   7   1  11   93.55   89.59   1
  -7  -1  12 3600.90  244.41   1
  -1   7 -12 4401.42  239.36   1
  -1   7  12 3503.62  213.23   1
   1  -7 -12 3838.38  217.57   1
   1  -7  12 4303.60  246.00   1
   7   1  12 3055.53  234.65   1
   7   1  12 3938.97  233.79   1
  -7  -1  13  528.80  133.36   1
  -1   7 -13  929.17  148.14   1
  -1   7  13  738.27  135.59   1
   1  -7 -13  717.28  128.54   1
   1  -7  13  724.59  141.00   1
   7   1 -13  688.23  122.67   1
   7   1  13  705.76  150.91   1
   7   1  13  612.65  128.86   1
  -7  -1  14  100.04  108.23   1
  -1   7 -14   61.38  104.85   1
  -1   7  14   47.11   92.65   1
   1  -7 -14  -11.93   84.36   1
   1  -7  14   54.24  111.71   1
   7   1 -14  102.91   80.98   1
   7   1  14   52.55  103.44   1
   7   1  14   33.81   90.01   1
  -7  -1  15 1003.17  156.97   1
  -1   7  15 1008.26  158.99   1
   7   1 -15 1349.74  166.61   1
   7   1  15 1177.22  165.48   1
   7   1  15 1189.47  161.64   1
  -7  -2   0   29.86   37.68   1
  -7  -2   0    2.40   39.38   1
  -2   7   0    9.23   31.58   1
  -2   7   0   13.55   32.55   1
   2  -7   0   -2.93   38.22   1
   2  -7   0   17.84   41.30   1
   2  -7   0   23.74   37.04   1
   7   2   0   -5.47   31.74   1
   7   2   0  -17.82   35.72   1
  -7  -2  -1  167.45   47.83   1
  -7  -2  -1  120.44   54.29   1
  -7  -2   1  164.38   51.16   1
  -7  -2   1  163.19   60.38   1
  -2   7  -1  235.60   56.70   1
  -2   7  -1  200.69   54.73   1
  -2   7   1  163.02   49.73   1
  -2   7   1  146.30   49.32   1
   2  -7  -1  112.76   54.20   1
   2  -7  -1  180.31   53.09   1
   2  -7   1  162.36   67.33   1
   2  -7   1  211.68   57.89   1
   7   2  -1  174.21   52.79   1
   7   2  -1  135.55   60.15   1
   7   2   1  184.02   57.16   1
   7   2   1  136.58   62.19   1
  -7  -2  -2   56.46   38.22   1
  -7  -2  -2  136.83   56.16   1
  -7  -2   2  112.08   47.09   1
  -7  -2   2  152.21   56.82   1
  -2   7  -2  106.65   45.35   1
  -2   7  -2  151.20   51.42   1
  -2   7   2   79.37   40.17   1
  -2   7   2   56.73   39.82   1
   2  -7  -2   90.40   52.99   1
   2  -7  -2  178.41   72.01   1
   2  -7   2  208.71   71.11   1
   2  -7   2  148.22   51.28   1
   7   2  -2  134.31   48.66   1
   7   2  -2  107.12   60.30   1
   7   2   2  130.38   50.51   1
   7   2   2   95.24   52.35   1
  -7  -2  -3 1420.05   99.90   1
  -7  -2  -3 1327.58  117.73   1
  -7  -2   3 1457.79  114.47   1
  -7  -2   3 1349.15  123.45   1
  -2   7  -3 1709.13  120.82   1
  -2   7  -3 1510.76  116.61   1
  -2   7   3 1597.12  109.83   1
  -2   7   3 1431.36  137.89   1
   2  -7  -3 1563.35  127.04   1
   2  -7   3 1572.60  134.18   1
   7   2  -3 1455.25  108.92   1
   7   2  -3 1439.15  134.72   1
   7   2   3 1363.49  114.95   1
   7   2   3 1304.96  127.23   1
  -7  -2  -4  334.08   60.14   1
  -7  -2  -4  347.01   75.13   1
  -7  -2   4  356.56   71.32   1
  -7  -2   4  405.67   87.16   1
  -2   7  -4  383.49   70.86   1
  -2   7  -4  464.11   79.32   1
   2  -7  -4  357.24   79.17   1
   2  -7   4  467.50   97.64   1
   7   2  -4  402.46   72.45   1
   7   2  -4  405.11   97.79   1
   7   2   4  413.40   79.41   1
   7   2   4  475.91   97.11   1
  -7  -2  -5  851.66   80.82   1
  -7  -2  -5  997.90  109.57   1
  -7  -2   5  932.03  101.92   1
  -7  -2   5  842.89  116.99   1
  -2   7  -5 1115.69  105.53   1
  -2   7  -5  863.61   97.49   1
  -2   7   5  822.17   86.94   1
   2  -7  -5 1048.86  113.19   1
   2  -7   5 1014.99  136.27   1
   7   2  -5  907.23  129.14   1
   7   2   5  821.39  101.88   1
   7   2   5  973.97  120.93   1
  -7  -2  -6 1893.49  136.69   1
  -7  -2   6 2102.95  140.62   1
  -7  -2   6 1836.93  151.22   1
  -2   7  -6 2410.60  146.53   1
  -2   7  -6 2008.73  138.27   1
  -2   7   6 1992.70  126.14   1
   2  -7  -6 2192.46  150.93   1
   2  -7   6 2463.45  172.95   1
   7   2   6 2141.79  151.23   1
   7   2   6 2226.10  169.91   1
  -7  -2  -7   42.07   51.85   1
  -7  -2   7   92.72   52.81   1
  -7  -2   7  133.12   78.92   1
  -2   7  -7  115.08   58.50   1
  -2   7   7  112.20   56.06   1
   2  -7  -7   71.14   62.42   1
   2  -7   7  156.07   87.11   1
   7   2   7  103.82   71.93   1
   7   2   7  115.01   65.42   1
  -7  -2  -8  651.57  147.01   1
  -7  -2   8  673.95  121.61   1
  -2   7  -8  981.77  124.62   1
  -2   7   8  738.38  113.29   1
   2  -7  -8  796.86  120.19   1
   2  -7   8  725.51  143.20   1
   7   2   8  637.17  126.77   1
   7   2   8  658.79  115.50   1
  -7  -2   9  520.79  125.47   1
  -2   7  -9  624.47  111.68   1
  -2   7   9  425.78  102.51   1
   2  -7  -9  443.97  104.46   1
   2  -7   9  645.40  146.58   1
   7   2   9  474.27  126.03   1
   7   2   9  441.66  107.73   1
  -7  -2  10   56.46   94.36   1
  -2   7 -10  -10.92   77.16   1
  -2   7  10    9.63   77.62   1
   2  -7 -10  -16.85   74.43   1
   2  -7  10  -32.50  103.10   1
   7   2  10  -13.12   97.40   1
   7   2  10   -6.64   77.28   1
  -7  -2  11   12.45   98.36   1
  -2   7 -11   71.34   87.21   1
  -2   7  11    8.28   83.59   1
   2  -7 -11  -18.47   81.91   1
   2  -7  11  -20.20  110.86   1
   7   2  11    7.55  100.40   1
   7   2  11  -49.47   80.64   1
  -7  -2  12   62.77  107.96   1
  -2   7 -12  151.85  101.13   1
  -2   7  12   83.55   93.90   1
   2  -7 -12   87.64   93.92   1
   2  -7  12  108.04  125.35   1
   7   2  12   75.37  107.29   1
   7   2  12  119.63   95.12   1
  -7  -2  13  -20.79  100.64   1
  -2   7 -13   34.89   99.54   1
  -2   7  13   -3.25   89.12   1
   2  -7 -13   28.69   90.54   1
   2  -7  13   -6.34  113.20   1
   7   2  13   12.23  106.33   1
   7   2  13   92.21   90.78   1
  -7  -2  14  343.88  124.79   1
  -2   7 -14  474.86  130.61   1
  -2   7  14  290.73  105.88   1
   2  -7 -14  446.99  112.31   1
   2  -7  14  465.33  139.16   1
   7   2 -14  473.88  115.02   1
   7   2  14  314.35  120.38   1
   7   2  14  283.58  108.60   1
  -7  -3   0  219.18   58.06   1
  -7  -3   0  257.40   72.11   1
  -3   7   0  304.33   65.05   1
  -3   7   0  338.25   68.38   1
   3  -7   0  263.83   75.50   1
   3  -7   0  306.33   72.44   1
   7   3   0  157.55   57.73   1
   7   3   0  293.16   76.97   1
  -7  -3  -1 3247.70  153.64   1
  -7  -3  -1 2953.69  174.67   1
  -7  -3   1 3293.91  160.81   1
  -7  -3   1 3205.10  183.10   1
  -3   7  -1 3575.68  167.38   1
  -3   7  -1 3182.62  157.78   1
  -3   7   1 3479.24  163.16   1
  -3   7   1 3275.38  156.61   1
   3  -7  -1 3294.43  180.65   1
   3  -7  -1 3808.38  178.80   1
   3  -7   1 3714.81  195.14   1
   3  -7   1 3886.57  181.81   1
   7   3  -1 3131.00  165.21   1
   7   3  -1 3417.66  189.25   1
   7   3   1 3022.57  165.87   1
   7   3   1 3499.12  186.49   1
  -7  -3  -2 3445.85  154.99   1
  -7  -3  -2 3499.67  187.33   1
  -7  -3   2 3623.90  170.95   1
  -7  -3   2 3675.84  195.88   1
  -3   7  -2 4158.57  179.84   1
  -3   7  -2 3799.56  174.24   1
  -3   7   2 4159.08  175.58   1
   3  -7  -2 4147.00  187.55   1
   3  -7  -2 4563.82  193.44   1
   3  -7   2 4107.66  204.86   1
   3  -7   2 4533.43  196.65   1
   7   3  -2 3347.52  167.98   1
   7   3  -2 3967.82  202.27   1
   7   3   2 3777.01  185.46   1
   7   3   2 3828.12  192.72   1
  -7  -3  -3   66.43   42.90   1
  -7  -3  -3  106.83   59.71   1
  -7  -3   3   87.10   47.09   1
  -7  -3   3   20.35   48.76   1
  -3   7  -3  133.45   52.63   1
  -3   7  -3   81.18   45.23   1
  -3   7   3   67.30   42.68   1
  -3   7   3   54.46   40.16   1
   3  -7  -3   70.29   47.97   1
   3  -7  -3  128.47   54.23   1
   3  -7   3   10.14   47.71   1
   3  -7   3   72.98   50.36   1
   7   3  -3   88.12   50.85   1
   7   3  -3   72.59   57.71   1
   7   3   3   99.45   52.63   1
   7   3   3   96.56   54.01   1
  -7  -3  -4 1360.27  101.73   1
  -7  -3  -4 1452.41  134.13   1
  -7  -3   4 1221.48  112.98   1
  -7  -3   4 1183.87  132.20   1
  -3   7  -4 1489.37  118.86   1
  -3   7  -4 1293.25  111.80   1
  -3   7   4 1248.55  102.56   1
   3  -7  -4 1406.95  124.84   1
   3  -7  -4 1716.85  131.48   1
   3  -7   4 1637.86  147.98   1
   7   3  -4 1397.36  116.39   1
   7   3  -4 1567.00  145.65   1
   7   3   4 1181.15  120.12   1
   7   3   4 1647.36  162.52   1
  -7  -3  -5 1790.65  112.08   1
  -7  -3  -5 1703.45  146.51   1
  -7  -3   5 1878.93  136.65   1
  -7  -3   5 1877.43  162.36   1
  -3   7  -5 2174.11  143.50   1
  -3   7  -5 1601.71  145.64   1
  -3   7   5 1727.06  123.47   1
   3  -7  -5 1753.17  138.61   1
   3  -7  -5 2227.22  150.43   1
   3  -7   5 2185.82  172.95   1
   7   3  -5 1891.10  133.93   1
   7   3  -5 2220.87  170.89   1
   7   3   5 1676.03  145.55   1
  -7  -3  -6 1468.37  106.87   1
  -7  -3  -6 1500.99  154.58   1
  -7  -3   6 1446.12  128.57   1
  -7  -3   6 1646.47  167.26   1
  -3   7  -6 1727.67  140.06   1
  -3   7   6 1361.46  128.27   1
   3  -7  -6 1614.24  139.08   1
   3  -7  -6 1940.37  155.36   1
   3  -7   6 1602.03  169.90   1
   7   3  -6 1624.96  133.67   1
   7   3   6 1723.33  156.69   1
  -7  -3  -7  582.76  117.09   1
  -7  -3   7  581.19  106.14   1
  -7  -3   7  404.03  109.53   1
  -3   7  -7  558.76   99.77   1
  -3   7   7  477.16  101.92   1
   3  -7  -7  574.03  104.97   1
   3  -7  -7  635.34  117.11   1
   3  -7   7  420.99  124.67   1
   7   3  -7  534.66   98.98   1
   7   3   7  602.24  125.09   1
   7   3   7  510.15  109.23   1
  -7  -3  -8  255.41  101.42   1
  -7  -3   8  218.55   96.34   1
  -7  -3   8  236.17  101.18   1
  -3   7  -8  337.73   93.08   1
  -3   7   8  274.84   93.37   1
   3  -7  -8  281.42   91.01   1
   3  -7   8  321.69  125.11   1
   7   3   8  186.09  104.44   1
   7   3   8  348.40  102.61   1
  -7  -3  -9 3746.02  230.64   1
  -7  -3   9 4309.98  221.84   1
  -7  -3   9 3911.36  249.19   1
  -3   7  -9 4560.57  221.70   1
  -3   7   9 3763.37  210.98   1
   3  -7  -9 3776.47  210.82   1
   3  -7   9 4196.19  268.63   1
   7   3   9 3394.97  236.17   1
   7   3   9 3514.92  223.32   1
  -7  -3 -10  465.71  122.28   1
  -7  -3  10  426.80  110.41   1
  -7  -3  10  489.83  129.51   1
  -3   7 -10  553.77  113.55   1
  -3   7  10  407.39  110.53   1
   3  -7 -10  527.86  116.08   1
   3  -7  10  479.58  151.29   1
   7   3  10  405.53  128.64   1
   7   3  10  450.71  119.23   1
  -7  -3  11   66.74   95.67   1
  -7  -3  11    5.12  101.85   1
  -3   7 -11   86.35   94.78   1
  -3   7  11   59.49   92.85   1
   3  -7 -11  105.72   89.06   1
   3  -7  11   37.07  119.18   1
   7   3  11   68.34  107.90   1
   7   3  11  -22.54   83.90   1
  -7  -3  12 3722.01  221.09   1
  -7  -3  12 3030.97  242.04   1
  -3   7 -12 3841.35  223.87   1
  -3   7  12 3039.44  207.17   1
   3  -7 -12 3496.05  209.01   1
   3  -7  12 3307.74  257.03   1
   7   3  12 3265.92  226.78   1
  -7  -3  13  785.50  133.55   1
  -7  -3  13  539.51  137.70   1
  -3   7 -13  770.04  134.47   1
  -3   7  13  751.94  133.56   1
   3  -7 -13  768.28  128.85   1
   3  -7  13  727.45  163.29   1
   7   3  13  555.19  134.64   1
   7   3  13  567.77  129.74   1
  -7  -3  14   17.98  125.01   1
  -3   7  14    5.14   98.40   1
   3  -7 -14  123.33  108.47   1
   7   3  14   34.56  101.03   1
  -7  -4   0    6.85   49.25   1
  -7  -4   0   50.11   67.68   1
  -4   7   0   45.48   41.52   1
  -4   7   0   10.48   40.72   1
   4  -7   0   -8.11   58.07   1
   4  -7   0   12.33   56.38   1
   7   4   0    6.54   54.42   1
  -7  -4  -1  142.58   59.03   1
  -7  -4  -1   89.34   71.55   1
  -7  -4   1   80.89   57.11   1
  -7  -4   1  149.86   78.38   1
  -4   7  -1   90.05   53.72   1
  -4   7   1  122.09   53.46   1
   4  -7  -1  223.48   84.75   1
   4  -7  -1  167.76   70.98   1
   4  -7   1  211.25   81.46   1
   4  -7   1  114.74   67.88   1
   7   4  -1  114.88   65.72   1
   7   4   1   84.19   63.56   1
  -7  -4  -2  116.95   58.58   1
  -7  -4  -2  115.54   75.85   1
  -7  -4   2   61.97   56.02   1
  -7  -4   2   87.83   63.92   1
  -7  -4   2  108.50   75.25   1
  -4   7  -2  122.48   55.70   1
   4  -7  -2  155.90   75.02   1
   4  -7   2   78.40   73.46   1
   4  -7   2  140.72   72.58   1
   7   4  -2   67.57   62.01   1
   7   4   2  100.87   70.69   1
  -7  -4  -3 1215.11  118.18   1
  -7  -4  -3 1056.88  141.22   1
  -7  -4   3 1261.69  126.92   1
  -7  -4   3 1293.07  139.58   1
  -7  -4   3  972.92  137.07   1
  -4   7  -3 1231.50  122.42   1
   4  -7  -3 1417.86  150.48   1
   4  -7   3 1578.01  158.14   1
   4  -7   3 1472.20  149.05   1
   7   4  -3 1174.66  135.81   1
   7   4   3 1035.73  136.19   1
  -7  -4  -4  342.27   78.94   1
  -7  -4  -4  300.21  102.71   1
  -7  -4   4  304.45   78.51   1
  -7  -4   4  325.08   94.66   1
  -7  -4   4  301.43  101.14   1
  -4   7  -4  354.37   82.83   1
   4  -7  -4  349.64   97.39   1
   4  -7   4  312.20  105.72   1
   4  -7   4  320.19   92.32   1
   7   4  -4  326.75   92.54   1
   7   4   4  316.31   96.44   1
  -7  -4  -5  829.46  101.19   1
  -7  -4  -5  511.50  117.25   1
  -7  -4   5  786.99  111.11   1
  -7  -4   5  711.42  118.28   1
  -7  -4   5  703.12  131.19   1
  -4   7  -5  869.64  113.67   1
  -4   7   5  649.67  108.66   1
   4  -7  -5  929.06  136.12   1
   4  -7   5  882.01  148.37   1
   7   4  -5  831.86  129.30   1
   7   4  -5  878.20  135.46   1
   7   4   5  673.31  119.40   1
  -7  -4  -6 1625.48  130.56   1
  -7  -4  -6 1767.84  186.82   1
  -7  -4   6 1805.14  148.37   1
  -7  -4   6 1751.65  174.21   1
  -7  -4   6 1631.58  180.84   1
  -4   7  -6 1829.91  152.68   1
  -4   7   6 1457.82  153.48   1
   4  -7  -6 1957.18  186.00   1
   4  -7   6 1875.89  190.42   1
   7   4  -6 1596.87  155.78   1
   7   4   6 1702.58  169.73   1
  -7  -4  -7  111.36   98.06   1
  -7  -4   7  161.48   96.10   1
  -7  -4   7   52.29   89.21   1
  -4   7  -7   83.20   71.23   1
  -4   7   7  118.20   85.86   1
   4  -7  -7  131.99   96.03   1
   4  -7   7   31.63   97.54   1
   7   4  -7   31.95   77.36   1
   7   4   7  127.70   83.99   1
  -7  -4  -8  564.88  129.82   1
  -7  -4   8  644.58  123.11   1
  -7  -4   8  471.40  123.86   1
  -4   7  -8  630.85  109.47   1
  -4   7   8  706.02  125.07   1
   4  -7  -8  602.67  114.57   1
   4  -7  -8  745.15  134.60   1
   4  -7   8  626.37  144.67   1
   7   4  -8  574.72  112.15   1
   7   4   8  482.83  114.68   1
  -7  -4  -9  484.31  126.95   1
  -7  -4   9  409.81  116.86   1
  -7  -4   9  400.61  120.68   1
  -4   7  -9  441.65  103.49   1
  -4   7   9  444.05  111.86   1
   4  -7  -9  484.71  111.94   1
   4  -7  -9  485.19  124.13   1
   4  -7   9  590.70  147.22   1
   7   4  -9  365.32  100.95   1
   7   4   9  320.99  125.27   1
   7   4   9  457.74  118.50   1
  -7  -4 -10  -12.81   97.91   1
  -7  -4  10   80.46   97.83   1
  -7  -4  10   53.37  102.28   1
  -4   7 -10   38.92   85.14   1
  -4   7  10   24.33   85.08   1
   4  -7 -10    5.95   78.85   1
   4  -7 -10   28.18   95.97   1
   4  -7  10  -45.40   99.25   1
   7   4  10  -20.60   97.75   1
   7   4  10   80.54   89.30   1
  -7  -4 -11   30.92   98.73   1
  -7  -4  11   11.36   94.75   1
  -7  -4  11   44.54   99.40   1
  -4   7 -11  -16.91   82.30   1
  -4   7  11   15.54   86.34   1
   4  -7 -11   29.78   78.54   1
   4  -7  11  -23.26  105.07   1
   7   4  11   13.24  104.74   1
   7   4  11   18.10   84.30   1
  -7  -4 -12   55.13   98.14   1
  -7  -4  12  144.37  103.80   1
  -7  -4  12   42.50  103.04   1
  -4   7 -12   28.97   92.29   1
  -4   7  12  131.46   93.82   1
   4  -7 -12  132.34   89.87   1
   4  -7  12  -20.63  106.79   1
   7   4  12  239.41  114.21   1
   7   4  12   93.57   91.57   1
  -7  -5   0  177.65   77.18   1
  -7  -5   0  144.32   90.81   1
  -7  -5   0  137.79   92.51   1
  -5   7   0  337.20   82.74   1
   5  -7   0  232.83   97.43   1
   5  -7   0  192.51   89.61   1
   7   5   0  259.57   94.33   1
  -7  -5  -1 2567.35  167.50   1
  -7  -5  -1 2686.19  200.86   1
  -7  -5  -1 2285.96  197.30   1
  -7  -5   1 2475.66  168.74   1
  -7  -5   1 2593.77  197.48   1
  -7  -5   1 2406.16  196.98   1
  -5   7  -1 2788.55  169.13   1
  -5   7   1 2675.79  162.61   1
   5  -7  -1 2575.82  187.22   1
   5  -7  -1 2820.82  200.44   1
   5  -7   1 2564.73  186.94   1
   5  -7   1 2938.51  198.66   1
   7   5  -1 2564.03  186.80   1
   7   5   1 2459.04  184.12   1
  -7  -5  -2 2613.97  168.38   1
  -7  -5  -2 2973.84  207.58   1
  -7  -5  -2 2583.08  204.32   1
  -7  -5   2 2827.46  176.95   1
  -7  -5   2 2947.89  202.30   1
  -7  -5   2 2658.05  202.47   1
  -5   7  -2 2870.76  172.75   1
   5  -7  -2 2919.88  194.40   1
   5  -7  -2 3217.62  211.65   1
   5  -7   2 3042.49  198.79   1
   5  -7   2 3396.60  207.69   1
   7   5  -2 2596.06  186.43   1
   7   5   2 2742.76  191.94   1
  -7  -5  -3   10.94   67.48   1
  -7  -5  -3   68.13   92.90   1
  -7  -5   3   23.48   64.69   1
  -7  -5   3  131.52   91.79   1
  -7  -5   3   60.41   85.58   1
  -5   7  -3   84.20   67.33   1
   5  -7  -3   67.62   88.67   1
   5  -7   3   66.47   78.14   1
   5  -7   3   45.05   79.91   1
   7   5  -3   77.89   82.63   1
   7   5   3   80.87   79.60   1
  -7  -5  -4 1003.17  118.24   1
  -7  -5  -4 1098.37  161.78   1
  -7  -5   4  972.71  123.29   1
  -7  -5   4 1094.51  142.34   1
  -7  -5   4 1037.10  154.14   1
  -5   7  -4 1277.81  140.49   1
   5  -7  -4 1299.20  154.64   1
   5  -7   4 1267.12  165.48   1
   5  -7   4 1291.42  159.00   1
   7   5  -4 1198.34  155.55   1
   7   5   4 1090.45  151.12   1
  -7  -5  -5 1370.56  136.14   1
  -7  -5  -5 1360.52  176.31   1
  -7  -5   5 1344.00  142.27   1
  -7  -5   5 1453.33  180.70   1
  -7  -5   5 1494.63  178.90   1
  -5   7  -5 1501.29  148.97   1
   5  -7  -5 1657.29  184.71   1
   5  -7   5 1463.93  166.83   1
   7   5  -5 1413.89  155.63   1
   7   5   5 1384.01  161.31   1
  -7  -5  -6 1192.64  131.53   1
  -7  -5  -6 1219.26  163.25   1
  -7  -5   6 1112.65  133.60   1
  -7  -5   6 1241.48  154.12   1
  -7  -5   6 1153.04  162.72   1
  -5   7  -6 1193.63  143.46   1
  -5   7   6 1026.14  137.39   1
   5  -7  -6 1397.49  164.03   1
   5  -7   6 1351.41  168.29   1
   7   5  -6 1161.70  145.57   1
   7   5   6 1117.09  151.16   1
  -7  -5  -7  357.49  117.92   1
  -7  -5   7  269.61  108.89   1
  -7  -5   7  341.40  115.93   1
  -5   7  -7  420.22   96.10   1
  -5   7   7  394.40  109.23   1
   5  -7  -7  391.70  116.17   1
   5  -7   7  366.72  112.95   1
   7   5  -7  373.72  103.22   1
   7   5   7  367.74  107.90   1
  -7  -5  -8  186.83  107.75   1
  -7  -5   8  182.91  104.63   1
  -7  -5   8  167.04   98.90   1
  -5   7  -8  169.92   85.61   1
  -5   7   8  194.18   94.29   1
   5  -7  -8  199.67  102.24   1
   5  -7   8  189.15   99.61   1
   7   5  -8  153.68   87.10   1
   7   5   8  200.31   94.70   1
  -7  -5  -9 3021.83  219.34   1
  -7  -5   9 3157.55  213.31   1
  -7  -5   9 3209.78  222.85   1
  -5   7  -9 3309.31  190.68   1
  -5   7   9 2664.22  192.58   1
   5  -7  -9 3533.70  223.44   1
   5  -7   9 3340.14  220.29   1
   7   5  -9 3095.54  189.35   1
   7   5   9 3291.25  210.52   1
  -7  -5 -10  382.77  119.22   1
  -7  -5  10  269.44  108.18   1
  -7  -5  10  365.56  114.12   1
  -5   7 -10  418.70  101.04   1
  -5   7  10  287.38   99.82   1
   5  -7 -10  342.92   90.00   1
   5  -7 -10  487.42  119.34   1
   5  -7  10  369.47  117.86   1
   7   5 -10  311.48   94.55   1
   7   5  10  321.25  103.19   1
  -5   7  11   35.90   85.16   1
   5  -7 -11  100.19  100.12   1
   5  -7  11   18.97   87.83   1
   7   5  11  -27.07  100.88   1
  -7  -6   0   18.57   72.17   1
  -7  -6   0   26.99   88.83   1
  -7  -6   0   -0.79   80.72   1
  -6   7   0   -6.85   58.89   1
   6  -7   0  -25.56   63.89   1
   6  -7   0  -14.25   75.33   1
   7   6   0  -30.90   72.28   1
  -7  -6  -1  109.30   77.80   1
  -7  -6  -1   54.52   93.18   1
  -7  -6  -1   81.76   89.42   1
  -7  -6   1   43.35   74.40   1
  -7  -6   1   81.22   95.82   1
  -7  -6   1  104.85   92.97   1
  -6   7  -1   40.21   66.47   1
  -6   7   1  158.99   70.95   1
   6  -7  -1   87.92   80.57   1
   6  -7  -1   83.20   85.49   1
   6  -7   1   57.16   72.83   1
   6  -7   1   85.50   83.78   1
   7   6  -1   74.42   82.26   1
   7   6   1  139.17   89.20   1
  -7  -6  -2  101.19   81.16   1
  -7  -6  -2   90.25   92.16   1
  -7  -6  -2   15.66   86.84   1
  -7  -6   2   93.56   75.61   1
  -7  -6   2  209.57  102.11   1
  -7  -6   2   98.12   88.94   1
  -6   7  -2  112.62   71.22   1
  -6   7   2   58.02   60.49   1
   6  -7  -2  132.59   85.85   1
   6  -7  -2  173.41   96.69   1
   6  -7   2   33.35   72.19   1
   6  -7   2   24.20   76.49   1
   7   6  -2   -4.54   76.16   1
   7   6   2   42.04   77.95   1
  -7  -6  -3  846.67  116.71   1
  -7  -6  -3  991.44  143.05   1
  -7  -6  -3  766.58  140.29   1
  -7  -6   3  806.93  117.14   1
  -7  -6   3  931.56  136.40   1
  -7  -6   3  813.82  139.76   1
  -6   7  -3 1001.07  125.68   1
   6  -7  -3 1013.32  141.50   1
   6  -7  -3  957.21  138.96   1
   6  -7   3 1107.58  149.29   1
   6  -7   3 1020.70  135.61   1
   7   6  -3  864.63  130.32   1
   7   6   3 1011.86  139.36   1
  -7  -6  -4  173.16   83.19   1
  -7  -6  -4  377.74  115.46   1
  -7  -6  -4  190.14  102.62   1
  -7  -6   4  212.38   82.16   1
  -7  -6   4  321.08  109.76   1
  -7  -6   4  229.61   98.00   1
  -6   7  -4  197.93   81.53   1
   6  -7  -4  278.99   97.75   1
   6  -7  -4  337.57  107.46   1
   6  -7   4  251.30   93.88   1
   7   6  -4  231.90   94.85   1
   7   6   4  240.75   94.73   1
  -7  -6  -5  522.50   97.75   1
  -7  -6  -5  471.95  123.42   1
  -7  -6   5  511.51  100.32   1
  -7  -6   5  456.80  115.01   1
  -7  -6   5  562.21  118.32   1
  -6   7  -5  645.74  104.48   1
   6  -7  -5  606.01  122.32   1
   6  -7  -5  679.28  124.46   1
   6  -7   5  582.11  117.22   1
   7   6  -5  617.38  119.59   1
   7   6   5  524.85  110.69   1
  -7  -6  -6 1266.03  132.78   1
  -7  -6  -6 1218.47  164.42   1
  -7  -6   6 1246.29  151.53   1
  -7  -6   6 1188.60  155.39   1
  -6   7  -6 1436.17  146.42   1
  -6   7   6 1052.35  140.34   1
   6  -7  -6 1558.64  176.53   1
   6  -7   6 1428.43  148.90   1
   7   6  -6 1251.89  150.25   1
   7   6   6 1329.13  152.63   1
  -7  -6  -7  113.21  100.23   1
  -7  -6   7  117.21   93.22   1
  -7  -6   7   37.52   83.03   1
  -6   7  -7  105.46   77.10   1
  -6   7   7   46.23   80.50   1
   6  -7  -7   46.11   87.63   1
   6  -7   7   99.48   79.02   1
   7   6  -7   72.84   81.56   1
   7   6   7  113.28   80.36   1
  -7  -6  -8  378.27  112.62   1
  -7  -6   8  394.85  110.29   1
  -6   7  -8  446.49   97.61   1
  -6   7   8  481.55  109.41   1
   6  -7  -8  520.70  115.57   1
   6  -7   8  512.65  114.07   1
   7   6  -8  457.73  104.78   1
   7   6   8  517.71  106.22   1
  -7  -7   0  250.87   85.74   1
  -7  -7   0  150.83   95.50   1
  -7  -7   0  156.56   92.22   1
  -7   7   0  121.94   68.52   1
   7  -7   0  202.08   82.34   1
   7  -7   0  259.61   87.88   1
   7   7   0  253.48   90.43   1
  -7  -7  -1 1518.87  145.43   1
  -7  -7  -1 1690.94  177.33   1
  -7  -7  -1 1727.69  168.74   1
  -7  -7   1 1671.25  145.22   1
  -7  -7   1 1659.94  171.41   1
  -7  -7   1 1592.14  160.09   1
  -7   7  -1 1678.83  141.17   1
  -7   7   1 1774.47  140.61   1
   7  -7  -1 1780.94  139.35   1
   7  -7  -1 1861.24  163.81   1
   7  -7   1 1811.10  143.99   1
   7  -7   1 2022.24  162.13   1
   7   7  -1 1676.06  159.65   1
   7   7   1 1743.18  156.03   1
  -7  -7  -2 1962.01  150.64   1
  -7  -7  -2 1885.49  223.04   1
  -7  -7  -2 1874.39  170.78   1
  -7  -7   2 2051.33  177.22   1
  -7  -7   2 2159.29  172.26   1
  -7   7  -2 2019.78  148.86   1
  -7   7   2 2149.91  145.64   1
   7  -7  -2 2188.08  149.45   1
   7  -7  -2 2299.17  174.64   1
   7  -7   2 2247.61  153.60   1
   7  -7   2 2446.18  170.03   1
   7   7  -2 1965.36  166.03   1
   7   7   2 1888.23  158.84   1
  -7  -7  -3   81.07   70.20   1
  -7  -7  -3   19.49   82.50   1
  -7  -7   3  105.42   71.99   1
  -7  -7   3   97.52  107.66   1
  -7  -7   3   23.49   86.72   1
  -7   7  -3   73.08   70.66   1
   7  -7  -3   68.81   65.56   1
   7  -7  -3   53.24   78.47   1
   7  -7   3   29.77   61.36   1
   7   7  -3   31.83   75.35   1
   7   7   3   68.46   72.91   1
  -7  -7  -4  742.41  138.10   1
  -7   7  -4  907.45  130.32   1
   7  -7  -4 1080.45  152.62   1
   7   7  -4  668.98  133.87   1
   7   7   4  751.69  148.97   1
  -8   6   0 3745.70  177.87   1
  -6  -8   0 3639.86  216.50   1
   6   8   0 3701.61  199.01   1
   8  -6   0 4092.39  195.44   1
  -8   6  -1  155.26   70.55   1
  -8   6   1  165.77   68.43   1
  -6  -8  -1   58.53   74.65   1
  -6  -8  -1  220.84  104.38   1
  -6  -8   1  118.86   76.64   1
  -6  -8   1   99.01   93.59   1
   6   8  -1  131.45   79.65   1
   6   8   1  181.47   87.56   1
   8  -6  -1  170.54   77.60   1
   8  -6   1  160.70   74.40   1
  -8   6  -2  105.76   69.27   1
  -8   6   2   65.07   69.98   1
  -6  -8  -2   61.95   72.82   1
  -6  -8  -2   40.18   91.81   1
  -6  -8   2   74.49   75.86   1
  -6  -8   2   91.92   93.18   1
   6   8  -2   66.87   75.13   1
   8  -6  -2   44.24   70.82   1
   8  -6   2   90.61   69.62   1
  -8   6  -3 2335.43  214.51   1
  -6  -8  -3 1987.85  196.02   1
  -6  -8   3 2400.00  241.64   1
   8  -6  -3 3025.63  226.52   1
  -8   5   0   -7.04   61.13   1
  -5  -8   0    4.79   74.46   1
  -5  -8   0   16.20   96.24   1
   8  -5   0   11.47   63.37   1
  -8   5  -1  115.62   72.49   1
  -8   5   1  133.93   67.86   1
  -5  -8  -1  101.62   81.90   1
  -5  -8  -1   82.65   99.93   1
  -5  -8   1  103.65   81.51   1
  -5  -8   1   86.98  101.26   1
   5   8  -1   56.78   72.97   1
   8  -5  -1  139.40   78.47   1
   8  -5   1   84.21   70.56   1
  -8   5  -2   86.92   72.29   1
  -8   5   2   72.39   64.41   1
  -5  -8  -2   96.50   84.60   1
  -5  -8  -2   64.58  103.65   1
  -5  -8   2  134.86  106.51   1
   5   8  -2   61.37   76.19   1
   8  -5  -2   98.34   75.57   1
   8  -5   2  114.83   69.45   1
  -8   5  -3  759.94  107.81   1
  -8   5   3  752.15  103.85   1
  -5  -8  -3  664.76  112.49   1
  -5  -8  -3  746.63  142.39   1
  -5  -8   3  699.02  110.42   1
  -5  -8   3  910.99  145.32   1
   5   8  -3  801.97  125.69   1
   8  -5  -3  925.24  135.48   1
   8  -5   3  907.09  121.75   1
  -8   5  -4  262.31   82.31   1
  -8   5   4  247.34   74.23   1
  -5  -8  -4  276.31   94.75   1
  -5  -8  -4  217.44  112.66   1
  -5  -8   4  304.30  116.25   1
   5   8  -4  235.09   89.98   1
   8  -5  -4  318.19   94.56   1
  -8   5  -5  597.76   98.09   1
  -5  -8  -5  450.30   99.08   1
  -5  -8  -5  477.55  129.11   1
  -5  -8  -5  530.23  136.39   1
  -5  -8   5  591.55  130.58   1
   5   8  -5  544.56  110.59   1
   8  -5  -5  649.64  120.54   1
  -8   5  -6 1276.46  137.53   1
  -5  -8  -6 1378.33  171.86   1
  -5  -8  -6 1231.98  151.97   1
  -5  -8   6 1266.24  159.80   1
   5   8  -6 1273.48  152.42   1
   8  -5  -6 1386.27  159.92   1
  -5  -8  -7   28.56   86.91   1
  -5  -8  -7  -17.92  101.19   1
  -5  -8  -7   60.34   83.07   1
  -5  -8   7   44.42   95.25   1
   5   8  -7   38.62   76.54   1
   8  -5  -7   67.58   80.57   1
  -8   4   0 5065.21  215.86   1
  -4  -8   0 5144.65  232.50   1
  -4  -8   0 5531.31  273.87   1
  -8   4  -1  179.37   75.25   1
  -8   4   1  171.79   73.37   1
  -4  -8  -1  177.65   87.57   1
  -4  -8  -1  210.13  104.90   1
  -4  -8   1  152.21   81.92   1
  -4  -8   1  240.21  106.22   1
  -8   4  -2  142.11   74.13   1
  -8   4   2   56.22   66.26   1
  -4  -8  -2  146.38   84.09   1
  -4  -8  -2  147.16  103.23   1
  -4  -8   2   90.07   75.33   1
  -4  -8   2  155.33  101.04   1
   8  -4  -2  113.64   81.75   1
   8  -4   2  105.12   76.52   1
  -8   4  -3 2986.84  176.56   1
  -8   4   3 2927.27  176.31   1
  -4  -8  -3 2970.87  192.58   1
  -4  -8  -3 3195.68  238.51   1
  -4  -8   3 3317.02  229.90   1
   4   8  -3 3113.10  196.32   1
   8  -4  -3 3541.51  199.85   1
   8  -4   3 3262.14  186.66   1
  -8   4  -4  731.30  108.35   1
  -8   4   4  842.42  112.03   1
  -4  -8  -4  677.16  116.12   1
  -4  -8  -4  827.69  150.03   1
  -4  -8   4  689.40  135.03   1
   4   8  -4  909.81  132.81   1
   8  -4  -4  814.08  122.69   1
   8  -4   4  884.54  120.60   1
  -8   4  -5  479.79   95.08   1
  -8   4   5  485.75   92.65   1
  -4  -8  -5  453.52  107.60   1
  -4  -8  -5  552.47  140.26   1
  -4  -8   5  422.56  119.98   1
   8  -4  -5  514.55  108.42   1
   8  -4   5  540.84  104.86   1
  -8   4  -6  530.43   97.16   1
  -4  -8  -6  576.35  110.92   1
  -4  -8  -6  743.49  153.79   1
  -4  -8   6  518.99  127.15   1
   8  -4  -6  557.96  113.95   1
   8  -4   6  448.12   99.37   1
  -8   4  -7 1155.40  134.40   1
  -4  -8  -7 1273.91  138.69   1
  -4  -8  -7 1375.36  186.60   1
  -4  -8   7 1197.29  159.80   1
   8  -4  -7 1430.58  163.94   1
   8  -4   7 1378.70  157.87   1
  -4  -8  -8 1650.12  153.17   1
  -4  -8  -8 1898.34  206.71   1
  -4  -8  -8 1398.25  162.56   1
  -4  -8   8 1638.54  190.81   1
   8  -4  -8 1711.62  170.16   1
   8  -4   8 1768.53  165.15   1
  -4  -8  -9   89.82   79.23   1
  -4  -8  -9   72.69  111.23   1
  -4  -8  -9   35.94   82.61   1
  -4  -8   9   75.75   96.64   1
   8  -4  -9   72.19   84.07   1
   8  -4   9   47.46   75.20   1
  -4  -8 -10 1004.91  203.58   1
  -8   3   0  -10.51   54.52   1
  -3  -8   0    9.89   67.28   1
  -3  -8   0    9.04   79.89   1
   8  -3   0  -21.55   64.74   1
  -8   3  -1  114.26   65.98   1
  -8   3   1   96.10   66.47   1
  -3  -8  -1   90.28   75.31   1
  -3  -8  -1  114.27   90.46   1
  -3  -8   1  118.14   75.33   1
  -3  -8   1  150.15   90.44   1
   8  -3  -1   94.40   74.77   1
   8  -3   1   95.31   76.92   1
  -8   3  -2   54.68   63.60   1
  -8   3   2  116.14   66.51   1
  -3  -8  -2  100.77   77.40   1
  -3  -8  -2   95.94   91.02   1
  -3  -8   2  229.58  101.16   1
   8  -3  -2  130.09   78.22   1
   8  -3   2   89.70   76.03   1
  -8   3  -3  904.42  112.91   1
  -8   3   3 1019.46  126.61   1
  -3  -8  -3  976.26  131.47   1
  -3  -8  -3 1100.04  161.88   1
  -3  -8   3 1101.54  151.84   1
   8  -3  -3 1205.81  133.01   1
   8  -3   3 1022.71  131.48   1
  -8   3  -4  275.92   77.94   1
  -8   3   4  281.78   77.84   1
  -3  -8  -4  319.81   98.61   1
  -3  -8  -4  240.01  110.00   1
  -3  -8   4  200.03   94.03   1
   8  -3   4  237.82   89.57   1
  -8   3  -5  685.60  103.25   1
  -8   3   5  707.77  103.57   1
  -3  -8  -5  692.87  118.37   1
  -3  -8  -5  639.74  138.42   1
  -3  -8   5  695.64  130.83   1
   8  -3   5  714.29  117.87   1
  -8   3  -6 1475.33  140.48   1
  -8   3   6 1376.97  217.82   1
  -3  -8  -6 1491.40  161.26   1
  -3  -8  -6 1682.04  201.46   1
  -3  -8   6 1667.99  182.19   1
   8  -3   6 1652.83  170.33   1
  -3  -8  -7   70.09   82.00   1
  -3  -8  -7  135.29  114.18   1
  -3  -8   7   48.08   90.23   1
   8  -3   7   81.08   83.52   1
  -3  -8  -8  398.06  101.41   1
  -3  -8  -8  566.02  148.67   1
  -3  -8   8  553.52  126.80   1
   8  -3   8  523.18  112.11   1
  -3  -8  -9  325.66   97.54   1
  -3  -8  -9  334.81  133.68   1
  -3  -8   9  173.37  163.23   1
   8  -3   9  417.66  105.85   1
  -3  -8 -10  -17.10   76.07   1
  -3  -8 -10  -31.70  109.26   1
   3   8 -10   11.73   65.14   1
   8  -3 -10   16.83   81.51   1
   8  -3  10   20.94   77.87   1
  -3  -8 -11   58.33  112.50   1
   3   8 -11   32.67   72.35   1
   8  -3  11    8.86   74.46   1
  -8   2   0 6215.30  225.12   1
  -2  -8   0 6023.42  241.04   1
  -2  -8   0 6139.22  258.65   1
   8  -2   0 6541.95  250.55   1
  -8   2  -1  198.83   69.01   1
  -8   2   1  233.16   71.83   1
  -2  -8  -1  181.59   75.82   1
  -2  -8  -1  224.86   88.13   1
  -2  -8   1  300.34   81.52   1
   8  -2  -1  278.94   87.77   1
   8  -2   1  195.52   81.06   1
  -8   2  -2  145.86   62.91   1
  -8   2   2   81.95   58.97   1
  -2  -8  -2  101.78   69.57   1
  -2  -8  -2  121.50   80.12   1
   8  -2  -2  154.02   77.65   1
   8  -2   2  117.28   74.06   1
  -8   2  -3 3506.06  174.92   1
  -8   2   3 3789.60  188.19   1
  -2  -8  -3 3718.99  200.83   1
  -2  -8  -3 4050.32  229.31   1
   8  -2  -3 4146.77  211.66   1
   8  -2   3 3894.64  211.94   1
  -8   2  -4 1070.49  123.64   1
  -8   2   4  836.34  108.17   1
  -2  -8  -4  970.14  133.03   1
  -2  -8  -4 1076.62  155.47   1
   8  -2  -4 1070.57  136.43   1
   8  -2   4  830.70  125.19   1
  -8   2  -5  539.76   92.39   1
  -8   2   5  438.24   89.06   1
  -2  -8  -5  575.66  111.57   1
  -2  -8  -5  767.41  143.11   1
   8  -2  -5  624.16  116.69   1
   8  -2   5  679.19  120.21   1
  -8   2  -6  608.00   94.33   1
  -8   2   6  730.52  104.49   1
  -2  -8  -6  618.43  117.70   1
  -2  -8  -6  720.92  142.63   1
   8  -2  -6  748.72  123.18   1
   8  -2   6  595.82  116.74   1
  -2  -8  -7 1599.64  164.71   1
  -2  -8  -7 1388.22  182.10   1
   8  -2  -7 1587.88  171.21   1
   8  -2   7 1552.11  173.37   1
  -2  -8  -8 2071.58  176.85   1
  -2  -8  -8 2075.90  223.93   1
   2   8  -8 2264.62  165.86   1
   8  -2   8 1730.31  179.96   1
  -2  -8  -9   60.55   87.06   1
  -2  -8  -9   12.24  111.10   1
   2   8  -9   49.36   73.56   1
   8  -2   9   69.22   84.82   1
  -2  -8 -10 1127.18  136.00   1
  -2  -8 -10 1150.86  181.24   1
   2   8 -10 1579.34  155.02   1
   8  -2  10 1347.89  164.44   1
  -2  -8 -11 2859.90  180.08   1
  -2  -8 -11 3036.66  262.85   1
   2   8 -11 3368.23  195.63   1
   8  -2  11 2941.29  206.37   1
  -2  -8 -12  123.37  122.57   1
   2   8 -12   81.55   81.67   1
   8  -2  12   70.73   81.85   1
  -8   1   0    5.86   44.74   1
  -8   1   0   23.02   33.98   1
  -1  -8   0   25.54   49.70   1
   8  -1   0  -25.72   55.34   1
  -8   1  -1  123.88   57.69   1
  -8   1  -1   79.68   74.12   1
  -8   1   1   79.17   54.99   1
  -1  -8  -1   77.97   60.25   1
  -1  -8   1  130.29   73.19   1
   8  -1  -1   95.64   66.30   1
   8  -1   1  185.41   76.35   1
  -8   1  -2   97.90   54.88   1
  -8   1   2   94.44   59.15   1
  -1  -8  -2   92.69   64.85   1
   8  -1  -2  112.15   74.60   1
   8  -1   2  150.86   74.39   1
  -8   1  -3 1264.13  118.03   1
  -8   1   3 1156.45  122.07   1
  -1  -8  -3 1260.13  135.67   1
   8  -1  -3 1328.57  148.50   1
   8  -1   3 1210.95  144.01   1
  -8   1  -4  381.01   78.44   1
  -8   1   4  295.88   76.43   1
  -1  -8  -4  392.53   95.52   1
   8  -1  -4  332.91   98.28   1
   8  -1   4  393.50   97.02   1
  -8   1  -5  774.30   98.06   1
  -8   1   5  715.29  104.90   1
  -1  -8  -5  731.28  119.06   1
   8  -1  -5  906.82  134.85   1
   8  -1   5  743.68  123.99   1
  -8   1  -6 1676.42  131.79   1
  -8   1   6 1646.30  141.66   1
  -1  -8  -6 1683.22  164.35   1
   1   8  -6 2039.61  154.92   1
   8  -1  -6 1926.90  181.92   1
   8  -1   6 1497.40  165.52   1
  -8   1   7  112.46   82.37   1
  -1  -8  -7   72.80   85.28   1
   1   8  -7  106.13   67.91   1
   8  -1  -7   90.09   89.82   1
   8  -1   7  133.32   75.73   1
   8  -1   7  127.60   83.01   1
  -8   1   8  515.18  106.10   1
  -1  -8  -8  601.67  119.07   1
   1   8  -8  643.53  110.04   1
   8  -1  -8  626.14  127.92   1
   8  -1   8  662.71  112.43   1
   8  -1   8  463.19  111.54   1
  -8   1   9  437.43  106.31   1
  -1  -8  -9  446.85  108.58   1
  -1  -8  -9  551.05  186.32   1
   1   8  -9  463.43  100.51   1
   8  -1  -9  431.32  117.84   1
   8  -1   9  466.50  103.09   1
   8  -1   9  340.70  107.51   1
  -8   1  10   32.27   81.19   1
  -1  -8 -10   76.96   86.70   1
  -1  -8 -10   17.79  110.27   1
   1   8 -10   25.19   74.31   1
   8  -1 -10   76.46   93.20   1
   8  -1  10    2.79   72.44   1
   8  -1  10    8.45   77.97   1
  -8   1  11   -0.78   82.53   1
  -1  -8 -11   20.87   84.52   1
  -1  -8 -11   10.99  113.47   1
   1   8 -11   -3.67   78.56   1
   8  -1  11   80.37   79.11   1
   8  -1  11  -41.90   76.75   1
  -8   1  12  105.49   88.30   1
  -1  -8 -12   71.99   87.25   1
  -1  -8 -12   41.28  117.80   1
   1   8 -12   56.36   85.72   1
   8  -1  12  159.67   86.50   1
   8  -1  12   70.10   84.48   1
  -8   0   0 5632.60  208.09   1
   0  -8   0 6692.80  248.03   1
   0   8   0 6376.53  306.59   1
   8   0   0 6558.74  256.51   1
  -8   0  -1  266.51   66.11   1
  -8   0   1  205.91   64.78   1
   0  -8  -1  281.22   75.97   1
   0   8   1  245.87   81.85   1
   8   0  -1  232.33   76.12   1
   8   0   1  292.38   84.03   1
  -8   0  -2  100.74   50.23   1
  -8   0   2  119.93   57.60   1
   0  -8  -2  128.23   61.68   1
   8   0  -2   82.77   67.31   1
   8   0   2  212.11   79.91   1
  -8   0  -3 3782.30  167.99   1
  -8   0   3 3795.51  184.08   1
  -8   0   3 3946.88  180.02   1
   0  -8  -3 4144.04  203.88   1
   8   0  -3 4173.59  217.33   1
   8   0   3 4034.34  212.14   1
  -8   0  -4  865.74  107.23   1
  -8   0   4  994.89  116.58   1
  -8   0   4  937.97  119.18   1
   0  -8  -4 1041.14  134.75   1
   0   8  -4 1296.87  149.29   1
   8   0  -4 1165.92  149.83   1
   8   0   4  987.21  117.57   1
   8   0   4 1135.52  141.02   1
  -8   0  -5  510.13   83.93   1
  -8   0   5  679.50  102.81   1
  -8   0   5  663.92  109.26   1
   0  -8  -5  593.88  109.56   1
   0   8  -5  841.42  112.90   1
   8   0  -5  538.21  116.28   1
   8   0   5  577.23   99.34   1
   8   0   5  527.77  108.89   1
  -8   0   6  561.54   95.62   1
  -8   0   6  696.77  114.12   1
   0  -8  -6  702.41  119.11   1
   0   8  -6  645.81  100.61   1
   8   0  -6  703.98  132.50   1
   8   0   6  798.53  115.02   1
   8   0   6  689.30  125.14   1
  -8   0   7 1555.83  160.70   1
   0  -8  -7 1488.28  160.59   1
   0   8  -7 2020.02  158.99   1
   8   0  -7 1735.25  189.39   1
   8   0   7 1544.40  153.86   1
   8   0   7 1615.34  169.87   1
  -8   0   8 1921.55  175.29   1
   0  -8  -8 2294.08  182.69   1
   0   8  -8 2349.68  173.62   1
   8   0  -8 2267.76  204.78   1
   8   0   8 2045.90  170.50   1
   8   0   8 2214.84  190.15   1
  -8   0   9   57.75   86.20   1
   0  -8  -9   35.81   83.46   1
   0   8  -9  124.73   81.47   1
   8   0  -9   27.90   95.61   1
   8   0   9   40.86   78.21   1
   8   0   9   60.99   81.77   1
  -8   0  10 1182.15  148.59   1
   0  -8 -10 1584.02  168.03   1
   0   8 -10 1519.55  165.79   1
   8   0 -10 1282.82  164.90   1
   8   0  10 1195.36  144.06   1
   8   0  10 1312.36  166.90   1
  -8   0  11 2765.81  198.48   1
   0  -8 -11 2713.81  190.02   1
   0   8 -11 3597.44  212.30   1
   8   0 -11 3073.93  221.43   1
   8   0  11 2776.84  189.55   1
   8   0  11 3026.80  214.36   1
  -8   0  12  116.03   91.97   1
   0  -8 -12   51.04   86.76   1
   0   8 -12   99.53   93.08   1
   8   0 -12   57.88  100.33   1
   8   0  12   84.45   81.77   1
   0   8 -13 1045.60  201.59   1
  -8  -1   0    3.98   45.93   1
  -8  -1   0   22.17   49.55   1
   1  -8   0    6.64   51.62   1
   8   1   0   15.12   52.23   1
  -8  -1  -1  118.92   55.62   1
  -8  -1  -1  149.20   81.71   1
  -8  -1   1   82.08   53.25   1
  -8  -1   1  104.57   61.10   1
   1  -8  -1  122.86   61.44   1
   1  -8   1  101.24   64.72   1
   8   1  -1  155.10   72.21   1
   8   1   1  167.69   57.56   1
   8   1   1  224.29   77.63   1
  -8  -1  -2  150.99   57.34   1
  -8  -1   2  130.72   61.59   1
  -8  -1   2  116.87   64.80   1
  -1   8  -2  172.88   81.02   1
   1  -8  -2  103.19   61.67   1
   1  -8  -2   87.60   65.38   1
   1  -8   2  135.29   69.53   1
   8   1  -2  181.99   76.14   1
   8   1   2   67.02   54.68   1
   8   1   2  152.22   69.41   1
  -8  -1  -3 1072.28  109.81   1
  -8  -1   3 1266.03  124.46   1
  -8  -1   3  958.41  121.41   1
  -1   8  -3 1162.46  115.14   1
   1  -8  -3 1028.53  120.73   1
   1  -8   3 1219.52  131.13   1
   8   1  -3 1199.96  147.85   1
   8   1   3 1308.13  125.86   1
   8   1   3 1275.55  138.82   1
  -8  -1  -4  328.19   74.13   1
  -8  -1   4  396.27   84.12   1
  -8  -1   4  303.90   89.00   1
  -1   8  -4  442.30   86.60   1
   1  -8  -4  319.19   84.68   1
   1  -8   4  320.15   94.45   1
   8   1  -4  418.60  106.96   1
   8   1   4  313.83   84.61   1
   8   1   4  259.72   82.73   1
  -8  -1  -5  691.68   91.95   1
  -8  -1   5  742.27  106.40   1
  -8  -1   5  575.91  109.16   1
  -1   8  -5  812.64  113.23   1
   1  -8  -5  836.53  124.20   1
   1  -8   5  887.02  132.18   1
   8   1  -5  733.79  128.70   1
   8   1   5  744.33  113.42   1
   8   1   5  693.55  116.85   1
  -8  -1   6 1767.32  148.68   1
  -8  -1   6 1816.57  170.97   1
  -1   8  -6 2011.01  157.99   1
   1  -8  -6 1903.43  165.96   1
   1  -8   6 1786.78  165.64   1
   8   1  -6 1728.52  186.20   1
   8   1   6 1617.64  156.33   1
   8   1   6 1752.19  163.92   1
  -8  -1   7  102.91   86.33   1
  -1   8  -7  143.23   77.68   1
   1  -8  -7  116.48   82.20   1
   8   1  -7   64.85   90.69   1
   8   1   7  110.94   81.41   1
   8   1   7   72.96   74.20   1
  -8  -1   8  497.10  115.65   1
  -1   8  -8  773.23  121.63   1
   1  -8  -8  760.60  128.83   1
   8   1  -8  606.44  132.80   1
   8   1   8  657.88  118.67   1
  -8  -1   9  273.44  102.75   1
  -1   8  -9  377.18   98.95   1
   1  -8  -9  410.37  111.44   1
   8   1  -9  481.50  131.32   1
   8   1   9  562.96  116.48   1
  -8  -1  10  -11.93   88.17   1
  -1   8 -10    9.41   79.18   1
   1  -8 -10   17.82   87.34   1
   8   1 -10  -15.12   93.77   1
   8   1  10   30.86   81.41   1
  -8  -1  11  -27.04   89.12   1
  -1   8 -11   70.03   86.22   1
   1  -8 -11  -14.02   84.42   1
   8   1 -11   -2.03   98.75   1
   8   1  11   29.30   80.72   1
  -8  -1  12  114.28   94.29   1
  -1   8 -12  129.67   95.83   1
  -1   8  12   73.38   97.94   1
   1  -8 -12   55.84   84.75   1
   8   1 -12   64.18   98.18   1
   8   1  12   94.43   81.87   1
  -8  -2   0 5561.67  214.11   1
  -8  -2   0 5748.56  237.30   1
   2  -8   0 6652.43  254.82   1
   8   2   0 5643.77  215.35   1
   8   2   0 6514.88  260.72   1
  -8  -2  -1  186.71   70.75   1
  -8  -2  -1  179.17   80.60   1
  -8  -2   1  195.62   68.70   1
  -8  -2   1  228.01   83.16   1
   2  -8  -1  314.01   98.36   1
   2  -8   1  309.25   97.27   1
   8   2  -1  275.36   78.92   1
   8   2  -1  221.23   80.88   1
   8   2   1  284.81   79.50   1
   8   2   1  331.77   93.25   1
  -8  -2  -2  111.50   62.76   1
  -8  -2  -2  181.14   80.58   1
  -8  -2   2  122.45   67.94   1
  -8  -2   2   89.51   74.85   1
  -2   8  -2  168.03   59.29   1
   2  -8  -2  203.11   88.59   1
   2  -8   2  108.72   83.86   1
   8   2  -2  103.84   66.00   1
   8   2  -2  114.53   72.75   1
   8   2   2   63.83   65.47   1
   8   2   2  133.71   70.45   1
  -8  -2  -3 3380.23  168.08   1
  -8  -2  -3 3424.44  192.64   1
  -8  -2   3 3729.86  190.33   1
  -8  -2   3 3448.10  204.12   1
  -2   8  -3 4226.57  194.58   1
   2  -8   3 4200.73  218.94   1
   8   2  -3 4113.61  224.84   1
   8   2   3 3610.32  193.05   1
   8   2   3 4001.03  210.42   1
  -8  -2  -4  793.11  100.79   1
  -8  -2  -4  840.58  120.84   1
  -8  -2   4 1012.96  126.47   1
  -8  -2   4  832.08  126.98   1
  -2   8  -4  990.76  120.73   1
   2  -8   4 1052.14  145.45   1
   8   2  -4 1066.12  147.72   1
   8   2   4  771.55  117.67   1
  -8  -2  -5  561.23   90.01   1
  -8  -2  -5  432.60  147.20   1
  -8  -2   5  539.45   97.66   1
  -8  -2   5  479.84  111.95   1
  -2   8  -5  745.68  113.01   1
   2  -8  -5  692.47  114.17   1
   2  -8   5  539.08  120.37   1
   8   2  -5  452.06  109.76   1
   8   2   5  531.23  106.03   1
  -8  -2   6  566.03   98.71   1
  -8  -2   6  602.03  124.70   1
  -2   8  -6  705.85  112.55   1
   2  -8  -6  633.09  110.98   1
   2  -8   6  781.47  140.50   1
   8   2  -6  673.27  134.01   1
   8   2   6  579.02  112.36   1
  -8  -2   7 1297.37  157.26   1
  -2   8  -7 1734.61  158.73   1
   2  -8  -7 1610.98  160.52   1
   2  -8   7 1503.74  176.17   1
   8   2  -7 1430.53  176.84   1
   8   2   7 1524.05  166.87   1
  -8  -2   8 1757.70  186.40   1
  -2   8  -8 2301.91  178.19   1
   2  -8  -8 2109.41  175.92   1
   2  -8   8 2289.25  197.12   1
   8   2  -8 2019.09  207.37   1
   8   2   8 1874.30  176.89   1
  -8  -2   9   -3.34   87.23   1
  -2   8  -9   48.29   81.68   1
   2  -8  -9   90.81   83.90   1
   2  -8   9   40.10   99.75   1
   8   2  -9  114.34  103.55   1
   8   2   9   34.71   82.53   1
  -8  -2  10 1083.46  151.75   1
  -2   8 -10 1328.33  150.22   1
  -2   8  10 1180.86  140.97   1
   2  -8 -10 1310.00  157.92   1
   2  -8  10 1321.13  164.54   1
   8   2 -10 1427.83  180.43   1
   8   2  10 1121.79  145.31   1
  -8  -2  11 2797.23  209.92   1
  -2   8 -11 3378.84  204.01   1
  -2   8  11 2493.62  179.54   1
   2  -8 -11 3027.85  193.49   1
   2  -8  11 3055.14  207.96   1
   8   2 -11 3285.95  237.68   1
   8   2  11 2597.98  189.68   1
  -8  -2  12   31.47   94.89   1
  -2   8 -12   92.37   87.68   1
   2  -8 -12  117.54   88.45   1
   8   2 -12   71.25  104.07   1
   8   2  12   43.78   79.48   1
  -8  -3   0  -19.38   58.79   1
  -8  -3   0   -1.54   77.45   1
   3  -8   0   42.84   82.80   1
   3  -8   0   -8.24   64.38   1
   8   3   0   10.76   66.80   1
  -8  -3  -1   26.97   63.22   1
  -8  -3  -1   71.58   83.71   1
  -8  -3   1  155.82   71.68   1
  -8  -3   1   97.77   87.16   1
  -3   8  -1   89.89   60.06   1
   3  -8  -1  142.07   93.77   1
   3  -8   1  130.92   91.02   1
   3  -8   1  143.75   76.95   1
   8   3  -1  116.22   76.37   1
   8   3  -1  140.57   75.28   1
   8   3   1   94.84   77.16   1
  -8  -3  -2   79.74   65.93   1
  -8  -3  -2  119.03   87.52   1
  -8  -3   2   39.60   63.92   1
  -8  -3   2   94.83   88.47   1
  -3   8  -2   67.98   59.87   1
   3  -8  -2  163.64   95.34   1
   3  -8   2  145.07   92.49   1
   8   3  -2   66.29   74.86   1
   8   3  -2   92.47   75.82   1
   8   3   2  139.34   77.66   1
  -8  -3  -3 1010.03  124.32   1
  -8  -3  -3  903.51  136.89   1
  -8  -3   3  865.31  115.67   1
  -8  -3   3  869.70  133.11   1
  -3   8  -3 1027.09  126.42   1
   3  -8   3 1282.33  161.47   1
   8   3  -3 1010.09  128.73   1
   8   3  -3 1078.98  143.97   1
   8   3   3 1024.69  138.04   1
  -8  -3  -4  265.44   79.74   1
  -8  -3  -4  323.23  104.93   1
  -8  -3   4  188.24   77.69   1
  -8  -3   4  223.99   98.15   1
  -3   8  -4  327.45   84.29   1
   3  -8   4  283.97  106.68   1
   8   3  -4  145.18   81.42   1
   8   3  -4  341.37  100.82   1
   8   3   4  256.34   93.26   1
  -8  -3  -5  616.91   94.68   1
  -8  -3  -5  532.64  115.27   1
  -8  -3   5  624.76  105.86   1
  -8  -3   5  646.07  124.75   1
  -3   8  -5  836.57  117.87   1
   3  -8   5  852.04  146.64   1
   8   3  -5  737.18  129.45   1
   8   3   5  632.47  116.55   1
  -8  -3  -6 1450.47  174.04   1
  -8  -3   6 1575.81  146.98   1
  -8  -3   6 1517.22  178.32   1
  -3   8  -6 1759.17  158.78   1
   3  -8  -6 1642.01  151.24   1
   3  -8   6 1590.58  177.15   1
   8   3  -6 1622.22  183.87   1
   8   3   6 1647.24  169.36   1
  -8  -3  -7   51.04   87.47   1
  -8  -3   7   66.62   89.97   1
  -3   8  -7   90.89   77.50   1
   3  -8  -7  131.79   77.60   1
   3  -8   7   42.87   95.51   1
   8   3  -7  150.59  102.96   1
   8   3   7   32.61   78.67   1
  -8  -3   8  541.83  127.52   1
  -3   8  -8  644.15  114.27   1
  -3   8   8  441.79  105.46   1
   3  -8  -8  485.61  107.28   1
   3  -8   8  551.06  127.32   1
   8   3  -8  577.89  134.61   1
   8   3   8  506.64  113.31   1
  -8  -3   9  249.27  105.54   1
  -3   8  -9  403.95  103.11   1
  -3   8   9  354.65  101.37   1
   3  -8  -9  341.25   96.92   1
   3  -8   9  457.36  124.89   1
   8   3  -9  480.34  125.85   1
   8   3   9  421.62  108.02   1
  -8  -3  10   60.36   92.52   1
  -3   8 -10   36.84   82.73   1
  -3   8  10   49.90   83.75   1
   3  -8 -10   -9.97   77.53   1
   3  -8  10  -11.58   93.64   1
   8   3 -10    8.31   91.50   1
   8   3  10   60.70   82.45   1
  -8  -3  11   -2.50   92.42   1
  -3   8 -11   38.87   80.27   1
   3  -8 -11   17.23   76.02   1
   3  -8  11  127.30  112.41   1
   8   3 -11   -1.47   95.51   1
   8   3  11   -7.33   75.37   1
  -8  -4   0 4826.65  211.34   1
  -8  -4   0 4618.13  241.91   1
  -4   8   0 5329.00  223.42   1
   4  -8   0 5389.78  248.97   1
   4  -8   0 5745.79  237.40   1
   8   4   0 4884.31  227.68   1
  -8  -4  -1  106.62   72.51   1
  -8  -4  -1  248.93  101.51   1
  -8  -4   1  242.86   81.75   1
  -8  -4   1  211.32  100.33   1
  -4   8  -1  173.99   71.13   1
   4  -8  -1  230.77  103.89   1
   4  -8  -1  275.18   96.29   1
   4  -8   1  171.11   95.56   1
   4  -8   1  226.05   88.75   1
   8   4  -1  208.92   89.22   1
   8   4   1  170.75   89.55   1
  -8  -4  -2   59.70   72.54   1
  -8  -4  -2  155.23  100.58   1
  -8  -4   2  106.44   72.91   1
  -8  -4   2  103.60   94.85   1
  -4   8  -2  107.78   66.50   1
   4  -8  -2  136.16   96.11   1
   4  -8  -2  130.11   87.31   1
   4  -8   2   93.54   85.73   1
   4  -8   2  138.05   81.92   1
   8   4  -2   84.53   80.32   1
   8   4   2   37.06   78.95   1
  -8  -4  -3 2912.33  170.62   1
  -8  -4  -3 3033.17  212.11   1
  -8  -4   3 2950.76  180.00   1
  -8  -4   3 2879.52  211.51   1
  -4   8  -3 3355.01  186.49   1
   4  -8  -3 3209.75  207.15   1
   4  -8  -3 3691.27  207.62   1
   4  -8   3 3455.34  213.09   1
   8   4  -3 2905.76  186.42   1
   8   4   3 2957.28  194.53   1
  -8  -4  -4  653.88  102.66   1
  -8  -4  -4  892.90  145.78   1
  -8  -4   4  722.90  109.96   1
  -8  -4   4  675.69  127.92   1
  -4   8  -4  773.89  111.17   1
   4  -8  -4  857.67  141.07   1
   4  -8  -4 1068.52  133.42   1
   4  -8   4  832.54  140.46   1
   8   4  -4  744.82  122.81   1
   8   4   4  656.53  118.73   1
  -8  -4  -5  432.61   89.08   1
  -8  -4  -5  470.32  117.94   1
  -8  -4   5  448.91   96.40   1
  -8  -4   5  343.51  109.09   1
  -4   8  -5  594.40  106.49   1
   4  -8  -5  555.83  132.82   1
   4  -8   5  353.76  110.90   1
   8   4  -5  460.47  104.39   1
   8   4  -5  535.46  115.99   1
   8   4   5  474.59  107.84   1
  -8  -4  -6  318.80  108.80   1
  -8  -4   6  414.70   91.96   1
  -8  -4   6  468.92  117.47   1
  -4   8  -6  581.31  106.60   1
   4  -8   6  437.66  118.52   1
   8   4  -6  578.84  109.27   1
   8   4  -6  585.67  125.74   1
   8   4   6  528.02  114.02   1
  -8  -4   7 1290.68  163.01   1
  -4   8  -7 1421.22  152.37   1
  -4   8   7 1210.80  139.15   1
   4  -8   7 1431.53  168.14   1
   8   4  -7 1396.08  171.67   1
   8   4   7 1177.31  146.11   1
  -8  -4  -8 1382.79  172.19   1
  -8  -4   8 1528.04  175.67   1
  -4   8  -8 1928.76  167.68   1
  -4   8   8 1331.82  155.34   1
   4  -8  -8 1648.60  203.16   1
   4  -8   8 1759.25  175.42   1
   8   4  -8 1690.66  191.02   1
   8   4   8 1485.60  163.62   1
  -8  -4  -9   86.94   99.76   1
  -8  -4   9   22.79   89.49   1
  -4   8  -9   37.65   76.55   1
  -4   8   9   46.26   86.13   1
   4  -8  -9   23.18   72.11   1
   4  -8   9   44.84   90.24   1
   8   4  -9   31.93   95.61   1
   8   4   9   73.51   84.25   1
   8   4  10  996.98  175.38   1
  -8  -5   0   18.02   69.64   1
  -8  -5   0   -0.88   86.70   1
  -5   8   0  -15.24   55.10   1
   5  -8   0   -2.90   68.98   1
   5  -8   0   26.02   76.11   1
   8   5   0   65.76   77.22   1
  -8  -5  -1   46.83   74.71   1
  -8  -5  -1   81.30   94.63   1
  -8  -5   1   95.81   75.49   1
  -8  -5   1  140.31   95.76   1
  -5   8  -1   87.35   64.97   1
   5  -8  -1   49.00   82.01   1
   5  -8  -1  138.62   85.49   1
   5  -8   1   54.24   73.71   1
   5  -8   1   79.04   78.98   1
   8   5  -1   58.31   80.10   1
   8   5   1   22.06   77.27   1
  -8  -5  -2  121.36   78.26   1
  -8  -5  -2   36.33   91.58   1
  -8  -5   2   84.38   75.74   1
  -8  -5   2   89.40   93.03   1
  -5   8  -2  135.82   71.21   1
   5  -8  -2   54.01   85.55   1
   5  -8  -2  106.44   85.39   1
   5  -8   2   59.04   82.76   1
   5  -8   2  130.77   81.02   1
   8   5  -2  120.74   84.99   1
   8   5   2   91.09   80.33   1
  -8  -5  -3  719.80  107.09   1
  -8  -5  -3  679.11  128.31   1
  -8  -5   3  888.30  119.73   1
  -8  -5   3  767.54  129.32   1
  -5   8  -3  769.27  107.66   1
   5  -8  -3  915.24  139.09   1
   5  -8  -3 1076.67  135.37   1
   5  -8   3  945.75  143.88   1
   8   5  -3  878.23  128.30   1
   8   5   3  707.08  120.74   1
  -8  -5  -4  233.49   81.69   1
  -8  -5  -4  169.12  102.47   1
  -8  -5   4  132.37   73.62   1
  -8  -5   4  229.40  102.58   1
  -5   8  -4  251.68   84.75   1
   5  -8  -4  160.30   92.08   1
   5  -8  -4  303.30   99.52   1
   5  -8   4  295.26  100.31   1
   8   5  -4  214.93   90.40   1
   8   5   4  168.68   86.14   1
  -8  -5  -5  450.93   90.06   1
  -8  -5  -5  481.29  117.79   1
  -8  -5   5  525.39   99.68   1
  -8  -5   5  496.71  112.56   1
  -5   8  -5  649.83  108.00   1
   5  -8  -5  481.78  110.15   1
   5  -8  -5  695.06  119.56   1
   5  -8   5  481.52  111.15   1
   8   5  -5  451.12  103.33   1
   8   5   5  510.00  105.56   1
  -8  -5  -6 1051.01  144.12   1
  -8  -5   6 1203.55  132.61   1
  -8  -5   6 1080.27  145.82   1
  -5   8  -6 1383.74  144.52   1
  -5   8   6 1235.78  143.33   1
   5  -8  -6 1280.18  153.80   1
   5  -8  -6 1482.37  163.86   1
   5  -8   6 1385.62  151.04   1
   8   5  -6 1064.13  130.44   1
   8   5   6 1155.53  140.26   1
  -8  -5  -7   57.44   92.35   1
  -8  -5   7   51.20   82.48   1
  -5   8  -7   72.00   72.91   1
   5  -8   7  118.51   82.68   1
   8   5   7   72.81   74.87   1
  -8  -6   0 3440.49  205.20   1
  -6   8   0 3679.64  179.38   1
   6  -8   0 3599.58  183.47   1
   6  -8   0 4091.10  198.52   1
   8   6   0 3677.11  193.84   1
  -8  -6  -1  119.60   74.56   1
  -8  -6  -1  168.61   95.84   1
  -8  -6   1  146.59   76.01   1
  -8  -6   1  290.13   97.20   1
  -6   8  -1  139.77   69.22   1
   6  -8  -1  134.58   70.40   1
   6  -8  -1  204.06   89.06   1
   6  -8   1  127.92   79.85   1
   6  -8   1  143.11   81.16   1
   8   6  -1  101.47   78.83   1
   8   6   1  126.41   79.25   1
  -8  -6  -2   48.15   72.73   1
  -8  -6  -2   16.66   87.40   1
  -8  -6   2   41.26   66.49   1
  -8  -6   2   -7.10   82.22   1
  -6   8  -2   81.44   65.05   1
   6  -8  -2   43.71   64.72   1
   6  -8  -2  116.72   89.56   1
   6  -8   2   55.68   70.78   1
   8   6  -2   36.20   81.20   1
   8   6   2    8.83   73.59   1
  -8  -6  -3 2018.27  223.17   1
  -8  -6   3 1608.54  178.64   1
  -8  -6   3 2307.89  224.61   1
  -6   8  -3 2794.80  199.32   1
   6  -8  -3 2077.92  188.73   1
   6  -8   3 2547.07  195.00   1
   8   6   3 2201.74  195.33   1
  -9   4   0   11.86   62.68   1
  -4  -9   0  -12.62   72.69   1
  -4  -9   0   -4.17   85.22   1
  -9   4  -1   44.82   65.39   1
  -9   4   1  111.20   68.63   1
  -4  -9  -1   43.16   79.71   1
  -4  -9  -1   84.84   94.37   1
  -4  -9   1   49.63   75.45   1
  -4  -9   1  104.36   90.73   1
  -9   4  -2   80.62   68.45   1
  -9   4   2   57.19   62.45   1
  -4  -9  -2   47.64   79.77   1
  -4  -9  -2   76.44   92.75   1
  -4  -9   2    0.86   86.08   1
  -9   4  -3  736.66  102.58   1
  -9   4   3  795.64  104.97   1
  -4  -9  -3  793.56  132.52   1
  -4  -9   3  874.80  130.94   1
  -9   4  -4  199.37  103.05   1
  -9   4   4  228.24   75.17   1
  -4  -9  -4  202.49   88.84   1
  -4  -9  -4  147.79   98.46   1
  -4  -9   4  168.05   93.50   1
  -9   3   0  145.64   77.37   1
  -3  -9   0  209.96   88.38   1
  -3  -9   0  209.64   97.64   1
   9  -3   0  198.08   84.51   1
  -9   3  -1 1945.01  154.56   1
  -9   3   1 1884.15  154.37   1
  -3  -9  -1 2185.21  172.75   1
  -3  -9  -1 2097.09  188.41   1
  -3  -9   1 1909.92  179.69   1
   9  -3  -1 1864.84  156.83   1
   9  -3   1 1966.67  164.37   1
  -9   3  -2 2280.81  159.69   1
  -9   3   2 2056.14  156.80   1
  -3  -9  -2 2165.34  170.23   1
  -3  -9  -2 2334.23  194.24   1
  -3  -9   2 2416.16  186.73   1
   9  -3   2 2426.97  174.62   1
  -9   3  -3   63.49   70.36   1
  -9   3   3   28.98   61.10   1
  -3  -9  -3   60.41   79.48   1
  -3  -9  -3   87.43   95.06   1
  -3  -9   3   48.58   81.44   1
   9  -3   3   67.30   76.41   1
  -9   3  -4  825.77  106.45   1
  -9   3   4  727.59  104.10   1
  -3  -9  -4  949.10  131.50   1
  -3  -9  -4  793.27  137.31   1
  -3  -9   4  845.19  127.35   1
   9  -3   4  897.71  120.04   1
  -9   3  -5 1061.35  130.39   1
  -9   3   5 1196.28  128.63   1
  -3  -9  -5 1154.79  135.80   1
  -3  -9  -5 1154.50  153.69   1
   9  -3   5 1212.67  133.40   1
  -3  -9  -6  950.29  127.24   1
  -3  -9  -6 1066.43  154.01   1
   9  -3   6  989.93  123.07   1
  -3  -9  -7  291.91   97.16   1
  -3  -9  -7  375.28  119.91   1
   9  -3   7  345.33  104.95   1
  -9   2   0  -34.80   63.29   1
  -2  -9   0    3.24   70.42   1
   9  -2   0   38.35   76.37   1
  -9   2  -1   76.99   69.69   1
  -9   2   1  113.25   69.36   1
  -2  -9  -1   88.84   79.15   1
   9  -2  -1  151.37   86.10   1
   9  -2   1   90.19   79.90   1
  -9   2  -2   90.16   71.71   1
  -9   2   2   41.02   65.61   1
  -2  -9  -2   23.98   74.62   1
   9  -2  -2  161.37   87.53   1
   9  -2   2   39.88   77.86   1
  -9   2  -3  970.35  116.64   1
  -9   2   3  814.91  112.16   1
  -2  -9  -3 1202.43  144.19   1
   9  -2  -3 1089.05  131.75   1
   9  -2   3  852.82  128.73   1
  -9   2  -4  212.56   77.90   1
  -9   2   4  225.28   80.34   1
  -2  -9  -4  357.87  101.12   1
   9  -2  -4  279.52   93.55   1
   9  -2   4  217.39   90.19   1
  -9   2  -5  537.92   91.05   1
  -9   2   5  504.89   93.43   1
  -2  -9  -5  489.27  110.94   1
  -2  -9  -5  584.58  130.77   1
   9  -2  -5  649.70  111.75   1
   9  -2   5  590.25  111.87   1
  -9   2   6 1259.42  131.76   1
  -2  -9  -6 1203.41  141.63   1
  -2  -9  -6 1397.49  163.24   1
   9  -2   6 1217.97  142.62   1
  -2  -9  -7   68.54   81.19   1
  -2  -9  -7   78.24   96.49   1
   9  -2   7   85.67   79.69   1
  -2  -9  -8  532.25  107.68   1
  -2  -9  -8  483.12  128.32   1
   9  -2   8  479.25  105.04   1
  -9   1   0  138.40   75.43   1
   9  -1   0  157.42   87.32   1
  -9   1  -1 2012.28  156.55   1
  -9   1   1 1954.74  156.72   1
  -1  -9  -1 2205.84  172.02   1
   9  -1  -1 2111.57  183.18   1
   9  -1   1 2148.68  181.75   1
  -9   1  -2 2501.32  166.16   1
  -9   1   2 2342.01  163.71   1
  -1  -9  -2 2397.38  175.87   1
   9  -1  -2 2813.48  198.97   1
   9  -1   2 2742.21  192.94   1
  -9   1  -3   72.06   70.05   1
  -9   1   3   73.04   68.45   1
  -1  -9  -3   41.35   75.98   1
   9  -1  -3   61.60   85.65   1
   9  -1   3   86.57   83.37   1
  -9   1  -4  889.99  109.61   1
  -9   1   4  808.82  112.97   1
  -1  -9  -4 1058.07  138.50   1
   9  -1  -4 1173.54  150.00   1
   9  -1   4 1012.49  139.39   1
  -9   1  -5 1162.33  131.70   1
  -9   1   5 1243.44  137.93   1
  -1  -9  -5 1253.91  154.28   1
   9  -1  -5 1566.08  168.35   1
   9  -1   5 1277.49  149.62   1
  -9   1   6 1036.95  129.43   1
  -1  -9  -6 1105.74  140.28   1
   9  -1  -6 1274.04  151.72   1
   9  -1   6 1193.25  146.41   1
  -1  -9  -7  391.04  107.11   1
   9  -1  -7  434.65  110.15   1
   9  -1   7  393.15  100.59   1
  -1  -9  -8  185.31   93.71   1
   1   9  -8  247.56   81.75   1
   9  -1  -8  172.94   92.10   1
   9  -1   8  214.24   87.12   1
  -1  -9  -9 2802.87  180.55   1
   1   9  -9 3176.64  198.61   1
   9  -1   9 3021.68  189.56   1
  -9   0   0   44.14   67.91   1
   9   0   0   53.10   78.72   1
  -9   0  -1   47.58   70.82   1
  -9   0   1   91.76   72.65   1
   9   0  -1   61.81   83.74   1
   9   0   1   55.45   77.36   1
  -9   0  -2  129.45   76.00   1
  -9   0   2   30.86   65.89   1
   0  -9  -2  141.91  100.01   1
   9   0  -2   80.71   86.00   1
   9   0   2   51.35   79.58   1
  -9   0  -3 1004.33  117.04   1
  -9   0   3  866.46  113.48   1
   0  -9  -3 1064.01  136.54   1
   9   0  -3 1070.75  149.92   1
   9   0   3 1015.52  135.20   1
  -9   0  -4  256.11   79.91   1
  -9   0   4  216.73   79.42   1
   0  -9  -4  254.17   92.41   1
   9   0  -4  276.11  104.33   1
   9   0   4  255.21   91.89   1
  -9   0  -5  553.87   93.03   1
  -9   0   5  511.37   99.89   1
   0  -9  -5  598.24  115.45   1
   9   0  -5  671.91  128.23   1
   9   0   5  527.07  104.76   1
  -9   0   6 1464.71  143.06   1
   0  -9  -6 1453.36  158.73   1
   0   9  -6 1624.28  145.42   1
   9   0  -6 1474.46  180.28   1
   9   0   6 1565.30  157.98   1
  -9   0   7   71.58   72.95   1
   0  -9  -7   83.76   82.35   1
   0   9  -7   77.97   69.68   1
   9   0  -7  130.02   97.38   1
   9   0   7   38.83   72.41   1
  -9   0   8  478.49  102.77   1
   0  -9  -8  481.38  109.60   1
   0   9  -8  642.53  105.89   1
   9   0  -8  532.03  115.57   1
   9   0   8  537.86  105.30   1
   0  -9  -9  318.03   99.89   1
   0   9  -9  418.35   95.66   1
   9   0  -9  390.73  111.19   1
   9   0   9  331.63   95.81   1
  -9  -1   0  164.20   76.94   1
   9   1   0  306.41  101.40   1
  -9  -1  -1 2182.04  160.88   1
  -9  -1   1 2058.51  158.11   1
   9   1  -1 2195.30  184.13   1
   9   1   1 2280.41  180.88   1
  -9  -1  -2 2526.59  163.82   1
  -9  -1   2 2343.89  166.51   1
   9   1  -2 2727.27  202.75   1
   9   1   2 2552.05  185.33   1
  -9  -1  -3   79.14   70.75   1
  -9  -1   3   62.87   69.75   1
  -9  -1   3   84.88   81.77   1
   9   1  -3   86.25   90.70   1
   9   1   3   -3.38   66.27   1
  -9  -1  -4  981.46  112.41   1
  -9  -1   4  986.13  124.25   1
  -9  -1   4  866.34  125.46   1
   1  -9  -4  881.82  123.94   1
   9   1  -4 1305.81  167.50   1
   9   1   4  963.17  133.24   1
  -9  -1  -5 1132.42  129.14   1
  -9  -1   5 1182.30  139.17   1
  -9  -1   5  976.35  129.22   1
  -1   9  -5 1251.40  136.09   1
   1  -9  -5 1253.72  147.48   1
   9   1  -5 1259.57  159.31   1
   9   1   5 1178.56  143.95   1
   9   1   5 1191.49  142.98   1
  -9  -1   6  945.86  118.34   1
  -9  -1   6 1047.57  132.33   1
  -1   9  -6 1184.64  137.54   1
   1  -9  -6 1221.14  148.77   1
   9   1  -6 1137.31  155.62   1
   9   1   6 1092.96  128.81   1
   9   1   6 1042.25  131.38   1
  -9  -1   7  296.91   81.86   1
  -9  -1   7  319.41   99.28   1
  -1   9  -7  511.58  101.70   1
   1  -9  -7  348.96  100.97   1
   9   1  -7  392.51  119.95   1
   9   1   7  421.81   99.63   1
   9   1   7  328.65   89.77   1
  -9  -1   8  202.31   91.43   1
  -1   9  -8  186.38   81.38   1
   1  -9  -8  206.15   92.93   1
   9   1  -8  196.44  103.46   1
   9   1   8  218.18   87.98   1
  -9  -1   9 2734.65  229.02   1
  -1   9  -9 3333.80  186.88   1
   1  -9  -9 2884.38  180.13   1
   9   1  -9 3125.30  214.11   1
  -9  -2   0   23.54   65.59   1
  -9  -2   0    6.77   78.42   1
   2  -9   0   43.34   87.42   1
   9   2   0   19.51   71.98   1
  -9  -2  -1   52.55   68.62   1
  -9  -2  -1   42.18   90.89   1
  -9  -2   1   64.69   71.04   1
  -9  -2   1   84.35   84.22   1
   2  -9  -1  117.75   95.23   1
   2  -9   1  169.44   93.87   1
   9   2  -1  102.27   83.86   1
   9   2   1  122.38   79.24   1
  -9  -2  -2   28.51   69.06   1
  -9  -2   2   91.86   71.50   1
  -9  -2   2  124.70   86.22   1
   2  -9  -2   33.05   85.80   1
   2  -9   2   63.40   87.67   1
   9   2  -2    9.63   81.50   1
   9   2   2   43.71   72.01   1
   9   2   2   64.40   71.58   1
  -9  -2  -3  799.29  106.50   1
  -9  -2   3  802.50  113.93   1
  -9  -2   3  892.34  131.21   1
  -2   9  -3  980.28  133.31   1
   2  -9  -3 1023.73  141.39   1
   2  -9   3 1033.42  136.41   1
   9   2  -3 1052.60  147.69   1
   9   2   3  831.66  116.43   1
   9   2   3  794.68  118.28   1
  -9  -2  -4  187.55   76.23   1
  -9  -2   4  162.77   74.48   1
  -9  -2   4  152.01   92.63   1
  -2   9  -4  255.23   79.66   1
   2  -9  -4  236.20  103.24   1
   2  -9   4  139.36   91.28   1
   9   2  -4  230.99  104.07   1
   9   2   4  315.50   93.07   1
   9   2   4  221.17   79.95   1
  -9  -2   5  469.79   94.88   1
  -9  -2   5  569.65  113.93   1
  -2   9  -5  592.52  101.51   1
   2  -9  -5  517.26  118.41   1
   2  -9   5  701.87  149.69   1
   9   2  -5  726.91  136.94   1
   9   2   5  581.45  108.81   1
  -9  -2   6 1317.62  135.78   1
  -9  -2   6 1316.20  150.33   1
  -2   9  -6 1362.84  144.35   1
   2  -9  -6 1289.71  143.09   1
   2  -9  -6 1476.88  162.01   1
   9   2  -6 1384.19  167.66   1
   9   2   6 1369.06  151.64   1
  -9  -2   7   36.62   62.73   1
  -9  -2   7  -24.04   78.76   1
  -2   9  -7   77.07   76.14   1
   2  -9  -7  131.77   80.04   1
   9   2  -7   23.95   90.36   1
   9   2   7   26.69   74.54   1
  -9  -2   8  420.96  104.06   1
  -2   9  -8  506.34   99.58   1
   2  -9  -8  424.82   99.83   1
   9   2  -8  466.57  118.27   1
   9   2   8  471.46  100.71   1
  -9  -3   0  179.55   80.42   1
  -9  -3   0  251.28  100.05   1
   3  -9   0  165.96   92.64   1
   9   3   0  138.83   79.28   1
  -9  -3  -1 1847.59  149.71   1
  -9  -3  -1 1955.20  179.11   1
  -9  -3   1 1851.94  152.98   1
  -9  -3   1 1864.55  173.32   1
   3  -9  -1 2071.12  175.56   1
   3  -9   1 2191.25  178.34   1
   9   3  -1 2122.53  173.88   1
   9   3   1 2073.88  159.59   1
  -9  -3  -2 2051.41  152.84   1
  -9  -3  -2 2192.62  177.67   1
  -9  -3   2 2210.06  162.50   1
  -9  -3   2 1950.77  176.26   1
   3  -9  -2 2252.75  180.76   1
   3  -9   2 2543.33  181.93   1
   9   3  -2 2342.66  184.99   1
   9   3   2 2342.14  169.23   1
  -9  -3  -3   27.67   67.42   1
  -9  -3  -3   93.98   86.77   1
  -9  -3   3   30.26   68.16   1
  -9  -3   3   78.22   85.24   1
  -3   9  -3   59.27   65.54   1
   3  -9  -3   48.78   88.16   1
   3  -9   3   48.60   86.36   1
   9   3  -3  117.72   90.44   1
   9   3   3   48.85   74.03   1
  -9  -3  -4  653.24   96.76   1
  -9  -3   4  749.04  108.91   1
  -9  -3   4  821.95  128.97   1
  -3   9  -4 1056.13  122.43   1
   3  -9  -4  859.91  135.37   1
   3  -9   4  884.26  132.60   1
   9   3  -4  959.16  146.96   1
   9   3   4  810.69  118.92   1
  -9  -3   5 1156.03  133.57   1
  -9  -3   5  889.45  129.11   1
  -3   9  -5 1173.89  134.34   1
   3  -9  -5 1148.38  146.35   1
   3  -9   5 1175.23  141.22   1
   9   3  -5 1473.64  169.86   1
   9   3   5 1179.52  144.60   1
  -9  -3   6  902.18  112.81   1
  -9  -3   6  887.77  130.18   1
  -3   9  -6 1022.28  121.64   1
   3  -9  -6  979.06  132.68   1
   3  -9   6 1165.52  144.13   1
   9   3  -6 1300.68  163.37   1
   9   3   6  885.36  122.46   1
  -9  -3   7  318.22  102.72   1
  -3   9  -7  335.88   92.69   1
   9   3  -7  356.57  114.11   1
   9   3   7  313.07  107.05   1
  -9  -4   0   46.29   68.04   1
  -9  -4   0   49.51   85.44   1
   4  -9   0   -4.50   72.77   1
   9   4   0   26.46   70.61   1
  -9  -4  -1   98.48   70.12   1
  -9  -4  -1   49.90   83.92   1
  -9  -4   1   64.48   70.25   1
  -9  -4   1   59.82   85.00   1
   4  -9  -1   91.38   80.13   1
   4  -9   1   68.24   83.16   1
   9   4  -1  107.33   78.72   1
   9   4   1  118.14   78.99   1
  -9  -4  -2   64.13   68.74   1
  -9  -4  -2   85.79   85.62   1
  -9  -4   2   72.46   70.21   1
  -9  -4   2   44.62   80.96   1
  -4   9  -2   75.69   64.29   1
   4  -9  -2   67.35   77.13   1
   4  -9   2   48.77   81.24   1
   9   4  -2   31.48   84.77   1
   9   4   2   70.80   72.78   1
  -9  -4  -3  639.69   95.75   1
  -9  -4  -3  704.71  127.05   1
  -9  -4   3  640.94  101.60   1
  -9  -4   3  633.57  117.25   1
  -4   9  -3  911.24  111.68   1
   4  -9  -3  904.85  132.54   1
   4  -9   3  844.76  128.62   1
   9   4   3  901.24  124.99   1
  -9  -4   4  195.07   77.81   1
  -9  -4   4  297.88   95.27   1
  -4   9  -4  160.91   74.26   1
   4  -9  -4  180.36  100.32   1
   4  -9   4  223.66   95.68   1
   9   4   4  225.96   93.69   1
 -10   1   0   21.79   65.86   1
  10  -1   0   10.99   75.88   1
 -10   1  -1   53.13   75.90   1
 -10   1   1   50.65   66.13   1
  10  -1  -1  143.85  104.62   1
  10  -1   1   50.83   81.31   1
 -10   1   2   55.61   71.71   1
  10  -1   2   41.29   90.52   1
 -10   0   0 3314.24  172.02   1
  10   0   0 4001.22  202.92   1
 -10   0  -1  115.67   70.97   1
 -10   0   1  120.42   70.62   1
  10   0  -1  111.94   81.05   1
  10   0   1  137.74   78.09   1
 -10   0   2   40.07   66.41   1
  10   0  -2  129.78   84.09   1
  10   0   2   94.73   75.64   1
 -10   0   3 1918.29  176.79   1
  10   0   3 2550.18  230.59   1
 -10  -1   0   -6.35   64.77   1
  10   1   0  -25.13   66.34   1
 -10  -1  -1   58.04   78.11   1
 -10  -1   1   82.04   72.17   1
  10   1  -1  100.03   80.80   1
  10   1   1   62.44   69.71   1
 -10  -1   2   59.51   76.53   1
  10   1  -2  110.99   89.63   1
  10   1   2   27.90   83.39   1
   0   0   0    0.00    0.00   0
  -1   1   0 2027.19   81.43   1
   1  -1   0 2203.29  100.34   1
;
_shelx_hkl_checksum              55987
loop_
_space_group_symop_operation_xyz
'x, y, z'
'-x+1/2, -y+1/2, -z'
'-y+1/2, x+1/2, z'
'-x, -y, z'
'y+1/2, -x+1/2, z'
'y, -x, -z'
'-y, x, -z'
'x+1/2, -y+1/2, -z'
'-x+1/2, y+1/2, -z'
'y, x, -z'
'-y, -x, -z'
'x+1/2, y+1/2, -z'
'-x, y, z'
'x, -y, z'
'-y+1/2, -x+1/2, z'
'y+1/2, x+1/2, z'
loop_
_atom_site_label
_atom_site_type_symbol
_atom_site_fract_x
_atom_site_fract_y
_atom_site_fract_z
_atom_site_U_iso_or_equiv
_atom_site_adp_type
_atom_site_occupancy
_atom_site_site_symmetry_order
_atom_site_calc_flag
_atom_site_refinement_flags_posn
_atom_site_refinement_flags_adp
_atom_site_refinement_flags_occupancy
_atom_site_disorder_assembly
_atom_site_disorder_group
Bi01 Bi 0.0000 0.0000 0.0000 0.00404(5) Uani 1 8 d S T P . .
Gd01 Gd 0.0000 0.5000 0.28294(3) 0.00324(5) Uani 1 8 d S T P . .
Te01 Te 0.0000 0.5000 0.62710(4) 0.00320(6) Uani 1 8 d S T P . .
loop_
_atom_site_aniso_label
_atom_site_aniso_U_11
_atom_site_aniso_U_22
_atom_site_aniso_U_33
_atom_site_aniso_U_23
_atom_site_aniso_U_13
_atom_site_aniso_U_12
Bi01 0.00370(5) 0.00370(5) 0.00471(8) 0.000 0.000 0.000
Gd01 0.00305(6) 0.00305(6) 0.00361(10) 0.000 0.000 0.000
Te01 0.00285(7) 0.00285(7) 0.00389(12) 0.000 0.000 0.000
loop_
_atom_type_symbol
_atom_type_description
_atom_type_scat_dispersion_real
_atom_type_scat_dispersion_imag
_atom_type_scat_source
Bi Bi -4.1077 10.2566 'International Tables Vol C Tables 4.2.6.8 and 6.1.1.4'
Gd Gd -0.1653 3.9035 'International Tables Vol C Tables 4.2.6.8 and 6.1.1.4'
Te Te -0.5308 1.6751 'International Tables Vol C Tables 4.2.6.8 and 6.1.1.4'
loop_
_geom_angle_atom_site_label_1
_geom_angle_atom_site_label_2
_geom_angle_atom_site_label_3
_geom_angle
_geom_angle_site_symmetry_1
_geom_angle_site_symmetry_3
_geom_angle_publ_flag
Bi01 Bi01 Bi01 180.0 2 2_445 ?
Bi01 Bi01 Bi01 90.000(1) 2 2_455 ?
Bi01 Bi01 Bi01 90.000(1) 2_445 2_455 ?
Bi01 Bi01 Bi01 90.000(1) 2 2_545 ?
Bi01 Bi01 Bi01 90.000(1) 2_445 2_545 ?
Bi01 Bi01 Bi01 180.0 2_455 2_545 ?
Bi01 Bi01 Gd01 116.954(2) 2 2_455 ?
Bi01 Bi01 Gd01 63.046(2) 2_445 2_455 ?
Bi01 Bi01 Gd01 63.046(2) 2_455 2_455 ?
Bi01 Bi01 Gd01 116.954(2) 2_545 2_455 ?
Bi01 Bi01 Gd01 63.046(2) 2 2 ?
Bi01 Bi01 Gd01 116.954(2) 2_445 2 ?
Bi01 Bi01 Gd01 116.954(2) 2_455 2 ?
Bi01 Bi01 Gd01 63.046(2) 2_545 2 ?
Gd01 Bi01 Gd01 79.738(6) 2_455 2 ?
Bi01 Bi01 Gd01 116.954(2) 2 1_545 ?
Bi01 Bi01 Gd01 63.046(2) 2_445 1_545 ?
Bi01 Bi01 Gd01 116.954(2) 2_455 1_545 ?
Bi01 Bi01 Gd01 63.046(2) 2_545 1_545 ?
Gd01 Bi01 Gd01 126.091(3) 2_455 1_545 ?
Gd01 Bi01 Gd01 126.091(3) 2 1_545 ?
Bi01 Bi01 Gd01 63.046(2) 2 . ?
Bi01 Bi01 Gd01 116.954(2) 2_445 . ?
Bi01 Bi01 Gd01 63.046(2) 2_455 . ?
Bi01 Bi01 Gd01 116.954(2) 2_545 . ?
Gd01 Bi01 Gd01 126.091(3) 2_455 . ?
Gd01 Bi01 Gd01 126.091(3) 2 . ?
Gd01 Bi01 Gd01 79.738(6) 1_545 . ?
Te01 Gd01 Te01 74.935(7) . 2_566 ?
Te01 Gd01 Te01 74.935(8) . 2_456 ?
Te01 Gd01 Te01 149.870(15) 2_566 2_456 ?
Te01 Gd01 Te01 74.935(7) . 2_466 ?
Te01 Gd01 Te01 86.126(4) 2_566 2_466 ?
Te01 Gd01 Te01 86.126(4) 2_456 2_466 ?
Te01 Gd01 Te01 74.935(7) . 2_556 ?
Te01 Gd01 Te01 86.126(4) 2_566 2_556 ?
Te01 Gd01 Te01 86.126(4) 2_456 2_556 ?
Te01 Gd01 Te01 149.870(15) 2_466 2_556 ?
Te01 Gd01 Bi01 140.131(3) . . ?
Te01 Gd01 Bi01 129.583(7) 2_566 . ?
Te01 Gd01 Bi01 76.219(6) 2_456 . ?
Te01 Gd01 Bi01 129.583(7) 2_466 . ?
Te01 Gd01 Bi01 76.219(6) 2_556 . ?
Te01 Gd01 Bi01 140.131(3) . 2_455 ?
Te01 Gd01 Bi01 129.583(7) 2_566 2_455 ?
Te01 Gd01 Bi01 76.219(6) 2_456 2_455 ?
Te01 Gd01 Bi01 76.219(6) 2_466 2_455 ?
Te01 Gd01 Bi01 129.583(7) 2_556 2_455 ?
Bi01 Gd01 Bi01 53.908(3) . 2_455 ?
Te01 Gd01 Bi01 140.131(3) . 1_565 ?
Te01 Gd01 Bi01 76.219(6) 2_566 1_565 ?
Te01 Gd01 Bi01 129.583(7) 2_456 1_565 ?
Te01 Gd01 Bi01 76.219(6) 2_466 1_565 ?
Te01 Gd01 Bi01 129.583(7) 2_556 1_565 ?
Bi01 Gd01 Bi01 79.738(5) . 1_565 ?
Bi01 Gd01 Bi01 53.908(3) 2_455 1_565 ?
Te01 Gd01 Bi01 140.131(3) . 2 ?
Te01 Gd01 Bi01 76.219(6) 2_566 2 ?
Te01 Gd01 Bi01 129.583(7) 2_456 2 ?
Te01 Gd01 Bi01 129.583(7) 2_466 2 ?
Te01 Gd01 Bi01 76.219(6) 2_556 2 ?
Bi01 Gd01 Bi01 53.908(3) . 2 ?
Bi01 Gd01 Bi01 79.738(6) 2_455 2 ?
Bi01 Gd01 Bi01 53.908(3) 1_565 2 ?
Gd01 Te01 Gd01 105.066(7) . 2_566 ?
Gd01 Te01 Gd01 105.066(8) . 2_456 ?
Gd01 Te01 Gd01 149.868(15) 2_566 2_456 ?
Gd01 Te01 Gd01 105.066(7) . 2_556 ?
Gd01 Te01 Gd01 86.126(4) 2_566 2_556 ?
Gd01 Te01 Gd01 86.126(4) 2_456 2_556 ?
Gd01 Te01 Gd01 105.066(7) . 2_466 ?
Gd01 Te01 Gd01 86.126(4) 2_566 2_466 ?
Gd01 Te01 Gd01 86.126(4) 2_456 2_466 ?
Gd01 Te01 Gd01 149.868(15) 2_556 2_466 ?
loop_
_geom_bond_atom_site_label_1
_geom_bond_atom_site_label_2
_geom_bond_distance
_geom_bond_site_symmetry_2
_geom_bond_publ_flag
Bi01 Bi01 3.09048(3) 2 ?
Bi01 Bi01 3.09048(3) 2_445 ?
Bi01 Bi01 3.09048(3) 2_455 ?
Bi01 Bi01 3.09048(3) 2_545 ?
Bi01 Gd01 3.4090(2) 2_455 ?
Bi01 Gd01 3.4090(2) 2 ?
Bi01 Gd01 3.4090(2) 1_545 ?
Bi01 Gd01 3.4090(2) . ?
Gd01 Te01 3.1827(4) . ?
Gd01 Te01 3.20048(12) 2_566 ?
Gd01 Te01 3.20048(12) 2_456 ?
Gd01 Te01 3.20048(12) 2_466 ?
Gd01 Te01 3.20048(12) 2_556 ?
Gd01 Bi01 3.4090(2) 2_455 ?
Gd01 Bi01 3.4090(2) 1_565 ?
Gd01 Bi01 3.4090(2) 2 ?
Te01 Gd01 3.20049(12) 2_566 ?
Te01 Gd01 3.20049(12) 2_456 ?
Te01 Gd01 3.20049(12) 2_556 ?
Te01 Gd01 3.20049(12) 2_466 ?
