#------------------------------------------------------------------------------
#$Date: 2020-06-09 01:28:09 +0300 (Tue, 09 Jun 2020) $
#$Revision: 253012 $
#$URL: file:///home/coder/svn-repositories/cod/cif/4/00/35/4003572.cif $
#------------------------------------------------------------------------------
#
# This file is available in the Crystallography Open Database (COD),
# http://www.crystallography.net/
#
# All data on this site have been placed in the public domain by the
# contributors.
#
data_4003572
loop_
_publ_author_name
'Yamaguchi, Yuji'
'Kojiguchi, Yuka'
'Kawata, So'
'Mori, Tatsuya'
'Okamoto, Kazuo'
'Tsutsui, Masanori'
'Koganezawa, Tomoyuki'
'Katagiri, Hiroshi'
'Yasuda, Takuma'
_publ_section_title
;
 Solution-Processable Organic Semiconductors Featuring S-Shaped
 Dinaphthothienothiophene (S-DNTT): Effects of Alkyl Chain Length on
 Self-Organization and Carrier Transport Properties
;
_journal_name_full               'Chemistry of Materials'
_journal_paper_doi               10.1021/acs.chemmater.0c01740
_journal_year                    2020
_chemical_formula_sum            'C34 H36 S2'
_chemical_formula_weight         508.75
_chemical_name_common            S-DNTT-6
_space_group_crystal_system      triclinic
_space_group_IT_number           2
_space_group_name_Hall           '-P 1'
_space_group_name_H-M_alt        'P -1'
_atom_sites_solution_hydrogens   geom
_audit_creation_method           SHELXL-2016/6
_cell_angle_alpha                82.946(9)
_cell_angle_beta                 77.081(8)
_cell_angle_gamma                80.005(6)
_cell_formula_units_Z            1
_cell_length_a                   7.2092(4)
_cell_length_b                   8.5332(8)
_cell_length_c                   11.1656(14)
_cell_measurement_reflns_used    2662
_cell_measurement_temperature    123(2)
_cell_measurement_theta_max      29.0710
_cell_measurement_theta_min      2.8940
_cell_volume                     656.80(11)
_computing_structure_refinement  'SHELXL-2016/6 (Sheldrick, 2016)'
_diffrn_ambient_temperature      123(2)
_diffrn_measured_fraction_theta_full 0.998
_diffrn_measured_fraction_theta_max 0.998
_diffrn_measurement_device_type  'XtaLAB AFC10 (RCD3): fixed-chi single'
_diffrn_radiation_type           MoK\a
_diffrn_radiation_wavelength     0.71073
_diffrn_reflns_av_R_equivalents  0.0587
_diffrn_reflns_av_unetI/netI     0.0534
_diffrn_reflns_Laue_measured_fraction_full 0.998
_diffrn_reflns_Laue_measured_fraction_max 0.998
_diffrn_reflns_limit_h_max       8
_diffrn_reflns_limit_h_min       -8
_diffrn_reflns_limit_k_max       10
_diffrn_reflns_limit_k_min       -10
_diffrn_reflns_limit_l_max       12
_diffrn_reflns_limit_l_min       -13
_diffrn_reflns_number            8713
_diffrn_reflns_point_group_measured_fraction_full 0.998
_diffrn_reflns_point_group_measured_fraction_max 0.998
_diffrn_reflns_theta_full        24.993
_diffrn_reflns_theta_max         24.993
_diffrn_reflns_theta_min         2.941
_exptl_absorpt_coefficient_mu    0.225
_exptl_crystal_colour            Colorless
_exptl_crystal_density_diffrn    1.286
_exptl_crystal_description       plate
_exptl_crystal_F_000             272
_refine_diff_density_max         0.705
_refine_diff_density_min         -0.708
_refine_diff_density_rms         0.092
_refine_ls_extinction_method     none
_refine_ls_goodness_of_fit_ref   1.088
_refine_ls_hydrogen_treatment    constr
_refine_ls_matrix_type           full
_refine_ls_number_parameters     164
_refine_ls_number_reflns         2306
_refine_ls_number_restraints     0
_refine_ls_restrained_S_all      1.088
_refine_ls_R_factor_all          0.0703
_refine_ls_R_factor_gt           0.0613
_refine_ls_shift/su_max          0.000
_refine_ls_shift/su_mean         0.000
_refine_ls_structure_factor_coef Fsqd
_refine_ls_weighting_details
'w=1/[\s^2^(Fo^2^)+(0.1009P)^2^+0.2332P] where P=(Fo^2^+2Fc^2^)/3'
_refine_ls_weighting_scheme      calc
_refine_ls_wR_factor_gt          0.1551
_refine_ls_wR_factor_ref         0.1613
_reflns_Friedel_coverage         0.000
_reflns_number_gt                2035
_reflns_number_total             2306
_reflns_threshold_expression     'I > 2\s(I)'
_cod_data_source_file            cm0c01740_si_003.cif
_cod_data_source_block           S-DNTT-6
_cod_database_code               4003572
_shelx_shelxl_version_number     2016/6
_shelx_space_group_comment
;
The symmetry employed for this shelxl refinement is uniquely defined
by the following loop, which should always be used as a source of
symmetry information in preference to the above space-group names.
They are only intended as comments.
;
_shelx_res_file
;
TITL 6-21DNTT_a.res in P-1
    6-21DNTT.res
    created by SHELXL-2016/6 at 12:03:53 on 05-Jul-2019
REM  Yadorkari-X generated
CELL 0.71073 7.2092 8.5332 11.1656 82.9460 77.0810 80.0050
ZERR 1.0 0.0004 0.0008 0.0014 0.0090 0.0080 0.0060
LATT 1
REM  SPGR P-1 triclinic
SFAC C H S
UNIT 34 36 2
TEMP -150.0
L.S. 20
FMAP 2
PLAN -20
ACTA
CONF
LIST 4
BOND $H
OMIT -10.000000 50.000000
OMIT    1    0    0
OMIT    1    0    1

WGHT    0.100900    0.233200
FVAR       1.05753
S001  3    0.757021   -0.088299    0.057959    11.00000    0.01219    0.02039 =
         0.03284   -0.00347   -0.01356    0.00834
C002  1    0.506143    0.175574    0.077000    11.00000    0.01130    0.02044 =
         0.02557   -0.00067   -0.00709    0.00383
C003  1    0.182490    1.040238    0.349259    11.00000    0.01652    0.02170 =
         0.02915   -0.00174   -0.00959    0.00492
AFIX  23
H6    2    0.178914    1.109209    0.271500    11.00000   -1.20000
H7    2    0.047791    1.034075    0.392395    11.00000   -1.20000
AFIX   0
C004  1    0.180256    0.800060    0.237757    11.00000    0.01623    0.02122 =
         0.03196    0.00046   -0.00993    0.00559
AFIX  23
H8    2    0.046608    0.794383    0.283265    11.00000   -1.20000
H9    2    0.172865    0.873635    0.162605    11.00000   -1.20000
AFIX   0
C005  1    0.268970    0.636696    0.198261    11.00000    0.01720    0.02033 =
         0.02652    0.00090   -0.00765    0.00363
C006  1    0.423609    0.330041    0.115406    11.00000    0.01322    0.01884 =
         0.02520    0.00137   -0.00741    0.00533
C007  1    0.523051    0.405852    0.182302    11.00000    0.01445    0.02097 =
         0.02635   -0.00011   -0.00848    0.00314
C008  1    0.679833    0.101393    0.109183    11.00000    0.01350    0.02164 =
         0.02877    0.00019   -0.00902    0.00723
C009  1    0.778458    0.177360    0.175842    11.00000    0.01398    0.02273 =
         0.03484   -0.00409   -0.01285    0.00650
AFIX  43
H1    2    0.896668    0.125574    0.195964    11.00000   -1.20000
AFIX   0
C00A  1    0.441403    0.072471    0.009193    11.00000    0.01187    0.01970 =
         0.02563    0.00028   -0.00978    0.00608
C00B  1    0.281802    0.873299    0.317949    11.00000    0.01648    0.02258 =
         0.03189   -0.00168   -0.00874    0.00553
AFIX  23
H10   2    0.416351    0.878749    0.274160    11.00000   -1.20000
H11   2    0.285260    0.803520    0.395347    11.00000   -1.20000
AFIX   0
C00C  1    0.443376    0.558513    0.221622    11.00000    0.01587    0.02414 =
         0.03173   -0.00246   -0.01008    0.00178
AFIX  43
H2    2    0.511706    0.609095    0.265491    11.00000   -1.20000
AFIX   0
C00D  1    0.170880    0.557613    0.133297    11.00000    0.01383    0.02249 =
         0.03231   -0.00052   -0.01170    0.00734
AFIX  43
H3    2    0.049534    0.608428    0.117563    11.00000   -1.20000
AFIX   0
C00E  1    0.244116    0.411508    0.092601    11.00000    0.01842    0.02005 =
         0.03152   -0.00128   -0.01346    0.00302
AFIX  43
H4    2    0.174282    0.363152    0.048265    11.00000   -1.20000
AFIX   0
C00F  1    0.278657    1.117751    0.429222    11.00000    0.01641    0.02313 =
         0.03468   -0.00215   -0.01208    0.00521
AFIX  23
H12   2    0.413554    1.123898    0.386514    11.00000   -1.20000
H13   2    0.281226    1.049747    0.507510    11.00000   -1.20000
AFIX   0
C00G  1    0.701352    0.325563    0.210600    11.00000    0.01708    0.02783 =
         0.03235   -0.00281   -0.01285    0.00283
AFIX  43
H5    2    0.767607    0.377448    0.254957    11.00000   -1.20000
AFIX   0
C00H  1    0.177091    1.284850    0.458287    11.00000    0.02055    0.02421 =
         0.03232   -0.00406   -0.00944    0.00477
AFIX  23
H14   2    0.175312    1.352987    0.379989    11.00000   -1.20000
H15   2    0.041933    1.278746    0.500423    11.00000   -1.20000
AFIX   0
C00I  1    0.272235    1.362463    0.539123    11.00000    0.03297    0.03248 =
         0.04797   -0.01120   -0.01683    0.00370
AFIX 137
H16   2    0.276728    1.294714    0.616241    11.00000   -1.50000
H17   2    0.197912    1.467368    0.557594    11.00000   -1.50000
H18   2    0.403478    1.375403    0.495714    11.00000   -1.50000

AFIX   0
HKLF 4 1 1 0 0 0 1 0 0 0 1




REM  6-21DNTT_a.res in P-1
REM R1 =  0.0613 for    2035 Fo > 4sig(Fo)  and  0.0703 for all    2306 data
REM    164 parameters refined using      0 restraints

END

WGHT      0.1009      0.2332

REM Highest difference peak  0.705,  deepest hole -0.708,  1-sigma level  0.092
Q1    1   0.7260 -0.1789  0.1133  11.00000  0.05    0.71
Q2    1   0.7654  0.0227  0.0302  11.00000  0.05    0.62
Q3    1   0.8075 -0.0225 -0.0179  11.00000  0.05    0.61
Q4    1   0.7005 -0.0494  0.1367  11.00000  0.05    0.51
Q5    1   0.7764  0.2764  0.1470  11.00000  0.05    0.34
Q6    1   0.7407  0.1240  0.1450  11.00000  0.05    0.30
Q7    1   0.2437  0.5220  0.0695  11.00000  0.05    0.30
Q8    1   0.4427  0.2216  0.1460  11.00000  0.05    0.29
Q9    1   0.2653  1.0086  0.4669  11.00000  0.05    0.27
Q10   1   0.1728  0.4605  0.1631  11.00000  0.05    0.27
Q11   1   0.2035  0.8771  0.1974  11.00000  0.05    0.27
Q12   1   0.7049  0.2180  0.2485  11.00000  0.05    0.26
Q13   1   0.2289  0.9917  0.2965  11.00000  0.05    0.26
Q14   1   0.2224  1.0991  0.2773  11.00000  0.05    0.26
Q15   1   0.4984  0.2698  0.0616  11.00000  0.05    0.25
Q16   1   0.4366  0.0993  0.0814  11.00000  0.05    0.25
Q17   1   0.2253  0.6060  0.1577  11.00000  0.05    0.25
Q18   1   0.4536  0.4331  0.2507  11.00000  0.05    0.25
Q19   1   0.5275  0.5154  0.1406  11.00000  0.05    0.25
Q20   1   0.5402 -0.1260 -0.0403  11.00000  0.05    0.23
;
_shelx_res_checksum              75581
_shelx_hkl_file
;
   0   0  -2 41.6581 3.43696
   0   0   2 32.0475 3.49549
   0   0   2 37.1864 4.11554
   0   0   3 885.598 75.2163
   0   0  -3 1014.83 75.2978
   0   0  -3 922.262 75.1247
   0   0   3 1003.69 75.3713
   0   0  -3 1121.23 75.3525
   0   0  -3 1035.16 75.3902
   0   0  -4 6.23123 2.36478
   0   0  -4 7.22092 2.81620
   0   0  -4 4.21607 2.98815
   0   0   4 11.4643 3.81302
   0   0  -4 4.58987 3.38521
   0   0  -5 1.74306 2.54758
   0   0   5-0.13846 3.85196
   0   0  -5 3.23898 3.14555
   0   0   5 1.75330 3.32128
   0   0  -5 3.55528 3.45310
   0   0  -5 1.03290 3.26519
   0   0  -6 127.492 9.89126
   0   0  -6 119.017 9.97165
   0   0   6 112.622 9.90055
   0   0  -6 108.556 9.32952
   0   0  -6 111.022 10.2068
   0   0   6 91.4425 10.0713
   0   0   7 342.611 28.3117
   0   0  -7 356.378 28.3761
   0   0  -7 366.645 27.7334
   0   0  -7 343.511 28.1085
   0   0  -8 220.440 18.1941
   0   0  -8 213.438 18.5211
   0   0  -8 234.156 17.6699
   0   0   8 204.081 18.4084
   0   0   8 214.576 18.2362
   0   0   9 44.8816 6.43947
   0   0  -9 47.7660 6.55061
   0   0  -9 50.7222 7.06089
   0   0   9 44.9782 7.07141
   0   0  -9 50.6934 5.53988
   0   0 -10 12.4859 5.17023
   0   0 -10 8.13022 4.02622
   0   0 -10 3.04300 5.94846
   0   0 -11 11.9280 6.63649
   0   0 -11 6.95356 4.29422
   0   0 -11 5.24687 5.69496
   0   0 -12 4.93981 7.21963
   0   0 -12 19.1580 6.34492
   0   0 -13 2.05881 7.81095
   0   0 -13 6.04255 6.86702
   0   0 -14 8.14477 8.22054
   0   1 -14 24.1884 8.98995
   0   1 -13 21.1984 7.40036
   0   1 -13 19.7990 8.36301
   0   1 -12 254.262 21.7134
   0   1 -12 243.639 22.0228
   0   1 -11 4.88352 4.32646
   0   1 -11 10.7950 5.77224
   0   1 -11 7.15498 4.88675
   0   1 -11 12.3714 6.90137
   0   1 -10 97.7454 10.9522
   0   1 -10 114.620 11.8150
   0   1 -10 106.592 10.4142
   0   1 -10 123.709 10.1301
   0  -1   9 159.657 15.1513
   0   1  -9 188.017 16.0015
   0   1  -9 174.291 14.8370
   0   1  -9 183.634 15.3736
   0  -1   9 181.164 15.7256
   0   1  -8 152.385 13.6494
   0   1  -8 150.296 13.1839
   0   1  -8 158.326 14.2864
   0   1  -8 176.295 13.0208
   0  -1   8 149.702 13.5765
   0  -1   8 139.266 13.9800
   0  -1   7 36.1224 6.22928
   0   1  -7 52.1062 5.06630
   0   1  -7 41.1459 5.35442
   0  -1   7 38.6655 5.27539
   0   1  -7 36.9264 6.51357
   0   1  -7 45.3420 5.74188
   0  -1   7 49.0135 5.77378
   0   1  -6 125.469 10.0836
   0  -1   6 127.224 10.6490
   0  -1   6 109.109 9.92566
   0  -1   6 120.068 10.1761
   0   1  -6 102.474 9.79817
   0   1  -6 107.992 10.7027
   0  -1   5 232.084 17.1938
   0   1  -5 214.575 16.8387
   0  -1   5 189.109 17.0017
   0   1  -5 199.787 17.5325
   0  -1   5 207.499 17.4706
   0   1  -5 216.291 17.0904
   0   1  -5 216.213 16.9344
   0   1  -4 212.627 17.7819
   0  -1   4 227.593 17.8142
   0   1  -4 242.894 17.5088
   0  -1   4 228.651 17.5210
   0  -1   4 209.416 17.4384
   0   1  -4 198.792 17.2451
   0   1  -3 6544.87 497.927
   0  -1   3 6683.46 497.929
   0  -1   3 6478.31 498.015
   0   1  -3 6401.32 497.831
   0   1  -2 2755.34 205.662
   0  -1   2 2693.19 205.730
   0   1  -2 2613.23 205.736
   0  -1   2 2689.80 205.670
   0  -1   1 330.873 26.2903
   0   1  -1 350.081 26.3040
   0   1   1 6.42573 1.60620
   0   1   1 3.89321 1.59952
   0   1   1 3.81381 1.74926
   0  -1  -1 4.77221 1.19516
   0   1   1 5.64310 1.62971
   0   1   2 160.447 11.7318
   0   1   2 143.910 11.6082
   0  -1  -2 153.370 11.6719
   0  -1  -2 136.838 11.5576
   0   1   3 898.296 66.8820
   0  -1  -3 833.723 66.7971
   0  -1  -3 894.049 66.8834
   0   1   4 152.252 12.1138
   0   1   4 135.482 11.7336
   0  -1  -4 171.793 12.0823
   0  -1  -4 138.414 11.7724
   0   1   5 11.2628 3.93906
   0  -1  -5 15.0150 3.41309
   0  -1  -5 15.8603 3.51028
   0  -1  -5 18.5486 3.01006
   0   1   5 17.8989 3.17083
   0  -1  -6 42.0076 5.04918
   0  -1  -6 35.5893 4.70451
   0  -1  -6 32.2952 4.72751
   0  -1  -6 36.0163 4.15134
   0   1   6 34.5904 4.23964
   0   1   6 28.2481 5.03452
   0   1   7 2.34004 4.17330
   0   1   7 0.88464 3.61805
   0  -1  -7-2.44975 3.66855
   0  -1  -7 4.18462 3.15649
   0  -1  -7 4.60155 4.17943
   0  -1  -7 3.86226 3.67552
   0  -1  -8 20.3755 4.77049
   0   1   8 17.4285 4.91873
   0  -1  -8 12.1141 4.22160
   0  -1  -8 22.8426 3.89444
   0   1   8 13.0645 4.47819
   0  -1  -8 14.0069 4.97421
   0   1   9 18.0509 5.01656
   0  -1  -9 17.2102 4.94898
   0   1   9 11.3527 5.20151
   0  -1  -9 17.7079 4.07481
   0  -1  -9 13.6641 5.52944
   0  -1  -9 24.6100 5.49896
   0  -1 -10 44.7926 5.81373
   0  -1 -10 47.6818 6.75458
   0   1  10 37.6439 6.99150
   0  -1 -10 54.6554 7.50061
   0  -1 -11 46.5520 7.09154
   0  -1 -11 48.1819 7.68005
   0  -1 -11 39.1681 6.00742
   0  -1 -12 24.0419 7.47052
   0  -1 -12 27.8258 6.69725
   0  -1 -13 16.0514 7.00779
   0  -1 -13 16.6915 7.50943
   0  -1 -14-0.39689 7.62642
   0   2 -13 2.29618 8.16670
   0   2 -13 17.1453 7.55887
   0   2 -12 77.7022 9.52304
   0   2 -12 60.3650 10.3079
   0   2 -11 6.54596 6.04790
   0   2 -11 11.9280 7.72748
   0   2 -11 6.60870 4.97519
   0   2 -11 9.25581 4.37355
   0   2 -10-0.21498 4.24234
   0   2 -10 3.30380 5.43801
   0   2 -10 5.99679 4.13854
   0   2 -10 7.62500 7.09287
   0   2  -9 8.75040 6.81691
   0   2  -9-1.35204 4.95812
   0  -2   9 2.81721 4.46654
   0   2  -9 5.00012 3.94221
   0   2  -9 6.07498 4.04189
   0   2  -8 1.41541 3.65680
   0   2  -8-1.90880 5.90207
   0  -2   8-2.50435 4.52065
   0  -2   8-4.00075 4.00630
   0  -2   8 6.14888 5.16058
   0   2  -8 2.33633 3.71103
   0   2  -7 37.2006 7.17213
   0  -2   7 43.7338 5.81078
   0   2  -7 56.7916 5.55502
   0  -2   7 43.0309 6.02503
   0   2  -7 40.6913 5.83062
   0   2  -7 47.3011 5.31628
   0  -2   7 47.6323 6.69573
   0  -2   6 25.5327 5.50253
   0  -2   6 34.4435 4.80455
   0   2  -6 30.6950 4.59801
   0   2  -6 35.9605 4.29940
   0   2  -6 21.1817 5.69981
   0  -2   6 26.3508 4.81218
   0  -2   5 122.146 10.3048
   0   2  -5 116.819 9.88049
   0   2  -5 114.716 10.1469
   0  -2   5 115.796 10.2584
   0   2  -5 101.649 10.8176
   0  -2   5 114.430 10.5871
   0  -2   4 1340.12 112.333
   0  -2   4 1513.29 112.331
   0   2  -4 1533.49 112.330
   0   2  -3 388.735 30.0379
   0  -2   3 362.052 29.9096
   0  -2   3 400.723 30.1226
   0   2  -3 391.882 30.2143
   0  -2   2 4.55396 3.50640
   0   2  -2 6.14397 3.29620
   0   2  -2 10.2433 3.34335
   0   2  -1 314.719 22.8085
   0   2  -1 253.482 22.8911
   0   2  -1 315.512 23.2682
   0   2   0 93.3393 8.27596
   0  -2   0 86.1938 7.74299
   0  -2   0 93.2610 7.81946
   0  -2   0 87.4232 8.31954
   0   2   0 104.245 7.83658
   0  -2  -1 535.008 42.6821
   0   2   1 581.961 42.8794
   0  -2  -1 592.418 42.9176
   0  -2  -1 573.293 42.7172
   0   2   1 485.718 42.6691
   0   2   1 589.347 42.6925
   0   2   2 509.383 39.8916
   0   2   2 550.416 40.0123
   0  -2  -2 541.266 39.9940
   0  -2  -2 547.036 39.9400
   0   2   2 538.055 40.0571
   0   2   2 448.909 39.8778
   0  -2  -3 305.458 23.7557
   0  -2  -3 285.079 23.7617
   0   2   3 301.891 23.7201
   0  -2  -3 302.789 23.8279
   0   2   3 337.637 23.8992
   0  -2  -4 583.719 44.1418
   0   2   4 598.440 44.2193
   0   2   4 565.278 44.0771
   0  -2  -4 544.413 44.0477
   0   2   5 98.4892 8.90463
   0  -2  -5 103.835 9.04792
   0  -2  -5 104.313 8.84986
   0   2   5 100.786 8.67459
   0   2   5 106.059 9.10632
   0   2   6 184.797 15.4922
   0   2   6 175.977 15.4080
   0  -2  -6 194.753 15.5640
   0  -2  -6 202.319 15.4037
   0   2   6 183.944 15.0795
   0  -2  -7 14.6591 3.98671
   0   2   7 7.02580 3.28464
   0   2   7 7.38803 4.36756
   0   2   8 4.01821 3.55079
   0  -2  -8 4.57325 4.22893
   0   2   8 12.6753 4.85042
   0  -2  -8 8.09652 4.38116
   0   2   9 26.1426 4.90080
   0   2   9 18.2016 5.60671
   0  -2  -9 28.2627 5.65125
   0  -2  -9 30.5661 5.44404
   0  -2 -10 31.7066 6.53978
   0  -2 -10 44.3864 6.83482
   0  -2 -10 46.8444 6.73233
   0   2  10 41.9632 6.68246
   0  -2 -11 63.1280 8.84471
   0  -2 -11 62.3229 8.18443
   0  -2 -11 79.4369 8.89948
   0  -2 -11 48.5828 8.22883
   0  -2 -12 75.8558 9.68382
   0  -2 -12 81.0594 9.76275
   0  -2 -12 81.8226 10.1803
   0  -2 -13 35.5448 7.92902
   0  -2 -13 26.4386 7.51390
   0  -2 -13 41.2882 8.67633
   0  -2 -14 3.79773 7.53957
   0  -2 -15 22.2736 8.47892
   0   3 -13 46.4726 8.79985
   0   3 -13 31.0634 10.1309
   0   3 -12 48.5383 10.2999
   0   3 -12 46.5651 8.39940
   0   3 -11 68.4820 10.6014
   0   3 -11 62.5939 7.15266
   0   3 -11 55.1994 8.78003
   0  -3  11 69.1879 8.40840
   0   3 -10 27.3029 8.82223
   0   3 -10 36.7076 5.59917
   0  -3  10 40.0013 6.68661
   0   3 -10 38.3726 7.23180
   0   3  -9 23.7901 5.07692
   0   3  -9 25.8620 6.01101
   0  -3   9 21.0520 5.72464
   0   3  -9 28.2267 7.93497
   0  -3   8 7.73060 5.04516
   0  -3   8 7.91344 5.42713
   0   3  -8 26.7285 7.29783
   0   3  -8 14.9574 4.54144
   0   3  -8 19.5627 5.62061
   0   3  -8 18.8652 5.13534
   0  -3   7 350.420 26.6637
   0   3  -7 318.978 26.4393
   0   3  -7 382.981 26.8938
   0   3  -7 301.847 27.1043
   0  -3   7 297.101 26.4679
   0  -3   7 321.163 26.4952
   0  -3   6 3.36533 4.55415
   0   3  -6 4.76771 4.33022
   0  -3   6 5.95486 4.78853
   0   3  -6 13.1337 5.75391
   0   3  -6 5.65542 4.46036
   0  -3   5 131.611 12.3676
   0  -3   5 137.487 11.9551
   0   3  -5 156.138 12.2911
   0  -3   5 132.361 12.4056
   0   3  -5 149.382 12.4665
   0   3  -4 27.1266 4.94142
   0  -3   4 30.7432 4.64505
   0   3  -4 35.6076 5.15403
   0  -3   4 46.8599 5.47168
   0   3  -3 126.905 11.3812
   0  -3   3 125.606 11.3732
   0  -3   3 145.317 11.1881
   0   3  -3 125.769 11.2781
   0   3  -2 16.5679 4.79818
   0   3  -2 5.89578 3.58786
   0   3  -2 9.72144 3.18826
   0   3  -2 10.2800 4.15682
   0   3  -1 281.175 22.9236
   0   3  -1 286.746 23.4520
   0  -3   1 317.416 23.3874
   0   3   0 0.42729 3.82866
   0  -3   0 3.56510 2.70263
   0  -3   0 3.05132 4.08510
   0  -3   0 0.74020 2.73968
   0   3   0 2.61540 2.92841
   0   3   1 87.0993 7.33518
   0   3   1 84.0086 7.90946
   0  -3  -1 86.6064 8.11253
   0  -3  -1 72.2212 7.21122
   0   3   1 81.2072 7.30561
   0  -3  -1 88.4161 7.29654
   0  -3  -2 582.723 42.5382
   0   3   2 554.828 42.7418
   0   3   2 527.490 42.4340
   0   3   2 583.889 42.5364
   0  -3  -2 560.345 42.7370
   0  -3  -2 520.314 42.5045
   0   3   2 530.978 42.4901
   0  -3  -3 5.82763 3.07981
   0   3   3 4.57142 2.89190
   0   3   3 4.47584 3.15857
   0   3   3 9.85021 3.45243
   0  -3  -3 5.34187 2.41921
   0   3   3 5.66127 2.94743
   0   3   4 143.558 11.9068
   0   3   4 138.562 12.1283
   0  -3  -4 150.368 11.9429
   0  -3  -4 140.061 12.2315
   0  -3  -4 155.328 12.1209
   0  -3  -5 404.918 35.3763
   0  -3  -5 447.152 35.1572
   0   3   5 469.828 35.3346
   0   3   5 462.389 35.1432
   0  -3  -5 462.667 35.2371
   0  -3  -5 455.120 35.2416
   0  -3  -6 177.651 16.2572
   0   3   6 195.328 16.2141
   0  -3  -6 219.493 16.2474
   0   3   6 184.508 15.9662
   0   3   6 193.474 15.8547
   0  -3  -6 215.538 16.1317
   0   3   7 142.131 11.6271
   0  -3  -7 154.633 12.1239
   0   3   7 134.242 11.9031
   0  -3  -7 127.872 12.1148
   0   3   7 129.921 12.0392
   0  -3  -8 22.1719 5.27742
   0   3   8 18.0052 4.81527
   0   3   8 15.3837 4.64011
   0  -3  -8 24.2497 4.69463
   0   3   8 21.0237 4.29129
   0  -3  -9 80.3429 8.23638
   0  -3  -9 73.0850 7.72891
   0   3   9 63.6947 7.11380
   0   3   9 59.4148 7.72549
   0  -3  -9 72.7876 8.17893
   0   3  10 7.21332 4.46258
   0  -3 -10 0.27524 5.60547
   0   3  10 3.59753 5.27037
   0  -3 -10-1.00419 5.01997
   0  -3 -10 0.27940 5.56103
   0  -3 -11 5.34904 5.76728
   0   3  11 0.63873 5.02619
   0  -3 -11-1.23330 6.20169
   0  -3 -11 4.34928 6.37449
   0  -3 -12 597.532 46.7207
   0  -3 -12 572.048 46.4302
   0  -3 -13 275.687 23.9314
   0  -3 -13 273.951 23.5739
   0  -3 -14 31.9093 8.43447
   0  -4  12 27.8412 7.26953
   0   4 -12 7.13533 9.92427
   0   4 -12 21.4554 7.80071
   0   4 -11 83.7932 10.4869
   0   4 -11 79.4596 12.5795
   0  -4  11 83.2810 10.1803
   0   4 -10 183.604 14.2673
   0   4 -10 129.650 16.5102
   0  -4  10 165.696 15.2903
   0   4 -10 150.928 15.1601
   0   4  -9 230.237 17.3929
   0  -4   9 195.049 18.1105
   0   4  -9 187.370 19.4102
   0   4  -9 194.456 17.9539
   0  -4   8 35.2327 6.55423
   0  -4   8 28.7805 6.57028
   0   4  -8 32.1466 6.42616
   0   4  -8 28.8603 8.43468
   0  -4   7 79.9774 8.92019
   0   4  -7 64.3990 8.56633
   0  -4   7 79.6684 8.82591
   0   4  -7 87.6522 8.83934
   0  -4   6 30.6237 6.12253
   0   4  -6 33.5619 5.90718
   0  -4   6 30.9179 6.04074
   0   4  -6 36.0754 5.73219
   0  -4   6 30.9084 5.22778
   0  -4   5 33.0003 4.82659
   0   4  -5 22.2605 4.88950
   0  -4   5 17.5103 5.08237
   0   4  -4 164.168 12.9268
   0   4  -4 120.939 12.8009
   0   4  -4 139.151 13.7205
   0  -4   4 154.902 12.5693
   0   4  -3 83.0534 9.27390
   0   4  -3 80.7616 8.20942
   0   4  -3 76.1921 8.37116
   0  -4   3 76.4950 8.40720
   0   4  -3 88.5385 7.69829
   0   4  -2 296.297 23.2244
   0   4  -2 272.772 23.6612
   0  -4   2 272.006 23.6680
   0   4  -2 346.194 24.1715
   0   4  -1 56.6138 6.02277
   0   4  -1 60.6665 7.38652
   0  -4   1 71.1562 6.53604
   0  -4   1 53.5238 6.97455
   0   4   0 3035.89 227.953
   0   4   0 3153.86 227.556
   0  -4   0 2950.99 227.757
   0   4   0 2728.01 227.640
   0  -4   0 2987.97 227.578
   0  -4   0 2982.75 227.848
   0  -4  -1 1199.02 106.671
   0  -4  -1 1522.13 106.936
   0   4   1 1432.63 106.846
   0   4   1 1418.74 107.064
   0   4   1 1449.57 106.729
   0   4   2 122.254 9.90563
   0  -4  -2 125.715 10.6221
   0  -4  -2 116.032 9.87278
   0   4   2 100.817 9.83086
   0  -4  -2 114.310 9.87635
   0   4   2 118.611 10.4968
   0   4   3 547.028 42.2753
   0   4   3 577.291 42.3984
   0   4   3 574.413 42.6923
   0  -4  -3 560.855 42.4043
   0  -4  -3 505.334 42.3943
   0   4   3 533.010 42.3532
   0   4   3 529.535 42.4169
   0  -4  -4 419.642 32.2816
   0   4   4 404.895 32.3333
   0   4   4 411.686 32.1864
   0   4   4 442.323 32.5285
   0  -4  -4 389.106 32.3664
   0   4   4 410.550 32.1753
   0   4   5 147.384 11.7713
   0  -4  -5 139.729 12.2347
   0   4   5 122.790 11.9781
   0  -4  -5 152.938 11.8332
   0   4   5 140.818 12.0894
   0   4   6 273.525 23.2111
   0  -4  -6 307.128 23.0817
   0   4   6 299.112 23.0345
   0   4   6 264.432 23.1113
   0  -4  -6 300.273 23.2840
   0  -4  -6 292.954 23.4740
   0  -4  -7 332.826 27.5548
   0   4   7 335.908 27.0609
   0   4   7 297.710 27.2842
   0   4   7 344.978 27.0136
   0  -4  -7 363.757 27.1523
   0  -4  -7 376.546 27.4446
   0  -4  -8 599.522 41.8375
   0  -4  -8 543.715 41.8121
   0   4   8 511.343 41.4991
   0  -4  -8 552.682 41.5681
   0  -4  -8 470.821 41.8280
   0   4   8 513.425 41.3789
   0  -4  -9 154.548 13.0369
   0  -4  -9 133.742 12.9643
   0  -4  -9 142.171 12.6221
   0  -4  -9 144.828 12.1747
   0   4   9 126.681 12.3608
   0   4   9 136.682 12.1295
   0  -4 -10 550.035 42.6612
   0  -4 -10 580.340 42.4694
   0   4  10 528.141 42.2605
   0  -4 -10 574.179 42.9368
   0   4  10 476.872 42.4185
   0  -4 -11 95.8922 11.2353
   0  -4 -11 88.9734 10.8544
   0   4  11 109.059 10.3448
   0  -4 -11 124.213 11.6142
   0  -4 -11 111.699 10.1671
   0  -4 -12 9.26303 6.45993
   0   4  12 18.1379 5.98433
   0  -4 -12 12.1927 4.67198
   0  -4 -12 7.35598 7.13528
   0  -4 -13 0.38436 7.48002
   0  -4 -13 9.42669 6.98152
   0  -4 -13 7.47716 4.72389
   0  -4 -14 16.4181 7.79835
   0   5 -12 121.358 13.2221
   0  -5  12 118.706 13.1750
   0  -5  11 64.5658 9.67393
   0   5 -11 62.8296 12.6908
   0   5 -11 64.1578 9.48920
   0   5 -10 5.56819 6.33472
   0   5 -10 1.12688 9.74912
   0   5 -10-0.41771 5.12322
   0  -5  10 10.9556 6.68888
   0   5  -9 3.28879 6.04536
   0  -5   9 7.10516 6.35152
   0   5  -9-0.52378 8.98760
   0  -5   8 9.54659 6.24897
   0   5  -8 7.96562 6.02008
   0  -5   7 30.9729 6.86598
   0   5  -7 37.0368 6.76829
   0  -5   6 3.91129 4.70004
   0   5  -6 7.36419 5.04383
   0   5  -6 11.3891 5.61680
   0   5  -5 7.81288 5.17602
   0  -5   5 4.06682 4.41369
   0   5  -5 5.94355 4.16331
   0   5  -5 6.63787 7.05654
   0   5  -5 2.72624 4.69769
   0   5  -4 2.49277 6.53305
   0   5  -4 6.68283 3.93994
   0  -5   4 4.01995 5.14356
   0   5  -4 5.44176 4.89854
   0  -5   4 5.17680 4.11359
   0   5  -4 2.28293 4.15327
   0   5  -3 380.690 27.6558
   0   5  -3 309.144 28.2176
   0  -5   3 327.972 28.0373
   0   5  -3 346.546 27.8949
   0   5  -3 369.077 28.8231
   0   5  -2 1886.64 141.291
   0  -5   2 1688.09 140.875
   0   5  -2 1871.13 140.980
   0   5  -2 1879.73 140.534
   0  -5   1 160.450 13.3323
   0   5  -1 151.148 13.9196
   0  -5   1 150.228 13.5887
   0   5  -1 148.508 12.7267
   0   5   0 144.314 11.8012
   0  -5   0 138.057 12.1362
   0   5   0 146.789 12.8373
   0  -5   0 144.517 12.6668
   0   5   0 134.380 11.9119
   0  -5   0 133.095 11.8330
   0   5   1 10.3802 4.76668
   0   5   1 5.93992 3.44234
   0   5   1 5.45868 3.22496
   0  -5  -1 6.51198 3.34680
   0  -5  -1 5.72357 3.36608
   0  -5  -1 2.48312 4.71578
   0  -5  -2 5.26990 3.42713
   0   5   2 9.58747 4.69006
   0  -5  -2 11.6182 4.78127
   0   5   2 9.50083 3.35028
   0   5   2 3.64651 3.48447
   0  -5  -2 4.82227 3.18011
   0   5   3 52.7228 5.90764
   0   5   3 51.7500 5.69551
   0  -5  -3 54.5549 5.69158
   0   5   3 56.1296 5.75542
   0   5   3 53.0636 6.68885
   0  -5  -3 48.6838 5.87414
   0   5   4 3.98621 3.76219
   0  -5  -4 0.89981 3.00249
   0   5   4 2.42079 3.56844
   0  -5  -4 1.84392 3.54645
   0   5   4 0.39934 3.56940
   0   5   4 3.82153 4.36038
   0   5   5 125.268 11.0932
   0  -5  -5 120.309 11.3373
   0   5   5 118.690 11.2216
   0   5   5 135.177 11.0693
   0  -5  -5 142.938 11.2054
   0   5   5 128.091 11.6606
   0   5   6 73.6001 8.61203
   0  -5  -6 90.4226 8.90681
   0   5   6 96.3164 8.32558
   0   5   6 91.8226 8.90572
   0  -5  -6 93.0232 8.34704
   0  -5  -7 95.4071 9.36132
   0   5   7 91.4009 9.02930
   0   5   7 110.465 8.83575
   0  -5  -7 92.1508 8.57491
   0   5   7 69.4702 8.99223
   0  -5  -8 113.092 9.31606
   0   5   8 94.8339 9.33474
   0   5   8 88.7515 9.38737
   0  -5  -8 95.7024 10.1133
   0   5   8 100.034 9.36116
   0  -5  -9 4.96116 3.77863
   0  -5  -9 2.45393 5.49708
   0   5   9 4.65794 4.58779
   0   5   9 6.97785 4.31822
   0  -5  -9 1.84979 5.71421
   0  -5 -10 61.1681 6.69705
   0   5  10 65.7207 7.48698
   0   5  10 45.8867 6.92683
   0  -5 -10 45.4530 7.98248
   0  -5 -10 64.2854 8.30206
   0   5  11 25.3122 5.99811
   0  -5 -11 32.3771 7.47709
   0  -5 -11 26.9492 4.98880
   0  -5 -11 29.8025 7.23055
   0  -5 -12-0.71483 7.26854
   0  -5 -12 6.79819 6.97672
   0  -5 -12 9.78415 4.55264
   0  -5 -13 21.5593 8.52888
   0   6 -11 7.96129 7.26120
   0  -6  11 9.82713 7.64413
   0   6 -10 15.2483 7.08627
   0  -6  10 18.2337 7.69809
   0   6 -10 11.2568 10.8939
   0   6  -9 25.3449 7.19914
   0  -6   9 18.8375 7.55980
   0   6  -8 47.7593 8.25825
   0   6  -7 22.3607 6.76475
   0  -6   7 28.5449 6.24937
   0   6  -6 82.3060 10.0474
   0   6  -6 74.9189 11.7313
   0  -6   6 104.676 9.86740
   0   6  -6 83.0591 9.03252
   0   6  -5 63.7516 10.1438
   0   6  -5 59.6990 6.99134
   0   6  -5 62.5378 8.35385
   0  -6   5 55.5176 7.55340
   0  -6   4 134.334 13.1219
   0  -6   4 159.296 12.8402
   0   6  -4 127.030 14.2433
   0   6  -4 129.293 13.0763
   0   6  -4 136.086 12.1852
   0  -6   3 61.8042 8.57164
   0   6  -3 83.4892 9.82750
   0   6  -3 69.2887 7.23499
   0   6  -3 71.0669 8.69428
   0   6  -2 140.266 13.3732
   0  -6   2 128.614 12.5098
   0   6  -2 139.611 11.7085
   0   6  -2 134.803 12.7091
   0  -6   2 131.261 12.7628
   0  -6   1 151.196 14.4848
   0   6  -1 165.396 14.9978
   0  -6   1 169.328 14.2533
   0   6  -1 165.471 13.6078
   0   6  -1 156.364 13.9567
   0   6   0 225.543 17.3711
   0   6   0 209.093 17.4760
   0  -6   0 186.963 17.3541
   0   6   0 228.518 18.5144
   0  -6   0 207.917 17.7881
   0  -6   0 220.316 18.1024
   0   6   1 359.226 29.7681
   0  -6  -1 411.517 30.2602
   0  -6  -1 413.408 30.4953
   0  -6  -1 364.595 29.8779
   0   6   1 356.690 30.4657
   0   6   1 372.752 29.9561
   0   6   2 354.643 27.1119
   0   6   2 360.346 27.6661
   0  -6  -2 322.735 27.2256
   0  -6  -2 307.966 27.0127
   0  -6  -2 374.434 27.6721
   0   6   2 337.889 27.1472
   0   6   3 77.5100 8.97102
   0   6   3 81.6072 7.99553
   0  -6  -3 88.3954 8.20022
   0   6   3 81.4677 7.95204
   0  -6  -3 97.5168 9.00237
   0   6   3 73.7338 8.00630
   0  -6  -3 83.0400 8.11268
   0   6   4 313.411 24.3591
   0   6   4 279.434 24.4943
   0  -6  -4 310.436 24.6267
   0  -6  -4 305.500 24.6085
   0   6   4 307.148 24.5464
   0   6   4 321.313 25.0471
   0   6   5 263.005 18.7942
   0   6   5 211.625 18.7727
   0  -6  -5 223.554 19.0336
   0  -6  -5 223.990 18.8058
   0   6   5 211.989 18.6122
   0   6   5 230.609 18.7024
   0   6   5 241.443 19.3440
   0   6   6 4.08861 3.97881
   0   6   6 6.55364 4.36850
   0  -6  -6 0.74620 4.66040
   0   6   6 8.29282 4.72527
   0   6   6 7.77491 4.04560
   0  -6  -6 0.66838 3.64592
   0  -6  -7-0.54032 4.91250
   0  -6  -7-0.68367 3.69363
   0   6   7 0.22767 4.77264
   0   6   7 4.40073 4.12442
   0  -6  -8 1.65134 3.80325
   0  -6  -8 3.55464 5.29428
   0   6   8 2.72888 4.64634
   0   6   8 8.60204 4.57780
   0   6   9 39.5096 6.08768
   0  -6  -9 31.0317 6.90235
   0   6   9 36.7397 6.03047
   0   6   9 42.9496 6.03221
   0  -6  -9 37.0360 5.55979
   0   6  10 27.7716 5.59150
   0  -6 -10 27.0830 5.03029
   0   6  10 19.4630 5.29687
   0  -6 -10 19.0142 6.85915
   0   6  11 36.1408 6.19186
   0  -6 -11 46.2818 5.90477
   0  -6 -11 26.4229 7.62416
   0  -6 -12 13.3904 4.72572
   0   6  12 7.87536 4.89815
   0   7 -11-6.95048 7.08232
   0   7 -10 11.3546 7.26265
   0  -7   9 3.48592 7.66901
   0   7  -9 13.1434 7.07663
   0   7  -8 10.2797 11.0024
   0   7  -8 3.66773 6.81732
   0   7  -7 193.738 20.4443
   0   7  -7 193.642 18.7166
   0  -7   7 229.205 18.6804
   0   7  -6 91.5157 13.8207
   0   7  -6 101.082 12.0819
   0  -7   6 136.658 11.9384
   0   7  -5 3.25341 4.63028
   0   7  -5 3.94018 6.43725
   0  -7   5 7.37696 5.72271
   0   7  -5 10.6237 8.78986
   0   7  -4 22.2935 7.05730
   0   7  -4 23.7462 9.12285
   0   7  -4 20.1389 5.01507
   0  -7   4 36.0484 6.32207
   0   7  -3 5.12607 7.78811
   0   7  -3 3.10757 4.13544
   0   7  -3 3.16907 6.47809
   0   7  -2 17.0707 4.57171
   0  -7   2 31.3120 6.38327
   0   7  -2 8.96071 6.41204
   0  -7   2 19.4499 5.82910
   0   7  -2 8.04488 7.16447
   0  -7   1 33.0611 6.14245
   0  -7   1 34.5810 6.99553
   0   7  -1 35.6619 6.95163
   0   7  -1 32.7725 5.23424
   0  -7   0 59.7402 7.39569
   0   7   0 55.5263 6.78790
   0  -7   0 66.1227 8.22190
   0   7   0 54.4739 6.56941
   0   7   0 68.4641 8.78325
   0  -7   0 47.4276 6.73603
   0   7   1 275.454 22.0685
   0  -7  -1 295.461 22.9048
   0  -7  -1 297.146 22.7026
   0   7   1 250.699 22.2358
   0   7   1 262.829 23.0651
   0  -7  -1 261.332 22.1906
   0  -7  -2 156.496 13.3766
   0   7   2 136.708 13.1733
   0   7   2 155.311 14.2927
   0   7   2 142.436 13.1462
   0  -7  -2 151.883 13.6089
   0  -7  -2 183.387 14.2569
   0  -7  -3 207.234 15.6340
   0  -7  -3 175.831 14.8284
   0   7   3 150.057 14.5678
   0   7   3 164.943 14.7645
   0   7   3 167.134 15.4295
   0   7   3 178.155 14.5838
   0  -7  -4 396.652 31.2854
   0   7   4 432.691 31.8842
   0   7   4 420.430 31.0113
   0  -7  -4 369.886 31.2655
   0   7   4 420.017 31.3073
   0   7   4 362.737 31.1380
   0   7   4 349.640 31.0988
   0  -7  -5 30.6049 5.29893
   0   7   5 29.0452 5.38141
   0   7   5 29.6003 5.59595
   0   7   5 23.3281 5.43875
   0   7   5 34.0381 6.46007
   0  -7  -5 34.8311 5.89828
   0   7   5 41.2308 5.71779
   0  -7  -6 51.0289 6.89590
   0   7   6 48.1827 6.17614
   0  -7  -6 44.3608 6.22453
   0   7   6 49.4810 6.59921
   0   7   6 38.5523 7.16370
   0   7   7 11.8451 4.68489
   0   7   7 15.4029 4.98634
   0  -7  -7 4.26134 4.30552
   0   7   7 6.28133 5.27876
   0  -7  -7 4.50180 5.57639
   0   7   8 0.77482 4.92341
   0  -7  -8 2.95488 4.20427
   0  -7  -8 10.6570 5.96236
   0   7   8 18.6002 4.99297
   0   7   9 39.2758 6.35602
   0  -7  -9 32.1723 5.47817
   0  -7  -9 36.5618 7.23966
   0  -7 -10 78.8929 9.27301
   0  -7 -10 61.1355 7.27787
   0   7  10 53.8011 7.64560
   0  -7 -11 13.7310 7.04214
   0  -7 -11 16.7849 4.83751
   0   7  11 18.3779 5.46042
   0   8  -9 9.81766 7.20238
   0   8  -8 42.3995 8.75314
   0  -8   7 226.254 19.2739
   0   8  -7 217.040 19.2677
   0   8  -7 174.791 21.2623
   0   8  -6 140.954 17.5126
   0   8  -6 159.592 15.1629
   0  -8   6 149.949 14.8943
   0   8  -5 57.4874 9.65083
   0  -8   5 84.7203 9.40528
   0   8  -5 64.3729 12.2169
   0   8  -4 32.1716 9.83076
   0  -8   4 23.6813 6.76360
   0   8  -4 20.4046 7.39701
   0   8  -4 19.0832 5.27104
   0   8  -3 97.2318 12.5870
   0   8  -3 99.7043 11.5601
   0   8  -3 95.8202 9.52585
   0   8  -2 58.2937 9.56557
   0   8  -2 46.4689 6.38120
   0   8  -2 51.4954 8.77094
   0   8  -1 27.5013 7.31216
   0  -8   1 14.5433 5.83802
   0   8  -1 17.2142 4.85409
   0   8  -1 13.1920 7.52921
   0  -8   0 106.572 11.1058
   0   8   0 110.043 10.2417
   0  -8  -1 543.262 41.8809
   0  -8  -1 490.908 42.2159
   0   8   1 545.305 41.6998
   0   8   1 528.410 42.7072
   0  -8  -2 32.1986 7.35221
   0   8   2 38.6667 7.78424
   0  -8  -2 38.1955 6.40016
   0   8   2 47.6927 6.27289
   0  -8  -2 38.5643 6.28639
   0   8   3 74.9821 8.36385
   0   8   3 88.6022 8.41099
   0  -8  -3 56.9508 8.63168
   0   8   3 73.0935 9.64829
   0  -8  -3 96.2168 9.57443
   0  -8  -3 81.1405 8.57109
   0   8   4 40.9259 7.82163
   0   8   4 63.0464 6.78137
   0  -8  -4 66.6424 7.38870
   0  -8  -4 33.1769 6.83125
   0   8   5 188.566 15.7843
   0   8   5 180.556 15.5553
   0  -8  -5 183.589 16.0409
   0  -8  -5 168.838 15.8613
   0   8   5 156.233 16.5836
   0   8   5 205.397 15.8851
   0   8   6 75.2221 7.67122
   0   8   6 63.0539 8.45163
   0  -8  -6 53.5930 7.89323
   0  -8  -6 54.0470 7.40794
   0  -8  -7 39.4399 6.93040
   0  -8  -7 37.1750 6.06702
   0   8   7 28.0353 6.85558
   0   8   7 40.8848 6.47646
   0  -8  -8 3.83018 6.30562
   0  -8  -8 10.9581 4.83479
   0   8   8 15.0977 5.70192
   0   8   9-0.28308 5.29157
   0  -8  -9 0.30799 4.65525
   0  -8  -9 7.89693 6.49713
   0  -8 -10 149.431 15.0269
   0  -8 -10 148.602 13.5192
   0  -8 -11 102.532 10.3572
   0   9  -7 9.53610 7.19039
   0  -9   7-2.65553 7.36060
   0   9  -6 11.4576 10.8292
   0   9  -6 5.16859 7.40865
   0  -9   6 1.77185 7.34284
   0  -9   5 30.6381 7.83187
   0   9  -5 25.6070 11.1984
   0   9  -5 22.8645 7.96841
   0   9  -4 51.2055 11.4614
   0  -9   4 56.0641 8.34213
   0   9  -4 30.9451 8.69114
   0   9  -3 10.3385 7.54345
   0   9  -3 6.35206 9.33069
   0   9  -2 29.4347 8.37121
   0   9  -2 23.9716 9.14837
   0   9  -1 4.91489 7.78887
   0   9  -1 13.4960 7.35136
   0  -9   1 9.58933 6.68650
   0   9   0 47.1712 8.76872
   0  -9   0 27.1274 6.94077
   0   9   1 29.1038 7.94700
   0  -9  -1 29.7295 6.03660
   0  -9  -1 23.2759 6.54132
   0  -9  -2 6.01541 5.42036
   0   9   2 10.4442 7.24760
   0  -9  -2 9.09089 5.80080
   0   9   3 28.6414 7.73236
   0  -9  -3 26.8517 6.47970
   0  -9  -3 37.7694 6.40068
   0   9   4 162.498 15.4656
   0  -9  -4 149.652 14.8616
   0  -9  -4 171.401 14.7374
   0  -9  -5 106.997 10.9299
   0  -9  -5 95.8369 10.6161
   0   9   5 110.178 10.6289
   0   9   5 95.5999 11.1985
   0  -9  -6 242.179 20.0247
   0  -9  -6 222.714 19.8054
   0   9   6 227.979 20.2493
   0  -9  -7 11.4121 6.49288
   0  -9  -7 12.7261 5.47213
   0   9   7 9.26155 6.21426
   0   9   8 4.37044 5.97532
   0  -9  -8 8.44365 6.67499
   0  -9  -8-5.79255 5.04213
   0  -9  -9-4.07136 5.05817
   0  -9  -9-6.25956 7.09947
   0  -9 -10 2.70342 4.98829
   0  10  -4 7.91068 7.67048
   0 -10   4 8.89014 7.25147
   0  10  -3 33.4161 11.1244
   0  10  -3 35.9615 8.82940
   0  10  -2 70.8652 11.0062
   0  10  -2 60.6698 11.7970
   0  10  -1 92.8554 13.2938
   0  10  -1 118.932 12.8540
   0  10   0 50.2617 9.88386
   0  10   0 49.4242 9.54439
   0 -10   0 54.6707 9.00045
   0  10   1 17.0755 8.07530
   0 -10  -1 15.8839 6.97474
   0 -10  -2 2.13184 6.44721
   0  10   2 11.8147 7.52611
   0 -10  -2 9.39771 5.81210
   0  10   3 30.4993 8.16708
   0 -10  -3 20.4747 6.49006
   0 -10  -3 26.3633 7.13232
   0  10   4 5.43552 6.95294
   0 -10  -4 7.38788 6.33596
   0 -10  -4 1.65089 6.12768
   0 -10  -5 34.0590 7.55931
   0 -10  -5 66.4074 8.16672
   0  10   5 56.0871 8.82586
   0 -10  -6 133.688 14.8382
   0 -10  -6 173.367 15.2110
   0  10   6 173.426 15.4291
   0 -10  -7 11.4274 5.89853
   0 -10  -7 5.56391 6.76375
   0 -10  -8 4.63181 5.60002
   0 -10  -9 2.26792 5.48513
   0  11   0 83.9891 12.1137
   0  11   0 69.9965 11.1683
   0  11   1 55.0898 10.1662
   0  11   1 64.7836 10.4460
   0  11   2 58.8540 9.98708
   0  11   3 26.9207 8.54167
   0 -11  -3 38.8997 7.27110
   0 -11  -4 56.1236 8.32339
   0  11   4 38.1497 8.92351
   0 -11  -5-3.20232 6.84139
  -1  11   4 310.237 27.2364
   1 -11  -3 461.955 39.3940
  -1  11   3 528.862 40.7111
   1 -11  -2 32.9591 7.81286
  -1  11   0 0.50239 8.78174
  -1  11  -1 1.55902 9.07390
  -1  11  -2-4.78768 9.07441
   1 -10  -7 0.75777 5.57376
  -1  10   7 12.1755 7.18995
   1 -10  -6 111.775 12.1511
  -1  10   6 118.756 12.4745
   1 -10  -6 94.2917 11.1698
   1 -10  -5 14.7452 6.89847
   1 -10  -5 3.96262 5.78085
  -1  10   5 19.3285 7.51235
   1 -10  -4 151.646 14.8731
   1 -10  -4 141.913 14.5617
  -1  10   4 175.262 15.9761
   1 -10  -3 75.0247 9.17829
  -1  10   3 74.7338 10.8632
   1 -10  -3 55.3537 8.97949
   1 -10  -2 113.864 11.8659
   1 -10  -2 95.5646 12.3357
  -1  10   2 147.402 14.2802
  -1  10   1 63.5974 11.2306
  -1  10   0 41.7160 10.4666
  -1  10   0 27.4958 9.25756
  -1  10  -1 7.67652 8.21278
  -1  10  -1 9.40546 9.60129
  -1  10  -2 9.34422 9.84493
  -1  10  -2-2.52109 8.26150
  -1  10  -3 7.07478 8.84047
  -1  10  -3 27.2226 11.5265
  -1  10  -4 92.4237 12.8134
  -1  10  -5 3.52054 8.73331
  -1  10  -6 37.1049 9.96683
  -1   9   9 1.38665 6.08880
   1  -9  -8 148.915 14.2520
  -1   9   8 167.556 15.1089
   1  -9  -7 26.5952 7.23294
  -1   9   7 26.5900 7.08437
   1  -9  -7 14.5403 5.41155
   1  -9  -6 0.69351 5.19710
  -1   9   6 15.5092 6.86633
   1  -9  -6 8.37969 6.43272
   1  -9  -5 5.88211 6.39425
   1  -9  -5 7.82405 5.44877
  -1   9   5 10.5724 6.98997
   1  -9  -4 27.7021 6.80206
  -1   9   4 30.9443 7.99466
   1  -9  -4 25.2547 6.31546
   1  -9  -3 44.5516 7.75058
  -1   9   3 61.9416 9.65581
   1  -9  -3 69.7423 8.39579
   1  -9  -2 78.7064 9.71647
   1  -9  -2 80.5576 9.80397
  -1   9   2 98.3534 11.5536
  -1   9   1 141.973 15.2473
   1  -9  -1 137.215 13.6257
   1  -9  -1 134.990 13.1745
  -1   9   0 98.5710 13.0103
  -1   9  -1 37.8932 9.09773
  -1   9  -1 29.9403 9.55245
  -1   9  -2 5.94583 7.98192
  -1   9  -2 11.2605 9.18345
  -1   9  -3 6.63059 8.73523
   1  -9   3 0.41286 6.27200
  -1   9  -3 6.38855 9.61791
  -1   9  -4 42.4042 11.9500
  -1   9  -4 38.1864 9.36193
   1  -9   4 24.2737 7.40439
  -1   9  -5 93.9408 14.2275
  -1   9  -5 76.4886 11.1033
   1  -9   5 52.0695 9.63418
  -1   9  -6 117.199 13.5698
   1  -9   6 98.3319 12.4592
  -1   9  -7 60.4767 10.7668
  -1   9  -8 23.2051 9.09244
  -1   8  10 16.4147 6.19748
  -1   8   9-3.89771 5.78694
   1  -8  -9-3.10519 4.34314
   1  -8  -9-0.40104 6.93075
   1  -8  -8 200.919 17.7610
   1  -8  -8 174.686 16.5299
  -1   8   8 217.108 17.6073
  -1   8   7 74.6220 9.21148
   1  -8  -7 76.4234 9.21154
   1  -8  -7 61.9551 7.78726
  -1   8   6 98.8568 11.2691
   1  -8  -6 104.315 10.3125
  -1   8   6 108.763 10.5343
   1  -8  -6 94.6535 10.8220
   1  -8  -5 6.37668 5.68332
   1  -8  -5 11.6922 5.06417
  -1   8   5 9.51419 6.54259
   1  -8  -4 3.68051 5.62852
  -1   8   4 7.75031 6.92083
   1  -8  -4-0.31603 4.94097
   1  -8  -3 62.8558 8.04569
   1  -8  -3 64.8223 7.69928
  -1   8   3 49.8248 9.10729
   1  -8  -2 73.2174 8.41481
   1  -8  -2 58.7769 8.02798
  -1   8   2 66.9428 9.73143
   1  -8  -1 10.3170 5.19632
   1  -8  -1 7.83571 5.41441
  -1   8   1 1.68611 7.63684
  -1   8   0-0.44721 7.84485
   1  -8   0-5.56477 5.57016
   1  -8   0 3.28936 5.15935
  -1   8  -1 22.6579 9.07889
  -1   8  -1 26.9723 8.05564
  -1   8  -2 48.7585 9.70987
  -1   8  -2 69.5148 11.1989
  -1   8  -3 6.17707 8.92523
  -1   8  -3-0.85363 7.71156
  -1   8  -4 8.63429 7.79320
   1  -8   4 1.15357 6.02857
  -1   8  -4-0.56716 9.62198
   1  -8   5-2.43063 6.30104
  -1   8  -5 9.14630 10.1867
  -1   8  -5-5.64375 7.88566
  -1   8  -6 71.5897 13.9921
   1  -8   6 77.8673 10.5162
  -1   8  -6 80.8410 11.0681
  -1   8  -7 104.325 16.5054
   1  -8   7 127.038 13.5532
  -1   8  -7 141.364 14.4601
  -1   8  -8 32.2881 9.01539
  -1   8  -9 619.195 50.3461
  -1   7  11 1.81903 5.42987
   1  -7 -10 17.7017 7.36780
   1  -7 -10 20.9670 4.77392
  -1   7  10 27.5279 6.25479
   1  -7  -9 70.6366 7.44934
   1  -7  -9 73.9291 9.54335
  -1   7   9 59.9219 8.38265
   1  -7  -8 59.1059 7.47406
   1  -7  -8 79.1419 9.50932
  -1   7   8 81.1586 8.45815
  -1   7   8 78.5291 8.88242
   1  -7  -7 139.562 12.8753
   1  -7  -7 155.053 13.9180
  -1   7   7 147.541 13.8946
   1  -7  -6 19.9386 4.70206
  -1   7   6 28.0517 6.51851
   1  -7  -6 16.4180 5.79067
   1  -7  -5 48.6024 7.21513
  -1   7   5 42.6658 6.90978
   1  -7  -5 32.6575 6.04300
  -1   7   5 56.3622 7.84124
  -1   7   5 64.3509 7.04243
  -1   7   4 40.0885 5.75763
  -1   7   4 52.2962 6.80075
  -1   7   4 50.0012 6.89833
  -1   7   4 40.0466 7.58844
   1  -7  -4 43.3001 6.74965
   1  -7  -4 40.2361 5.90752
  -1   7   3 493.079 36.8362
  -1   7   3 430.991 36.9100
   1  -7  -3 501.570 37.0742
  -1   7   3 431.135 36.6531
  -1   7   3 480.138 37.6786
   1  -7  -3 461.221 36.9397
  -1   7   2 71.2922 8.17165
   1  -7  -2 79.9867 8.21530
   1  -7  -2 62.0058 9.19807
  -1   7   2 87.4811 9.88970
  -1   7   2 79.9708 7.82754
   1  -7  -2 58.9096 7.89255
   1  -7  -1 6.86465 5.10796
  -1   7   1 7.54594 4.28781
   1  -7  -1 13.2449 6.61516
  -1   7   1 6.26273 4.74841
  -1   7   1 0.36871 6.79674
  -1   7   0 130.893 14.2171
   1  -7   0 150.910 13.1753
   1  -7   0 142.349 12.7811
  -1   7   0 145.577 12.6504
  -1   7   0 122.022 12.5047
   1  -7   0 154.946 13.7978
  -1   7  -1 141.966 15.6417
  -1   7  -1 158.988 13.5774
  -1   7  -2 28.1284 7.46370
  -1   7  -2 26.3241 5.42900
  -1   7  -2 18.6856 8.60915
  -1   7  -3 206.265 19.5280
  -1   7  -3 213.195 18.8676
  -1   7  -3 197.267 17.2589
  -1   7  -4 362.510 33.5197
  -1   7  -4 416.241 32.9879
   1  -7   4 402.430 32.3619
  -1   7  -5 352.258 28.6047
  -1   7  -5 316.865 29.5709
   1  -7   6 337.667 28.0152
  -1   7  -6 295.084 29.7225
  -1   7  -6 358.200 28.5200
  -1   7  -7 78.5025 10.5221
   1  -7   7 64.2427 9.28555
  -1   7  -8 210.976 18.9355
   1  -7   8 184.960 18.6978
   1  -7   9 71.6559 11.0952
  -1   7  -9 82.4047 11.0681
  -1   7  -9 67.2413 14.1918
  -1   7 -10 52.6108 10.1933
  -1   6  12 13.0074 5.68178
  -1   6  11 13.1745 5.48634
   1  -6 -11 9.16007 6.79572
   1  -6 -10 2.19461 3.51970
  -1   6  10-0.56769 5.15121
   1  -6 -10 3.34476 6.41320
   1  -6  -9 9.28582 3.81774
   1  -6  -9 14.9268 6.40136
  -1   6   9 18.1037 5.66966
  -1   6   9 21.4583 5.22309
   1  -6  -8 45.0798 7.65597
  -1   6   8 56.9069 6.62378
   1  -6  -8 45.2461 5.79273
  -1   6   8 42.4818 7.05101
   1  -6  -7 30.5621 6.48381
  -1   6   7 37.5605 5.77900
  -1   6   7 21.9486 6.11570
  -1   6   7 31.6830 5.85287
   1  -6  -7 34.2569 4.91366
  -1   6   6 577.750 44.9027
  -1   6   6 646.306 44.5540
   1  -6  -6 512.182 44.2590
   1  -6  -6 542.804 44.7918
   1  -6  -5 173.848 16.0989
  -1   6   5 167.052 16.8722
   1  -6  -5 197.990 16.6807
  -1   6   5 210.436 16.5541
  -1   6   5 223.325 16.5164
   1  -6  -4 213.448 18.1817
  -1   6   4 187.659 17.9288
  -1   6   4 187.222 18.3949
  -1   6   4 239.624 19.2215
   1  -6  -4 240.080 18.5835
  -1   6   4 237.665 18.3666
  -1   6   4 263.119 18.5417
   1  -6  -3 119.219 11.5215
  -1   6   3 114.590 11.0544
  -1   6   3 145.079 12.5707
  -1   6   3 125.836 11.6836
   1  -6  -3 116.235 11.2286
  -1   6   3 135.152 11.6746
  -1   6   3 139.139 11.5349
   1  -6  -2 7.96338 4.48679
  -1   6   2 8.96755 3.61651
   1  -6  -2 17.6691 6.19691
  -1   6   2 5.97578 4.40196
   1  -6  -2 4.96742 3.87832
  -1   6   2 9.23679 6.12309
   1  -6  -1 5.10678 5.90304
  -1   6   1 10.3480 6.12938
  -1   6   1 6.07898 3.76291
   1  -6  -1 9.56140 4.25704
   1  -6  -1 6.51206 4.30815
  -1   6   1 1.81450 4.25996
   1  -6   0 2.34660 4.02500
   1  -6   0 1.76199 4.20933
  -1   6   0 6.43131 3.73044
  -1   6   0 2.21959 4.30367
   1  -6   0 3.38282 5.71257
  -1   6   0-1.69952 6.32954
  -1   6  -1 15.3210 6.91169
  -1   6  -1 11.8965 4.10997
  -1   6  -1 8.32339 4.29399
   1  -6   1 10.5644 5.94850
   1  -6   1 12.4318 4.75021
  -1   6  -2 180.741 13.7767
  -1   6  -2 148.422 15.3658
  -1   6  -2 140.139 13.6951
  -1   6  -2 163.884 14.8862
   1  -6   2 151.652 14.4829
  -1   6  -3 4.10594 7.38397
  -1   6  -3 7.38501 4.35935
   1  -6   3 4.08293 5.80086
  -1   6  -3 8.88470 6.31119
  -1   6  -3 6.31270 4.45888
  -1   6  -4 290.639 21.9733
  -1   6  -4 266.398 22.9535
  -1   6  -4 221.041 23.4920
   1  -6   4 263.358 22.2536
  -1   6  -5 172.510 16.9281
  -1   6  -5 185.403 18.6441
   1  -6   5 191.141 16.6027
  -1   6  -5 191.573 16.2008
  -1   6  -6 7.66606 6.97924
   1  -6   6 8.07480 5.63128
  -1   6  -7 4.20665 7.11823
   1  -6   7 0.34612 5.68652
  -1   6  -8 39.9338 8.56386
  -1   6  -8 35.9001 10.7972
   1  -6   8 27.8593 7.92529
   1  -6   9 17.8813 7.84974
  -1   6  -9 29.3088 10.9882
  -1   6  -9 35.3980 8.36539
   1  -6  10 30.5630 8.39032
  -1   6 -10 30.1002 8.58175
  -1   6 -10 21.2111 11.9499
  -1   6 -11 23.2943 8.77792
   1  -5 -11 5.17083 3.55433
   1  -5 -11 4.89131 6.53298
  -1   5  11 9.89199 5.21686
   1  -5 -10-1.39304 5.94595
   1  -5 -10 1.58918 3.42378
  -1   5  10 6.67558 4.89368
  -1   5   9 9.83838 5.24816
  -1   5   9 12.9187 4.78856
   1  -5  -9 9.98530 6.02827
   1  -5  -9 12.1570 3.60791
  -1   5   8 3.55328 4.84772
  -1   5   8 8.23041 4.46502
   1  -5  -8-3.86248 5.29887
   1  -5  -8 2.00769 3.20656
  -1   5   8 0.49417 4.76956
   1  -5  -7 52.4309 7.24089
  -1   5   7 59.6518 6.65003
   1  -5  -7 48.6511 5.59903
  -1   5   7 52.3141 6.31686
  -1   5   7 49.2964 6.85917
  -1   5   6 273.044 25.5770
  -1   5   6 333.207 25.4439
  -1   5   6 324.442 25.8024
  -1   5   6 342.215 25.4373
   1  -5  -6 307.360 25.7571
  -1   5   5 104.504 10.8881
  -1   5   5 128.262 10.7187
  -1   5   5 116.306 11.1641
   1  -5  -5 113.105 10.9227
  -1   5   5 125.142 10.7597
   1  -5  -5 117.689 10.2825
  -1   5   4 345.200 27.8648
   1  -5  -4 334.609 27.6008
  -1   5   4 369.974 27.5018
  -1   5   4 304.638 27.4945
   1  -5  -4 324.947 27.2263
  -1   5   4 394.824 27.5627
  -1   5   3 398.126 28.1664
   1  -5  -3 354.229 28.0448
  -1   5   3 343.526 27.8929
   1  -5  -3 356.050 27.8346
  -1   5   3 346.913 28.4536
  -1   5   3 352.444 28.0866
  -1   5   3 322.131 27.6980
   1  -5  -2 215.094 18.0394
  -1   5   2 217.705 17.4394
  -1   5   2 196.891 17.1264
  -1   5   2 202.430 18.1042
   1  -5  -2 219.987 17.4713
   1  -5  -2 213.924 17.2664
  -1   5   1 209.564 17.8047
   1  -5  -1 215.880 18.0402
   1  -5  -1 214.913 17.9909
  -1   5   1 230.370 18.0606
  -1   5   1 233.216 18.8735
   1  -5   0 294.951 24.0422
  -1   5   0 341.622 23.5574
   1  -5   0 259.316 23.3839
  -1   5   0 266.367 23.3616
   1  -5   0 313.219 23.6523
  -1   5   0 287.010 24.3270
  -1   5  -1 19.8407 4.46298
   1  -5   1 24.7050 4.75089
  -1   5  -1 20.0524 4.27880
   1  -5   1 22.6071 4.50812
  -1   5  -1 25.3738 6.81998
   1  -5   1 21.4984 5.86249
   1  -5   2 650.626 52.2329
  -1   5  -2 596.826 52.1818
  -1   5  -2 693.712 51.8108
  -1   5  -2 684.074 52.8064
  -1   5  -2 691.495 51.9808
  -1   5  -3 22.2893 4.68447
   1  -5   3 21.7577 4.93763
  -1   5  -3 25.3031 6.07788
  -1   5  -3 16.5010 4.76733
  -1   5  -3 20.2955 7.14750
  -1   5  -4 256.338 22.8099
  -1   5  -4 278.433 22.1867
   1  -5   4 273.717 22.2700
  -1   5  -5 36.5297 5.98511
  -1   5  -5 29.1236 7.11628
  -1   5  -5 31.7230 5.98389
   1  -5   5 48.2232 6.45179
  -1   5  -6 83.1272 10.0256
  -1   5  -6 79.9161 9.15270
   1  -5   6 86.9323 9.10594
  -1   5  -7 31.7688 9.63044
  -1   5  -7 31.9315 7.28457
  -1   5  -8 18.5698 7.07539
   1  -5   8 22.5261 6.82008
  -1   5  -8 27.0334 9.26528
  -1   5  -9-0.54193 9.48490
   1  -5   9 13.8635 6.73180
  -1   5  -9 1.93649 7.05045
  -1   5 -10 29.3773 10.5058
   1  -5  10 20.8450 7.29333
  -1   5 -10 19.4704 7.65676
  -1   5 -11 6.42650 7.62296
   1  -5  11-0.44302 6.71841
  -1   5 -11 5.52207 10.7024
  -1   5 -12 26.2362 8.88660
   1  -4 -14 11.0863 8.65277
   1  -4 -13 5.16139 8.11181
   1  -4 -12 16.6450 7.74360
   1  -4 -12 12.4847 7.50426
   1  -4 -11-4.73124 6.73888
  -1   4  11 11.3269 5.26835
   1  -4 -11 5.33547 3.46618
   1  -4 -11 3.03260 6.50417
   1  -4 -10 100.109 9.81236
   1  -4 -10 109.873 11.5585
  -1   4  10 115.838 10.4034
   1  -4 -10 124.730 11.7598
   1  -4 -10 113.815 11.0987
  -1   4   9 21.7538 4.92460
   1  -4  -9 23.1771 6.31490
   1  -4  -9 24.8752 3.98360
  -1   4   9 19.9630 5.73343
   1  -4  -9 28.8969 6.24817
  -1   4   8 58.5518 7.19396
  -1   4   8 64.8869 6.60646
   1  -4  -8 72.9847 7.69309
   1  -4  -8 49.2479 7.47007
   1  -4  -8 58.2422 6.02126
  -1   4   7 13.1798 4.57666
   1  -4  -7 4.62979 2.86686
  -1   4   7 1.40272 3.85710
   1  -4  -7 5.05428 4.87968
  -1   4   7 9.13883 4.39782
  -1   4   6 42.0094 5.43752
   1  -4  -6 40.9978 4.44732
   1  -4  -6 37.4258 5.64295
  -1   4   6 28.6786 5.40213
  -1   4   6 43.7930 5.22691
  -1   4   5 105.599 9.42256
  -1   4   5 103.032 9.20870
  -1   4   5 102.799 9.44950
  -1   4   5 98.1615 9.58064
   1  -4  -5 104.298 8.73955
   1  -4  -5 91.2173 9.41850
  -1   4   4 27.7920 4.21201
  -1   4   4 19.1786 4.72582
  -1   4   4 17.8720 4.38816
   1  -4  -4 16.8746 3.10081
  -1   4   4 24.0619 4.47752
   1  -4  -4 13.5934 4.19070
   1  -4  -3 16.1628 3.11695
  -1   4   3 13.2048 4.21699
   1  -4  -3 16.7534 3.99754
  -1   4   3 10.3974 3.98880
  -1   4   3 22.2983 4.87103
  -1   4   3 19.0483 4.27183
  -1   4   3 18.9156 3.22383
  -1   4   2 555.814 43.0866
   1  -4  -2 530.861 43.2806
  -1   4   2 533.057 43.6359
   1  -4  -2 591.051 43.1937
  -1   4   2 554.656 43.2681
   1  -4  -1 32.0542 4.16408
   1  -4  -1 26.1011 5.92550
  -1   4   1 29.7489 4.05213
  -1   4   1 26.1275 4.70520
  -1   4   1 21.4775 5.85724
   1  -4  -1 31.8527 4.57694
  -1   4   0 3729.50 281.103
   1  -4   0 3528.45 281.357
  -1   4   0 3754.98 281.088
   1  -4   0 3482.90 281.096
  -1   4   0 3595.89 281.496
   1  -4   0 3923.88 281.219
  -1   4  -1 90.9284 9.23226
   1  -4   1 84.1594 7.94893
  -1   4  -1 79.6661 7.94616
  -1   4  -1 83.4803 7.87094
   1  -4   1 86.6870 8.15340
   1  -4   1 73.3714 8.77623
  -1   4  -2 0.78804 3.71912
  -1   4  -2 1.72687 4.53054
  -1   4  -2 3.21212 3.70321
  -1   4  -2 1.66713 5.80681
  -1   4  -3 17.9753 5.37568
   1  -4   3 31.6855 4.65386
  -1   4  -3 25.8782 4.78084
  -1   4  -4 16.6492 5.44334
   1  -4   4 18.2082 4.56470
  -1   4  -4 13.9055 4.55310
  -1   4  -5 124.712 11.7566
   1  -4   5 152.347 11.7493
  -1   4  -5 130.805 12.1434
   1  -4   5 106.728 11.6419
   1  -4   6 14.6748 4.54552
  -1   4  -6 17.7005 5.75532
   1  -4   6 7.35843 5.23177
  -1   4  -6 11.5987 4.92665
  -1   4  -6-4.70102 7.10236
   1  -4   6 11.9765 5.65102
  -1   4  -7 11.7094 6.18128
  -1   4  -7 12.9220 7.76922
  -1   4  -7 19.8113 5.79234
   1  -4   7 14.5941 5.92057
   1  -4   7 11.1996 5.81277
  -1   4  -8 7.63287 6.34319
  -1   4  -8 3.98561 7.91509
   1  -4   8 5.49683 5.63815
  -1   4  -9 204.782 16.9365
  -1   4  -9 150.938 17.8384
  -1   4 -10 141.994 16.5784
  -1   4 -10 156.840 15.1176
   1  -4  10 162.791 15.0181
  -1   4 -11 24.1443 9.96111
  -1   4 -11 24.3751 7.80656
   1  -4  11 21.7759 7.02443
   1  -4  12 6.67390 6.62016
  -1   4 -12 8.28925 7.87869
  -1   4 -12 10.8095 10.0099
   1  -3 -14 18.5759 8.74585
   1  -3 -13 49.6201 9.28994
   1  -3 -13 41.2621 9.04978
   1  -3 -12 214.347 19.6585
   1  -3 -12 214.944 19.4926
  -1   3  12 236.628 18.7985
   1  -3 -12 206.713 19.6878
  -1   3  11 6.79046 4.89164
   1  -3 -11 5.29813 6.73062
   1  -3 -11 8.91117 6.07565
   1  -3 -11 5.56117 6.54524
   1  -3 -10 338.559 28.5601
   1  -3 -10 343.351 28.5431
   1  -3 -10 352.794 28.5865
  -1   3  10 339.599 27.7418
   1  -3 -10 367.030 28.2521
  -1   3   9 150.588 14.4478
   1  -3  -9 153.566 14.4578
   1  -3  -9 166.598 14.5359
   1  -3  -9 172.580 14.1344
  -1   3   9 163.723 13.6299
   1  -3  -9 152.677 14.3711
   1  -3  -8 80.7724 8.46770
  -1   3   8 78.7185 8.43246
   1  -3  -8 91.1988 8.80383
  -1   3   8 75.0308 7.62978
   1  -3  -8 78.0389 7.29611
   1  -3  -7 105.789 9.50498
   1  -3  -7 98.8928 8.44000
  -1   3   7 93.7397 8.73152
  -1   3   7 93.3247 9.30119
   1  -3  -7 96.9438 9.49090
  -1   3   6 305.579 24.0152
   1  -3  -6 303.100 24.0991
   1  -3  -6 280.006 23.5655
  -1   3   6 299.921 23.6842
   1  -3  -6 326.040 24.1805
  -1   3   5 234.400 19.4729
  -1   3   5 239.288 19.5763
   1  -3  -5 235.933 19.6057
   1  -3  -5 267.709 19.6976
  -1   3   5 245.881 19.3013
   1  -3  -5 236.746 19.1090
  -1   3   4 8.38116 3.59071
   1  -3  -4 11.9775 2.39570
  -1   3   4 11.3393 3.37377
  -1   3   4 7.23892 3.57814
  -1   3   3 2651.73 208.979
  -1   3   3 2581.62 208.802
  -1   3   3 2908.18 208.943
   1  -3  -3 2806.85 208.677
  -1   3   3 2691.63 208.794
  -1   3   2 3538.87 273.162
  -1   3   2 3508.42 272.769
   1  -3  -2 3763.31 272.821
  -1   3   2 3572.13 272.973
  -1   3   2 3547.57 272.973
   1  -3  -2 3449.77 272.958
   1  -3  -1 3.49981 2.63811
   1  -3  -1 3.36897 3.27900
  -1   3   1 5.14463 3.54365
  -1   3   1 6.06626 2.58437
  -1   3   1 5.88473 4.48560
   1  -3  -1 2.53664 4.67237
   1  -3   0 616.697 50.5358
  -1   3   0 635.601 50.9383
  -1   3   0 703.707 50.6109
   1  -3   0 590.815 50.8606
  -1   3   0 665.228 50.4986
   1  -3   0 687.222 50.5668
   1  -3   1 158.874 13.7575
  -1   3  -1 165.968 14.4771
  -1   3  -1 170.283 13.8036
  -1   3  -1 175.914 13.8469
  -1   3  -2 131.328 11.0996
  -1   3  -2 142.251 11.2338
  -1   3  -2 107.221 11.4801
   1  -3   3 26.4832 5.41068
  -1   3  -3 25.5605 4.80182
  -1   3  -3 23.6836 5.23587
   1  -3   3 35.9586 4.45660
   1  -3   4 43.8551 5.26648
   1  -3   4 41.5744 5.90642
   1  -3   4 37.2660 5.86503
  -1   3  -4 37.2961 5.74621
  -1   3  -5 186.377 15.3761
   1  -3   5 187.547 15.3255
  -1   3  -5 174.336 15.9574
   1  -3   5 173.465 14.8563
   1  -3   5 164.701 15.1384
  -1   3  -6 353.143 26.8032
  -1   3  -6 312.998 27.3193
   1  -3   6 350.288 26.7101
   1  -3   6 329.015 26.6389
   1  -3   6 298.190 26.4011
  -1   3  -7 720.098 60.1206
   1  -3   7 788.763 59.6508
   1  -3   7 805.818 59.7660
  -1   3  -7 789.841 59.7811
   1  -3   7 710.168 59.4234
  -1   3  -8 410.880 31.3578
  -1   3  -8 375.297 31.8718
   1  -3   8 394.487 31.1439
   1  -3   8 332.914 30.8556
   1  -3   8 421.070 31.2680
  -1   3  -9 114.149 13.7497
   1  -3   9 118.945 12.2101
  -1   3  -9 147.275 12.7509
  -1   3 -10 20.3539 8.44473
  -1   3 -10 10.9923 5.54201
   1  -3  10 5.71245 5.64442
  -1   3 -10 14.2086 6.53378
  -1   3 -11 16.8452 9.01513
  -1   3 -11 10.9743 6.86562
   1  -3  11 8.63190 6.06002
  -1   3 -12 9.05372 9.41418
  -1   3 -12 24.8605 8.13622
  -1   3 -13 10.8249 8.11018
  -1   3 -13 8.40581 9.55047
   1  -2 -14 226.085 20.9033
   1  -2 -13 17.5905 7.30391
   1  -2 -13 31.8622 8.20146
   1  -2 -13 24.6381 8.18579
   1  -2 -12 15.4500 7.13232
   1  -2 -12 8.22579 6.51169
   1  -2 -12 11.2113 7.08335
   1  -2 -11 57.3199 8.05320
   1  -2 -11 51.2655 8.35745
   1  -2 -11 66.8771 8.68080
   1  -2 -10 25.1267 6.23356
   1  -2 -10 30.7639 6.50734
   1  -2 -10 36.4316 6.74676
  -1   2  10 36.7794 5.44613
   1  -2 -10 26.1955 5.87432
   1  -2  -9 143.135 12.5772
  -1   2   9 129.996 11.5410
   1  -2  -9 114.115 12.1719
  -1   2   9 115.623 12.5179
   1  -2  -9 154.773 12.1335
   1  -2  -9 142.589 12.4989
  -1   2   8 218.496 17.6102
  -1   2   8 204.875 18.0769
   1  -2  -8 206.071 18.2727
   1  -2  -8 222.357 18.2393
  -1   2   8 195.840 18.2470
   1  -2  -8 254.350 18.0405
  -1   2   7 210.151 19.0806
   1  -2  -7 229.801 19.0779
   1  -2  -7 230.860 18.7347
   1  -2  -7 229.623 19.0721
  -1   2   7 242.103 18.5844
   1  -2  -7 243.958 19.1538
   1  -2  -6 17.2833 4.16416
   1  -2  -6 25.7242 4.38589
  -1   2   6 19.8357 3.42325
   1  -2  -6 18.5648 4.33935
  -1   2   6 20.6816 4.39926
  -1   2   5 52.1000 5.25542
   1  -2  -5 55.6157 5.87514
   1  -2  -5 50.9316 5.75977
  -1   2   5 50.1161 5.86449
  -1   2   4 52.0974 5.80320
  -1   2   4 54.3977 5.40962
   1  -2  -4 55.5529 4.87485
   1  -2  -4 52.3598 5.78709
   1  -2  -4 56.2303 5.86625
  -1   2   3 116.276 10.7627
   1  -2  -3 132.619 10.2887
   1  -2  -3 132.208 10.8529
  -1   2   3 128.623 10.8390
   1  -2  -3 131.078 10.8226
  -1   2   2 12.2724 3.45451
  -1   2   2 10.5024 3.45064
   1  -2  -2 10.8857 2.05684
  -1   2   2 11.4440 2.07087
  -1   2   1 683.171 62.7844
  -1   2   1 830.319 62.4654
   1  -2  -1 859.073 62.5012
  -1   2   1 832.280 62.6492
  -1   2   0 3.69002 2.48794
  -1   2   0-2.57213 3.32503
  -1   2   0 2.22952 4.38465
   1  -2   0 0.73556 2.73729
  -1   2  -1 452.728 35.2419
  -1   2  -1 454.790 35.2487
  -1   2  -2 234.905 17.4237
  -1   2  -2 191.079 17.4597
   1  -2   2 221.500 17.6156
   1  -2   3 242.473 20.2187
   1  -2   3 269.952 20.0331
  -1   2  -3 250.356 20.2215
   1  -2   3 234.480 20.1622
  -1   2  -4 109.153 8.62874
   1  -2   4 96.4562 9.21649
   1  -2   4 84.8600 8.56690
  -1   2  -4 104.705 9.20363
  -1   2  -4 96.4216 9.75758
   1  -2   4 88.8445 9.23416
   1  -2   5 217.980 17.5401
   1  -2   5 189.525 17.3649
  -1   2  -5 221.114 17.1082
   1  -2   5 219.450 17.6072
  -1   2  -5 212.986 17.5264
  -1   2  -5 202.530 17.9197
  -1   2  -6 215.436 18.0180
   1  -2   6 186.288 17.3613
  -1   2  -6 188.872 17.4895
   1  -2   6 214.411 17.5015
  -1   2  -6 229.421 17.1560
   1  -2   6 220.526 17.5182
   1  -2   7 46.7864 6.96757
  -1   2  -7 57.3748 8.11753
  -1   2  -7 62.5197 6.43915
   1  -2   7 61.5516 6.90236
  -1   2  -7 60.4465 7.23261
   1  -2   7 61.0920 7.08855
   1  -2   8 64.9137 7.61107
  -1   2  -8 57.9913 8.79353
  -1   2  -8 68.2135 7.06397
  -1   2  -8 66.9401 7.90286
   1  -2   8 60.4722 7.60723
   1  -2   8 66.6333 7.71155
  -1   2  -9 146.889 11.4787
   1  -2   9 98.4868 11.5732
  -1   2  -9 119.082 12.8342
  -1   2  -9 135.159 12.0914
  -1   2  -9 119.661 11.2191
   1  -2   9 119.354 11.6830
  -1   2 -10 122.626 11.3752
  -1   2 -10 95.0855 13.1135
  -1   2 -10 120.051 12.1292
  -1   2 -10 132.922 11.3013
  -1   2 -11 70.1993 10.8653
  -1   2 -11 90.1826 10.2428
  -1   2 -12 47.1709 8.46662
  -1   2 -12 36.2300 9.24934
  -1   2 -13 58.4768 9.63943
  -1   2 -13 58.1682 10.5246
  -1   2 -14 35.1372 9.68963
   1  -1 -14 25.6909 8.67985
   1  -1 -13 11.8822 6.92349
   1  -1 -13 17.2022 7.97103
   1  -1 -13 19.6794 7.74343
   1  -1 -12 2.81655 6.92505
   1  -1 -12 3.83694 6.06642
   1  -1 -12 2.94422 6.63061
   1  -1 -11-2.23720 6.28794
   1  -1 -11 10.0782 5.73262
   1  -1 -11 6.37000 6.31468
   1  -1 -10 18.6292 5.55823
   1  -1 -10 19.4176 6.01030
   1  -1 -10 9.18444 6.04562
   1  -1  -9 20.9317 5.68575
  -1   1   9 15.2629 5.84650
  -1   1   8 94.3485 8.73240
  -1   1   8 94.9026 8.23576
   1  -1  -8 78.3809 8.72710
   1  -1  -8 82.4617 8.97285
  -1   1   7 116.402 9.60558
   1  -1  -7 93.2465 9.45507
   1  -1  -7 113.504 9.91931
  -1   1   7 92.7734 8.98397
  -1   1   7 94.7828 9.96291
   1  -1  -7 121.350 9.48346
   1  -1  -6 288.489 22.7714
  -1   1   6 288.254 22.9819
  -1   1   6 275.202 22.3323
  -1   1   6 297.159 22.7909
   1  -1  -6 281.168 22.5086
   1  -1  -6 287.345 22.8739
   1  -1  -5 213.363 16.4887
  -1   1   5 186.365 16.6760
   1  -1  -5 193.096 16.1517
  -1   1   5 200.594 16.0650
  -1   1   5 222.403 16.5252
   1  -1  -5 206.642 16.5769
   1  -1  -4 82.9236 8.11154
  -1   1   4 91.9337 7.68914
   1  -1  -4 103.273 8.23871
   1  -1  -4 81.9204 7.65700
  -1   1   4 90.6255 8.26942
  -1   1   4 110.783 8.23834
  -1   1   3 162.767 14.4563
   1  -1  -3 200.734 14.8349
   1  -1  -3 201.027 14.7747
  -1   1   3 186.640 14.8573
  -1   1   2 13.6454 3.21878
   1  -1  -2 12.0312 1.51193
   1  -1  -2 8.63982 2.73244
  -1   1   1 558.881 42.8460
   1  -1  -1 560.413 42.8655
  -1   1   0 131.188 10.4098
   1  -1   1 1492.79 112.427
   1  -1   1 1437.47 112.540
   1  -1   2 7109.58 542.888
  -1   1  -3 297.831 21.2980
   1  -1   3 257.599 21.3682
  -1   1  -3 271.777 21.5497
  -1   1  -3 248.245 21.3823
  -1   1  -4 151.193 11.8904
  -1   1  -4 128.760 12.0977
  -1   1  -4 143.860 11.5718
   1  -1   4 127.968 11.7855
   1  -1   5 12.1059 4.15755
  -1   1  -5 11.7268 3.57711
  -1   1  -5 13.8269 4.26292
   1  -1   5 7.19218 3.32148
  -1   1  -5 6.15640 4.70695
  -1   1  -6 7.34221 3.44623
   1  -1   6 4.14139 3.92273
  -1   1  -6 7.95815 4.05336
   1  -1   6 2.53401 3.33697
   1  -1   6 14.1926 4.13282
  -1   1  -6 8.42383 4.71617
   1  -1   7 21.6523 4.84927
  -1   1  -7 15.2392 5.45442
   1  -1   7 20.2557 4.31711
  -1   1  -7 34.2479 4.86246
   1  -1   7 27.9012 4.86780
  -1   1  -7 24.6689 5.06723
  -1   1  -7 26.7780 4.51289
   1  -1   8 41.3152 6.04521
   1  -1   8 43.9201 6.05994
  -1   1  -8 45.6716 5.62825
  -1   1  -8 42.9853 7.07002
  -1   1  -8 40.2898 5.49108
  -1   1  -8 37.7272 6.20245
  -1   1  -9 51.1473 6.18787
   1  -1   9 47.9534 6.73055
  -1   1  -9 45.6955 7.66232
   1  -1   9 41.6871 6.51082
  -1   1  -9 41.9059 6.00634
  -1   1  -9 54.9152 7.05296
  -1   1 -10 274.015 22.5537
  -1   1 -10 307.944 21.7831
   1  -1  10 234.876 22.0660
  -1   1 -10 240.567 22.6486
  -1   1 -10 260.942 21.9077
  -1   1 -11 11.7674 6.38939
  -1   1 -11 8.85877 6.98806
  -1   1 -11 3.26841 4.88082
  -1   1 -12 102.016 12.2176
  -1   1 -12 108.016 11.7650
  -1   1 -13 54.8235 9.56006
  -1   1 -13 51.7827 9.02731
  -1   1 -14 17.5544 8.53848
   1   0 -13 18.3805 7.04049
   1   0 -13 11.2123 7.80645
   1   0 -12 20.8268 6.43859
   1   0 -12 16.3515 7.44620
   1   0 -11 6.50799 6.55093
   1   0 -11 1.53137 5.40414
   1   0 -11 3.56186 4.40727
   1   0 -10 9.27342 5.10840
   1   0 -10 10.3176 6.41930
  -1   0   9 12.8208 5.76208
   1   0  -9-1.77357 5.71060
   1   0  -9 9.86865 3.64976
   1   0  -9 7.67054 4.62158
  -1   0   8 28.1005 4.97346
  -1   0   8 24.1900 5.84816
   1   0  -8 22.2647 5.63762
   1   0  -8 27.2584 4.84673
   1   0  -8 29.0746 4.06735
  -1   0   7 49.0825 6.74172
  -1   0   7 58.5074 5.83584
   1   0  -7 37.7967 6.24912
   1   0  -7 44.2259 5.56488
  -1   0   6 152.413 12.8818
   1   0  -6 128.936 13.1395
  -1   0   6 139.777 13.3935
  -1   0   6 166.038 12.6229
   1   0  -6 163.152 12.4291
   1   0  -6 152.613 12.8447
   1   0  -5 396.258 29.1559
   1   0  -5 347.650 29.6470
  -1   0   5 345.522 29.8031
  -1   0   5 377.957 29.2001
  -1   0   5 396.040 29.5050
   1   0  -5 364.978 29.4461
  -1   0   4 155.072 12.7340
  -1   0   4 141.201 12.3697
   1   0  -4 154.040 11.9365
   1   0  -4 161.230 12.3074
   1   0  -4 158.236 12.5914
  -1   0   4 137.915 11.9224
   1   0  -3 16.0801 2.99115
  -1   0   3 19.8201 3.11655
  -1   0   3 15.6323 2.34532
  -1   0   3 21.1023 4.13959
  -1   0   3 13.7208 2.21318
  -1   0   2 928.462 71.5514
   1   0  -2 1058.10 71.8004
  -1   0   2 1103.91 71.7616
   1   0  -2 1063.46 71.8004
   1   0  -1 28.7897 3.16563
  -1   0   1 31.6713 3.12513
   1   0   0 2467.56 188.587
  -1   0   0 2463.42 188.525
   1   0   0 2479.86 188.582
   1   0   1 5538.03 443.458
   1   0   1 6034.99 443.514
  -1   0  -1 5913.93 443.483
   1   0   2 1440.30 109.488
   1   0   2 1406.52 109.574
  -1   0  -2 1442.76 109.525
   1   0   3 273.200 20.7222
  -1   0  -3 267.009 20.7689
  -1   0  -3 250.924 20.8386
   1   0   4 44.0717 4.71881
  -1   0  -4 41.1744 4.87242
  -1   0  -4 34.2605 4.66859
  -1   0  -5 128.414 12.0813
   1   0   5 140.205 11.9675
  -1   0  -5 161.404 12.1765
  -1   0  -6 431.064 32.2356
  -1   0  -6 383.500 32.5234
  -1   0  -6 415.050 32.5197
   1   0   6 413.123 32.3853
  -1   0  -7 234.351 20.1403
   1   0   7 236.234 19.9571
  -1   0  -7 242.266 20.0217
  -1   0  -7 254.203 19.6855
  -1   0  -7 259.120 20.1788
  -1   0  -8 90.5470 8.94586
  -1   0  -8 87.1392 8.16559
   1   0   8 88.0514 8.87327
  -1   0  -8 104.614 9.20448
  -1   0  -8 69.9640 8.95525
   1   0   9 62.1987 8.09529
  -1   0  -9 63.4096 8.52807
  -1   0  -9 77.3770 8.30866
  -1   0  -9 82.5745 7.50602
   1   0   9 72.9865 8.00191
   1   0  10 453.645 41.7210
  -1   0 -10 521.944 42.0603
  -1   0 -10 590.755 41.4297
  -1   0 -10 528.354 42.0514
  -1   0 -11 45.4928 7.93055
  -1   0 -11 47.8421 6.30300
  -1   0 -11 44.8608 7.59804
  -1   0 -12 72.2329 9.87274
  -1   0 -12 72.4902 9.43267
  -1   0 -13 26.8599 7.85790
  -1   0 -13 33.8120 8.31817
  -1   0 -14 53.7912 10.0101
  -1   0 -15 16.9151 8.79280
   1   1 -13 12.0039 7.09184
   1   1 -13-4.06312 8.15522
   1   1 -12 10.7937 6.30396
   1   1 -12 2.92510 7.63625
   1   1 -11 9.37094 4.12168
   1   1 -11 9.42258 6.94609
   1   1 -11 6.92061 5.60968
   1   1 -11 6.32892 4.64214
   1   1 -10 114.597 12.4839
   1   1 -10 134.180 10.7914
   1   1 -10 103.726 11.5681
   1   1 -10 128.966 11.0864
   1   1  -9 70.7576 7.26768
   1   1  -9 60.5113 8.74232
   1   1  -9 79.1291 6.92526
   1   1  -9 69.0052 7.80963
  -1  -1   8 8.07895 4.28474
   1   1  -8 2.19638 3.29993
   1   1  -8-2.71681 5.09810
   1   1  -8 5.10054 2.91296
  -1  -1   8-1.84511 5.24888
   1   1  -7 5.99023 3.67955
   1   1  -7 2.35894 2.71447
   1   1  -7-0.24124 4.40445
   1   1  -7 3.76559 2.85056
  -1  -1   7 1.41209 4.98071
  -1  -1   7 7.11111 3.92993
  -1  -1   7 4.04147 3.13352
   1   1  -6 15.2988 4.50089
  -1  -1   6 13.7663 4.72611
   1   1  -6 15.7995 2.79104
   1   1  -6 18.0853 3.54143
  -1  -1   6 16.6670 3.27817
  -1  -1   6 11.7360 3.89342
   1   1  -6 10.7401 2.88890
   1   1  -5 162.931 14.5544
   1   1  -5 163.791 13.7403
  -1  -1   5 182.941 14.1628
   1   1  -5 179.617 14.0928
  -1  -1   5 155.008 14.6187
  -1  -1   5 167.147 13.9656
   1   1  -5 180.709 13.6027
  -1  -1   4 278.318 21.2436
   1   1  -4 277.401 20.9658
   1   1  -4 288.262 21.2208
  -1  -1   4 261.383 21.7241
   1   1  -4 248.803 20.8327
  -1  -1   4 274.883 21.1569
   1   1  -3 4231.79 288.738
   1   1  -3 3424.79 288.462
   1   1  -3 3778.36 288.762
  -1  -1   3 4116.43 288.729
   1   1  -3 3887.29 288.553
  -1  -1   2 29779.5 2038.35
   1   1  -2 30973.4 2038.35
   1   1  -2 25274.0 2038.15
   1   1  -2 25674.9 2038.36
  -1  -1   2 25808.3 2038.22
  -1  -1   1 278.523 21.1486
   1   1  -1 286.267 21.1492
  -1  -1   1 259.734 21.3037
   1   1  -1 263.470 21.2622
   1   1   0 47.2830 4.36843
  -1  -1   0 54.4747 4.61674
  -1  -1   0 47.8756 4.34920
   1   1   0 56.8621 4.41419
  -1  -1  -1 1234.55 84.8252
   1   1   1 1045.55 84.8043
   1   1   1 1213.81 84.8387
  -1  -1  -1 992.182 84.7969
   1   1   2 4.01025 2.07209
  -1  -1  -2 6.76394 2.14255
   1   1   2 8.05795 2.32958
  -1  -1  -3 98.8277 8.20721
   1   1   3 92.7831 8.24757
   1   1   3 100.930 7.95049
  -1  -1  -3 96.5398 7.91044
   1   1   4 1049.77 78.9822
   1   1   4 990.724 78.8093
  -1  -1  -4 1050.78 78.8280
  -1  -1  -5 1044.89 81.6248
   1   1   5 1058.18 81.7390
  -1  -1  -5 1070.45 81.5522
   1   1   5 1073.97 81.6227
   1   1   6 383.878 30.3969
  -1  -1  -6 373.654 30.4655
  -1  -1  -6 369.874 30.0857
  -1  -1  -6 393.071 30.3018
   1   1   6 414.890 30.3376
   1   1   7 419.639 34.1796
  -1  -1  -7 444.049 34.2302
  -1  -1  -7 441.038 34.3904
  -1  -1  -7 437.366 33.9711
   1   1   8 3.69393 4.20723
  -1  -1  -8-1.93902 3.49574
  -1  -1  -8 2.03397 4.34725
   1   1   9 13.9775 5.01977
  -1  -1  -9 11.1861 4.01153
  -1  -1  -9 7.74523 5.00498
  -1  -1  -9 6.41740 5.02394
   1   1  10 13.1032 5.45836
  -1  -1 -10 14.4935 5.70299
  -1  -1 -10 9.80069 5.97555
  -1  -1 -10 16.3271 4.54978
  -1  -1 -11 16.4397 6.30226
  -1  -1 -11 19.9661 6.18249
  -1  -1 -12 8.53401 6.53758
  -1  -1 -12 16.2086 7.03363
  -1  -1 -13 52.9514 9.08986
  -1  -1 -13 63.5786 9.26031
  -1  -1 -14 52.7789 9.09351
  -1  -1 -15 63.9997 10.1896
   1   2 -13 18.8102 8.78447
   1   2 -13 13.0892 7.12805
   1   2 -12 69.3289 10.3787
   1   2 -12 68.3416 9.17028
   1   2 -11 77.8229 7.53458
   1   2 -11 71.4709 9.03173
   1   2 -11 75.8942 10.2195
   1   2 -10 45.2307 7.09241
   1   2 -10 52.5080 5.54484
   1   2 -10 36.0041 8.26578
   1   2 -10 52.5826 6.14310
   1   2 -10 42.0678 6.97214
   1   2  -9 31.9927 6.04860
   1   2  -9 31.8127 5.98907
   1   2  -9 33.2815 7.46839
   1   2  -9 44.2928 4.66695
  -1  -2   9 32.7138 5.53909
   1   2  -9 32.8664 5.03530
   1   2  -8 153.738 12.0799
   1   2  -8 149.282 13.5319
  -1  -2   8 133.123 12.5903
   1   2  -8 134.774 11.6337
  -1  -2   8 140.822 12.4329
   1   2  -8 171.102 13.1080
  -1  -2   8 110.214 13.1545
   1   2  -7 74.1544 8.43847
   1   2  -7 93.7442 8.09076
  -1  -2   7 91.9964 8.51172
  -1  -2   7 88.8749 8.69087
  -1  -2   7 73.2559 9.63281
   1   2  -7 98.5663 7.73395
   1   2  -7 88.4696 8.87924
   1   2  -7 85.7161 9.57822
  -1  -2   6 4.15498 3.49529
   1   2  -6 4.03372 2.60662
  -1  -2   6 7.45432 5.01963
   1   2  -6 7.30805 4.04051
   1   2  -6 3.66321 3.41503
  -1  -2   6 11.8349 3.94094
  -1  -2   5 3542.91 265.399
   1   2  -5 3351.22 265.303
  -1  -2   5 3249.92 265.652
   1   2  -5 3953.32 265.605
   1   2  -5 3392.68 265.025
   1   2  -4 1374.80 103.147
   1   2  -4 1294.03 103.317
  -1  -2   4 1355.05 103.231
  -1  -2   3 259.916 19.3918
   1   2  -3 245.069 19.3803
  -1  -2   3 247.512 19.5286
   1   2  -3 253.209 19.7460
   1   2  -3 216.179 19.9611
   1   2  -2 10.6270 2.86246
  -1  -2   2 10.8015 4.05512
  -1  -2   2 8.72298 2.74655
   1   2  -2 12.0503 3.84218
  -1  -2   2 7.27685 3.01346
   1   2  -2 14.3723 2.26051
   1   2  -1 13.6553 3.43700
  -1  -2   1 11.0694 2.19099
   1   2  -1 10.6584 1.97947
   1   2  -1 8.46824 2.86623
  -1  -2   1 14.4922 2.88837
   1   2   0 135.928 11.9757
  -1  -2   0 151.245 12.0196
   1   2   0 156.878 11.9609
  -1  -2  -1 667.039 53.4266
  -1  -2  -1 748.808 53.5723
   1   2   1 632.470 53.4661
   1   2   1 693.341 53.5509
   1   2   1 760.411 53.4355
   1   2   2 23.8217 2.68156
   1   2   2 17.4844 2.48157
  -1  -2  -2 20.2658 2.80278
   1   2   2 17.4984 2.80359
  -1  -2  -2 18.5929 2.91901
  -1  -2  -2 20.2813 2.69151
  -1  -2  -2 16.7095 2.28731
   1   2   3 34.8495 3.25182
   1   2   3 29.2032 3.70384
   1   2   3 39.7309 3.99484
  -1  -2  -3 34.2059 3.83203
   1   2   4 318.493 23.4940
  -1  -2  -4 289.408 23.4718
   1   2   4 316.671 23.2030
  -1  -2  -4 280.045 23.1094
   1   2   5 31.1015 4.46521
   1   2   5 35.9703 4.16949
  -1  -2  -5 32.7679 3.81886
  -1  -2  -5 37.1802 4.50595
  -1  -2  -6 37.9340 4.43151
   1   2   6 29.7381 4.39632
   1   2   6 36.1526 4.67912
  -1  -2  -6 32.9436 4.64558
   1   2   7 58.7091 6.19817
  -1  -2  -7 52.9519 5.76627
  -1  -2  -7 54.2352 6.23730
   1   2   7 55.6283 6.00184
  -1  -2  -7 55.0198 5.83790
   1   2   7 53.3808 5.92671
  -1  -2  -8 88.9012 8.66866
   1   2   8 75.5196 8.10130
   1   2   8 89.3411 8.09036
  -1  -2  -8 80.9150 7.84253
   1   2   8 82.8830 8.34175
  -1  -2  -8 82.4152 8.05842
  -1  -2  -9 102.195 9.20598
  -1  -2  -9 117.231 10.2363
  -1  -2  -9 87.5279 9.30430
   1   2   9 96.0803 9.63178
   1   2   9 94.2377 9.39187
  -1  -2 -10 21.9059 4.91908
  -1  -2 -10 19.7659 5.49747
   1   2  10 17.4274 5.38824
  -1  -2 -10 29.9058 6.27533
  -1  -2 -11 16.5038 5.78221
   1   2  11 17.6350 5.77474
  -1  -2 -12 8.87615 5.93683
  -1  -2 -13 4.40423 6.54326
  -1  -2 -14 62.8095 9.36315
  -1  -2 -15 32.6815 8.29959
   1   3 -13 3.42351 6.80806
   1   3 -12 2.78745 6.08498
   1   3 -12 18.2980 8.59807
   1   3 -11 10.1567 6.11618
   1   3 -11 0.29979 3.89204
  -1  -3  11 9.64528 5.40064
   1   3 -11 16.3730 8.33249
   1   3 -10 11.6903 7.95544
   1   3 -10 8.84222 3.71460
   1   3 -10 8.51496 5.34371
  -1  -3  10 6.68016 5.11846
   1   3  -9 48.9768 5.33888
   1   3  -9 34.8422 8.25411
   1   3  -9 42.1588 6.58278
   1   3  -9 45.9996 6.75529
  -1  -3   9 51.0585 6.71519
   1   3  -8 4.09411 4.36351
   1   3  -8 3.85970 3.28662
   1   3  -8 1.82224 4.62970
  -1  -3   8 1.42848 5.00748
   1   3  -8 3.18185 6.54222
  -1  -3   8 2.04625 4.57483
  -1  -3   7 12.4223 6.05736
  -1  -3   7 18.4100 5.19587
   1   3  -7 23.6924 4.94243
   1   3  -7 23.4271 4.71294
  -1  -3   7 29.9028 5.22067
   1   3  -7 19.6283 3.64861
   1   3  -6 230.776 17.9354
  -1  -3   6 199.749 17.6869
   1   3  -6 215.401 17.4889
   1   3  -5 63.9055 6.67275
   1   3  -5 61.4592 6.05228
  -1  -3   5 54.3414 6.51449
   1   3  -4 4.71013 3.53536
  -1  -3   4 1.16849 2.72658
   1   3  -4 5.23431 2.94827
  -1  -3   4 4.18425 3.64181
   1   3  -4 1.11562 4.75545
   1   3  -3 111.321 9.86449
   1   3  -3 100.494 9.23598
  -1  -3   3 103.182 9.01398
  -1  -3   3 107.907 8.87212
   1   3  -3 93.5607 8.74953
  -1  -3   3 101.813 9.64291
  -1  -3   2 186.195 14.9804
   1   3  -2 190.017 14.7025
   1   3  -2 167.027 14.3905
   1   3  -2 197.417 15.1652
  -1  -3   2 214.983 14.9461
  -1  -3   2 155.344 14.3566
   1   3  -1 290.965 23.9464
  -1  -3   1 359.157 24.1641
  -1  -3   1 326.748 24.1643
   1   3  -1 315.461 23.5584
   1   3  -1 357.759 24.3524
   1   3   0 538.134 40.8876
  -1  -3   0 533.056 40.9182
   1   3   0 474.597 41.1556
  -1  -3   0 529.844 41.3262
   1   3   0 596.651 41.3711
  -1  -3  -1 317.147 22.4727
   1   3   1 276.907 22.0482
  -1  -3  -1 265.109 22.0740
   1   3   1 309.041 22.4150
  -1  -3  -2 586.512 43.3936
   1   3   2 530.636 43.1294
   1   3   2 517.584 42.9637
   1   3   2 592.280 43.1463
  -1  -3  -2 542.470 43.1302
   1   3   2 559.921 43.1915
  -1  -3  -2 669.669 43.3214
   1   3   3 31.0902 3.67658
  -1  -3  -3 28.6103 3.68808
   1   3   3 24.8334 3.61213
   1   3   3 34.9496 3.78436
   1   3   3 26.1345 3.18279
  -1  -3  -3 27.9204 3.80373
   1   3   4 374.944 25.8557
  -1  -3  -4 305.429 26.0112
   1   3   4 306.740 25.7987
  -1  -3  -4 339.113 26.0748
  -1  -3  -4 337.417 25.8044
   1   3   4 329.416 25.6300
   1   3   4 324.108 26.0061
   1   3   5 2.80870 2.39911
   1   3   5 2.24859 3.23493
  -1  -3  -5 2.00597 2.55860
  -1  -3  -5 2.77493 2.93310
  -1  -3  -5 2.69101 3.12086
   1   3   6 3.68325 2.86297
  -1  -3  -6 1.34611 3.45163
  -1  -3  -6 1.53957 2.68201
  -1  -3  -6 4.05386 3.51526
   1   3   6 6.67645 3.44359
  -1  -3  -7 89.2987 8.33615
   1   3   7 83.2789 8.28538
  -1  -3  -7 86.0216 8.36133
  -1  -3  -7 90.6154 7.83533
   1   3   7 79.0633 7.94421
  -1  -3  -7 88.3863 8.07986
  -1  -3  -8 124.435 10.7755
   1   3   8 117.292 10.7222
  -1  -3  -8 101.482 10.6150
   1   3   8 126.020 10.4008
  -1  -3  -8 118.542 10.2450
  -1  -3  -8 124.714 10.4194
   1   3   8 104.046 10.3584
   1   3   9 116.901 10.8301
  -1  -3  -9 116.681 11.3112
  -1  -3  -9 116.296 11.3858
  -1  -3  -9 123.174 10.8531
   1   3   9 133.664 10.8855
  -1  -3  -9 110.464 10.6472
  -1  -3 -10 184.158 16.5062
   1   3  10 167.379 15.8401
   1   3  10 203.639 15.9939
  -1  -3 -10 182.651 16.5109
  -1  -3 -10 203.774 16.8479
   1   3  11 17.5561 5.47957
  -1  -3 -11 14.8816 6.45727
  -1  -3 -11 22.3628 5.52490
   1   3  12 8.18465 5.95249
  -1  -3 -12 15.2543 6.76842
  -1  -3 -12 27.9502 7.28706
  -1  -3 -13 20.9802 6.66982
  -1  -3 -13 25.7929 8.11829
  -1  -3 -14 4.75873 6.75132
  -1  -3 -14 14.1321 8.18765
   1   4 -12 8.24984 6.43609
  -1  -4  12 18.3286 6.59603
  -1  -4  11 5.22293 6.06824
   1   4 -11-2.00926 8.78753
   1   4 -11 7.16273 5.91757
   1   4 -10 5.13418 3.89347
   1   4 -10 12.7679 8.72362
   1   4 -10 9.47590 5.65731
  -1  -4  10 4.37567 5.70978
   1   4  -9 162.330 16.0870
  -1  -4   9 197.470 16.5595
   1   4  -9 191.057 15.2120
   1   4  -8-3.36114 4.97356
  -1  -4   8 10.2801 5.42635
   1   4  -8 3.68250 3.66431
   1   4  -8 5.24449 5.17099
  -1  -4   8 3.99009 5.43510
   1   4  -7 56.4949 7.31005
   1   4  -7 85.8162 8.13445
  -1  -4   7 68.2683 8.07547
   1   4  -6 5.73276 3.89978
  -1  -4   6 13.0576 4.97154
   1   4  -6 8.72476 4.54525
   1   4  -5 43.9850 7.35555
   1   4  -5 43.0443 5.55758
   1   4  -5 45.4140 6.05555
  -1  -4   5 46.0777 6.16851
  -1  -4   5 50.8110 5.52002
   1   4  -4 6.48209 5.45368
  -1  -4   4 10.0884 4.06711
   1   4  -4 18.3652 4.22268
  -1  -4   4 16.1558 4.97432
   1   4  -4 14.6070 3.78774
  -1  -4   4 11.0989 3.55884
  -1  -4   3 38.4126 5.26081
   1   4  -3 25.7395 4.29791
   1   4  -3 35.4428 5.94713
   1   4  -3 29.3379 4.57935
  -1  -4   3 22.6463 5.17498
   1   4  -2 5.76495 3.27248
   1   4  -2 8.42554 2.75589
   1   4  -2 21.0030 5.11152
  -1  -4   2 8.07568 3.86074
   1   4  -2 8.84198 3.42196
  -1  -4   2 11.4696 4.46554
   1   4  -1 18.6792 4.85591
   1   4  -1 15.0208 3.73195
   1   4  -1 18.9827 3.70960
   1   4  -1 16.0685 2.92189
  -1  -4   1 15.1281 4.62223
   1   4   0 316.153 24.1320
  -1  -4   0 301.838 24.6695
   1   4   0 325.101 24.7569
  -1  -4   0 300.012 24.1578
   1   4   1 68.5048 6.46412
   1   4   1 57.7053 5.56017
  -1  -4  -1 67.5098 6.61411
  -1  -4  -1 58.0252 5.64648
  -1  -4  -2 295.448 20.5182
  -1  -4  -2 237.116 20.0955
   1   4   2 244.578 20.0749
   1   4   2 265.972 20.4507
  -1  -4  -2 249.449 20.3933
   1   4   2 262.281 20.3917
  -1  -4  -3 446.056 36.5146
   1   4   3 476.379 36.4976
   1   4   3 458.845 36.4900
   1   4   3 458.410 36.2833
  -1  -4  -3 520.240 36.8129
   1   4   3 486.413 36.5887
   1   4   4 86.5658 7.46620
   1   4   4 91.3979 7.74794
  -1  -4  -4 82.4845 7.87813
  -1  -4  -4 82.2883 8.00310
   1   4   4 102.892 7.93641
   1   4   4 80.8196 7.84110
   1   4   5 149.706 12.2509
   1   4   5 140.382 11.8886
  -1  -4  -5 148.494 12.2247
  -1  -4  -5 150.703 12.5589
   1   4   5 135.325 12.4305
  -1  -4  -5 160.631 12.5479
   1   4   5 158.415 12.2744
   1   4   6 5.05999 3.51011
  -1  -4  -6 2.19791 3.38721
   1   4   6 2.60805 3.01904
  -1  -4  -6 8.48618 3.75985
  -1  -4  -6 9.94407 3.33018
   1   4   6 4.23374 3.17218
  -1  -4  -7 19.1468 4.54669
  -1  -4  -7 14.8674 3.81085
   1   4   7 11.6240 3.64687
   1   4   7 11.4678 4.24273
  -1  -4  -7 23.7879 4.51259
   1   4   8 45.2753 5.59865
  -1  -4  -8 57.3448 6.39315
   1   4   8 50.2966 6.13064
  -1  -4  -8 47.5953 6.54449
  -1  -4  -8 39.1253 5.67637
  -1  -4  -9 5.76859 5.15916
  -1  -4  -9 7.03656 4.17556
  -1  -4  -9 7.67783 5.15170
   1   4   9 6.60513 4.31540
   1   4  10 823.552 67.9319
  -1  -4 -10 856.789 68.5533
  -1  -4 -10 932.773 68.4250
  -1  -4 -10 907.184 68.0465
  -1  -4 -11 260.777 20.7362
  -1  -4 -11 259.286 20.1670
  -1  -4 -11 218.530 20.7082
   1   4  11 264.490 20.1975
   1   4  11 208.187 19.8851
  -1  -4 -12 34.0003 7.94836
  -1  -4 -12 46.6568 6.97827
  -1  -4 -12 43.7776 8.21526
  -1  -4 -13 14.9707 7.39549
  -1  -4 -13 2.07419 7.24553
  -1  -4 -14-7.62752 8.12837
  -1  -5  12 35.7085 7.93498
   1   5 -12 33.2178 7.50138
  -1  -5  11 38.5417 7.84874
   1   5 -11 36.7587 7.19889
   1   5 -11 31.2769 10.7587
   1   5 -10 6.83912 8.99600
  -1  -5  10-0.38385 6.42218
   1   5 -10 7.83840 5.74257
  -1  -5   9 20.0446 6.69967
   1   5  -9 26.1576 4.82524
   1   5  -9 28.2455 6.06355
  -1  -5   8 35.2352 6.81918
   1   5  -8 23.7533 5.74151
  -1  -5   7 21.4467 5.99618
   1   5  -7 18.0564 5.25693
   1   5  -7 10.2739 8.10561
  -1  -5   6 83.5793 10.0900
   1   5  -6 87.3500 9.81772
   1   5  -6 112.641 11.8897
   1   5  -6 126.492 10.5847
  -1  -5   6 116.017 10.0416
  -1  -5   5 49.9398 6.40927
   1   5  -5 56.1069 8.69652
  -1  -5   5 42.0278 7.40319
   1   5  -5 48.9501 6.31306
  -1  -5   5 47.8907 6.63498
   1   5  -5 72.6213 6.97064
   1   5  -4 159.628 15.2615
   1   5  -4 134.685 13.9216
  -1  -5   4 206.953 14.2670
   1   5  -4 195.894 14.4363
   1   5  -4 151.008 13.5990
  -1  -5   4 157.440 14.6988
   1   5  -3 75.2059 8.50870
  -1  -5   3 89.7423 9.39752
   1   5  -3 97.5035 10.1397
   1   5  -3 94.0032 8.83277
  -1  -5   3 94.7101 9.38272
   1   5  -3 93.7175 8.07212
   1   5  -2 779.283 60.7870
  -1  -5   2 828.738 61.5807
   1   5  -2 811.452 61.7930
   1   5  -2 741.290 61.0969
   1   5  -2 829.118 61.3314
  -1  -5   2 779.022 61.4236
   1   5  -1 143.860 11.6018
   1   5  -1 148.682 12.2827
   1   5  -1 136.857 12.0753
   1   5  -1 130.381 12.6878
  -1  -5   1 142.481 12.5723
  -1  -5   0 180.157 15.1593
   1   5   0 196.287 15.1622
   1   5   0 192.061 15.9874
  -1  -5   0 187.812 15.9329
  -1  -5  -1 468.845 35.5230
   1   5   1 450.798 35.4118
   1   5   1 436.655 35.8964
  -1  -5  -1 449.104 35.8854
  -1  -5  -1 475.155 35.9492
   1   5   2 352.274 26.6018
  -1  -5  -2 338.953 26.6716
  -1  -5  -2 337.108 26.3054
   1   5   2 318.043 26.6060
  -1  -5  -2 373.309 26.7418
   1   5   2 308.496 26.2149
   1   5   3 150.210 13.4885
  -1  -5  -3 152.688 13.6270
   1   5   3 173.355 13.8610
  -1  -5  -3 175.578 13.9110
   1   5   3 158.500 13.3037
  -1  -5  -3 189.197 14.0082
   1   5   3 177.502 13.8049
   1   5   4 513.424 46.4032
  -1  -5  -4 578.527 46.4776
  -1  -5  -4 629.775 46.7345
   1   5   4 610.638 46.3303
   1   5   4 662.212 46.5877
   1   5   4 587.631 46.2260
   1   5   4 628.723 46.4010
   1   5   5 365.163 28.5375
   1   5   5 369.761 28.3476
   1   5   5 352.310 28.6460
  -1  -5  -5 351.240 28.8222
  -1  -5  -5 341.258 28.7267
   1   5   5 395.058 28.7383
  -1  -5  -6 600.506 48.1025
   1   5   6 578.934 47.8929
  -1  -5  -6 618.547 48.1208
   1   5   6 586.466 47.7822
   1   5   6 674.113 47.9598
   1   5   6 634.653 47.6215
   1   5   7 813.752 59.8491
   1   5   7 703.635 60.1363
  -1  -5  -7 797.673 60.3529
   1   5   7 848.271 60.0895
  -1  -5  -7 721.842 60.3596
   1   5   7 746.180 59.9658
   1   5   8 930.756 69.7204
  -1  -5  -8 908.522 70.2344
   1   5   8 896.519 69.8292
  -1  -5  -8 840.976 70.2783
  -1  -5  -8 921.304 70.0504
   1   5   9 127.409 11.7941
  -1  -5  -9 147.086 12.4572
   1   5   9 138.373 11.9510
  -1  -5  -9 126.241 12.8329
  -1  -5  -9 148.350 12.6248
  -1  -5 -10 4.85505 5.88883
  -1  -5 -10 7.10262 4.60263
  -1  -5 -10 1.03601 5.52067
   1   5  10-0.17818 3.81009
  -1  -5 -11 16.4729 6.54124
  -1  -5 -11 9.30692 6.54436
   1   5  11 6.63825 5.24225
  -1  -5 -11 9.18179 4.88053
  -1  -5 -12 23.9885 7.50529
  -1  -5 -12 32.5954 7.65337
  -1  -5 -12 21.6168 5.75600
  -1  -5 -13 66.3863 8.40712
  -1  -5 -13 66.0486 10.0934
  -1  -5 -14 13.5008 5.84904
  -1  -5 -14 17.2194 8.70162
   1   6 -12 10.3073 6.75351
  -1  -6  11 5.35645 7.39474
   1   6 -11 2.43327 6.22995
   1   6 -10 7.82818 5.94317
  -1  -6  10 3.95902 7.11527
   1   6  -9 7.03618 5.64217
  -1  -6   9 13.8817 7.41148
   1   6  -8 10.4581 8.98984
   1   6  -8-1.34122 5.02914
   1   6  -7 8.65426 8.56580
   1   6  -7 8.94829 5.07221
  -1  -6   7 3.92305 4.97594
   1   6  -6 16.2971 8.07848
   1   6  -6 18.4266 4.61517
   1   6  -6 7.50899 5.23723
  -1  -6   6 22.9074 5.51634
   1   6  -5 395.832 32.7197
  -1  -6   5 452.147 32.9288
   1   6  -5 400.968 32.2388
   1   6  -5 387.404 33.7989
   1   6  -4 875.461 69.2967
   1   6  -4 912.896 69.1712
  -1  -6   4 782.447 69.3351
   1   6  -4 887.389 68.7403
  -1  -6   4 1019.60 69.4599
   1   6  -4 866.427 69.9622
   1   6  -3 91.0832 9.13845
   1   6  -3 91.9586 10.5789
  -1  -6   3 80.8927 9.46517
   1   6  -3 82.4132 9.05189
   1   6  -3 90.1257 8.16389
  -1  -6   3 107.584 9.91626
  -1  -6   2 11.0623 5.23881
   1   6  -2 3.69910 3.18741
   1   6  -2 5.69978 3.77453
   1   6  -2 3.77863 4.53243
  -1  -6   1 18.2879 5.65733
   1   6  -1 19.9510 3.71980
   1   6  -1 19.4270 4.85727
   1   6  -1 23.2890 5.97254
  -1  -6   0 2.02182 4.66305
   1   6   0-0.48358 4.70355
  -1  -6   0 3.03481 3.20772
   1   6   0 6.72473 3.11064
   1   6   1 2.86759 4.60460
  -1  -6  -1 4.60418 3.40225
   1   6   1 5.76767 3.02065
  -1  -6  -1 5.30934 3.92493
   1   6   1-1.05049 3.48795
  -1  -6  -1 1.49783 4.80969
   1   6   2 60.7220 7.04733
   1   6   2 56.6110 6.00892
   1   6   2 57.6680 6.44221
  -1  -6  -2 61.9910 6.68831
  -1  -6  -2 57.4033 6.24290
  -1  -6  -2 60.8705 6.96876
   1   6   3 387.846 30.8169
   1   6   3 363.096 30.9606
  -1  -6  -3 474.128 31.5364
   1   6   3 397.523 31.3410
  -1  -6  -3 388.924 31.4334
   1   6   3 409.651 31.3544
  -1  -6  -3 379.877 31.0781
   1   6   4 26.8089 4.25788
   1   6   4 30.6906 4.77349
  -1  -6  -4 22.6433 4.50697
  -1  -6  -4 26.8389 4.71628
   1   6   4 27.2705 4.06416
   1   6   4 33.0504 4.58290
   1   6   4 31.7574 5.05956
   1   6   5 295.342 23.3398
   1   6   5 321.806 23.2192
   1   6   5 332.632 23.6162
  -1  -6  -5 264.872 23.4501
   1   6   5 250.608 23.2643
   1   6   6 77.1307 7.58908
  -1  -6  -6 87.5540 8.11659
   1   6   6 59.6026 7.45770
   1   6   6 71.9711 7.04749
  -1  -6  -6 73.7959 7.77940
   1   6   6 88.4788 7.91725
   1   6   7 5.00042 4.04225
   1   6   7 5.50782 3.55929
   1   6   7 2.84054 4.13412
  -1  -6  -7 1.47321 4.63732
   1   6   7 5.45976 4.29604
  -1  -6  -7-0.75972 3.94654
   1   6   8 110.526 10.4504
  -1  -6  -8 112.737 10.7577
   1   6   8 120.304 10.5886
  -1  -6  -8 103.117 11.0591
   1   6   8 120.078 10.1395
   1   6   9 39.6692 5.42190
  -1  -6  -9 40.3978 7.17223
  -1  -6  -9 31.7509 5.73720
   1   6   9 33.7984 5.46369
  -1  -6 -10 3.07790 6.17760
  -1  -6 -10 6.26185 4.63267
   1   6  10 2.14830 4.18950
  -1  -6 -11 56.0682 8.83794
   1   6  11 54.9624 6.87726
  -1  -6 -11 60.7316 7.42921
  -1  -6 -12 38.6776 8.38798
  -1  -6 -12 39.0592 6.67410
  -1  -6 -13 24.1652 6.11981
   1   7 -10 19.0104 6.70258
  -1  -7   9 18.0968 8.21858
   1   7  -9 10.2646 5.77678
   1   7  -8 22.5065 10.6612
   1   7  -8 13.7300 5.68105
   1   7  -7 95.2678 12.6434
   1   7  -7 80.3588 9.20363
  -1  -7   7 75.9285 9.41220
   1   7  -6 32.9388 6.37168
  -1  -7   6 40.2289 6.87492
   1   7  -6 30.5016 5.39836
   1   7  -6 31.9853 9.21067
  -1  -7   5 76.8503 8.98821
   1   7  -5 81.4000 8.80823
   1   7  -5 69.4919 10.9065
   1   7  -5 78.4265 7.96054
   1   7  -4 63.3880 9.80951
   1   7  -4 62.3849 7.55406
   1   7  -4 56.0080 6.43622
   1   7  -3 70.8047 10.2511
   1   7  -3 60.7618 8.57130
   1   7  -3 84.2293 7.43088
   1   7  -2 151.691 14.4008
   1   7  -2 158.256 15.2206
   1   7  -2 165.930 13.2666
  -1  -7   2 147.680 14.4721
  -1  -7   1 237.609 20.5026
   1   7  -1 253.840 19.6054
   1   7  -1 228.378 20.3911
  -1  -7   0 155.018 14.4668
   1   7   0 157.186 13.5352
  -1  -7   0 178.980 14.6933
   1   7   0 164.952 14.9158
   1   7   1 22.4534 5.00141
  -1  -7  -1 25.2246 4.50788
  -1  -7  -1 19.1485 5.14684
   1   7   1 24.9731 6.05774
   1   7   1 28.2060 4.40903
  -1  -7  -1 28.2720 6.02647
  -1  -7  -2 180.028 14.4860
   1   7   2 150.616 13.5905
   1   7   2 176.015 14.1540
  -1  -7  -2 173.472 14.4275
  -1  -7  -2 160.140 13.6892
   1   7   2 141.319 14.2867
   1   7   3 301.825 23.3966
   1   7   3 289.363 23.9433
  -1  -7  -3 289.170 24.1100
   1   7   3 260.717 23.4929
  -1  -7  -3 349.571 24.2627
   1   7   3 291.946 24.1326
  -1  -7  -3 299.263 23.7520
   1   7   4 7.71795 4.26162
   1   7   4 7.05927 4.78385
   1   7   4 14.6687 3.97660
  -1  -7  -4 8.45882 4.41911
   1   7   4 6.89495 3.65581
  -1  -7  -4 7.75670 4.15223
   1   7   5 21.7259 4.50773
  -1  -7  -5 10.2719 4.52740
  -1  -7  -5 16.5231 4.65839
   1   7   5 16.7140 4.96237
   1   7   5 14.2700 4.43795
   1   7   5 20.5489 4.44749
  -1  -7  -6 25.2132 5.01915
  -1  -7  -6 27.9422 5.46447
   1   7   6 19.7011 4.82538
   1   7   6 17.5471 4.25270
   1   7   6 15.6860 5.15078
   1   7   6 13.4694 4.52557
   1   7   7 68.5063 8.85888
  -1  -7  -7 90.1992 8.98574
   1   7   7 91.0747 8.69820
  -1  -7  -7 77.1508 9.10657
   1   7   7 97.0804 8.29547
   1   7   8 22.3781 5.38459
  -1  -7  -8 32.8280 6.34321
  -1  -7  -8 31.0358 5.45809
   1   7   8 26.2545 4.87422
   1   7   8 16.6273 5.26374
   1   7   9 27.6998 5.57797
  -1  -7  -9 40.0856 7.02379
  -1  -7  -9 27.1405 5.69561
   1   7   9 17.8596 5.27119
   1   7  10 2.12220 4.51812
  -1  -7 -10 6.02477 6.44475
  -1  -7 -10-1.27745 4.56218
  -1  -7 -11 3.48715 6.97617
  -1  -7 -11 14.3218 5.11943
  -1  -7 -12 5.20750 5.21071
  -1  -7 -13 34.0989 6.42234
   1   8  -7-6.90414 5.54520
   1   8  -7 12.7489 10.0468
  -1  -8   7 9.91707 6.51853
  -1  -8   6 10.3572 6.54700
   1   8  -6 5.39679 9.62344
   1   8  -6-1.67796 5.52466
  -1  -8   5 15.6855 6.15424
   1   8  -5 16.7965 5.66554
   1   8  -5 6.28474 4.49714
   1   8  -4 31.8505 9.37317
   1   8  -4 43.8722 6.79798
   1   8  -4 29.3578 5.18331
   1   8  -3 67.5384 10.6211
   1   8  -3 64.8217 8.57983
   1   8  -3 69.5328 7.18877
   1   8  -2 89.8309 8.40591
   1   8  -2 88.2754 11.1987
   1   8  -2 77.4852 9.81054
   1   8  -1 283.971 23.8010
   1   8  -1 302.171 22.7594
   1   8  -1 240.149 24.0171
  -1  -8   0 32.9232 7.37177
  -1  -8   0 39.3029 6.57770
   1   8   0 36.6552 7.36739
   1   8   0 34.6757 5.13514
   1   8   0 34.8695 6.92745
   1   8   1 82.6447 8.40944
  -1  -8  -1 90.5251 9.90277
   1   8   1 87.5544 9.82698
  -1  -8  -1 89.9096 9.62958
   1   8   2 165.791 15.4493
  -1  -8  -2 201.212 15.8140
  -1  -8  -2 183.158 16.4827
  -1  -8  -2 205.023 16.5071
   1   8   2 182.414 16.4592
  -1  -8  -3 32.4062 6.01563
   1   8   3 34.3450 4.91953
   1   8   3 30.0477 4.82493
  -1  -8  -3 26.4427 5.18610
  -1  -8  -3 18.8200 6.17450
   1   8   3 18.9905 6.19687
   1   8   4 21.1215 4.61419
   1   8   4 18.3990 4.79555
  -1  -8  -4 19.3822 5.09514
  -1  -8  -4 14.2239 5.24327
   1   8   4 18.8901 4.43474
   1   8   4 19.6638 5.70178
   1   8   5 4.19255 4.49292
  -1  -8  -5 2.20632 4.85283
  -1  -8  -5-1.48186 4.71095
   1   8   5 1.76466 4.56261
   1   8   5 1.51317 3.97264
   1   8   5 3.11764 4.90031
   1   8   6 36.4957 6.66571
  -1  -8  -6 46.1925 6.74192
   1   8   6 47.4585 6.10533
   1   8   6 50.1335 6.32751
  -1  -8  -6 42.7953 6.78091
   1   8   7 67.4779 7.87046
  -1  -8  -7 66.1412 8.34328
   1   8   7 66.7128 7.33227
  -1  -8  -7 70.7959 8.18785
  -1  -8  -8 92.6988 10.3154
  -1  -8  -8 112.569 10.0887
   1   8   8 93.2316 9.56783
   1   8   8 78.8293 9.73828
   1   8   9 22.6675 5.47379
  -1  -8  -9 13.1462 6.71911
  -1  -8  -9 23.9750 5.75531
  -1  -8 -10 41.0008 6.53060
  -1  -8 -10 30.4515 7.56761
  -1  -8 -11 20.3234 7.79620
  -1  -8 -11 8.07191 5.43009
  -1  -8 -12 2.15682 5.20756
  -1  -9   8 27.3340 8.14852
  -1  -9   7 16.3366 7.43393
  -1  -9   6 11.9755 7.19611
   1   9  -6 22.7187 10.3330
   1   9  -5 34.2275 10.5671
   1   9  -5 42.1133 7.45319
  -1  -9   5 41.3215 8.02202
  -1  -9   4-1.92054 6.19266
   1   9  -4 16.8613 9.41137
   1   9  -4 0.29409 5.69160
   1   9  -3 44.2743 9.85437
   1   9  -3 24.9929 6.93809
   1   9  -2 105.341 13.2336
   1   9  -2 119.369 12.0910
  -1  -9   1 350.642 30.8586
   1   9  -1 387.803 30.9605
   1   9  -1 384.568 29.6598
   1   9  -1 353.159 31.1563
   1   9   0 26.0533 7.14876
   1   9   0 31.7921 5.33705
   1   9   0 23.1746 7.54286
  -1  -9   0 37.7709 7.29755
   1   9   1 73.8171 9.54291
   1   9   1 79.7736 7.78001
  -1  -9  -1 57.4350 8.97384
   1   9   2 77.9453 7.42860
  -1  -9  -2 57.5631 8.68086
   1   9   2 56.2037 8.70056
  -1  -9  -2 65.8265 7.77877
   1   9   3 100.542 11.2408
  -1  -9  -3 101.809 11.3545
   1   9   3 120.098 10.1432
   1   9   3 103.630 10.1368
  -1  -9  -4 15.8501 5.45887
   1   9   4 14.7357 6.23587
   1   9   4 20.5237 4.71160
  -1  -9  -4 21.9849 6.09731
   1   9   4 23.3198 5.51465
   1   9   5 1.08710 4.93207
   1   9   5 7.82875 5.14463
   1   9   5 11.8310 5.62548
  -1  -9  -5 2.87621 5.26657
  -1  -9  -5 5.20256 5.42835
   1   9   6 6.06011 5.34128
   1   9   6 8.61094 5.28639
  -1  -9  -6 1.07733 5.30795
  -1  -9  -6 8.96397 5.72899
   1   9   7 32.2713 6.11817
  -1  -9  -7 17.6412 6.07904
  -1  -9  -7 25.4560 6.62278
  -1  -9  -8 231.803 20.2207
  -1  -9  -8 237.140 20.3439
  -1  -9  -9 108.667 11.5218
  -1  -9  -9 120.514 12.3555
  -1  -9 -10 11.2700 5.66406
  -1  -9 -10 9.91956 7.45242
  -1 -10   5 10.3051 7.22496
   1  10  -4 20.7614 10.1707
  -1 -10   4 37.2793 8.03497
   1  10  -3-3.10524 9.53429
   1  10  -2 7.74769 8.55376
  -1 -10   1-4.87326 7.16566
   1  10  -1 4.94509 8.08648
   1  10  -1 7.01965 6.84990
   1  10   0 32.0810 7.82991
  -1 -10   0 32.5932 7.62120
   1  10   0 37.1208 8.53449
   1  10   1 47.8591 8.72530
  -1 -10  -1 43.5084 8.12279
   1  10   1 48.0535 8.50637
  -1 -10  -2 156.248 13.7631
  -1 -10  -2 151.763 14.8404
   1  10   2 146.672 14.7565
  -1 -10  -3 102.170 11.3278
   1  10   3 94.5036 10.9333
  -1 -10  -3 101.950 10.3578
   1  10   4 154.552 13.0337
  -1 -10  -4 128.443 13.7053
   1  10   4 118.124 13.6749
  -1 -10  -4 148.314 13.2447
  -1 -10  -5 54.3801 7.61608
   1  10   5 47.4535 7.93125
  -1 -10  -5 49.2793 8.33940
  -1 -10  -6 8.47181 6.07042
  -1 -10  -6 12.6320 6.26531
  -1 -10  -7 1.20311 5.68552
  -1 -10  -7 7.97612 6.40013
  -1 -10  -8 12.0397 5.94871
  -1 -10  -8 7.43232 6.67089
   1  11  -1 4.86444 8.49108
   1  11   0-5.45008 7.90315
   1  11   1 46.3875 9.04758
   1  11   2 3.17236 6.91134
   1  11   3 52.6077 8.93200
  -1 -11  -3 61.5355 7.92622
  -1 -11  -4 96.6645 10.5314
  -1 -11  -5 6.62111 6.49244
  -1 -11  -6 19.3228 6.73673
  -1 -11  -7 10.7418 7.00301
  -2  10   5 444.853 33.0978
   2 -10  -5 352.049 31.9727
  -2  10   4 12.4589 8.22262
  -2  10   3 21.7668 9.12431
   2 -10  -3 26.2642 7.41754
  -2  10   2 4.81808 9.35119
   2 -10  -2 3.32944 6.45021
  -2  10   1 14.7035 10.0059
  -2  10   0 38.3128 11.1747
  -2  10   0 16.2751 8.95602
  -2  10  -1 153.904 16.9164
  -2  10  -2 252.163 24.1186
  -2  10  -3 31.1037 10.2668
  -2  10  -4 7.96531 9.72840
  -2   9   8 165.588 16.1714
  -2   9   7 1.20481 6.64904
   2  -9  -6 160.765 15.7491
   2  -9  -6 164.021 16.8390
  -2   9   5 63.0706 9.49710
   2  -9  -5 59.9600 8.64851
   2  -9  -5 37.7131 7.18403
  -2   9   4 111.997 12.5894
   2  -9  -4 93.0678 11.4321
   2  -9  -4 106.757 11.0418
  -2   9   3 38.6048 9.59410
   2  -9  -3 51.8992 8.19184
   2  -9  -3 39.2091 7.40420
   2  -9  -2 3.13771 6.20304
  -2   9   2 12.2006 9.10296
   2  -9  -1 11.6221 6.48011
  -2   9   1 7.27036 9.24733
  -2   9   0 16.5290 9.83517
  -2   9  -1 23.9636 10.5714
  -2   9  -1 11.1323 8.45061
  -2   9  -2 200.695 20.0518
  -2   9  -2 207.219 21.2305
  -2   9  -3 23.2736 9.93276
  -2   9  -3 25.3554 11.5687
   2  -9   3 29.3005 7.59643
  -2   9  -4 57.9177 13.3253
   2  -9   4 67.1390 9.58553
  -2   9  -5 19.9452 9.69597
  -2   9  -6 2.17358 9.33152
  -2   9  -7-10.0304 9.39961
  -2   8  10 105.276 11.6897
  -2   8   9-0.36561 6.29271
   2  -8  -8 13.0788 7.56706
  -2   8   8 6.26130 6.43030
  -2   8   7 21.7882 7.02923
   2  -8  -7 17.4427 7.06094
   2  -8  -7 6.60860 4.73750
  -2   8   6 33.6683 7.83562
   2  -8  -6 41.2582 6.15071
   2  -8  -6 34.6720 7.75718
  -2   8   5 95.8230 11.0526
   2  -8  -5 75.8020 9.14475
   2  -8  -5 96.4653 10.3563
   2  -8  -4 74.7585 9.22718
  -2   8   4 91.5022 10.5871
   2  -8  -4 60.8451 8.31074
  -2   8   3 124.609 13.8580
   2  -8  -3 132.656 12.4709
   2  -8  -3 117.836 12.0384
   2  -8  -2 56.6270 8.15825
  -2   8   2 61.2460 10.3867
   2  -8  -2 66.2450 8.46982
   2  -8  -1 4.76075 5.71704
  -2   8   1 3.26139 7.89882
  -2   8   0 7.97013 8.56430
   2  -8   0-0.93738 5.58346
  -2   8  -1 18.0050 9.58042
  -2   8  -2 63.5722 12.3012
  -2   8  -2 78.6093 11.2136
  -2   8  -3 161.640 17.7379
   2  -8   3 163.432 15.1219
  -2   8  -3 144.868 16.7596
  -2   8  -4 154.693 17.1188
  -2   8  -4 143.380 15.8071
   2  -8   4 135.137 14.0328
  -2   8  -5 90.2125 14.6618
  -2   8  -5 80.9947 12.5681
   2  -8   5 104.712 11.4097
  -2   8  -6 17.0889 9.21964
  -2   8  -6 2.09559 12.1342
   2  -8   6 13.8756 7.33797
  -2   8  -7 32.7248 9.73989
   2  -8   7 26.5840 7.95113
  -2   8  -8 18.6234 9.47321
  -2   7  11-10.5590 6.34608
  -2   7  10 109.071 11.7860
  -2   7   9 19.4295 6.55280
   2  -7  -9 26.7751 7.64302
   2  -7  -8 24.4470 4.75980
   2  -7  -8 22.3986 7.08801
  -2   7   8 22.4611 6.59467
  -2   7   7 3.41975 6.08941
   2  -7  -7 3.67390 4.17043
   2  -7  -7 3.93145 6.05433
  -2   7   7 5.25762 5.77311
   2  -7  -6 23.5194 5.01783
   2  -7  -6 34.4848 6.95796
  -2   7   6 23.9888 7.08664
   2  -7  -5 68.7122 8.84905
  -2   7   5 72.9272 9.54614
   2  -7  -5 71.1719 7.81257
   2  -7  -4 78.3494 8.60792
  -2   7   4 66.2402 7.26421
  -2   7   4 70.1396 9.58491
   2  -7  -4 63.4681 7.66864
   2  -7  -3 13.8082 5.60737
   2  -7  -3 16.2114 4.99627
  -2   7   3 11.4977 4.28264
  -2   7   3 16.7590 7.02179
  -2   7   2 33.6272 7.99649
   2  -7  -2 41.5912 6.60025
   2  -7  -2 38.0395 6.03544
  -2   7   2 19.1710 5.03279
  -2   7   1 22.7262 8.05042
   2  -7  -1 18.6415 5.72115
  -2   7   1 17.8175 4.67563
  -2   7   0 19.8013 8.51991
   2  -7   0 25.7758 5.99562
  -2   7  -1 24.0525 8.90419
  -2   7  -2 35.7350 8.25826
  -2   7  -2 32.2242 9.69100
  -2   7  -3 10.1056 9.35057
   2  -7   4 83.1978 9.92896
  -2   7  -4 88.6201 11.9337
  -2   7  -4 89.9510 13.1403
  -2   7  -5 132.877 14.0557
   2  -7   5 114.639 12.5428
   2  -7   6 225.959 19.9649
  -2   7  -6 220.528 20.9098
  -2   7  -7 1174.64 88.8450
   2  -7   7 1091.94 88.2591
  -2   7  -8 253.723 21.4988
  -2   7  -8 181.368 23.3862
  -2   7  -9 75.9630 11.6007
  -2   7 -10 3.16591 9.13958
  -2   6  12 13.5967 6.54599
  -2   6  11 45.9609 8.04221
  -2   6  10 49.9395 7.97393
   2  -6 -10 47.3485 8.45176
   2  -6  -9 52.4010 6.15127
   2  -6  -9 55.7452 8.74933
  -2   6   9 52.1902 8.26547
  -2   6   9 71.4249 7.78304
  -2   6   8 8.95679 6.00357
  -2   6   8 9.18433 5.34466
   2  -6  -8 0.35719 6.04300
   2  -6  -8 1.37065 3.43205
  -2   6   7 14.7877 5.46514
   2  -6  -7 14.7250 3.96441
   2  -6  -7 11.0320 5.88536
  -2   6   7 14.0353 6.07528
   2  -6  -6 32.2086 5.01826
   2  -6  -6 30.5113 6.66274
  -2   6   6 40.2915 6.92601
   2  -6  -5 350.724 27.0308
  -2   6   5 347.386 27.3562
   2  -6  -5 305.080 26.2468
   2  -6  -4 11.4585 4.07094
  -2   6   4 5.66137 3.54788
  -2   6   4 12.1513 5.51646
  -2   6   4 3.18086 5.13586
   2  -6  -4 11.4787 5.32949
  -2   6   4 9.10049 6.20587
  -2   6   3 60.2553 8.55834
  -2   6   3 75.2814 7.89403
  -2   6   3 67.2305 7.68187
   2  -6  -3 43.0295 6.47326
   2  -6  -3 72.9393 7.60747
  -2   6   3 52.6318 6.30189
  -2   6   2 160.621 14.0703
  -2   6   2 155.302 15.6649
  -2   6   2 170.480 14.8050
   2  -6  -2 161.928 14.3853
   2  -6  -2 184.401 14.8420
  -2   6   1 132.208 13.6255
  -2   6   1 134.787 11.7817
   2  -6  -1 133.443 12.2463
   2  -6  -1 125.656 12.4099
   2  -6  -1 150.083 13.5922
  -2   6   0 21.4777 7.79479
  -2   6   0 29.8582 5.65494
  -2   6   0 26.4909 4.75671
   2  -6   0 19.1021 5.42568
   2  -6   0 28.2353 7.09369
   2  -6   1 522.645 38.9068
   2  -6   1 467.980 38.2515
  -2   6  -1 444.509 37.9772
  -2   6  -1 515.756 38.2447
  -2   6  -1 476.113 39.4181
  -2   6  -2 773.502 60.0485
  -2   6  -2 699.468 59.3115
  -2   6  -2 726.706 58.6326
  -2   6  -2 804.885 58.7660
  -2   6  -3 285.467 22.7478
  -2   6  -3 253.069 24.3549
   2  -6   4 1310.78 98.9828
  -2   6  -4 1230.52 99.3696
  -2   6  -5 263.703 22.9080
   2  -6   5 255.069 22.0648
   2  -6   6 533.057 40.4056
  -2   6  -6 463.791 40.6077
  -2   6  -7 105.078 14.6423
  -2   6  -7 104.065 12.4527
   2  -6   7 98.7703 11.3213
  -2   6  -8 81.4755 13.8921
  -2   6  -8 88.4664 11.6431
  -2   6  -9 80.6275 14.8857
   2  -6   9 89.9199 11.9663
  -2   6 -10 52.9367 13.5733
   2  -6  10 54.7551 9.65233
  -2   6 -10 64.6378 10.8714
  -2   6 -11 1.01985 8.98646
  -2   5  10 36.6341 6.19495
  -2   5  10 34.6889 7.24299
   2  -5  -9 30.0109 4.26502
  -2   5   9 28.9921 5.57410
  -2   5   9 27.9946 6.61722
  -2   5   8 508.952 39.4492
   2  -5  -8 452.867 38.3597
  -2   5   8 543.858 38.8669
   2  -5  -7 129.619 11.0730
  -2   5   6 156.250 12.2268
  -2   5   6 128.728 12.4982
   2  -5  -6 120.121 11.1236
  -2   5   5 40.4495 5.73535
   2  -5  -5 26.2300 5.83793
  -2   5   5 43.2599 6.25613
   2  -5  -5 31.8651 4.56138
  -2   5   5 29.4042 6.36793
  -2   5   4 3.46845 4.70628
   2  -5  -4 4.35563 3.31181
  -2   5   4 12.2199 4.84485
   2  -5  -4 11.2063 4.83972
  -2   5   4 8.54462 5.07204
  -2   5   3-0.65793 4.44854
   2  -5  -3-1.08778 3.28214
  -2   5   3 4.06535 4.63277
  -2   5   3-6.38259 5.52045
  -2   5   3-3.05670 4.79886
   2  -5  -3-2.14671 4.27070
  -2   5   3 2.64877 2.87566
  -2   5   2 24.3428 6.50616
  -2   5   2 18.5818 5.02944
   2  -5  -2 25.6658 4.14764
   2  -5  -2 14.0491 4.81128
   2  -5  -1 106.903 9.70955
  -2   5   1 101.437 9.04668
   2  -5  -1 95.3311 9.37290
  -2   5   1 99.5440 9.65512
   2  -5  -1 95.5130 10.6063
   2  -5   0 566.810 43.7711
   2  -5   0 573.431 43.3170
  -2   5   0 517.894 42.9357
  -2   5   0 559.158 43.1943
  -2   5   0 546.777 44.0132
   2  -5   1 45.8213 5.82713
  -2   5  -1 39.0698 5.20948
   2  -5   1 41.1793 7.05767
  -2   5  -1 37.4739 5.82322
  -2   5  -1 32.6650 7.64033
  -2   5  -2 289.303 25.3172
  -2   5  -2 266.245 24.6320
  -2   5  -2 300.533 24.0277
  -2   5  -2 320.344 24.1937
  -2   5  -3 43.4643 6.14524
  -2   5  -3 30.4662 7.17228
  -2   5  -3 45.5316 5.91277
   2  -5   4 34.3161 6.98198
  -2   5  -4 37.8953 6.03090
  -2   5  -4 54.8384 6.80501
   2  -5   4 42.2409 6.57009
  -2   5  -4 45.7500 7.98424
  -2   5  -5 13.1677 5.70804
  -2   5  -5 16.1746 6.81611
   2  -5   5 6.49579 5.22353
  -2   5  -6 63.1962 9.26207
  -2   5  -6 53.2365 11.0043
   2  -5   6 71.9815 8.53348
  -2   5  -7 88.4922 13.1514
  -2   5  -7 103.112 11.5769
  -2   5  -8 93.9372 13.1722
   2  -5   8 91.7050 10.8289
  -2   5  -8 89.2170 11.5569
  -2   5  -9 42.9052 11.2178
  -2   5  -9 54.7480 9.55910
   2  -5   9 56.7712 8.76741
  -2   5 -10 100.690 15.6651
   2  -5  10 132.738 13.1809
  -2   5 -10 124.758 14.0463
   2  -5  11 17.9992 7.70853
  -2   5 -11 12.4056 11.2807
  -2   5 -11 26.6954 8.97111
   2  -4 -12 0.42645 7.93625
   2  -4 -11 31.9585 8.22206
   2  -4 -11 38.7012 8.39861
   2  -4 -11 20.9214 7.07839
  -2   4  11 24.5031 5.68895
   2  -4 -10 13.5981 6.31139
   2  -4 -10 9.44779 6.88589
  -2   4  10 0.98283 4.64344
   2  -4 -10 2.10188 2.77895
   2  -4 -10 2.05873 6.73815
   2  -4  -9 5.54436 4.55624
  -2   4   9 4.44455 4.43737
   2  -4  -9 0.33403 6.29250
   2  -4  -9 2.91538 5.69583
   2  -4  -9 6.85729 2.80931
  -2   4   8 265.719 20.2683
   2  -4  -8 275.068 21.3297
   2  -4  -8 230.753 19.6830
  -2   4   7 97.7893 8.54640
  -2   4   7 95.8160 9.39053
   2  -4  -7 80.4236 7.67542
  -2   4   6 193.585 15.0859
   2  -4  -6 165.846 14.4882
  -2   4   6 194.433 15.4697
  -2   4   5 188.210 15.3833
  -2   4   5 195.543 15.2915
   2  -4  -5 174.478 14.5048
  -2   4   5 162.233 15.5900
  -2   4   4 157.891 14.4556
   2  -4  -4 173.181 13.6699
  -2   4   4 168.036 14.3473
  -2   4   4 182.414 14.3197
  -2   4   4 146.437 14.6637
  -2   4   3 132.944 13.2874
  -2   4   3 149.630 12.8671
   2  -4  -3 155.764 12.2713
  -2   4   3 144.072 12.0603
  -2   4   3 147.930 12.9569
  -2   4   3 150.309 12.9065
  -2   4   2 312.641 24.7094
  -2   4   2 303.554 24.1051
   2  -4  -2 318.701 24.2452
  -2   4   2 331.655 24.7165
  -2   4   2 252.860 24.8835
   2  -4  -1 36.1931 5.28135
  -2   4   1 36.5078 4.45046
  -2   4   1 38.8851 5.46936
   2  -4  -1 36.5729 6.54849
   2  -4  -1 39.6652 4.73808
  -2   4   1 30.1545 6.51377
  -2   4   0 1313.62 109.040
  -2   4   0 1416.88 108.414
   2  -4   0 1416.56 109.019
  -2   4   0 1445.53 108.598
   2  -4   0 1431.54 108.663
  -2   4  -1 0.90633 6.09069
   2  -4   1 10.4331 4.02148
  -2   4  -1 10.9130 3.52525
  -2   4  -1 13.0521 4.46586
  -2   4  -2 430.910 34.9897
  -2   4  -2 440.141 34.9635
   2  -4   2 461.701 35.1060
  -2   4  -3 31.0393 6.33323
  -2   4  -3 36.0344 5.72213
   2  -4   3 30.0350 6.25816
  -2   4  -3 32.6298 5.06077
  -2   4  -4 88.2142 8.63134
  -2   4  -4 94.0463 9.06773
  -2   4  -4 80.9113 9.52611
  -2   4  -4 84.3537 10.5514
   2  -4   4 79.1031 9.08967
  -2   4  -5 19.0275 7.40700
  -2   4  -5 13.7240 5.85852
  -2   4  -5 8.93908 5.31130
   2  -4   5 12.4380 4.58515
   2  -4   5 14.0375 5.32786
   2  -4   6 0.26605 5.15248
  -2   4  -6 2.27615 6.05185
  -2   4  -7 28.0032 9.26052
  -2   4  -7 26.7606 6.91837
  -2   4  -8 52.9546 11.1234
  -2   4  -8 61.0462 9.25874
   2  -4   8 72.3757 8.69626
  -2   4  -9 24.2666 7.65658
   2  -4   9 24.5691 6.86536
  -2   4 -10 71.0545 12.6010
  -2   4 -10 101.615 11.5669
   2  -4  10 89.5170 10.5046
  -2   4 -11 16.5804 10.2155
  -2   4 -11 21.6433 8.32647
   2  -4  11 27.8520 7.28765
  -2   4 -12 26.8377 11.3914
   2  -4  12 43.4286 8.50085
  -2   4 -12 38.9643 9.38639
   2  -3 -13 19.0237 8.76098
   2  -3 -12 88.7151 11.0675
  -2   3  12 100.433 9.56042
   2  -3 -12 73.1415 10.6232
   2  -3 -12 90.0530 11.4547
   2  -3 -11 19.1282 7.23147
   2  -3 -11 31.0272 7.80679
   2  -3 -11 15.4555 6.84624
  -2   3  11 24.7801 5.40246
   2  -3 -10 28.7241 7.15923
   2  -3 -10 14.6392 6.21332
   2  -3 -10 11.8088 3.00872
   2  -3 -10 20.4472 6.73399
  -2   3  10 17.5404 4.70745
   2  -3  -9 10.2276 6.03114
   2  -3  -9 16.3307 6.05437
   2  -3  -9 15.0287 5.73716
   2  -3  -9 11.3212 2.74988
  -2   3   9 15.7999 4.33209
   2  -3  -9 8.95541 4.16200
   2  -3  -8 70.0951 7.80885
   2  -3  -8 57.0274 7.72847
  -2   3   8 58.2736 6.28117
   2  -3  -8 51.3789 5.30424
   2  -3  -8 64.6600 7.41320
   2  -3  -8 52.4322 6.18583
  -2   3   7 100.876 8.88013
   2  -3  -7 92.5584 8.15868
   2  -3  -7 103.839 9.87406
   2  -3  -7 101.251 9.91061
   2  -3  -7 102.144 10.0318
  -2   3   7 96.1657 9.66326
   2  -3  -6 40.0246 4.00279
  -2   3   6 42.5255 5.13981
  -2   3   6 41.9548 6.03802
   2  -3  -6 46.7535 5.90359
   2  -3  -6 28.4707 5.94285
  -2   3   5 107.347 9.76362
   2  -3  -5 115.801 10.1601
   2  -3  -5 99.7125 8.72768
   2  -3  -5 116.799 9.93980
  -2   3   4 442.831 33.5980
   2  -3  -4 413.981 33.0206
  -2   3   4 438.963 33.6519
  -2   3   3 20.8426 4.40889
  -2   3   3 21.7675 2.83778
  -2   3   3 21.3992 4.57673
  -2   3   3 15.5368 4.81038
   2  -3  -3 25.8879 3.02290
  -2   3   2 2231.97 172.299
  -2   3   2 2505.74 172.429
  -2   3   2 2241.23 171.963
  -2   3   2 2036.60 172.487
   2  -3  -2 2232.31 172.033
  -2   3   1 41.6878 4.18986
  -2   3   1 28.1595 6.15220
  -2   3   0 9.80112 4.04789
  -2   3   0 12.7562 3.14115
  -2   3  -1 166.591 14.0188
  -2   3  -2 106.324 9.18842
  -2   3  -2 83.7893 9.38785
  -2   3  -2 102.352 8.93607
   2  -3   2 104.998 9.04269
   2  -3   2 76.4950 9.67636
  -2   3  -3 265.079 22.7210
  -2   3  -3 283.347 22.0477
   2  -3   3 274.884 22.1699
  -2   3  -3 256.699 22.2379
   2  -3   4 6.76936 4.73669
  -2   3  -4 13.0080 6.15635
  -2   3  -4 3.39972 4.46326
  -2   3  -4 3.97003 4.94768
   2  -3   4 0.24039 4.13172
   2  -3   5 1.56709 4.39659
  -2   3  -5 5.82027 5.08814
   2  -3   5 6.89720 4.75065
  -2   3  -5 7.89395 6.61343
   2  -3   6 12.1045 5.37845
   2  -3   6 9.01280 5.03082
  -2   3  -6 12.7341 5.52385
  -2   3  -6 2.45985 6.76007
   2  -3   7 326.439 26.6921
  -2   3  -7 358.112 27.0704
   2  -3   7 299.730 26.3891
  -2   3  -7 330.918 27.6019
  -2   3  -8 128.311 14.2690
  -2   3  -8 123.089 13.1433
  -2   3  -8 147.779 12.2193
   2  -3   8 129.823 12.7473
   2  -3   8 129.396 12.3925
  -2   3  -9 14.0807 8.12413
  -2   3  -9-1.10020 6.63072
   2  -3   9 2.38661 5.50236
  -2   3 -10 33.6198 8.85731
  -2   3 -10 19.8372 7.39645
   2  -3  10 25.0683 6.60827
  -2   3 -11 33.2783 8.18162
  -2   3 -11 23.0181 9.63219
  -2   3 -12 10.3039 9.82822
  -2   3 -12 22.9259 8.31494
  -2   3 -13 69.9461 12.2324
   2  -2 -13 6.53234 8.32600
   2  -2 -12 160.989 15.6505
   2  -2 -12 160.049 15.3285
   2  -2 -12 148.789 14.9094
   2  -2 -11 31.7147 7.55174
  -2   2  11 34.8238 5.96087
   2  -2 -11 41.1333 7.26893
   2  -2 -11 31.3326 7.72652
   2  -2 -10 16.7989 6.55221
   2  -2 -10 26.6841 6.27261
  -2   2  10 15.2924 4.77366
   2  -2 -10 24.6380 6.53857
   2  -2  -9 47.7248 7.71044
   2  -2  -9 47.0487 7.34546
   2  -2  -9 51.5226 7.54565
  -2   2   9 57.3681 6.08081
  -2   2   8 130.603 11.9107
   2  -2  -8 129.560 11.7667
   2  -2  -8 110.733 11.7187
  -2   2   8 123.162 10.6737
  -2   2   7 29.0050 5.62096
   2  -2  -7 29.1406 5.64974
  -2   2   7 24.4355 3.98873
   2  -2  -7 23.4494 5.21798
   2  -2  -7 23.0340 2.91642
  -2   2   7 23.1961 4.88443
   2  -2  -7 22.3164 3.70693
   2  -2  -6 168.098 13.5566
   2  -2  -6 130.612 12.4320
   2  -2  -6 170.671 13.4539
  -2   2   6 168.996 13.3146
   2  -2  -6 154.838 12.2488
  -2   2   6 167.908 12.7199
  -2   2   6 146.577 13.4684
  -2   2   5 1487.39 111.154
   2  -2  -5 1488.28 111.207
  -2   2   5 1432.12 110.731
  -2   2   5 1490.72 111.063
   2  -2  -5 1377.68 110.441
   2  -2  -5 1566.87 111.212
   2  -2  -4 1154.65 91.6692
  -2   2   4 1227.91 91.6947
   2  -2  -4 1140.98 91.0417
   2  -2  -4 1305.07 91.7521
  -2   2   4 1182.46 91.6141
  -2   2   4 1266.11 91.6753
  -2   2   3 54.7152 6.02092
   2  -2  -3 51.4346 5.95595
  -2   2   3 61.6850 5.90114
   2  -2  -3 45.9316 4.50087
  -2   2   3 65.1454 5.89728
   2  -2  -3 58.2912 5.79275
   2  -2  -2 340.779 24.4926
  -2   2   2 338.851 24.5286
  -2   2   2 317.515 23.8650
   2  -2  -2 272.829 23.9341
  -2   2   1 208.498 15.6882
   2  -2  -1 181.315 16.1437
  -2   2   0 23.3771 3.19623
   2  -2   1 56.3446 5.81368
   2  -2   1 60.2934 7.00277
   2  -2   2 105.403 9.17296
  -2   2  -2 110.725 10.1176
   2  -2   2 92.4359 9.73681
  -2   2  -3 120.944 10.9937
   2  -2   3 101.695 10.3219
   2  -2   3 119.806 10.2698
  -2   2  -4 1281.55 106.857
  -2   2  -4 1414.83 107.144
  -2   2  -4 1490.93 106.719
   2  -2   4 1436.61 106.904
   2  -2   4 1313.99 106.741
  -2   2  -5 2018.87 155.540
   2  -2   5 1933.78 155.270
  -2   2  -5 1950.49 155.627
  -2   2  -5 2171.43 155.292
  -2   2  -6 886.547 69.7849
   2  -2   6 893.290 69.6464
  -2   2  -6 978.227 69.4774
   2  -2   6 821.808 69.3787
  -2   2  -6 909.582 69.9925
  -2   2  -7 116.680 11.5798
   2  -2   7 117.265 11.1181
  -2   2  -7 108.229 12.1158
  -2   2  -7 129.189 10.9345
   2  -2   7 117.705 11.3468
   2  -2   7 118.256 11.1218
   2  -2   8 7.62945 5.05049
   2  -2   8-1.19120 4.87611
   2  -2   8 1.85539 5.02742
  -2   2  -8 0.30998 5.43752
  -2   2  -8 10.7185 4.70827
  -2   2  -8 12.4081 6.62697
   2  -2   9 9.80311 5.31932
   2  -2   9 14.2345 5.55620
  -2   2  -9 22.5810 7.33706
  -2   2  -9 8.37520 6.26016
  -2   2 -10 7.55854 6.60088
  -2   2 -10 12.7268 5.79646
  -2   2 -10 7.57739 7.81696
  -2   2 -11 29.6867 8.94057
  -2   2 -11 30.8339 7.71836
  -2   2 -12 345.468 31.8735
  -2   2 -12 412.674 31.9346
  -2   2 -13 37.7090 9.27234
  -2   2 -13 9.93060 8.95145
  -2   2 -14 9.23072 9.32565
   2  -1 -13 30.8994 8.60739
   2  -1 -12 32.1652 7.26972
   2  -1 -12 25.7645 7.84992
   2  -1 -12 26.0160 7.64424
   2  -1 -11 87.9478 10.3255
   2  -1 -11 101.415 11.0616
   2  -1 -10 148.815 14.0621
   2  -1 -10 145.514 13.7864
  -2   1   9 73.7776 7.00860
   2  -1  -9 61.0604 7.94547
   2  -1  -9 59.9458 8.28804
   2  -1  -8 2.40477 5.10222
  -2   1   8 8.57695 5.58856
   2  -1  -8-4.90874 4.44346
  -2   1   8 6.97692 4.46433
  -2   1   8 9.69349 3.54949
  -2   1   7 69.2333 8.01407
   2  -1  -7 66.6265 7.39375
   2  -1  -7 68.7235 7.65802
  -2   1   7 64.9018 7.26461
  -2   1   7 70.3387 6.47766
  -2   1   6-0.20761 4.59947
  -2   1   6 4.00153 3.63147
  -2   1   6 3.95851 2.64501
   2  -1  -6 8.18049 4.14175
   2  -1  -6-0.78439 3.84451
  -2   1   5 37.7807 4.86333
  -2   1   5 36.1476 4.05003
   2  -1  -5 34.3219 5.30278
   2  -1  -5 46.8679 5.18738
  -2   1   5 33.0520 5.38674
  -2   1   4 37.9354 5.34541
   2  -1  -4 48.1881 5.15028
   2  -1  -4 39.5860 3.39274
   2  -1  -4 36.0822 4.96479
  -2   1   4 40.9953 4.90736
  -2   1   4 44.9010 4.33208
  -2   1   3 356.803 28.3953
  -2   1   3 344.888 28.3288
   2  -1  -3 382.760 28.3963
  -2   1   2 38.5927 4.79161
   2  -1  -2 42.2253 4.70589
  -2   1   1 453.704 33.9963
  -2   1   1 462.842 34.4432
   2  -1  -1 416.540 33.9996
   2  -1  -1 468.994 34.4568
  -2   1   0 888.422 68.5341
   2  -1   0 891.401 68.5296
   2  -1   0 862.520 68.4046
   2  -1   0 913.791 68.3064
   2  -1   1 133.858 11.1060
  -2   1  -1 121.642 11.6542
  -2   1  -1 137.201 11.0712
   2  -1   1 128.800 11.7527
   2  -1   1 140.108 11.2421
   2  -1   1 143.211 11.0819
   2  -1   2 598.074 44.6345
   2  -1   2 558.522 44.7507
  -2   1  -2 579.038 44.6089
  -2   1  -2 564.722 44.8653
   2  -1   3 177.045 15.2644
  -2   1  -3 177.941 15.3477
   2  -1   3 187.744 15.0652
   2  -1   3 185.722 14.9317
  -2   1  -4 528.933 39.7240
   2  -1   4 531.584 39.4471
   2  -1   4 464.169 39.3777
  -2   1  -5 159.601 12.5832
  -2   1  -5 138.898 12.9755
   2  -1   5 139.701 12.4936
  -2   1  -6 128.522 10.6496
  -2   1  -6 106.271 11.0557
   2  -1   6 115.045 10.4654
  -2   1  -7 296.022 23.4725
   2  -1   7 295.655 23.4187
  -2   1  -7 273.757 23.7768
  -2   1  -8 206.090 17.3739
  -2   1  -8 195.391 17.4360
  -2   1  -8 203.463 16.8714
   2  -1   8 194.251 16.8142
  -2   1  -9 50.5959 8.44196
  -2   1  -9 61.5295 7.32413
  -2   1  -9 56.5427 7.26572
  -2   1  -9 59.6767 8.06047
   2  -1   9 70.5495 7.53246
   2  -1  10 42.4792 7.07744
  -2   1 -10 47.0620 7.60863
  -2   1 -10 38.7194 8.33529
  -2   1 -10 55.2374 6.89623
  -2   1 -11 46.1621 8.18806
  -2   1 -11 49.6988 8.88956
  -2   1 -12 118.162 13.2071
  -2   1 -12 121.201 13.0895
  -2   1 -13 12.0529 8.36610
  -2   1 -13 17.3186 8.13487
  -2   1 -14 3.40093 8.28284
  -2   1 -15 2.19074 8.55029
   2   0 -12 22.4706 6.76707
   2   0 -12 18.3885 7.51357
   2   0 -11 0.95914 5.61723
   2   0 -11 15.0613 6.93155
   2   0 -10 51.1732 7.00165
   2   0 -10 47.2666 7.64232
   2   0 -10 38.5521 5.38878
   2   0  -9 45.5358 6.58273
   2   0  -9 46.0343 7.43726
   2   0  -8 103.459 10.2927
  -2   0   8 97.6258 9.57332
  -2   0   8 87.7493 10.5863
   2   0  -8 115.008 10.2049
  -2   0   7 71.9453 7.12901
   2   0  -7 73.3129 7.87356
  -2   0   7 52.4490 8.18478
   2   0  -7 72.3486 7.25678
  -2   0   7 65.2386 6.49339
   2   0  -7 76.6014 7.62723
  -2   0   6 6.70130 4.79750
   2   0  -6 8.65550 4.19137
  -2   0   6 8.59023 2.74189
   2   0  -6 11.4933 4.19553
  -2   0   6 4.99136 3.61756
  -2   0   5 18.7025 4.94528
  -2   0   5 18.2050 2.81152
  -2   0   5 16.9647 3.61514
   2   0  -5 12.9353 3.57982
   2   0  -5 20.8440 4.08708
   2   0  -4 3.67980 1.66977
  -2   0   4 7.23926 4.19019
   2   0  -4 1.10561 3.36776
   2   0  -4 3.12755 3.19581
  -2   0   4 2.52699 2.11388
  -2   0   4 4.24180 3.01113
  -2   0   3 83.4935 7.20801
  -2   0   3 93.5252 7.75806
   2   0  -3 91.5537 7.85377
   2   0  -3 85.2272 6.90787
   2   0  -3 108.314 8.06923
   2   0  -2 88.5221 7.12271
   2   0  -2 75.7513 7.14826
  -2   0   2 76.4116 6.93044
  -2   0   2 79.3571 7.14986
   2   0  -2 74.3209 6.92170
  -2   0   1 272.857 21.8587
   2   0  -1 294.536 21.8745
   2   0  -1 262.782 21.4094
  -2   0   1 307.309 21.7713
  -2   0   1 293.453 21.7958
   2   0  -1 270.630 21.7369
  -2   0   0 8588.15 657.776
   2   0   0 8839.04 657.816
  -2   0   0 8510.18 657.772
   2   0   0 8663.92 657.790
  -2   0   0 8540.46 657.674
  -2   0  -1 119.103 9.85890
  -2   0  -1 119.253 9.89516
  -2   0  -1 112.751 10.0622
  -2   0  -1 119.335 9.96453
  -2   0  -1 128.884 9.77062
   2   0   2 207.826 16.0461
   2   0   2 211.823 16.2772
  -2   0  -2 203.602 16.0916
  -2   0  -2 185.384 16.1169
  -2   0  -2 197.347 15.9696
  -2   0  -3 3.38778 3.35378
   2   0   3 13.2713 4.01780
   2   0   3 7.78988 3.21805
  -2   0  -3 2.43915 3.63757
  -2   0  -4 117.230 10.0826
   2   0   4 109.852 9.87875
   2   0   4 112.504 9.51727
  -2   0  -4 108.338 9.74770
   2   0   5 78.5233 7.56941
  -2   0  -5 75.4698 7.69003
   2   0   5 76.0341 7.25087
  -2   0  -5 78.0837 7.66505
   2   0   6 237.465 20.8994
  -2   0  -6 271.856 21.1519
   2   0   6 277.556 20.8366
  -2   0  -6 253.078 20.9896
   2   0   7 240.317 21.6163
  -2   0  -7 290.176 21.7018
  -2   0  -7 297.412 22.0450
   2   0   7 276.224 21.6086
  -2   0  -7 243.060 21.7704
  -2   0  -8 694.441 62.8240
  -2   0  -8 869.315 62.6954
   2   0   8 759.780 62.6067
  -2   0  -8 946.805 63.2287
   2   0   9 13.7587 5.09495
  -2   0  -9 20.2327 5.95313
  -2   0  -9 26.5484 5.17999
  -2   0  -9 27.3747 5.86851
  -2   0 -10 210.177 17.2268
  -2   0 -10 196.909 16.4687
   2   0  10 178.640 16.5281
  -2   0 -11 37.7534 7.69912
  -2   0 -12 29.4795 7.57829
  -2   0 -12 30.2030 7.83112
  -2   0 -13 20.1640 7.63488
  -2   0 -13 10.1207 7.58758
  -2   0 -14 0.38325 7.66495
  -2   0 -15-3.26049 8.27791
   2   1 -13 12.8668 7.11070
   2   1 -12 5.18435 6.21609
   2   1 -12 2.52229 7.56073
   2   1 -12 13.0822 7.54607
   2   1 -11 10.2587 5.97778
   2   1 -11 17.6862 7.27043
   2   1 -10 28.5310 7.34283
   2   1 -10 28.6177 4.56511
   2   1 -10 24.2320 5.98149
   2   1  -9 29.7801 7.22353
   2   1  -9 47.4689 5.64858
   2   1  -9 42.2378 5.05178
   2   1  -8 82.5760 9.83002
   2   1  -8 93.8265 9.01096
   2   1  -8 108.379 8.68014
  -2  -1   8 77.6234 8.80796
   2   1  -8 88.9040 8.02570
  -2  -1   7 115.709 10.3403
   2   1  -7 110.226 11.0069
   2   1  -7 118.735 10.4503
   2   1  -7 123.093 10.0247
   2   1  -7 117.250 9.61455
  -2  -1   7 108.865 9.89304
  -2  -1   7 103.449 11.3059
  -2  -1   6 91.0487 10.1293
   2   1  -6 95.0530 8.29136
  -2  -1   6 97.0189 9.07274
   2   1  -6 113.253 8.74163
  -2  -1   6 99.6532 8.60428
   2   1  -5 45.1640 4.82149
   2   1  -5 32.1758 3.59744
   2   1  -5 45.7464 4.18046
  -2  -1   5 37.9833 4.55471
  -2  -1   5 35.8318 4.09326
  -2  -1   4 375.914 29.1004
   2   1  -4 358.983 29.1194
  -2  -1   4 367.273 28.6908
   2   1  -4 384.019 28.8544
  -2  -1   3 13.5033 2.83657
   2   1  -3 12.1000 3.69447
  -2  -1   3 9.79897 1.84804
   2   1  -3 11.4974 2.11994
   2   1  -3 9.21412 2.85698
  -2  -1   2 173.269 13.9506
  -2  -1   2 179.242 13.2083
   2   1  -2 155.597 13.0399
   2   1  -2 183.216 13.2498
  -2  -1   2 162.384 13.1287
   2   1  -2 195.134 13.4431
  -2  -1   2 158.754 12.8184
   2   1  -2 167.086 13.7268
  -2  -1   1 176.566 14.2125
   2   1  -1 175.395 13.6003
  -2  -1   1 180.851 13.5994
   2   1  -1 139.769 13.5435
   2   1  -1 185.717 14.0026
  -2  -1   1 182.834 13.5769
   2   1  -1 194.619 13.8147
  -2  -1   0 822.985 63.0125
   2   1   0 746.680 62.9780
  -2  -1   0 792.060 62.9879
  -2  -1   0 851.725 63.0641
  -2  -1   0 930.127 63.2195
   2   1   0 882.472 63.1354
  -2  -1  -1 107.284 7.79725
  -2  -1  -1 93.2030 7.85227
   2   1   1 93.2827 7.77676
  -2  -1  -1 86.5929 8.04862
  -2  -1  -2 12.9268 2.63731
   2   1   2 20.8903 3.24575
  -2  -1  -2 8.41641 1.95716
  -2  -1  -2 14.0322 3.00561
   2   1   3 390.943 29.6166
  -2  -1  -3 406.032 29.7097
  -2  -1  -3 366.541 29.5920
   2   1   3 395.648 29.3225
  -2  -1  -3 354.923 29.3360
   2   1   4 587.737 45.2983
  -2  -1  -4 580.715 45.3633
  -2  -1  -4 564.554 45.0313
   2   1   4 603.216 44.9809
   2   1   5 10.9951 2.97395
  -2  -1  -5 5.83245 3.76539
  -2  -1  -5 6.68053 3.24411
   2   1   5 6.37722 3.51849
   2   1   6 85.4959 8.23731
  -2  -1  -6 78.5352 8.45682
  -2  -1  -6 82.1018 8.13289
  -2  -1  -6 92.6092 8.68923
   2   1   6 101.169 7.92092
  -2  -1  -7 372.399 30.3592
   2   1   7 402.784 30.2214
  -2  -1  -7 398.128 30.3240
  -2  -1  -7 357.655 30.5844
   2   1   7 373.377 30.4803
  -2  -1  -7 401.282 30.7410
  -2  -1  -8 884.568 70.7671
   2   1   8 849.626 70.7814
  -2  -1  -8 859.323 71.0414
  -2  -1  -8 1000.17 70.7321
   2   1   8 858.000 70.6035
  -2  -1  -8 1095.79 71.3430
  -2  -1  -9 107.951 9.66589
   2   1   9 82.7887 8.94080
  -2  -1  -9 85.7688 9.00901
  -2  -1  -9 82.6895 8.73927
   2   1   9 87.6449 8.59572
   2   1  10 128.454 11.9167
  -2  -1 -10 137.263 12.3331
   2   1  11 89.0283 8.88875
  -2  -1 -11 75.1948 9.24969
   2   1  12 57.9731 7.76132
  -2  -1 -12 54.7536 8.35366
  -2  -1 -13 27.3885 7.45362
  -2  -1 -15 3.21754 7.47312
   2   2 -13 3.74582 6.59962
   2   2 -12 41.0210 7.29574
   2   2 -12 33.4572 9.12325
   2   2 -11 16.5392 6.03235
   2   2 -11 11.1274 7.56590
   2   2 -10 15.2961 6.90358
   2   2 -10 14.1747 5.35330
   2   2 -10 15.1251 4.58587
   2   2 -10 8.61418 3.55569
   2   2  -9 10.4526 6.14617
   2   2  -9 9.70260 3.32839
   2   2  -9-1.68917 4.58029
   2   2  -9 14.1042 4.26568
  -2  -2   9 5.41273 4.23440
   2   2  -8-4.25602 5.54574
   2   2  -8 6.49201 3.02519
  -2  -2   8 13.3538 4.86198
   2   2  -8 0.41967 4.09204
   2   2  -8 6.47688 3.85229
  -2  -2   8 9.92640 3.99071
  -2  -2   7 2.53767 5.65680
   2   2  -7 2.14117 3.38249
   2   2  -7 2.55299 3.66391
  -2  -2   7 2.25901 4.22246
  -2  -2   7 1.93538 3.52906
   2   2  -7 2.06737 2.52041
  -2  -2   6 284.767 23.5268
  -2  -2   6 297.298 23.4918
   2   2  -6 304.002 22.9079
   2   2  -6 267.387 23.4205
   2   2  -6 309.181 23.5056
   2   2  -5 1764.14 133.386
  -2  -2   5 1728.33 133.830
   2   2  -5 1748.35 133.827
   2   2  -5 1709.27 133.765
   2   2  -4 4526.83 362.237
  -2  -2   4 4569.81 361.891
   2   2  -4 4815.98 361.861
   2   2  -4 4862.36 361.927
   2   2  -4 4766.28 361.518
   2   2  -3 6.29364 2.43469
   2   2  -3 12.1645 3.95086
  -2  -2   3 3.24154 1.82849
  -2  -2   3 5.79516 2.56191
   2   2  -3 3.70775 1.21117
   2   2  -3 4.30915 2.54178
  -2  -2   3 5.41558 4.56304
  -2  -2   2 75.6119 6.09994
   2   2  -2 84.2017 7.04906
   2   2  -2 75.0409 6.02057
   2   2  -2 67.2730 6.31201
  -2  -2   2 61.9283 6.39626
  -2  -2   2 62.3081 7.39752
  -2  -2   1 155.542 12.7741
   2   2  -1 136.111 12.3894
   2   2  -1 133.281 12.0422
   2   2  -1 144.967 11.6451
  -2  -2   1 168.064 12.1738
  -2  -2   1 159.422 11.6812
   2   2   0 0.82084 2.33494
  -2  -2   0-0.98698 3.12079
   2   2   0 1.59086 2.23632
  -2  -2   0 0.96421 2.19561
   2   2   0 3.94920 1.65202
   2   2   1 407.465 35.6000
   2   2   1 535.409 35.7126
  -2  -2  -1 525.248 35.5711
  -2  -2  -1 468.118 35.9429
   2   2   1 419.563 35.6600
  -2  -2  -1 434.841 35.6063
  -2  -2  -1 466.094 35.8321
   2   2   2 2188.68 159.814
  -2  -2  -2 2214.74 159.785
   2   2   2 2069.69 159.791
  -2  -2  -2 1913.69 159.764
   2   2   3 1756.96 125.531
  -2  -2  -3 1772.82 125.543
   2   2   3 1596.68 125.470
  -2  -2  -3 1486.73 125.434
   2   2   4 384.180 27.6735
  -2  -2  -4 367.272 27.7291
   2   2   4 338.814 27.5946
  -2  -2  -4 333.040 27.5391
  -2  -2  -5 2140.29 175.560
   2   2   5 2371.21 175.987
  -2  -2  -5 2261.44 176.051
   2   2   5 2475.62 175.619
   2   2   6 7.76349 2.82827
  -2  -2  -6 6.58358 2.68995
  -2  -2  -6 7.74596 3.69610
   2   2   6 8.36024 3.55488
  -2  -2  -7 39.4766 4.71695
   2   2   7 43.5196 5.35903
   2   2   7 43.2338 5.06239
  -2  -2  -7 36.7945 5.49648
   2   2   8 3.37500 3.72659
  -2  -2  -8 6.97058 3.63197
   2   2   8 6.62929 4.17288
  -2  -2  -8 9.11231 3.84802
  -2  -2  -8 6.76909 4.43012
  -2  -2  -8 11.5180 5.12439
   2   2   9 59.0435 6.83763
  -2  -2  -9 59.2160 6.84660
   2   2   9 55.9473 7.18022
  -2  -2  -9 65.9294 6.99471
  -2  -2  -9 68.9100 7.49936
  -2  -2  -9 60.2058 7.89844
  -2  -2 -10 74.8351 8.20057
   2   2  10 54.4422 7.11402
  -2  -2 -10 63.9909 7.26373
  -2  -2 -10 56.8014 7.26510
  -2  -2 -11 153.825 13.5637
   2   2  11 144.016 13.4061
  -2  -2 -11 156.282 14.3768
  -2  -2 -12 189.841 16.8655
   2   2  12 170.605 15.8333
  -2  -2 -12 187.122 16.0616
  -2  -2 -13 108.966 12.1128
  -2  -2 -13 100.700 10.9075
  -2  -2 -14 10.6883 6.54691
   2   3 -12 13.7818 6.24050
   2   3 -11 33.5152 6.52596
   2   3 -11 22.1354 8.36565
   2   3 -10 82.4427 9.00609
   2   3 -10 86.2247 7.66311
   2   3 -10 68.2829 10.4581
  -2  -3  10 86.4757 9.14283
  -2  -3   9 10.8739 5.01748
   2   3  -9 21.3696 4.96390
   2   3  -9 11.7711 6.80304
   2   3  -9 14.4283 3.31452
   2   3  -9 4.07263 4.78093
  -2  -3   8 75.3221 8.48431
   2   3  -8 102.923 8.47771
  -2  -3   8 85.5072 8.41428
   2   3  -8 70.7636 8.08772
   2   3  -8 73.6075 6.96566
  -2  -3   7 2008.69 147.771
  -2  -3   7 1880.80 147.597
   2   3  -7 1796.12 147.445
   2   3  -7 2129.06 147.726
   2   3  -7 1893.86 146.958
   2   3  -6 355.804 31.3257
  -2  -3   6 400.424 30.7916
   2   3  -6 365.580 30.5426
   2   3  -6 455.475 30.9203
   2   3  -6 382.689 30.0315
  -2  -3   5 52.6676 7.22122
   2   3  -5 55.9167 5.38897
   2   3  -5 52.1749 6.97631
  -2  -3   5 52.4858 5.82018
   2   3  -5 49.4645 5.69371
   2   3  -5 51.1525 4.52459
  -2  -3   4 7.97102 2.68250
   2   3  -4 12.8285 4.60573
  -2  -3   4 9.36924 5.07134
   2   3  -4 14.4676 3.40729
  -2  -3   4 18.5339 3.45891
   2   3  -4 13.0481 1.87844
   2   3  -4 13.3299 2.80275
  -2  -3   3 42.2278 5.96145
   2   3  -3 38.4185 5.37831
  -2  -3   3 27.1201 3.96904
   2   3  -3 31.4266 4.11764
  -2  -3   3 28.1018 4.69732
   2   3  -3 34.3231 3.49987
  -2  -3   2 83.2131 7.94035
   2   3  -2 108.520 7.71914
   2   3  -2 85.7333 8.26116
  -2  -3   2 96.9474 8.57333
  -2  -3   2 97.7594 9.31375
   2   3  -2 89.9030 8.80675
   2   3  -1 72.7210 7.37841
  -2  -3   1 79.8245 7.63123
   2   3  -1 86.2134 5.85637
   2   3  -1 58.3675 5.85674
   2   3  -1 79.0955 6.83105
  -2  -3   1 87.9355 7.01386
   2   3   0 44.7141 3.66317
  -2  -3   0 39.2813 5.04867
   2   3   0 39.4352 4.83650
   2   3   0 32.1439 4.48772
  -2  -3   0 45.2094 4.64263
  -2  -3  -1 89.6899 7.01439
   2   3   1 94.8002 6.83047
   2   3   1 68.5347 6.16144
   2   3   1 79.7498 6.43488
   2   3   1 87.4178 7.04367
  -2  -3  -1 88.7012 7.09222
  -2  -3  -1 75.0845 6.17441
   2   3   2 361.802 32.2977
  -2  -3  -2 397.081 32.2806
   2   3   2 401.222 32.3414
  -2  -3  -2 449.856 32.3503
   2   3   2 490.887 32.3040
   2   3   3 142.297 10.1489
  -2  -3  -3 127.522 10.1828
  -2  -3  -3 128.243 10.0926
   2   3   3 133.805 10.1249
  -2  -3  -3 111.321 9.68408
   2   3   4 21.3776 3.39223
  -2  -3  -4 22.0938 3.54340
   2   3   4 17.7732 3.34413
  -2  -3  -4 21.8259 2.78157
  -2  -3  -4 16.2177 3.43387
  -2  -3  -5 130.811 12.2915
  -2  -3  -5 141.204 12.1273
   2   3   5 143.724 12.2776
   2   3   5 151.992 12.1559
   2   3   5 139.186 11.6029
   2   3   5 164.028 11.6058
  -2  -3  -6 77.9242 7.19152
  -2  -3  -6 85.2951 7.91389
  -2  -3  -6 79.0574 8.06675
   2   3   6 93.1075 8.14413
   2   3   6 100.492 7.90835
   2   3   6 91.3242 7.31173
   2   3   7 157.942 12.7006
  -2  -3  -7 124.557 11.8696
   2   3   7 167.338 12.5820
  -2  -3  -7 153.060 12.8092
   2   3   7 159.968 12.1347
  -2  -3  -8 9.83073 4.57493
   2   3   8 1.11594 3.41825
  -2  -3  -8-1.08593 2.82941
   2   3   8 3.64926 4.18249
  -2  -3  -9-2.62051 4.79469
   2   3   9 6.79183 3.92176
  -2  -3  -9 2.90547 4.50411
  -2  -3  -9 2.98112 3.47331
   2   3   9 1.36647 4.46487
  -2  -3 -10 102.456 9.47104
  -2  -3 -10 87.1932 8.65191
  -2  -3 -10 88.9127 9.87932
   2   3  10 91.9879 8.98241
  -2  -3 -11 7.29988 6.06304
   2   3  11 5.39601 4.94451
  -2  -3 -11 2.66709 4.44810
  -2  -3 -12 113.079 11.4243
  -2  -3 -12 140.410 12.9256
  -2  -3 -13 49.3133 8.74223
  -2  -3 -13 48.6304 7.18666
  -2  -3 -14 39.7581 9.19407
  -2  -4  12 8.17078 6.56404
   2   4 -12 19.2416 6.36994
   2   4 -11 19.5125 6.16067
   2   4 -11 21.7059 8.46978
  -2  -4  11 27.8593 6.70031
   2   4 -10 13.3501 8.03873
   2   4 -10 8.95128 5.13049
  -2  -4  10 18.4677 5.88640
   2   4  -9 1.70495 4.65296
   2   4  -9 0.20094 2.83933
  -2  -4   9-0.29879 5.19219
  -2  -4   8 29.2847 6.05743
   2   4  -8 25.8333 3.71885
   2   4  -8 30.8027 5.31535
   2   4  -8 33.2292 5.57912
  -2  -4   8 27.7943 6.17693
   2   4  -7 21.9759 3.09037
   2   4  -7 19.8961 7.00912
  -2  -4   7 28.9487 5.45602
   2   4  -7 9.77114 4.32812
   2   4  -7 20.8734 4.89484
   2   4  -6 3.70408 3.99769
  -2  -4   6 2.17238 4.33560
   2   4  -6 4.52898 6.15682
   2   4  -6 2.47959 2.37325
   2   4  -6-2.22664 3.14900
   2   4  -5 67.6618 6.49170
  -2  -4   5 53.3122 7.64930
   2   4  -5 55.7247 7.85924
  -2  -4   5 52.8916 6.57389
   2   4  -5 53.1742 5.86202
  -2  -4   5 66.6856 6.12911
  -2  -4   4 130.566 12.7065
   2   4  -4 150.300 12.3984
   2   4  -4 166.299 13.0406
  -2  -4   4 178.646 12.7202
   2   4  -4 151.993 13.9040
  -2  -4   4 130.388 13.6318
   2   4  -3 156.225 13.9312
   2   4  -3 157.471 12.6754
   2   4  -3 171.640 13.3649
  -2  -4   3 179.757 13.8032
  -2  -4   3 142.423 12.8808
  -2  -4   3 159.619 14.0579
   2   4  -2 204.844 16.7751
   2   4  -2 201.746 16.7586
   2   4  -2 242.068 17.5231
   2   4  -2 225.977 17.8844
  -2  -4   2 260.177 17.8882
  -2  -4   2 216.963 17.9044
   2   4  -1 183.153 13.5260
   2   4  -1 138.302 12.3337
   2   4  -1 161.619 13.1099
  -2  -4   1 181.124 13.3549
   2   4  -1 160.202 12.3284
  -2  -4   1 179.077 13.5255
   2   4   0 177.944 16.0993
   2   4   0 215.888 15.9746
   2   4   0 240.183 16.8679
  -2  -4   0 211.617 16.8900
  -2  -4   0 213.409 16.9240
   2   4   0 207.193 16.8928
  -2  -4  -1 9.61473 2.03758
  -2  -4  -1 11.0062 3.58264
   2   4   1 10.0946 3.52092
   2   4   1 11.6334 3.20942
   2   4   1 10.4420 1.82612
   2   4   1 10.0987 2.54142
   2   4   2 77.2412 6.91127
   2   4   2 77.1743 6.71536
  -2  -4  -2 72.3040 6.69643
   2   4   2 82.4414 6.29536
  -2  -4  -2 86.6358 7.27079
   2   4   3 18.7265 2.97721
  -2  -4  -3 20.2964 3.16967
   2   4   3 19.9305 3.32090
   2   4   3 21.0928 3.11377
  -2  -4  -3 25.1357 3.25862
   2   4   4 42.4883 3.70596
  -2  -4  -4 37.9277 4.55331
   2   4   4 41.6686 4.69713
  -2  -4  -4 51.0120 5.20013
   2   4   4 44.8111 4.68162
   2   4   4 37.0698 4.04212
   2   4   5 160.541 13.0976
  -2  -4  -5 132.028 13.1175
   2   4   5 167.186 12.4023
   2   4   5 165.072 12.5209
  -2  -4  -5 153.846 13.3563
  -2  -4  -5 149.882 12.6958
   2   4   5 155.580 12.9474
   2   4   6 238.160 18.1474
   2   4   6 230.308 18.7356
   2   4   6 248.597 18.6272
  -2  -4  -6 207.533 18.7121
  -2  -4  -6 210.480 18.3911
   2   4   6 242.874 18.2004
   2   4   7 131.438 10.9313
   2   4   7 135.783 11.5820
  -2  -4  -7 127.546 11.7315
   2   4   7 134.735 11.4490
  -2  -4  -7 132.608 11.3553
   2   4   7 134.366 10.8453
  -2  -4  -8 270.774 23.3848
  -2  -4  -8 289.128 23.1451
   2   4   8 281.674 23.2565
   2   4   8 306.093 23.1455
   2   4   8 287.093 22.7087
  -2  -4  -9 2.94815 5.02898
   2   4   9 0.53201 3.60407
  -2  -4  -9-2.05906 4.79248
  -2  -4  -9 1.20155 3.58584
  -2  -4 -10 42.3179 6.99932
   2   4  10 37.7103 5.63590
  -2  -4 -10 44.6600 5.53938
  -2  -4 -10 36.3431 6.58427
   2   4  11 9.34700 4.64904
  -2  -4 -11 1.02610 6.11079
  -2  -4 -11 5.72592 4.38324
  -2  -4 -11 3.04058 5.80417
  -2  -4 -12 14.0420 6.99244
  -2  -4 -12 13.4372 5.14421
  -2  -4 -12 13.4205 6.56002
  -2  -4 -13 9.23112 7.53962
  -2  -4 -13 6.37593 5.49887
  -2  -4 -13 11.1423 7.42038
  -2  -4 -14 19.9264 8.35273
   2   5 -12 4.55786 5.90482
  -2  -5  12 14.3605 6.89526
  -2  -5  11 71.8033 9.53892
   2   5 -11 65.7849 8.44232
   2   5 -10 3.84316 5.07370
  -2  -5  10 3.24680 6.30454
  -2  -5   9 31.4727 7.29198
   2   5  -9 26.0600 5.68670
  -2  -5   8 7.24989 5.92039
   2   5  -8 18.7914 7.89311
   2   5  -8 1.06049 2.88976
   2   5  -8 7.15958 4.46412
  -2  -5   7 14.4550 5.75064
   2   5  -7 16.2181 7.63956
   2   5  -7 13.9579 3.26052
   2   5  -7 6.19738 4.20348
  -2  -5   6-2.08974 4.63119
   2   5  -6 5.63487 6.87528
   2   5  -6 5.00755 4.32633
  -2  -5   6-3.14023 3.94425
   2   5  -6 4.37973 3.75268
  -2  -5   5-2.59322 5.72137
  -2  -5   5 5.75222 4.10758
   2   5  -5 2.05505 6.49155
   2   5  -5-0.46814 3.95518
   2   5  -5 0.83007 3.22212
  -2  -5   5-2.90107 3.86819
   2   5  -4 16.5745 6.48530
  -2  -5   4 29.7488 4.34695
   2   5  -4 15.6440 4.41202
   2   5  -4 21.5874 3.54938
  -2  -5   4 25.0715 6.07708
  -2  -5   3 57.9979 7.56056
   2   5  -3 64.9195 5.69413
   2   5  -3 61.7980 7.84058
   2   5  -3 52.3298 5.60015
   2   5  -3 75.7969 6.79681
  -2  -5   3 61.0483 7.24680
   2   5  -2 135.240 11.4586
   2   5  -2 151.208 12.2888
  -2  -5   2 167.811 12.8763
  -2  -5   2 133.287 12.7833
   2   5  -2 141.295 12.9204
   2   5  -1 107.327 10.0443
   2   5  -1 127.898 9.91544
   2   5  -1 125.674 10.7557
  -2  -5   1 131.623 11.2366
  -2  -5   1 135.464 11.3835
   2   5  -1 126.857 11.2853
   2   5   0 189.324 14.8389
   2   5   0 186.854 15.1000
   2   5   0 188.558 13.9943
  -2  -5   0 156.592 14.8359
   2   5   0 164.786 14.2428
  -2  -5   0 173.849 15.0113
  -2  -5  -1 221.080 18.3577
   2   5   1 242.123 18.2989
   2   5   1 233.888 18.9694
  -2  -5  -1 253.083 19.0897
   2   5   1 227.113 19.0755
   2   5   2 30.2010 3.18010
   2   5   2 28.1247 4.32066
   2   5   2 27.5148 3.60196
  -2  -5  -2 23.7227 4.32660
  -2  -5  -2 25.4935 3.36685
   2   5   2 22.9663 2.81465
   2   5   3 33.3401 4.67858
   2   5   3 44.1623 4.37828
   2   5   3 42.3998 4.62240
  -2  -5  -3 35.2013 4.36749
  -2  -5  -3 48.2510 5.29123
  -2  -5  -3 49.7473 4.90922
   2   5   4 6.44912 2.82155
   2   5   4 5.28211 3.12508
   2   5   4 6.66201 2.77659
  -2  -5  -4 7.68661 2.96855
  -2  -5  -4 6.47492 3.42050
   2   5   4 8.90938 3.34216
   2   5   5 29.1265 3.38452
   2   5   5 19.0510 2.86576
   2   5   5 29.8321 3.96854
   2   5   5 24.3407 4.07560
   2   5   6 183.371 14.1449
   2   5   6 158.570 14.7124
  -2  -5  -6 186.986 15.2352
  -2  -5  -6 166.296 14.8739
   2   5   6 185.173 14.3052
   2   5   6 182.941 14.6953
   2   5   7 10.4177 3.82381
   2   5   7 13.9886 2.94308
  -2  -5  -7 12.2082 4.37167
  -2  -5  -7 11.0989 4.15967
  -2  -5  -7 8.00042 3.82499
   2   5   7 11.6239 4.28783
   2   5   7 9.97801 3.08022
   2   5   8 996.455 73.2288
   2   5   8 967.195 73.2383
   2   5   8 881.607 73.6604
  -2  -5  -8 902.616 73.8596
  -2  -5  -8 1078.30 74.2083
   2   5   8 946.681 73.5733
  -2  -5  -8 896.750 73.4466
   2   5   9 148.893 12.7050
  -2  -5  -9 156.879 13.8911
  -2  -5  -9 164.034 13.7551
   2   5   9 145.692 13.1965
  -2  -5  -9 163.040 13.3991
   2   5   9 144.468 12.6025
   2   5  10 34.6195 4.99925
  -2  -5 -10 39.9168 7.03344
  -2  -5 -10 35.0087 6.07879
  -2  -5 -10 35.7033 6.24707
   2   5  10 24.7800 4.41101
  -2  -5 -11 10.1214 6.14157
  -2  -5 -11 9.20077 6.51705
   2   5  11 6.64899 3.58950
  -2  -5 -12 17.8272 6.93357
  -2  -5 -12 7.04994 6.99106
  -2  -5 -13 6.89319 7.37864
  -2  -5 -13 2.36644 7.32165
  -2  -5 -14 62.2783 8.94987
  -2  -6  11 19.3305 7.78161
   2   6 -10 13.6989 5.33764
  -2  -6  10 16.7032 7.45216
   2   6  -9 19.0155 5.42722
   2   6  -9 17.8072 9.26494
  -2  -6   9 21.6520 7.37924
  -2  -6   8 48.4060 7.37154
   2   6  -8 57.9986 10.4866
   2   6  -8 38.2004 6.12831
  -2  -6   7 23.9868 5.87318
   2   6  -7 25.2140 8.54832
   2   6  -7 21.0516 4.90368
   2   6  -6 85.2679 10.8678
   2   6  -6 70.3388 7.75977
  -2  -6   6 89.0195 8.56050
   2   6  -5 9.42636 3.57002
   2   6  -5 11.3987 3.77248
  -2  -6   5 20.2903 4.87571
   2   6  -5 13.9659 7.30556
   2   6  -4 172.311 15.5041
   2   6  -4 141.487 13.5064
   2   6  -4 170.059 13.3519
   2   6  -4 178.661 14.3320
   2   6  -3-2.09196 2.71073
  -2  -6   3 9.58162 5.81527
   2   6  -3 3.14970 5.93418
   2   6  -3 3.27425 3.10883
   2   6  -3-3.33580 4.08176
  -2  -6   3 5.00862 4.75955
   2   6  -2 138.308 13.0303
   2   6  -2 156.694 13.6499
  -2  -6   2 189.743 14.4756
  -2  -6   2 180.842 14.4405
   2   6  -2 159.793 12.8061
   2   6  -2 156.905 14.4987
   2   6  -1 257.557 18.8462
   2   6  -1 213.062 19.0945
  -2  -6   1 239.550 19.9905
   2   6  -1 242.736 20.1500
  -2  -6   1 235.562 19.9665
   2   6   0 163.727 14.4733
   2   6   0 170.436 14.8608
   2   6   0 180.101 14.0475
  -2  -6   0 200.271 15.3928
  -2  -6   0 174.931 15.1584
   2   6   0 173.942 15.3711
  -2  -6  -1 154.044 12.6747
   2   6   1 156.670 12.5473
   2   6   1 154.279 13.3856
   2   6   1 164.598 13.7172
  -2  -6  -1 154.177 13.5526
  -2  -6  -2 537.342 43.5492
   2   6   2 594.475 43.6338
   2   6   2 531.361 43.4558
  -2  -6  -2 608.299 44.0567
   2   6   2 579.776 44.0520
  -2  -6  -3 194.628 16.6076
   2   6   3 219.666 16.7263
  -2  -6  -3 202.257 17.2733
   2   6   3 197.639 16.2313
  -2  -6  -3 234.374 17.0670
   2   6   3 223.420 16.9155
   2   6   3 199.438 16.5381
   2   6   4 269.054 22.0659
  -2  -6  -4 266.217 22.1391
  -2  -6  -4 278.736 22.6832
   2   6   4 301.845 22.1903
   2   6   4 279.114 22.1752
   2   6   5 1697.01 125.409
   2   6   5 1527.80 125.635
  -2  -6  -5 1694.90 126.215
  -2  -6  -5 1511.11 125.696
   2   6   5 1682.36 125.665
   2   6   5 1695.13 125.574
   2   6   6 968.951 69.7903
   2   6   6 781.644 70.1495
   2   6   6 901.830 70.1697
  -2  -6  -6 921.527 70.7047
  -2  -6  -6 827.744 70.3004
   2   6   6 976.806 69.9686
   2   6   7 122.782 10.2709
   2   6   7 131.466 10.0241
   2   6   7 93.8906 10.6343
   2   6   7 122.883 10.7913
  -2  -6  -7 130.780 11.4132
  -2  -6  -7 111.200 11.1415
   2   6   8 2.28180 3.21125
   2   6   8 5.49689 4.45369
   2   6   8 3.13418 3.04628
  -2  -6  -8 2.61348 4.92017
  -2  -6  -8 4.12667 4.46751
   2   6   9 15.0011 3.76880
  -2  -6  -9 6.49981 5.73249
  -2  -6  -9 4.42004 4.82286
   2   6   9 13.4893 4.75493
   2   6   9 5.63071 3.59675
  -2  -6 -10 60.9330 8.70696
  -2  -6 -10 75.7359 8.39030
   2   6  10 65.2718 7.84739
  -2  -6 -10 73.9632 8.03325
   2   6  10 55.3628 6.66307
  -2  -6 -11 46.8410 8.26079
  -2  -6 -11 56.2542 7.50557
  -2  -6 -11 40.9572 7.44090
  -2  -6 -12 11.8163 7.30963
  -2  -6 -12 8.23110 6.66386
  -2  -6 -13 56.0537 9.07314
  -2  -6 -13 48.3821 8.00750
  -2  -6 -14 24.9736 8.55465
  -2  -7  10-6.16765 7.83741
   2   7  -8 36.3047 10.4929
   2   7  -8 14.0160 5.09933
   2   7  -7 251.572 25.3947
   2   7  -7 256.934 22.9698
   2   7  -6 291.872 27.7055
   2   7  -6 320.405 25.7048
   2   7  -6 292.359 25.5644
   2   7  -5 4.65352 3.75440
   2   7  -5 4.41889 3.63057
  -2  -7   5 7.16852 5.14236
   2   7  -4 6.16815 3.35845
   2   7  -4 12.5411 7.20270
   2   7  -4 4.52380 3.79905
   2   7  -3 16.0640 7.12927
   2   7  -3 12.5002 3.93768
  -2  -7   3 16.4745 6.15112
   2   7  -3 15.0839 3.53048
  -2  -7   2 4.58715 5.72894
   2   7  -2 4.20621 3.70121
   2   7  -2 0.97276 5.91983
  -2  -7   2 7.11176 5.41072
   2   7  -2 1.56984 3.08636
  -2  -7   1 27.0874 6.12350
   2   7  -1 27.5901 6.35024
   2   7  -1 21.4340 4.60095
   2   7  -1 21.6736 3.53565
  -2  -7   1 19.8243 5.66362
   2   7   0 176.168 14.5623
   2   7   0 177.312 13.9224
  -2  -7   0 165.594 15.2471
   2   7   0 158.073 15.3540
  -2  -7  -1 411.580 31.8816
   2   7   1 383.594 31.7532
  -2  -7  -1 437.123 32.6367
   2   7   1 429.913 32.7190
  -2  -7  -2 8.36440 3.56029
   2   7   2 7.50597 4.49566
   2   7   2 7.45941 2.96199
   2   7   2 8.14280 3.58083
  -2  -7  -2 3.70169 4.35758
  -2  -7  -2 13.9424 4.97000
   2   7   3 364.157 28.5621
   2   7   3 326.720 28.3360
  -2  -7  -3 369.733 29.3421
  -2  -7  -3 423.695 29.0421
   2   7   3 363.484 28.1778
   2   7   3 365.325 28.8537
  -2  -7  -3 359.571 28.5958
   2   7   4 11.8392 3.58128
  -2  -7  -4 9.51176 3.93233
   2   7   4 6.96609 3.79978
  -2  -7  -4 7.97421 4.53024
  -2  -7  -4 12.7713 4.43778
   2   7   4 9.66325 4.00241
   2   7   5 3.18961 3.89566
   2   7   5 9.87426 3.46623
  -2  -7  -5 3.06969 3.97679
   2   7   5 4.76998 3.82045
  -2  -7  -5 1.43146 4.42889
   2   7   5 5.23088 3.69886
   2   7   6 95.9856 11.0827
   2   7   6 144.920 11.0259
  -2  -7  -6 128.291 11.9087
   2   7   6 132.786 10.6259
  -2  -7  -6 112.372 11.2982
   2   7   6 140.143 11.2945
   2   7   7 13.0763 3.76654
   2   7   7 17.3086 4.71201
   2   7   7 12.3208 3.34801
  -2  -7  -7 8.84742 4.78764
  -2  -7  -7 20.2676 4.94027
   2   7   7 8.14932 4.57067
   2   7   8 40.8655 5.84525
  -2  -7  -8 41.4788 6.55300
  -2  -7  -8 49.0941 6.65955
   2   7   8 40.6047 4.66690
   2   7   8 25.8418 4.99640
   2   7   9 99.6917 9.77985
  -2  -7  -9 114.410 10.5068
  -2  -7  -9 89.0528 10.2957
   2   7   9 93.2921 9.03692
   2   7  10 37.0546 6.67906
  -2  -7 -10 39.4663 7.58230
  -2  -7 -10 59.4820 7.40370
  -2  -7 -11 47.9493 8.59414
  -2  -7 -11 56.3134 7.83644
  -2  -7 -12 128.999 12.8380
  -2  -7 -12 125.545 13.7802
  -2  -7 -13 23.2212 6.84229
   2   8  -7 50.6670 11.4374
  -2  -8   7 49.2374 7.96665
   2   8  -6 21.6177 9.81921
  -2  -8   6 20.4292 6.58200
   2   8  -6 19.9100 4.71080
   2   8  -5 26.3930 9.19350
  -2  -8   5 41.9432 7.05393
   2   8  -5 35.2203 5.25192
   2   8  -4 73.7741 7.77826
   2   8  -4 81.6946 10.7949
   2   8  -3 78.1383 8.50974
   2   8  -3 80.9219 11.0162
  -2  -8   3 84.1393 10.4847
   2   8  -3 98.4291 8.16372
  -2  -8   2 33.6768 6.91111
   2   8  -2 28.2839 7.57824
   2   8  -2 24.6392 5.18952
   2   8  -2 33.1884 4.41870
   2   8  -1 6.69637 6.44228
   2   8  -1 11.0002 4.66711
   2   8  -1 2.99370 3.20434
  -2  -8   1 5.93849 5.69427
  -2  -8   0 63.0530 8.55944
   2   8   0 80.7014 7.95612
   2   8   0 68.7980 6.76151
   2   8   0 68.2405 8.99025
   2   8   1 174.085 14.2346
   2   8   1 164.909 15.6543
  -2  -8  -1 185.086 15.6273
  -2  -8  -2 1.99311 5.05565
   2   8   2-1.22975 5.11434
   2   8   2 6.70528 3.31152
  -2  -8  -2 2.44412 3.68027
  -2  -8  -2 1.17342 5.12096
   2   8   3 70.2612 6.02281
  -2  -8  -3 58.7759 6.65940
   2   8   3 48.9694 6.13790
   2   8   3 60.3961 7.35764
   2   8   3 60.6716 6.74728
  -2  -8  -3 60.9069 7.92301
  -2  -8  -3 69.6592 7.54514
   2   8   4 40.3242 5.66800
  -2  -8  -4 50.7411 7.03742
   2   8   4 46.7246 6.37517
   2   8   4 55.2532 6.15302
   2   8   4 50.6315 5.22215
  -2  -8  -4 54.0003 6.77010
  -2  -8  -4 48.9623 6.14747
   2   8   5 95.8037 8.60635
   2   8   5 96.9690 8.46311
   2   8   5 72.6995 8.26525
  -2  -8  -5 90.5184 8.78126
   2   8   5 71.6656 8.59586
  -2  -8  -5 97.4761 9.58203
   2   8   6 5.91067 3.99285
   2   8   6 11.8185 3.80610
  -2  -8  -6 5.01244 5.01621
   2   8   6 6.15974 4.54824
  -2  -8  -6 7.23906 4.76979
   2   8   6 11.3078 4.36815
   2   8   7 4.91300 3.87986
   2   8   7 7.70644 4.54880
  -2  -8  -7 0.26119 4.88103
  -2  -8  -7 2.73086 4.96961
   2   8   8 2.72788 3.78092
   2   8   8 1.89515 4.81103
  -2  -8  -8 6.31154 5.21312
  -2  -8  -8 5.17467 5.37948
  -2  -8  -9 38.6102 7.28722
  -2  -8  -9 34.6704 6.74375
  -2  -8 -10 4.18683 6.46754
  -2  -8 -10 28.0987 6.28086
  -2  -8 -11 81.1600 10.9695
  -2  -8 -11 96.2833 10.3865
  -2  -9   7 8.11438 6.79225
   2   9  -6 35.8582 10.6904
  -2  -9   6 24.9439 7.68240
   2   9  -5 61.9435 11.5822
  -2  -9   5 75.9961 9.51668
   2   9  -4 51.0517 10.0826
   2   9  -3 135.317 14.4636
   2   9  -3 134.866 12.2176
   2   9  -2 0.39818 7.27835
   2   9  -2 5.02908 4.54027
  -2  -9   2 5.82732 6.39844
   2   9  -1 26.3229 7.76593
   2   9  -1 28.3179 5.80191
   2   9   0 65.7602 9.19612
   2   9   0 59.3983 7.87637
   2   9   1 14.3483 6.28740
   2   9   1 13.8537 5.52236
   2   9   1 13.1108 3.79965
  -2  -9  -1 7.55542 5.67761
   2   9   2-1.04762 4.49641
   2   9   2-1.13153 5.56736
  -2  -9  -2 2.34790 4.05293
  -2  -9  -2 4.29447 5.74060
  -2  -9  -2 5.75261 5.84106
   2   9   3 0.18226 4.48237
   2   9   3 0.76916 5.29537
  -2  -9  -3 4.61747 4.51920
  -2  -9  -3 6.39516 5.44205
  -2  -9  -3 13.2896 5.79336
   2   9   3 6.88747 3.82291
   2   9   4 67.7048 7.41389
  -2  -9  -4 71.8061 7.86742
   2   9   4 72.4445 8.33815
  -2  -9  -4 74.7854 9.06069
   2   9   4 77.3979 7.85972
   2   9   5 48.6229 7.01325
   2   9   5 69.9605 6.99559
  -2  -9  -5 62.6448 8.19317
  -2  -9  -5 63.6839 7.23002
   2   9   5 43.0198 6.56478
  -2  -9  -6 84.6387 8.86899
   2   9   6 85.9223 8.56752
   2   9   6 70.4573 8.49806
  -2  -9  -6 86.2880 9.57591
  -2  -9  -7 7.70607 5.93773
   2   9   7 11.7751 5.07847
  -2  -9  -7 1.91962 5.33388
  -2  -9  -8 16.0951 6.09265
  -2  -9  -8 10.9722 6.02970
  -2  -9  -9 8.77669 6.07566
  -2  -9  -9 0.33523 6.31290
  -2  -9 -10 13.0277 6.24725
  -2  -9 -10 14.3080 6.92674
  -2 -10   6 4.17131 7.37464
  -2 -10   5 24.1052 7.62406
   2  10  -4 89.8739 11.9034
  -2 -10   4 71.5700 10.0497
   2  10  -3 139.126 15.1636
   2  10  -2 30.5195 8.22219
  -2 -10   2 18.3129 7.68648
   2  10  -1 53.0101 9.03737
   2  10   0 54.6662 8.91576
   2  10   1 27.3739 7.27736
  -2 -10  -1 30.5003 7.60425
   2  10   2 3.49572 5.97641
   2  10   2 6.24876 4.72528
  -2 -10  -2 0.43968 6.21973
   2  10   3 7.56477 5.77611
  -2 -10  -3 16.2945 5.12288
   2  10   3 11.8352 5.06701
  -2 -10  -3 3.90744 6.15466
   2  10   4 5.07426 5.28485
  -2 -10  -4 3.81200 6.05588
   2  10   4 5.74705 4.91753
  -2 -10  -4 9.27162 5.27235
   2  10   5 81.6449 8.17422
  -2 -10  -5 54.4407 9.20777
  -2 -10  -6 207.194 18.7064
  -2 -10  -7 79.6430 9.56663
  -2 -10  -7 88.1929 10.3836
  -2 -10  -8 5.71898 6.32381
  -2 -10  -9-0.34202 6.45648
   2  11  -2 15.1252 8.19582
   2  11  -1 48.2769 8.98319
   2  11   0 75.0182 10.4458
   2  11   1 35.9433 8.86469
   2  11   1 66.5334 7.37068
   2  11   2 37.5105 7.96189
   2  11   2 51.5550 6.90942
  -3   9   5 2.77874 7.89653
  -3   9   4 16.9610 8.84205
   3  -9  -4 11.0001 7.39843
  -3   9   3 12.6430 9.08391
   3  -9  -3 22.4913 7.51498
  -3   9   2 92.8205 13.1920
   3  -9  -2 104.143 11.4572
   3  -9  -1 291.423 24.3077
  -3   9   1 268.625 26.0370
  -3   9   0 278.076 26.2493
  -3   9  -1 13.7789 10.5722
  -3   9  -1-5.26162 8.77514
   3  -9   1 13.2926 6.93518
  -3   9  -2 19.2824 11.4519
  -3   9  -2 7.57604 9.28977
   3  -9   2-0.43751 6.82711
  -3   9  -3 17.6495 10.2143
  -3   9  -4 57.8196 12.3483
  -3   9  -5 63.6337 12.6077
  -3   8   7 28.2481 7.77551
   3  -8  -6 58.3457 9.27726
  -3   8   6 68.1371 9.97868
   3  -8  -5 8.55585 6.91959
  -3   8   5 21.1218 7.99274
  -3   8   4 7.98713 7.81825
   3  -8  -4 2.24789 6.38723
   3  -8  -3 68.1505 9.17038
  -3   8   3 61.3874 10.5733
   3  -8  -2 60.2519 8.53905
  -3   8   2 46.2741 10.0549
  -3   8   1 65.4478 11.1827
   3  -8  -1 48.0970 8.22644
   3  -8   0 312.600 25.0943
  -3   8   0 270.952 26.5014
  -3   8  -1 14.8337 10.0018
  -3   8  -2 43.0006 10.6009
   3  -8   2 66.4008 8.74266
  -3   8  -2 59.4940 12.2934
  -3   8  -3-1.93295 10.3925
  -3   8  -3 9.85623 9.14053
   3  -8   3 6.15388 6.71533
  -3   8  -4 6.71191 11.5858
  -3   8  -4 10.2782 9.60043
  -3   8  -5 17.5366 9.78231
   3  -8   5 19.1258 7.63123
   3  -8   6-2.33817 7.36581
   3  -8   6 8.76480 7.67852
  -3   8  -7 9.60181 10.1616
  -3   7   9 25.4177 7.44350
  -3   7   8 39.6308 8.26011
   3  -7  -7 71.6686 9.89171
  -3   7   7 79.1891 10.2682
   3  -7  -6 33.6303 5.73071
   3  -7  -6 43.5617 7.70698
  -3   7   6 40.4208 8.32507
   3  -7  -5 66.8729 8.90611
  -3   7   5 57.0220 9.41786
  -3   7   4 5.29544 6.94389
   3  -7  -4 25.4226 6.79604
  -3   7   4 14.6661 4.28849
  -3   7   3 5.44285 7.41033
   3  -7  -3 12.4184 6.19936
  -3   7   3 3.89571 3.98884
  -3   7   2 9.15327 7.76253
   3  -7  -2 8.73407 6.00856
  -3   7   2 2.74360 4.17745
  -3   7   1 21.7033 8.96615
   3  -7  -1 40.1170 7.05543
  -3   7   1 34.4245 5.47791
  -3   7   0 131.376 15.1753
   3  -7   0 145.422 13.5229
  -3   7  -1 256.562 23.6496
   3  -7   2 123.383 12.6396
  -3   7  -2 129.715 15.9097
  -3   7  -2 141.483 14.4079
  -3   7  -3 117.890 14.0109
  -3   7  -3 137.117 15.4339
   3  -7   3 115.823 12.2131
  -3   7  -4 25.5753 9.18121
  -3   7  -5 92.6225 12.6019
  -3   7  -6 56.5492 12.9471
  -3   7  -6 47.5823 10.5032
   3  -7   6 50.2612 8.63011
   3  -7   6 49.8799 9.00638
  -3   7  -7 16.2667 12.0078
   3  -7   7 12.9208 6.84302
  -3   7  -7 7.26279 9.14662
   3  -7   7 8.01103 7.57556
  -3   7  -8 17.0266 12.5948
  -3   7  -8 2.15581 9.20848
   3  -7   8 4.38423 7.65601
  -3   7  -9 18.3363 10.0133
  -3   6  10 7.08514 6.78000
  -3   6   9 8.42625 6.74131
  -3   6   8 40.9621 6.90778
  -3   6   8 36.8711 8.18322
   3  -6  -7 28.7724 4.77727
  -3   6   7 27.1026 7.55818
   3  -6  -6 64.1439 6.86894
  -3   6   6 70.9507 9.30168
  -3   6   5 13.9679 6.95072
   3  -6  -5 14.1079 4.21863
   3  -6  -5 15.8453 6.14796
  -3   6   4 29.6397 4.61805
  -3   6   4 42.2493 7.78781
   3  -6  -4 43.8086 7.00126
   3  -6  -3 20.6081 5.92570
  -3   6   3 9.86865 3.74106
  -3   6   3 14.2993 6.90684
  -3   6   2 1.17244 6.83163
   3  -6  -2 3.30108 5.28886
  -3   6   2-0.39219 3.61959
  -3   6   1 95.7598 12.0176
   3  -6  -1 122.061 10.8609
  -3   6   1 95.6888 9.48366
  -3   6   0 75.3966 10.5805
   3  -6   0 84.7056 8.92577
  -3   6   0 71.9066 7.79230
  -3   6  -1 9.07322 7.89619
  -3   6  -1 9.17054 4.28858
   3  -6   1 4.99271 5.30902
  -3   6  -2 46.1481 10.1133
  -3   6  -2 47.4634 8.52914
  -3   6  -2 37.4413 5.86623
   3  -6   2 39.7697 6.77487
  -3   6  -3 39.3182 8.67337
   3  -6   3 42.6508 6.69355
  -3   6  -4 707.258 56.5803
  -3   6  -5 1444.25 107.662
  -3   6  -5 1296.72 108.221
  -3   6  -6 168.034 15.8640
  -3   6  -6 116.333 16.5790
   3  -6   6 130.910 14.3576
   3  -6   6 170.601 14.6623
  -3   6  -7 42.4070 9.60915
  -3   6  -7 47.1688 12.1585
   3  -6   7 31.2557 7.82016
  -3   6  -8 7.95696 11.7315
  -3   6  -8 28.6152 9.23477
   3  -6   8-1.35360 6.76489
  -3   6  -9-17.2678 12.5063
  -3   6  -9 6.18196 8.87005
  -3   6 -10 13.3367 12.0467
  -3   6 -10 12.2108 9.25393
  -3   5  11 23.8445 7.41401
   3  -5 -10 11.3559 7.01722
  -3   5  10 5.39943 6.73931
  -3   5   9 5.95705 5.04099
  -3   5   9 7.73155 6.59914
   3  -5  -9 3.46618 6.58711
  -3   5   8 41.9036 6.07980
   3  -5  -8 26.8170 7.14446
  -3   5   8 23.2324 6.91272
  -3   5   7 149.293 13.8596
  -3   5   7 177.060 12.8317
   3  -5  -7 119.832 11.4188
   3  -5  -6 13.6748 3.41391
  -3   5   6 23.2523 6.34006
   3  -5  -5 73.5126 7.22295
  -3   5   5 80.6590 9.39180
  -3   5   4 86.8322 9.99998
  -3   5   3 45.3761 6.79599
  -3   5   3 47.8992 5.26572
  -3   5   3 48.8498 7.94565
  -3   5   2 58.5957 7.23190
  -3   5   2 53.2793 7.08287
  -3   5   2 44.1166 5.43596
  -3   5   2 48.6849 8.11783
  -3   5   1 736.517 58.0973
  -3   5   1 799.108 58.6847
  -3   5   1 710.873 59.1200
   3  -5   0 945.386 71.9383
  -3   5   0 889.448 72.5185
  -3   5   0 877.802 71.4293
  -3   5   0 997.898 71.9462
  -3   5  -1 16.7964 5.41305
   3  -5   1 19.8201 5.25724
  -3   5  -1 19.7879 4.23012
  -3   5  -2 2501.37 202.108
  -3   5  -2 2896.75 202.453
   3  -5   2 2551.89 202.416
  -3   5  -3 660.883 55.0837
  -3   5  -3 800.594 54.7961
  -3   5  -3 667.129 54.3265
   3  -5   3 719.232 54.7532
   3  -5   3 634.001 54.7662
  -3   5  -4 735.234 58.5735
  -3   5  -4 761.918 59.2024
  -3   5  -4 726.985 57.7031
  -3   5  -5 154.454 15.7381
  -3   5  -5 132.305 14.1391
   3  -5   5 134.803 13.3658
  -3   5  -6 198.057 18.2275
   3  -5   6 196.926 17.3339
  -3   5  -6 185.715 19.1370
   3  -5   6 193.399 17.5040
  -3   5  -7 170.494 17.0403
  -3   5  -7 186.792 18.5382
   3  -5   7 169.256 16.2743
  -3   5  -8 34.9404 11.1347
  -3   5  -8 35.8795 8.96797
   3  -5   8 33.7833 7.80491
  -3   5  -9 28.0426 11.3866
  -3   5  -9 34.6571 9.15948
  -3   5 -10 70.1748 10.8219
  -3   5 -10 47.3118 12.7576
   3  -5  10 62.7099 9.88826
  -3   5 -11 6.35141 11.1725
  -3   5 -11 9.85781 9.18674
   3  -4 -11 35.2317 9.28468
   3  -4 -10 436.258 32.7515
   3  -4 -10 358.084 31.8711
  -3   4  10 385.646 30.9643
  -3   4   9 80.0474 8.02853
   3  -4  -9 61.3664 9.12005
  -3   4   8 50.0762 5.97579
   3  -4  -8 56.6908 7.37677
   3  -4  -8 30.8838 3.93426
   3  -4  -7 4.72857 5.66192
  -3   4   7 3.53787 4.53337
   3  -4  -7 2.81579 2.35440
   3  -4  -6 19.1146 5.74461
   3  -4  -6 9.66569 2.60348
  -3   4   6 6.14095 5.68127
   3  -4  -5 9.54946 5.07395
   3  -4  -5 8.54996 2.62430
  -3   4   5-2.65684 5.45121
  -3   4   4 107.803 9.25160
  -3   4   4 96.7170 9.31528
  -3   4   4 63.1591 9.20335
  -3   4   3 329.824 24.3542
  -3   4   3 292.581 23.3597
  -3   4   3 323.223 24.3238
  -3   4   3 246.847 24.6103
  -3   4   2 768.656 55.3579
  -3   4   2 717.538 54.6850
  -3   4   2 615.424 55.5601
  -3   4   1 215.170 16.2264
  -3   4   1 186.413 15.2454
  -3   4   1 158.634 16.4786
  -3   4   0 147.403 12.4817
  -3   4   0 152.048 13.2075
  -3   4  -1 29.8514 4.66510
   3  -4   1 36.6665 5.35999
  -3   4  -1 43.1060 5.95827
  -3   4  -2 86.6771 8.44844
  -3   4  -2 77.2681 7.68094
   3  -4   2 68.5896 8.94129
  -3   4  -3 93.0856 9.92515
  -3   4  -3 87.7184 8.56555
  -3   4  -3 66.9694 10.4029
   3  -4   3 98.3729 9.70137
   3  -4   3 79.3172 8.95232
  -3   4  -3 97.4512 9.26696
  -3   4  -4 205.824 19.0895
   3  -4   4 181.145 18.5190
  -3   4  -4 260.308 18.9010
  -3   4  -4 219.861 19.7818
  -3   4  -4 217.245 18.2287
   3  -4   4 215.631 18.4140
   3  -4   4 222.535 18.5340
  -3   4  -5 251.047 22.1706
  -3   4  -5 301.034 22.0852
   3  -4   5 222.035 21.4689
   3  -4   5 264.427 21.7327
  -3   4  -6 146.228 13.9474
  -3   4  -6 139.523 14.7549
   3  -4   6 146.348 13.2598
   3  -4   6 122.462 12.9830
  -3   4  -7 63.4688 10.8874
  -3   4  -7 75.4230 9.57344
   3  -4   7 66.1502 8.62730
  -3   4  -8 207.607 19.0552
  -3   4  -8 204.609 20.0850
  -3   4  -9 18.0561 9.68546
  -3   4  -9 7.36384 7.77961
  -3   4 -10 22.2257 10.3677
  -3   4 -10 27.8461 8.70496
   3  -4  10 15.7766 7.20201
  -3   4 -11 18.4544 10.3213
  -3   4 -11 1.93103 8.30337
   3  -4  11 17.9288 7.50016
  -3   4 -12 5.22720 10.5904
   3  -3 -11 11.5316 7.68944
   3  -3 -11 4.93929 6.65728
  -3   3  11 12.5471 5.09209
   3  -3 -11 6.48780 7.52959
   3  -3 -10 149.668 14.6524
   3  -3 -10 130.693 13.7598
   3  -3 -10 146.683 14.3025
  -3   3  10 142.162 12.4890
  -3   3   9 36.9896 5.50352
   3  -3  -9 42.7670 8.08787
   3  -3  -9 33.5534 7.01385
   3  -3  -8 46.4748 4.59153
   3  -3  -8 63.9093 7.72869
  -3   3   8 81.7552 6.46457
  -3   3   7 78.4775 6.23216
   3  -3  -7 66.1782 7.93109
   3  -3  -7 41.5961 4.34010
   3  -3  -7 72.1936 7.56185
  -3   3   6 91.3584 6.37607
   3  -3  -6 83.1827 7.86068
   3  -3  -6 47.5854 4.36508
   3  -3  -6 81.1264 7.26914
   3  -3  -5 41.1666 6.16395
  -3   3   5 38.7032 6.16064
  -3   3   5 42.2656 6.24669
  -3   3   5 47.9076 6.42485
  -3   3   4 82.5457 8.47056
  -3   3   4 82.2508 8.49836
   3  -3  -4 82.1273 8.40027
  -3   3   3 198.037 16.1688
  -3   3   3 234.442 17.4345
   3  -3  -3 224.077 17.2576
  -3   3   3 215.764 17.2139
  -3   3   3 216.164 17.2909
  -3   3   3 172.991 17.4357
  -3   3   2 1101.61 76.8669
   3  -3  -2 1046.92 76.8490
  -3   3   2 982.455 76.1667
  -3   3   2 970.617 76.7813
  -3   3   2 865.353 76.9726
   3  -3  -1 1.42383 3.79315
  -3   3   1-0.76723 2.38013
   3  -3   0 378.416 30.2547
  -3   3   0 381.335 29.7787
   3  -3   1 23.1071 4.36605
  -3   3  -1 24.1456 3.85086
   3  -3   1 19.5581 5.75332
  -3   3  -2 37.0014 7.38313
   3  -3   2 51.9118 5.70367
   3  -3   2 41.4099 5.68135
   3  -3   2 37.4944 6.59040
   3  -3   3 1.61754 4.24427
  -3   3  -3 1.26535 5.92204
   3  -3   3 8.19561 5.10188
   3  -3   3 2.26787 3.89639
  -3   3  -4 21.3623 7.06316
   3  -3   4 10.7879 4.52891
   3  -3   4 9.44860 5.26675
  -3   3  -4 24.4668 5.47546
   3  -3   4 15.2063 4.86667
  -3   3  -5 115.545 12.3188
  -3   3  -5 145.586 12.3882
   3  -3   5 126.491 11.9983
   3  -3   5 132.506 11.9687
  -3   3  -5 119.504 13.2550
  -3   3  -6 151.758 14.1852
   3  -3   6 143.512 13.5716
   3  -3   6 161.397 13.9336
  -3   3  -6 151.358 14.8447
   3  -3   7 83.5207 9.04775
  -3   3  -7 86.4048 10.9848
  -3   3  -7 78.4040 9.92552
   3  -3   7 80.7612 9.38219
  -3   3  -8 284.008 23.7691
  -3   3  -8 265.432 24.2467
  -3   3  -9 60.6961 10.4197
  -3   3  -9 41.5004 8.50526
   3  -3  10 42.6341 8.19857
  -3   3 -10 64.3160 10.5365
  -3   3 -10 63.6772 9.27516
  -3   3 -11 17.0899 9.34601
  -3   3 -11 8.52702 7.93533
  -3   3 -12-3.77361 8.03457
  -3   3 -12-13.9242 9.86196
  -3   3 -13-4.29474 10.0474
   3  -2 -11 25.5502 8.08826
   3  -2 -11 25.6064 7.00710
   3  -2 -10 38.2835 7.84003
   3  -2 -10 33.5386 7.26382
  -3   2  10 38.3544 5.50222
   3  -2  -9 63.2624 8.71071
   3  -2  -9 58.2526 5.08359
   3  -2  -9 62.6879 8.20197
  -3   2   9 63.7908 6.57410
  -3   2   8 60.8050 5.60433
   3  -2  -8 54.6537 7.70961
   3  -2  -8 41.7540 3.90359
   3  -2  -8 72.3108 7.44724
  -3   2   7 150.451 11.5436
   3  -2  -7 118.267 12.7626
   3  -2  -7 122.053 12.4116
  -3   2   6 151.915 15.6875
  -3   2   6 192.435 14.9480
   3  -2  -6 189.315 16.0143
  -3   2   6 177.312 15.5071
   3  -2  -6 197.903 15.7559
  -3   2   5 0.96327 3.99029
  -3   2   5 4.86946 4.70302
   3  -2  -5 9.54187 4.58489
   3  -2  -5 7.49962 4.18880
  -3   2   4 320.005 27.9197
  -3   2   4 356.874 27.9956
   3  -2  -4 377.172 28.0448
   3  -2  -3 122.035 10.0464
  -3   2   3 111.251 10.2098
  -3   2   3 101.050 10.0498
  -3   2   2 20.5428 4.31439
  -3   2   2 19.5749 2.13462
   3  -2  -2 12.4201 2.46669
   3  -2  -2 20.9403 4.13612
   3  -2  -1 289.121 21.7089
   3  -2  -1 248.897 21.0926
  -3   2   1 273.617 21.0107
  -3   2   1 279.746 21.6984
   3  -2   0 183.983 14.0723
   3  -2   0 192.034 14.5393
  -3   2   0 182.304 14.6530
  -3   2   0 137.546 14.8391
  -3   2   0 170.112 13.9193
   3  -2   0 172.771 14.2575
  -3   2   0 163.510 14.4709
   3  -2   1 301.396 23.3404
   3  -2   1 278.448 23.7748
  -3   2  -1 242.012 23.7179
   3  -2   1 316.512 23.1536
   3  -2   1 284.381 23.2675
  -3   2  -1 305.979 23.4684
  -3   2  -2 6.84830 5.45011
   3  -2   2 5.12562 3.54655
   3  -2   2 9.72223 3.61158
   3  -2   2 3.64083 4.81418
  -3   2  -3 1.81394 5.33397
   3  -2   3-1.17619 4.53284
   3  -2   3 1.90819 3.66031
   3  -2   3 1.12556 3.54559
   3  -2   4 179.885 14.6005
   3  -2   4 169.659 14.6540
  -3   2  -4 159.089 15.3156
  -3   2  -5 184.456 16.2420
   3  -2   5 185.739 15.4639
   3  -2   5 171.535 15.3464
   3  -2   6 50.0417 6.44620
  -3   2  -6 46.2016 7.64080
  -3   2  -6 51.3714 6.29567
   3  -2   6 50.3115 6.52106
   3  -2   7 58.4112 6.87783
  -3   2  -7 56.8198 8.40368
  -3   2  -7 41.7158 6.40688
   3  -2   8 45.9648 6.50906
  -3   2  -8 37.8485 8.34769
   3  -2   9 64.7005 8.04564
  -3   2  -9 62.2214 9.74756
  -3   2  -9 71.8932 9.20459
  -3   2 -10 37.0593 8.49335
  -3   2 -10 29.5177 7.97122
  -3   2 -11 181.738 18.6554
  -3   2 -11 210.229 18.4830
  -3   2 -12 340.760 28.3552
  -3   2 -12 312.178 27.9360
  -3   2 -13 214.289 21.7369
  -3   2 -13 256.946 21.8659
  -3   2 -14 71.9616 11.9494
   3  -1 -12 25.2851 7.97943
   3  -1 -12 2.66847 6.76560
   3  -1 -11 15.0425 7.50170
   3  -1 -11 19.4719 6.76226
  -3   1  10 23.3322 4.88762
   3  -1 -10 22.1646 7.04028
   3  -1 -10 14.0602 6.24449
   3  -1  -9 2.98646 6.07394
   3  -1  -9 10.8031 5.52249
  -3   1   9 5.51519 3.78861
   3  -1  -9 5.35681 5.91086
   3  -1  -9-1.30166 2.17204
   3  -1  -8 139.749 13.3901
   3  -1  -8 139.995 11.1469
   3  -1  -8 136.656 12.9808
   3  -1  -8 144.626 11.2615
   3  -1  -8 154.174 13.3781
  -3   1   8 138.788 11.9280
   3  -1  -7 616.370 46.4434
  -3   1   7 585.675 45.9892
   3  -1  -7 580.502 44.9601
   3  -1  -7 562.757 44.9912
   3  -1  -7 675.197 46.4217
  -3   1   7 669.146 45.5303
  -3   1   6 312.847 23.6707
  -3   1   6 281.039 24.5760
   3  -1  -6 282.976 24.5007
  -3   1   6 289.869 24.2245
   3  -1  -6 328.916 24.5808
  -3   1   5 45.1723 5.64673
  -3   1   5 50.6282 4.92202
  -3   1   5 40.0264 6.22722
   3  -1  -5 48.1515 5.88066
   3  -1  -5 56.6653 6.25866
  -3   1   4 47.6762 5.87583
   3  -1  -4 52.3677 5.94636
   3  -1  -4 60.2649 6.29860
  -3   1   3 41.4387 5.11511
   3  -1  -3 48.7433 5.24973
  -3   1   3 35.6392 5.38290
   3  -1  -2 10.9434 3.49674
   3  -1  -2 15.7557 4.13289
  -3   1   2 9.00784 3.60595
  -3   1   2 10.8896 4.01735
   3  -1  -1 56.1172 5.73513
   3  -1  -1 50.9134 4.97391
  -3   1   1 53.0022 5.78324
  -3   1   1 44.9528 5.66075
  -3   1   1 54.2803 5.89825
   3  -1   0 46.1732 5.26937
  -3   1   0 48.8089 5.31690
   3  -1   0 40.6083 4.59190
  -3   1   0 37.6116 5.16100
  -3   1   0 45.2790 5.77977
  -3   1  -1 3.70058 3.74840
   3  -1   1 3.71955 2.64259
   3  -1   1 0.55814 3.29728
  -3   1  -1 2.41896 3.71778
   3  -1   1 1.94596 2.82153
  -3   1  -1 1.26608 4.29597
  -3   1  -2 3158.37 229.693
  -3   1  -2 2764.97 229.709
  -3   1  -2 3056.26 229.551
   3  -1   2 3039.39 229.707
  -3   1  -2 2948.16 229.842
   3  -1   2 3006.84 229.540
  -3   1  -3 3413.14 276.951
  -3   1  -3 3537.90 277.034
  -3   1  -3 3856.49 276.955
  -3   1  -3 3593.04 276.785
  -3   1  -3 3694.62 276.847
   3  -1   3 3561.00 276.820
   3  -1   3 3663.15 276.842
   3  -1   4 1347.40 104.775
   3  -1   4 1334.62 104.565
  -3   1  -4 1455.30 104.729
  -3   1  -4 1294.75 104.812
  -3   1  -4 1330.28 104.649
  -3   1  -4 1379.00 104.880
   3  -1   4 1381.56 104.741
   3  -1   5 37.7664 5.42503
  -3   1  -5 42.1276 6.45062
   3  -1   5 44.4394 6.02662
  -3   1  -5 37.8761 5.99303
  -3   1  -5 44.1839 5.61756
   3  -1   6 0.70000 4.32622
  -3   1  -6 3.38063 5.27554
   3  -1   6-1.58832 4.58667
   3  -1   7 31.0210 5.23899
  -3   1  -7 16.2335 6.36817
   3  -1   7 34.6169 5.93655
  -3   1  -7 33.1375 5.45958
   3  -1   8 25.7877 5.07975
  -3   1  -8 20.3059 5.45140
  -3   1  -8 20.4836 6.50876
   3  -1   8 14.2246 5.37430
  -3   1  -9 272.398 23.2591
   3  -1   9 277.176 22.5641
  -3   1 -10 990.723 78.7621
   3  -1  10 1018.62 78.2098
  -3   1 -11 6.34583 7.63303
  -3   1 -12 6.63494 7.67941
  -3   1 -12 16.4591 7.76437
  -3   1 -13 16.7869 8.30885
  -3   1 -13 24.7214 8.68777
  -3   1 -14 5.89040 8.64931
  -3   1 -15 3.80009 8.53218
   3   0 -12 59.1252 9.03847
   3   0 -11 13.1942 6.96890
   3   0 -11 5.44634 6.87889
   3   0 -11 7.53160 6.07530
   3   0 -10 29.7047 7.08061
   3   0 -10 28.2890 6.64380
   3   0 -10 21.9397 6.87868
   3   0  -9 41.5621 5.33669
   3   0  -9 69.3226 8.05029
   3   0  -9 48.1233 8.22684
   3   0  -9 51.2578 7.58015
   3   0  -9 71.1098 5.49329
   3   0  -8 7.20120 2.38250
   3   0  -8 2.56827 2.48707
   3   0  -8 9.49610 5.61427
  -3   0   8 0.12204 3.40382
   3   0  -8 8.79834 5.06271
   3   0  -8 7.37110 5.38521
   3   0  -7 43.2934 6.20954
   3   0  -7 36.4145 6.21383
   3   0  -7 45.5295 3.76710
  -3   0   7 40.3496 4.50178
   3   0  -7 26.7155 3.66831
  -3   0   7 45.4488 5.70756
   3   0  -6 52.5051 6.47425
  -3   0   6 47.6668 4.81244
  -3   0   6 44.5836 6.97890
   3   0  -6 53.1516 6.24319
   3   0  -6 51.0027 4.28066
  -3   0   6 42.6122 5.83307
  -3   0   5 94.0131 10.2182
   3   0  -5 125.766 10.5697
   3   0  -5 126.086 10.7070
  -3   0   5 123.469 9.60766
  -3   0   4 74.0103 6.37313
  -3   0   4 67.2273 7.02194
   3   0  -4 77.3012 7.26700
   3   0  -4 84.0996 7.49082
   3   0  -3 227.493 18.0449
  -3   0   3 203.209 17.7810
   3   0  -3 250.577 18.0331
   3   0  -3 213.402 17.8473
  -3   0   2 571.654 46.3801
  -3   0   2 608.952 46.5944
   3   0  -2 669.082 46.5832
  -3   0   2 566.073 46.3317
   3   0  -2 598.022 46.3674
  -3   0   1 47.5885 4.85021
   3   0  -1 49.6393 4.77469
  -3   0   1 32.2952 3.44261
  -3   0   1 40.9624 4.50450
  -3   0   1 40.2003 4.75774
   3   0  -1 34.2145 4.47753
  -3   0   0 1297.76 100.430
  -3   0   0 1363.49 100.697
   3   0   0 1358.19 100.688
   3   0   0 1327.82 100.727
  -3   0   0 1261.98 100.466
  -3   0   0 1304.50 100.654
  -3   0  -1 829.311 67.0194
  -3   0  -1 870.197 66.9905
   3   0   1 863.500 66.9889
  -3   0  -1 898.318 66.9749
  -3   0  -1 879.413 67.1561
  -3   0  -1 880.037 66.8951
  -3   0  -2 621.950 52.6247
  -3   0  -2 628.503 52.5322
  -3   0  -2 719.763 52.6085
  -3   0  -2 701.257 52.6628
  -3   0  -2 725.396 52.5036
  -3   0  -3 220.025 17.9475
  -3   0  -3 236.147 17.8946
   3   0   3 209.604 17.6755
  -3   0  -3 217.526 17.7312
   3   0   4 236.777 17.3258
  -3   0  -4 196.774 17.1911
  -3   0  -4 201.832 17.0613
   3   0   4 213.779 16.7817
  -3   0  -4 195.529 17.0005
   3   0   5 709.179 52.0382
  -3   0  -5 619.586 51.9068
  -3   0  -5 644.616 52.0639
   3   0   5 685.775 51.6425
  -3   0  -5 672.484 51.8620
   3   0   6 228.454 19.4004
  -3   0  -6 235.577 19.6369
   3   0   6 240.863 19.0126
  -3   0  -6 237.730 19.4020
   3   0   7 3.56488 3.69554
  -3   0  -7 3.35812 4.80131
   3   0   7 1.06540 4.31577
  -3   0  -7 2.62255 4.88992
   3   0   8 14.0362 4.51796
  -3   0  -8 23.1261 5.65405
   3   0   8 24.1221 5.22414
  -3   0  -8 26.6324 5.58424
  -3   0  -8 25.0762 6.03840
  -3   0  -8 17.9173 5.42887
   3   0   9 21.1708 5.06544
  -3   0  -9 18.0931 6.16532
  -3   0  -9 26.4993 6.00732
  -3   0  -9 26.7093 6.60183
  -3   0 -10 180.047 16.4398
  -3   0 -10 216.886 16.1563
   3   0  10 159.022 15.6012
   3   0  11 12.0484 5.47393
  -3   0 -11 6.28566 6.55930
  -3   0 -12 23.7628 7.67025
  -3   0 -13 5.58879 7.18967
   3   1 -12 20.5100 6.73376
   3   1 -11 23.4277 7.41151
   3   1 -11 17.7208 7.58818
   3   1 -11 24.7051 6.69336
   3   1 -10 27.1964 6.49914
   3   1 -10 27.8857 7.05870
   3   1 -10 27.4892 6.96329
   3   1  -9 30.2515 6.47975
   3   1  -9 17.8488 5.66931
   3   1  -9 18.2284 6.32348
   3   1  -9 20.4532 3.69729
  -3  -1   8-4.79424 4.41895
   3   1  -8 0.24245 4.51229
   3   1  -8-4.54664 5.50539
   3   1  -8 4.46562 5.21613
   3   1  -8 0.24260 2.68593
   3   1  -7 2.59032 4.18538
   3   1  -7-1.88527 4.81872
   3   1  -7 1.03251 2.40100
  -3  -1   7 4.23846 4.00635
   3   1  -6 6.65797 2.15026
  -3  -1   6-0.16008 3.35737
   3   1  -6 3.96987 3.68820
   3   1  -6 8.98810 4.52416
  -3  -1   6 7.00454 2.56073
   3   1  -5 0.87626 4.14510
   3   1  -5 8.14782 3.55914
  -3  -1   5 1.57274 2.07093
   3   1  -5 1.49437 1.80933
   3   1  -5 1.28418 3.85320
  -3  -1   5 0.42710 3.13777
  -3  -1   5-0.31688 2.10615
  -3  -1   4 56.2323 5.87109
  -3  -1   4 68.2621 7.09761
   3   1  -4 63.9712 6.58247
   3   1  -4 57.2309 5.08680
   3   1  -4 58.9739 6.05514
  -3  -1   4 59.3560 5.05330
   3   1  -4 68.0945 6.51371
  -3  -1   3 2.53638 2.48912
  -3  -1   3-1.82731 4.13099
   3   1  -3 3.92592 3.41560
   3   1  -3-0.43929 2.67425
   3   1  -3 0.34006 1.37858
   3   1  -3 0.94843 3.21818
  -3  -1   3 1.45787 1.44614
  -3  -1   2 2111.05 153.236
  -3  -1   2 2124.36 152.838
   3   1  -2 1931.51 152.827
  -3  -1   2 1818.22 152.663
   3   1  -2 2220.51 153.012
  -3  -1   1 12.4918 3.70207
   3   1  -1 11.1345 3.05444
  -3  -1   1 17.6130 2.59639
  -3  -1   1 8.83199 1.77046
  -3  -1   1 9.23332 3.06826
  -3  -1   1 4.87209 1.74066
   3   1  -1 7.79579 2.57408
   3   1   0 33.9363 3.69037
  -3  -1   0 29.7316 4.13841
   3   1   0 33.0286 3.89281
  -3  -1   0 36.4720 3.80141
  -3  -1   0 25.7594 3.35835
  -3  -1  -1 9.67230 2.71333
  -3  -1  -1 11.5109 2.84087
  -3  -1  -1 7.17746 2.52095
   3   1   1 13.8797 2.79782
  -3  -1  -2 203.503 15.6905
  -3  -1  -2 198.415 15.3376
  -3  -1  -2 179.357 15.5203
  -3  -1  -2 198.919 15.6063
   3   1   3 231.826 17.1932
  -3  -1  -3 230.266 17.1473
  -3  -1  -3 179.763 16.5941
  -3  -1  -3 237.808 16.9123
   3   1   4 868.807 65.2336
  -3  -1  -4 875.936 65.3212
   3   1   4 817.214 64.8560
  -3  -1  -4 842.444 64.9565
   3   1   5 697.820 52.9606
  -3  -1  -5 712.079 53.1442
   3   1   5 677.891 52.5462
  -3  -1  -5 660.874 52.6866
   3   1   6 1500.30 113.705
  -3  -1  -6 1488.64 113.897
   3   1   6 1496.77 113.315
  -3  -1  -6 1432.86 113.459
  -3  -1  -7 128.361 12.0513
   3   1   7 143.645 11.2129
  -3  -1  -7 119.077 12.0199
  -3  -1  -7 131.615 11.4918
  -3  -1  -8 223.930 20.1961
   3   1   8 251.339 20.3512
  -3  -1  -8 238.912 20.7123
  -3  -1  -8 295.641 20.9827
   3   1   8 246.509 19.8906
   3   1   9 24.0420 4.63158
  -3  -1  -9 19.5396 5.45092
  -3  -1  -9 11.4458 5.82858
  -3  -1  -9 20.2800 5.45995
  -3  -1 -10 34.8611 6.09071
   3   1  10 32.2814 5.64867
  -3  -1 -10 36.7173 6.34110
  -3  -1 -10 38.6265 7.20127
   3   1  11 0.63893 4.90049
  -3  -1 -11 4.87327 5.72418
  -3  -1 -11 18.3025 7.23213
   3   1  12 3.05025 5.35340
  -3  -1 -12 6.01642 5.98482
  -3  -1 -12 9.73532 7.46659
  -3  -1 -13 25.2427 7.08477
  -3  -1 -13 31.5674 8.35524
  -3  -1 -14 23.4762 7.45896
   3   2 -12 22.5730 6.57773
   3   2 -11 18.1150 6.19605
   3   2 -11 18.4344 8.19263
   3   2 -11 21.9080 7.35841
   3   2 -10 53.0689 7.22887
   3   2 -10 44.6126 8.14032
   3   2 -10 41.3910 7.98846
   3   2  -9 41.1843 6.54243
   3   2  -9 47.5541 5.29897
   3   2  -9 38.7495 7.31708
   3   2  -8 46.3179 6.92401
   3   2  -8 62.5245 5.87914
  -3  -2   8 52.9171 6.84130
  -3  -2   8 55.3133 6.21708
   3   2  -7 13.5376 4.81629
  -3  -2   7 26.3468 4.97763
   3   2  -7 33.2494 3.89346
  -3  -2   7 24.1574 4.23850
  -3  -2   6 151.890 12.1040
  -3  -2   6 122.111 12.1879
   3   2  -6 127.789 12.3645
   3   2  -6 163.567 11.8852
   3   2  -5 87.2345 9.77410
  -3  -2   5 89.0827 9.01961
  -3  -2   5 98.7805 10.4412
   3   2  -5 103.673 9.17887
   3   2  -5 121.561 8.78567
   3   2  -4 1.26395 3.64703
   3   2  -4 1.61783 3.91591
   3   2  -4 2.50748 2.76408
  -3  -2   4-0.21818 2.68321
   3   2  -4 4.63201 2.35660
  -3  -2   3 18.8074 3.22102
  -3  -2   3 24.4126 5.32684
   3   2  -3 20.2453 4.18807
   3   2  -3 26.5984 3.73269
   3   2  -3 19.1223 3.00998
   3   2  -3 20.9007 2.80937
  -3  -2   3 14.1378 2.90599
  -3  -2   2 213.939 17.9760
   3   2  -2 221.551 17.6361
   3   2  -2 249.442 17.3830
  -3  -2   2 225.241 16.9859
   3   2  -2 191.884 17.0587
  -3  -2   2 216.696 17.2334
   3   2  -2 211.483 16.9697
  -3  -2   1 43.7754 5.59380
  -3  -2   1 43.0977 3.75570
   3   2  -1 47.0570 4.90473
  -3  -2   1 43.8404 4.24400
   3   2  -1 35.2699 3.82176
   3   2  -1 43.0097 4.42078
  -3  -2   0 11.9535 3.66746
   3   2   0 6.78598 2.75867
  -3  -2   0 10.5300 1.65822
  -3  -2   0 8.35329 1.61221
  -3  -2   0 10.2708 2.22314
  -3  -2  -1 154.360 10.6220
  -3  -2  -1 113.204 10.0698
  -3  -2  -1 129.585 10.0422
  -3  -2  -1 99.4540 10.1708
   3   2   1 135.908 10.2636
  -3  -2  -1 135.251 10.5023
  -3  -2  -1 136.766 10.1245
   3   2   2 168.495 13.2525
  -3  -2  -2 199.997 13.0307
   3   2   2 124.648 12.8630
  -3  -2  -2 164.598 13.0493
  -3  -2  -2 187.607 13.2367
  -3  -2  -3 288.668 22.0210
  -3  -2  -3 294.997 22.4776
  -3  -2  -3 260.423 22.3513
  -3  -2  -3 291.637 22.1416
   3   2   4 129.111 10.1776
  -3  -2  -4 122.221 10.3333
  -3  -2  -4 107.974 10.1267
  -3  -2  -5 912.458 73.2723
   3   2   5 1026.91 73.8170
  -3  -2  -5 989.794 73.9270
  -3  -2  -5 988.389 73.7375
   3   2   5 960.881 73.2385
  -3  -2  -6 950.267 77.1373
   3   2   6 1036.71 77.6753
  -3  -2  -6 1002.30 77.8018
  -3  -2  -6 1070.52 77.5996
   3   2   6 1022.22 77.0936
   3   2   7 168.510 13.2587
  -3  -2  -7 155.161 13.0552
  -3  -2  -7 152.915 13.4300
   3   2   7 153.869 12.3308
  -3  -2  -7 144.824 12.4984
  -3  -2  -8 185.869 16.1412
   3   2   8 198.238 16.7710
  -3  -2  -8 192.702 17.1391
   3   2   8 200.990 16.0737
  -3  -2  -8 251.276 17.6642
  -3  -2  -9 165.481 14.3028
   3   2   9 178.067 14.9920
  -3  -2  -9 198.140 15.7200
   3   2   9 165.567 14.2197
   3   2  10 56.2985 6.51276
  -3  -2 -10 57.2239 8.07274
  -3  -2 -10 56.8915 6.68142
   3   2  11 19.0047 4.90747
  -3  -2 -11 21.1948 5.35181
  -3  -2 -11 24.3854 6.80740
  -3  -2 -12 7.10037 5.42414
  -3  -2 -12-2.34456 7.13247
  -3  -2 -13 6.00027 7.21424
  -3  -2 -13 7.09079 5.87573
   3   3 -12 6.40603 5.97526
   3   3 -11 7.69990 5.66818
   3   3 -11-8.09308 8.14078
   3   3 -10 1.11357 5.04532
  -3  -3  10-1.47914 4.87279
   3   3  -9 34.8188 5.89367
   3   3  -9 34.6230 5.02303
  -3  -3   9 26.6453 5.53069
  -3  -3   8 111.778 12.1430
   3   3  -8 120.092 12.0626
   3   3  -8 157.041 11.8713
  -3  -3   8 149.439 12.1890
   3   3  -7 438.084 41.9631
  -3  -3   7 471.282 41.4108
   3   3  -7 502.683 41.4149
   3   3  -7 602.326 41.3833
  -3  -3   7 610.558 41.6502
   3   3  -6 819.996 70.8810
  -3  -3   6 861.203 70.4697
   3   3  -6 898.470 70.4097
   3   3  -6 1034.93 70.4461
  -3  -3   5 25.3806 6.32938
   3   3  -5 30.8232 4.17383
   3   3  -5 24.1700 5.56583
   3   3  -5 30.5925 4.04025
  -3  -3   5 30.3345 4.45945
  -3  -3   4 30.5341 6.03225
   3   3  -4 24.6789 3.43659
   3   3  -4 19.9414 4.88678
  -3  -3   4 22.1090 3.64588
   3   3  -4 18.2057 3.46775
   3   3  -3 23.2291 4.51160
   3   3  -3 21.8669 2.80430
  -3  -3   3 20.4754 3.09091
   3   3  -3 18.0580 3.18617
  -3  -3   3 15.7364 3.74932
  -3  -3   2 19.7741 4.95963
   3   3  -2 17.5538 3.98761
  -3  -3   2 14.5386 2.46656
   3   3  -2 15.2253 2.10823
   3   3  -2 17.7429 3.04918
  -3  -3   2 18.2761 3.53077
   3   3  -1 495.544 39.5373
   3   3  -1 482.458 39.4190
  -3  -3   1 499.333 39.5328
   3   3  -1 541.891 39.2408
  -3  -3   1 503.783 39.9054
   3   3   0 1218.56 91.0182
  -3  -3   0 1218.51 91.1486
   3   3   0 1146.26 90.6997
  -3  -3   0 1224.23 91.2854
   3   3   1 691.521 51.7954
  -3  -3  -1 629.208 51.5892
  -3  -3  -1 697.751 52.1241
  -3  -3  -1 754.678 52.0686
  -3  -3  -2 5.48160 2.71114
  -3  -3  -2 1.90628 2.09396
  -3  -3  -2 0.66972 1.54324
   3   3   2 0.94820 2.23140
   3   3   2-1.06378 1.66920
  -3  -3  -2-0.29331 2.85396
  -3  -3  -3 2159.26 174.839
   3   3   3 2422.09 174.904
  -3  -3  -3 2298.65 174.884
  -3  -3  -4 15.4250 3.21860
   3   3   4 11.7205 3.01100
  -3  -3  -4 10.3690 3.16670
  -3  -3  -5 74.5142 7.56849
   3   3   5 88.6838 7.48482
  -3  -3  -5 78.4639 7.36493
   3   3   6 5.85193 3.73458
  -3  -3  -6 6.65112 3.54275
  -3  -3  -6 4.21509 3.82355
  -3  -3  -7 172.938 11.8013
   3   3   7 180.281 11.9396
  -3  -3  -7 123.479 10.4671
  -3  -3  -7 187.101 12.2401
   3   3   7 122.095 10.4579
  -3  -3  -8 184.083 12.9804
  -3  -3  -8 138.614 11.6044
  -3  -3  -8 187.300 13.3975
   3   3   8 132.332 11.6444
   3   3   9 245.526 17.6019
  -3  -3  -9 188.303 16.3704
  -3  -3  -9 236.376 17.9136
   3   3   9 201.151 16.4644
  -3  -3 -10 241.479 19.2916
  -3  -3 -10 287.706 20.9780
   3   3  10 225.660 19.3612
  -3  -3 -11 110.793 10.4403
   3   3  11 78.9350 8.24800
  -3  -3 -11 81.3621 8.05080
  -3  -3 -12 12.3383 7.13276
  -3  -3 -12 2.06824 4.30850
  -3  -3 -13 50.2014 9.44797
  -3  -3 -13 59.3039 7.06534
   3   4 -11-6.82092 5.59403
  -3  -4  11 12.1946 5.87494
   3   4 -10 117.316 11.3314
  -3  -4  10 120.790 11.7608
   3   4  -9 762.286 69.1068
   3   4  -9 853.812 68.4068
   3   4  -8 77.8004 7.82926
   3   4  -8 72.1178 7.96366
   3   4  -8 68.8648 9.74846
  -3  -4   8 74.0733 8.47649
  -3  -4   8 86.2492 8.84847
   3   4  -7 14.2792 4.10327
   3   4  -7 12.3362 4.13935
   3   4  -7 10.1832 6.40572
  -3  -4   7 8.01168 4.92266
   3   4  -6 1.66889 3.46183
   3   4  -6 9.68838 5.79858
  -3  -4   6 7.34876 4.29992
   3   4  -6 0.77902 3.59354
   3   4  -5 37.7954 4.53903
  -3  -4   5 31.7971 7.21154
   3   4  -5 29.9545 6.45911
  -3  -4   5 38.6616 5.10658
   3   4  -5 39.0062 4.90568
   3   4  -4 10.9153 2.82493
  -3  -4   4 7.61708 5.73975
   3   4  -4 17.1034 5.28752
  -3  -4   4 12.4715 3.61175
  -3  -4   4 14.9393 3.08455
   3   4  -4 17.1698 3.56814
  -3  -4   3 2.54767 5.35144
   3   4  -3 3.09320 2.00200
   3   4  -3 9.54325 4.58496
  -3  -4   3 4.14844 2.70489
   3   4  -3 1.43381 2.86234
  -3  -4   3 4.50050 3.67648
   3   4  -2 96.7783 8.71430
   3   4  -2 78.9094 6.98156
   3   4  -2 115.233 8.27744
  -3  -4   2 103.330 8.50041
  -3  -4   2 104.194 9.45415
  -3  -4   1 39.6388 5.55565
   3   4  -1 31.6724 4.76591
   3   4  -1 29.8839 2.71105
  -3  -4   1 45.5835 4.54856
   3   4  -1 24.9345 4.07584
   3   4   0 97.1710 7.84179
  -3  -4   0 94.6265 8.35369
   3   4   0 80.7824 7.66468
  -3  -4   0 84.5799 7.87956
   3   4   0 80.4522 6.76242
  -3  -4  -1 20.1623 3.98719
   3   4   1 28.1914 3.60789
  -3  -4  -1 15.1741 3.71420
   3   4   1 22.9110 2.74165
  -3  -4  -2 13.0011 3.19228
   3   4   2 17.9781 2.65943
   3   4   2 10.4354 2.06522
  -3  -4  -2 13.3053 1.93381
  -3  -4  -2 16.3061 3.46999
   3   4   2 17.8154 2.69933
   3   4   3 193.731 16.2326
   3   4   3 214.492 16.5331
  -3  -4  -3 211.945 16.4976
  -3  -4  -3 220.245 17.2108
   3   4   3 225.619 16.7269
  -3  -4  -3 220.788 16.3928
  -3  -4  -4 59.4846 5.86491
  -3  -4  -4 55.9767 5.55067
   3   4   4 62.0545 5.67361
   3   4   4 57.8388 5.82202
   3   4   5 100.607 8.78600
  -3  -4  -5 108.952 8.79189
  -3  -4  -5 90.9168 8.58169
   3   4   5 126.110 8.77833
  -3  -4  -5 86.0768 7.91792
  -3  -4  -6 20.7851 4.13748
  -3  -4  -6 22.4891 4.17889
   3   4   6 17.9222 4.11445
   3   4   6 32.5994 4.28304
  -3  -4  -6 19.1450 3.28015
  -3  -4  -7 41.9785 5.60499
  -3  -4  -7 36.6548 5.46707
   3   4   7 41.8652 5.39026
   3   4   7 40.8346 5.37010
   3   4   8 206.632 10.8251
  -3  -4  -8 221.732 10.8857
  -3  -4  -8 220.847 11.2877
  -3  -4  -9 27.5502 5.92047
   3   4   9 21.7256 3.27333
  -3  -4  -9 32.8353 5.74709
   3   4   9 26.4785 5.41497
  -3  -4 -10 135.219 11.0357
   3   4  10 89.6568 8.58240
  -3  -4 -11 31.8949 7.09314
  -3  -4 -11 26.4716 4.55875
  -3  -4 -12 21.1626 7.39966
  -3  -4 -12 25.7197 4.81841
  -3  -4 -13 29.7253 8.56047
  -3  -4 -13 47.0784 8.46028
  -3  -4 -14 4.39778 7.80685
  -3  -4 -15-13.5045 8.75758
   3   5 -10 13.0450 5.22500
   3   5  -9 8.41470 4.53588
   3   5  -9 5.28548 7.90056
  -3  -5   9 8.68555 6.25264
   3   5  -8 8.98879 4.24981
   3   5  -8 16.2154 7.54507
  -3  -5   8-1.70514 5.55371
   3   5  -7 34.1650 3.44279
   3   5  -7 33.3520 4.98889
  -3  -5   7 31.0821 6.03893
   3   5  -7 39.4917 8.03336
   3   5  -6 86.7941 6.67427
  -3  -5   6 71.0945 8.32733
   3   5  -6 84.9430 10.0499
   3   5  -6 69.3906 7.66693
   3   5  -6 86.2312 8.33101
  -3  -5   5 59.0927 7.03821
   3   5  -5 66.0315 8.92015
   3   5  -5 62.2263 6.51631
   3   5  -5 72.1628 7.32060
   3   5  -5 71.3832 5.59579
  -3  -5   5 77.2292 7.02493
  -3  -5   4 79.1921 7.24366
  -3  -5   4 90.5550 9.67222
   3   5  -4 88.5367 9.27169
   3   5  -4 82.9207 6.89467
   3   5  -4 83.2422 7.84691
   3   5  -4 71.0428 6.22708
  -3  -5   4 109.602 7.69631
  -3  -5   4 83.2091 8.80274
  -3  -5   3 59.3589 8.01388
   3   5  -3 68.5221 7.88577
   3   5  -3 62.3954 5.21453
   3   5  -3 48.4655 5.12479
   3   5  -3 79.9284 6.57526
  -3  -5   3 64.8674 7.21637
  -3  -5   2 75.4551 7.39294
   3   5  -2 72.4662 4.37083
  -3  -5   2 71.4974 6.59929
   3   5  -2 67.7751 7.08342
   3   5  -2 46.3063 4.16658
   3   5  -2 58.5278 5.80969
   3   5  -2 36.2733 4.18618
   3   5  -1 2.75016 1.72815
  -3  -5   1 9.27484 4.78072
   3   5  -1 2.06120 4.32705
   3   5  -1 0.90976 3.24003
  -3  -5   1-2.28639 3.66822
   3   5   0 3.53196 4.10186
   3   5   0 1.80199 3.16043
  -3  -5   0 1.08806 3.37065
   3   5   0 3.96531 2.19224
  -3  -5   0 1.48375 4.43687
  -3  -5  -1 34.3871 5.44095
  -3  -5  -1 36.2937 5.39884
   3   5   1 40.5310 5.38010
   3   5   1 45.8260 5.22963
   3   5   1 48.5267 4.38840
   3   5   2 100.885 8.04373
   3   5   2 71.6845 7.20410
  -3  -5  -2 104.623 8.61018
   3   5   2 114.458 7.74032
  -3  -5  -2 79.4981 8.05913
  -3  -5  -2 87.7986 7.19777
   3   5   3 150.436 11.0145
   3   5   3 109.427 10.8837
  -3  -5  -3 121.234 10.8156
   3   5   3 163.790 11.2467
  -3  -5  -3 147.996 11.0838
   3   5   4 274.120 19.7732
   3   5   4 222.687 20.1727
  -3  -5  -4 215.181 20.1079
   3   5   4 293.719 20.3069
   3   5   5 60.6161 6.56854
  -3  -5  -5 70.2402 6.61289
  -3  -5  -5 67.6840 7.42857
   3   5   5 73.1418 6.64311
   3   5   6 254.481 21.7525
  -3  -5  -6 255.783 21.8028
  -3  -5  -6 285.877 22.3920
   3   5   6 296.748 21.8123
  -3  -5  -7 39.3818 5.54044
   3   5   7 40.4376 5.46685
  -3  -5  -7 46.8113 5.97292
   3   5   7 33.2731 5.52536
  -3  -5  -7 36.8196 4.49882
  -3  -5  -8 70.2441 8.17169
   3   5   8 84.5564 8.13177
  -3  -5  -8 84.4071 8.62024
   3   5   8 72.7640 8.19348
  -3  -5  -8 77.3881 7.52206
   3   5   9 7.94517 1.35359
   3   5   9 7.48230 1.56329
  -3  -5  -9 19.6878 4.56500
  -3  -5  -9 16.4216 5.51027
   3   5   9 22.3334 5.06026
   3   5  10 18.9619 3.18938
  -3  -5 -10 37.4236 6.43599
  -3  -5 -10 26.9162 5.37772
   3   5  10 20.6426 3.08721
  -3  -5 -11 21.3926 6.76687
  -3  -5 -11 29.6336 6.23552
  -3  -5 -12 30.6129 7.80615
  -3  -5 -12 22.7894 6.69646
  -3  -5 -13 31.6902 8.76164
  -3  -5 -13 39.0925 7.96573
  -3  -5 -14 27.8913 8.29176
  -3  -6  10-1.17009 6.95258
   3   6  -9-0.98208 8.36990
  -3  -6   9-1.17924 6.65069
   3   6  -8 6.29743 4.15924
   3   6  -8 27.7426 8.50701
   3   6  -7 9.96526 3.89819
   3   6  -7 22.1660 8.37779
   3   6  -6 17.6386 3.92155
   3   6  -6 19.6771 7.66777
  -3  -6   6 25.9497 4.84827
   3   6  -5 49.1039 5.19784
   3   6  -5 50.5563 8.52322
   3   6  -5 45.3103 5.03864
   3   6  -5 47.3972 4.45620
  -3  -6   5 58.4289 6.35252
   3   6  -4 82.7041 7.42612
   3   6  -4 86.1994 7.52788
   3   6  -4 88.2849 10.2865
   3   6  -4 91.0343 8.77161
  -3  -6   4 98.6329 9.99286
  -3  -6   3 84.6929 8.82434
   3   6  -3 65.0676 5.79883
   3   6  -3 63.8089 8.54069
   3   6  -3 66.4423 7.31238
  -3  -6   3 69.6979 8.12393
   3   6  -3 66.6414 5.81914
  -3  -6   2 87.1294 9.08876
   3   6  -2 78.2168 6.12256
   3   6  -2 77.7533 8.81448
   3   6  -2 71.6310 6.11592
   3   6  -2 65.9149 7.69827
  -3  -6   2 88.6772 8.63428
  -3  -6   1 73.9730 8.40932
   3   6  -1 76.4264 6.22829
   3   6  -1 63.8861 8.21861
   3   6  -1 61.9713 7.32058
  -3  -6   1 70.1182 7.97803
  -3  -6   0 7.09794 4.99274
   3   6   0 5.30000 4.64548
   3   6   0-1.49114 3.67538
  -3  -6   0 3.66656 4.12493
   3   6   0 1.91047 2.37953
  -3  -6  -1-0.36280 4.31281
   3   6   1 2.08463 1.41528
   3   6   1 3.23647 2.68359
  -3  -6  -1 5.11259 4.01633
   3   6   1 1.81508 2.06981
   3   6   1 7.73039 4.20060
   3   6   1 7.38384 3.89937
  -3  -6  -2 41.8842 5.40600
  -3  -6  -2 33.6986 3.83585
   3   6   2 37.9555 3.68930
   3   6   2 36.9544 5.17451
  -3  -6  -2 34.5226 5.29235
   3   6   2 43.8783 4.45195
  -3  -6  -3 125.808 10.8692
   3   6   3 118.073 10.7862
  -3  -6  -3 140.906 11.3398
   3   6   3 150.746 11.1717
   3   6   3 147.584 11.3346
  -3  -6  -4 193.745 13.8395
   3   6   4 156.293 13.8166
  -3  -6  -4 152.733 13.8363
   3   6   4 196.213 14.1100
   3   6   4 163.417 13.8122
   3   6   5 15.1140 3.98618
   3   6   5 15.6449 2.60760
   3   6   5 10.3378 2.08253
  -3  -6  -5 16.6001 3.66538
  -3  -6  -5 12.7483 4.46592
   3   6   5 15.7814 3.59143
   3   6   6 664.092 46.4331
   3   6   6 550.630 46.2944
  -3  -6  -6 643.394 47.1080
  -3  -6  -6 553.105 46.3949
   3   6   7 62.2814 6.42600
  -3  -6  -7 43.9364 6.37188
  -3  -6  -7 65.9957 7.08848
   3   6   7 42.0448 6.16114
  -3  -6  -8 19.3064 5.26048
  -3  -6  -8 22.2541 5.59399
   3   6   8 12.7883 4.80516
   3   6   8 17.9134 4.91667
  -3  -6  -9 4.48012 5.41807
   3   6   9 3.39456 4.88750
  -3  -6  -9 9.28889 5.31978
  -3  -6 -10 5.08738 5.92209
   3   6  10 3.29787 5.53031
  -3  -6 -10 4.05112 5.47039
  -3  -6 -10 6.09129 4.73580
  -3  -6 -11 30.0681 7.31357
  -3  -6 -11 29.1602 6.78857
  -3  -6 -11 25.5358 6.00293
  -3  -6 -12 61.3416 10.2686
  -3  -6 -12 95.8598 10.1562
  -3  -6 -12 72.0529 8.98411
  -3  -6 -13 63.8095 10.4708
  -3  -6 -13 65.1411 9.34816
  -3  -6 -13 63.6362 9.04952
  -3  -7  10 17.4602 8.33482
   3   7  -8 14.7497 9.06398
   3   7  -7 1.43581 8.51220
   3   7  -6 33.5977 4.94218
   3   7  -6 41.7923 9.16764
  -3  -7   6 59.7403 6.71064
   3   7  -5 18.9743 7.60234
  -3  -7   5 25.7820 5.40768
   3   7  -5 17.6848 3.52432
   3   7  -4 109.528 9.32228
   3   7  -4 116.242 12.4804
   3   7  -4 112.285 9.34372
   3   7  -3 91.9528 7.94507
   3   7  -3 92.8692 7.97338
   3   7  -3 114.577 11.2281
  -3  -7   3 113.904 10.7259
  -3  -7   2 82.4176 9.95460
   3   7  -2 83.6980 6.97046
   3   7  -2 71.3964 9.77328
   3   7  -2 88.6240 6.92817
  -3  -7   2 72.4495 9.34039
  -3  -7   1 102.232 10.5951
   3   7  -1 81.2115 8.00884
   3   7  -1 91.4497 10.4991
   3   7  -1 102.927 8.55055
   3   7  -1 115.680 7.97912
  -3  -7   1 114.940 10.5785
   3   7   0 241.844 21.5105
   3   7   0 328.625 21.9599
   3   7   0 292.648 21.4735
  -3  -7   0 308.756 23.3763
  -3  -7   0 276.119 23.0000
   3   7   0 254.732 22.9280
  -3  -7  -1 43.0550 6.51630
   3   7   1 48.3601 4.35217
   3   7   1 44.7437 6.52548
   3   7   1 44.2498 4.97443
  -3  -7  -1 47.3958 6.53195
   3   7   1 57.4639 5.21306
  -3  -7  -2 12.2439 4.60541
   3   7   2 9.77233 3.39890
   3   7   2 9.69673 4.52501
   3   7   2 4.50252 1.67304
  -3  -7  -2 12.7088 2.84187
   3   7   2 11.7243 2.53424
   3   7   3 1679.44 114.115
   3   7   3 1310.57 113.835
  -3  -7  -3 1623.21 114.280
   3   7   3 1622.82 114.318
  -3  -7  -3 1388.55 113.930
   3   7   4 479.697 41.7109
  -3  -7  -4 538.471 42.7348
  -3  -7  -4 472.495 41.7780
  -3  -7  -4 607.859 41.9496
   3   7   4 575.605 41.9594
   3   7   4 595.648 41.9317
   3   7   5 71.5327 7.24512
   3   7   5 68.0546 6.68320
  -3  -7  -5 79.4003 8.45525
  -3  -7  -5 69.1250 7.39132
   3   7   5 89.0018 7.65898
   3   7   5 87.1847 7.08979
   3   7   6 5.47922 3.85277
   3   7   6 0.33265 4.00794
   3   7   6 0.68063 2.77076
   3   7   6 4.28042 2.05119
  -3  -7  -6 0.92050 3.96124
  -3  -7  -6 4.43841 4.65794
   3   7   7 43.7180 4.01926
   3   7   7 46.2182 4.21954
  -3  -7  -7 34.9001 5.96916
  -3  -7  -7 60.4588 7.19701
   3   7   7 33.8645 5.85174
   3   7   7 58.8675 6.21781
  -3  -7  -8 61.4398 8.24424
  -3  -7  -8 95.2160 9.06730
   3   7   8 73.9061 7.96942
  -3  -7  -9 12.0575 5.72914
  -3  -7  -9 16.1684 5.92321
   3   7   9 11.1572 5.32676
  -3  -7 -10 3.26145 6.24601
   3   7  10 9.61856 5.59364
  -3  -7 -10 12.0692 5.96357
  -3  -7 -11 108.787 12.4187
  -3  -7 -11 121.773 12.3047
  -3  -7 -12 40.3049 9.00227
  -3  -7 -12 66.0133 9.04288
   3   8  -6 10.1520 8.68047
   3   8  -5 3.18385 8.21590
  -3  -8   5 8.92838 5.57152
   3   8  -4 12.6457 7.79016
   3   8  -3 71.2813 6.20001
   3   8  -3 63.8141 9.89339
  -3  -8   3 66.6626 9.28624
   3   8  -2 153.822 15.4739
  -3  -8   2 166.725 15.2105
   3   8  -1 235.413 20.8350
   3   8  -1 302.408 20.7989
  -3  -8   1 249.290 22.7565
   3   8  -1 252.052 22.6061
  -3  -8   0 103.150 10.8645
   3   8   0 91.7029 8.54770
   3   8   0 103.728 10.6453
   3   8   0 108.899 9.05395
   3   8   0 107.141 8.35983
  -3  -8   0 103.249 10.8477
   3   8   1 344.507 25.0629
   3   8   1 303.855 24.6020
  -3  -8  -1 342.776 26.4202
  -3  -8  -1 322.990 25.8882
   3   8   1 314.711 24.9636
   3   8   1 297.789 25.8250
   3   8   2 4.57062 2.13941
   3   8   2 3.96596 4.88061
   3   8   2 0.93045 3.56893
   3   8   2 4.25421 2.57737
  -3  -8  -2 6.40778 4.96754
  -3  -8  -3 11.4702 3.65917
   3   8   3 18.6836 4.91772
   3   8   3 12.2551 3.30954
  -3  -8  -3 22.7960 4.91699
   3   8   3 13.4576 4.00493
  -3  -8  -4 73.6658 7.25234
   3   8   4 57.4229 6.57099
   3   8   4 78.1376 7.29464
  -3  -8  -4 68.2208 8.44663
  -3  -8  -4 63.9060 6.90632
   3   8   4 70.4101 7.05760
   3   8   5 8.67542 3.80692
   3   8   5-1.50140 4.04052
   3   8   5 4.86271 3.31423
   3   8   5 6.00430 3.74685
  -3  -8  -5-1.03608 5.14281
  -3  -8  -5 1.58394 3.96529
  -3  -8  -6 90.9275 9.61943
  -3  -8  -6 80.1946 8.54321
   3   8   6 69.4121 8.29014
   3   8   6 97.5418 8.66230
   3   8   6 96.2128 8.04385
   3   8   7 70.3631 8.26616
  -3  -8  -7 96.8009 9.72394
   3   8   7 91.7813 8.49403
  -3  -8  -7 74.9874 8.54192
  -3  -8  -8 16.6783 5.63637
  -3  -8  -8 29.8263 6.25041
   3   8   8 25.8110 5.62645
   3   8   9 85.7970 9.01035
  -3  -8  -9 72.9086 9.22768
  -3  -8  -9 84.5361 9.81583
  -3  -8 -10 144.471 14.2405
  -3  -8 -10 143.554 13.9545
  -3  -8 -11 23.9206 7.54071
  -3  -8 -11 34.0898 7.59223
  -3  -8 -12 20.1186 7.88257
  -3  -9   6 31.0110 7.52695
   3   9  -5 5.82713 9.02910
   3   9  -4-7.24197 8.13178
   3   9  -3 15.7829 7.73313
  -3  -9   3 9.63966 7.42376
   3   9  -2 42.7700 8.40020
  -3  -9   2 51.1686 8.37103
   3   9  -1 66.9375 9.47485
   3   9  -1 73.4154 7.12823
  -3  -9   1 76.8574 9.54499
   3   9   0 7.48393 3.86810
   3   9   0 2.80086 5.87848
  -3  -9   0 8.33532 5.96239
  -3  -9  -1 80.0195 9.53617
   3   9   1 82.5738 7.90152
   3   9   1 89.3740 8.03628
   3   9   1 76.6323 9.28792
  -3  -9  -1 81.2561 9.91526
  -3  -9  -2 66.1935 7.88970
   3   9   2 55.1493 6.82745
   3   9   2 53.7301 7.57275
   3   9   2 64.7126 6.52672
   3   9   3 51.0420 5.95938
   3   9   3 38.7024 6.46772
  -3  -9  -3 47.8017 5.58894
  -3  -9  -3 49.8089 6.75212
  -3  -9  -4 2.56213 4.08794
   3   9   4 1.77961 4.53957
   3   9   4 3.74850 4.25731
  -3  -9  -4 7.29488 5.36312
  -3  -9  -5 7.98213 4.42778
   3   9   5 2.40427 4.26222
   3   9   5 4.71675 4.38341
  -3  -9  -5 8.96498 5.47484
   3   9   6 25.9557 5.19337
  -3  -9  -6 27.8041 6.70753
   3   9   7 80.5601 8.86422
  -3  -9  -7 90.7440 9.07819
  -3  -9  -7 85.3031 10.1039
  -3  -9  -8 28.7306 6.36389
  -3  -9  -8 39.1196 7.28672
  -3  -9  -9 154.490 14.5643
  -3  -9  -9 142.910 13.9562
  -3  -9 -10 44.4353 7.93792
  -3  -9 -11 57.0091 9.09970
  -3 -10   5 57.0573 8.86462
   3  10  -4-0.47839 8.42985
  -3 -10   4 15.6433 6.97329
   3  10  -3 21.2100 8.27186
   3  10  -2 25.9487 7.95889
  -3 -10   2 21.1328 8.07416
   3  10  -1 1.47808 6.54718
  -3 -10   1 5.69456 6.87634
   3  10   0 11.1622 6.52526
   3  10   0 10.2936 4.26332
  -3 -10   0 4.64794 6.70965
   3  10   1 7.09632 6.10436
   3  10   1 11.9581 4.44197
   3  10   2 58.8248 8.13002
   3  10   2 64.7240 6.93579
   3  10   3 43.4067 5.75999
   3  10   3 29.3405 6.59913
  -3 -10  -3 38.9357 7.60247
  -3 -10  -4 36.1863 7.55643
   3  10   4 42.9281 5.99188
   3  10   5 3.13898 4.72338
  -3 -10  -5 0.86525 5.95985
   3  10   6-1.04096 4.87416
  -3 -10  -6 1.30722 6.34156
   3  11  -2 22.3081 8.18724
   3  11  -1 4.72057 7.05245
   3  11   0-3.25965 6.54705
   3  11   3 74.1240 8.21251
  -4   8   4 164.687 16.9006
   4  -8  -3 290.802 24.9190
  -4   8   3 288.195 25.9848
   4  -8  -2 212.123 19.7528
  -4   8   2 233.400 21.3092
   4  -8  -1 30.5999 7.63346
  -4   8   0 11.2967 9.64909
   4  -8   0 15.3208 6.95424
   4  -8   0 16.7689 6.68410
  -4   8  -1 13.7561 10.2363
   4  -8   1 5.30112 6.53507
  -4   8  -2 114.143 15.0384
  -4   8  -2 91.8024 13.7255
  -4   8  -3 104.990 16.0527
  -4   8  -3 105.333 14.2502
   4  -8   3 109.351 12.1854
  -4   8  -4 86.7481 13.2428
   4  -8   4 82.6651 10.8102
   4  -8   4 72.0359 10.7741
  -4   8  -5 53.2199 11.9924
   4  -8   5 49.3490 9.15538
  -4   7   7 11.7942 7.82912
  -4   7   6 31.0108 8.68054
  -4   7   5 98.2195 12.2754
   4  -7  -4 47.7245 8.32452
  -4   7   4 51.2438 9.27241
  -4   7   3 52.3137 9.71605
   4  -7  -3 48.8459 8.25414
   4  -7  -2 277.442 22.2059
  -4   7   2 241.779 20.8650
  -4   7   2 262.629 23.2075
   4  -7  -1 28.1751 7.06053
  -4   7   1 1.97039 8.44397
  -4   7   0 13.0376 9.14198
   4  -7   0 32.1290 7.00168
   4  -7   0 14.6726 6.17777
  -4   7  -1 10.3017 9.16974
   4  -7   1 19.4863 6.10883
   4  -7   2-1.90950 5.93119
  -4   7  -2 7.90459 8.58545
  -4   7  -3 14.2633 9.08352
   4  -7   3 15.9116 6.76720
  -4   7  -4 32.1911 9.57353
   4  -7   4 16.8991 7.06186
   4  -7   4 11.4421 6.86554
  -4   7  -5 14.2413 11.4701
  -4   7  -5 14.2092 9.17976
   4  -7   5 13.5079 7.53382
   4  -7   5 10.3203 6.82406
  -4   7  -6 48.7059 12.9308
  -4   7  -6 42.5363 10.9730
   4  -7   6 44.4601 8.50139
  -4   7  -7 106.699 16.6399
  -4   7  -7 111.473 14.3049
   4  -7   7 107.767 12.5274
  -4   6   8 12.4393 7.68713
   4  -6  -7 31.2662 7.83698
  -4   6   7 32.3781 8.15769
  -4   6   6 16.7332 7.23080
  -4   6   5 6.50786 7.14363
  -4   6   4 20.4581 7.42599
  -4   6   3 73.9649 7.34442
  -4   6   3 81.5124 10.5470
  -4   6   2 93.9443 12.2524
  -4   6   2 103.837 9.33869
  -4   6   1 192.114 16.0342
  -4   6   1 191.399 18.5734
  -4   6   0 83.0235 12.0015
   4  -6   0 100.581 10.3526
  -4   6   0 90.8385 8.94838
   4  -6   0 94.4322 9.89905
   4  -6   1 156.551 12.4819
  -4   6  -1 104.962 10.9031
   4  -6   1 116.169 11.7864
  -4   6  -2 62.2516 9.46513
   4  -6   2 40.9812 7.34896
  -4   6  -3 106.226 12.3708
   4  -6   3 96.9545 10.8634
   4  -6   3 95.4478 10.6302
  -4   6  -4 127.026 16.0049
  -4   6  -4 137.878 14.6694
   4  -6   4 115.900 12.9057
   4  -6   4 138.087 13.0630
  -4   6  -5 1.84016 10.2622
  -4   6  -5 10.9567 8.75900
   4  -6   5-0.39835 5.91777
   4  -6   5 2.76071 6.17345
  -4   6  -6 59.2355 13.0557
  -4   6  -6 66.7393 11.1613
   4  -6   6 65.8361 9.28588
   4  -6   7 51.6730 8.73553
  -4   6  -7 59.5264 13.1331
  -4   6  -7 49.0808 10.3812
  -4   6  -8 18.4718 12.1544
  -4   6  -8 4.23874 9.09926
   4  -6   8 17.5920 7.49981
  -4   6  -9 31.3627 13.1206
  -4   6  -9 16.3849 9.77684
  -4   5   9 21.8354 8.20422
   4  -5  -8 48.0206 8.45493
  -4   5   8 43.6384 9.07181
  -4   5   8 52.3306 7.20911
  -4   5   7 13.9234 5.66046
   4  -5  -7 12.2785 6.65509
  -4   5   7 15.1177 7.08076
   4  -5  -6 17.0489 6.74616
  -4   5   6 20.2473 7.21942
  -4   5   5 6.45724 6.59702
   4  -5  -5 0.67471 5.85328
  -4   5   4 33.9192 8.06926
   4  -5  -4 52.1767 7.46122
   4  -5  -3 151.337 13.3342
  -4   5   3 138.882 11.5791
  -4   5   3 121.520 13.8825
  -4   5   2 79.4057 7.43669
  -4   5   2 77.6694 10.3880
  -4   5   1 10.2347 3.58062
  -4   5   1 1.99337 7.15235
  -4   5   0 3.28108 3.59645
   4  -5   0 7.78880 4.77347
  -4   5  -1-0.21768 3.77867
   4  -5   1 2.60482 4.98785
  -4   5  -2 968.887 76.0407
   4  -5   2 1021.25 76.5358
   4  -5   2 980.520 76.3523
  -4   5  -2 944.836 77.3863
  -4   5  -3 828.900 69.5536
   4  -5   3 944.544 69.2454
  -4   5  -3 879.992 68.6680
   4  -5   3 877.557 68.9925
  -4   5  -3 871.079 70.1875
  -4   5  -4 42.9142 10.5030
  -4   5  -4 49.2403 9.21332
   4  -5   4 43.2057 7.45607
   4  -5   4 58.8734 7.69675
  -4   5  -5 15.6744 9.67770
  -4   5  -5 8.03851 8.04847
   4  -5   5 15.5630 6.19177
   4  -5   5 9.66257 5.90290
  -4   5  -6-0.55881 9.66443
  -4   5  -6 5.87624 7.75181
   4  -5   6-4.21291 6.05246
   4  -5   7 1.22691 6.25631
  -4   5  -7-1.13376 9.70992
  -4   5  -7-4.16975 8.04170
  -4   5  -8 61.3203 12.5889
  -4   5  -8 51.2312 10.1450
   4  -5   8 60.7381 8.97177
  -4   5  -9 133.092 17.3236
  -4   5  -9 154.068 15.8656
   4  -5   9 136.726 14.4181
  -4   5 -10 393.028 33.8437
   4  -5  10 393.478 33.1433
  -4   5 -10 395.380 34.9587
  -4   5 -11 13.0918 12.1599
  -4   4   9 30.1451 5.81019
   4  -4  -8 46.1075 7.72254
  -4   4   8 31.5536 5.77773
  -4   4   7 44.6832 6.68015
   4  -4  -7 54.4224 7.94840
  -4   4   7 50.2642 8.36913
   4  -4  -6 21.7597 6.36478
  -4   4   6 25.0909 6.95546
   4  -4  -5 8.03360 5.61205
  -4   4   5 14.6714 6.51985
  -4   4   4 70.4588 9.84486
   4  -4  -4 97.7932 9.47036
  -4   4   3 588.245 46.3156
  -4   4   3 553.127 47.7994
   4  -4  -3 688.817 47.6371
   4  -4  -2 588.672 45.8202
  -4   4   2 576.016 44.8793
   4  -4  -1 131.031 12.3879
  -4   4   1 128.997 11.1176
  -4   4   1 147.205 12.5940
   4  -4  -1 128.022 11.8628
  -4   4   0 3476.60 264.382
   4  -4   0 3403.08 264.720
   4  -4   0 3470.42 264.518
  -4   4  -1 888.429 69.2059
   4  -4   1 876.695 69.5712
   4  -4   1 916.508 69.4331
  -4   4  -2 680.624 55.0879
   4  -4   2 728.005 55.5938
   4  -4   2 734.909 55.8535
   4  -4   2 707.150 55.4024
  -4   4  -2 704.962 56.2721
  -4   4  -3 162.648 14.2115
   4  -4   3 162.895 14.6892
   4  -4   3 156.994 15.0868
   4  -4   3 174.628 14.6779
  -4   4  -3 160.704 16.2836
  -4   4  -4 285.300 23.2194
   4  -4   4 294.193 23.6755
   4  -4   4 260.072 23.5300
   4  -4   4 283.896 23.4781
  -4   4  -4 291.877 24.9928
  -4   4  -5 177.169 15.9479
  -4   4  -5 157.559 16.7829
   4  -4   5 159.764 14.9782
  -4   4  -6 8.26754 8.74267
  -4   4  -6 0.80353 6.72821
   4  -4   6 5.30205 5.86082
  -4   4  -7 170.312 16.9083
   4  -4   7 182.665 16.2978
  -4   4  -7 170.512 17.7257
  -4   4  -8 149.243 16.0639
  -4   4  -8 140.449 14.7443
   4  -4   8 140.192 14.1179
  -4   4  -9 6.58803 9.80590
  -4   4  -9 19.8344 8.33239
   4  -4   9 5.94908 6.60603
  -4   4 -10 91.0922 14.0019
  -4   4 -10 101.219 12.7603
  -4   4 -11-0.57279 10.4589
  -4   4 -11 11.1935 8.96836
  -4   4 -12 39.5529 11.7224
  -4   3  11 19.6366 5.58460
  -4   3  10 13.8951 4.90337
   4  -3 -10 0.44736 7.80450
   4  -3 -10 6.27119 6.86206
  -4   3   9 9.28757 4.63862
   4  -3  -9 18.3491 7.67990
   4  -3  -9 2.96204 6.28770
   4  -3  -8 22.1002 7.43612
   4  -3  -8 14.3161 6.58892
  -4   3   8 11.4880 4.53546
   4  -3  -7 8.29568 6.84510
   4  -3  -7 11.0517 5.95598
  -4   3   7 18.2147 4.54553
  -4   3   6 171.701 14.7318
   4  -3  -6 180.404 15.7256
   4  -3  -5 389.389 31.3947
  -4   3   4 355.068 31.8617
   4  -3  -4 424.768 31.6288
  -4   3   3 392.025 22.8416
   4  -3  -3 405.997 22.7972
   4  -3  -2 13.5023 4.81790
  -4   3   2 16.0929 5.09337
  -4   3   2 11.2634 2.34340
   4  -3  -2 11.3426 2.75209
   4  -3  -1 233.580 18.0273
  -4   3   1 218.167 17.0049
  -4   3   1 224.801 18.0236
   4  -3  -1 215.650 17.5751
   4  -3  -1 192.631 17.0841
  -4   3   0 117.166 10.5399
   4  -3   0 104.586 10.3580
   4  -3   0 111.491 9.62934
  -4   3   0 103.828 9.34778
  -4   3   0 123.170 10.5433
   4  -3   0 109.324 10.0039
  -4   3   0 94.7939 11.1120
   4  -3   1 237.783 19.6342
  -4   3  -1 228.375 19.0514
   4  -3   1 234.831 19.5025
  -4   3  -1 230.408 20.4063
   4  -3   1 235.102 19.2516
  -4   3  -1 256.778 19.7563
   4  -3   2 440.749 35.7494
   4  -3   2 455.514 36.1223
  -4   3  -2 433.893 36.4899
   4  -3   2 434.316 35.6128
  -4   3  -2 493.807 35.9875
   4  -3   3 416.726 33.4857
   4  -3   3 417.152 33.7034
  -4   3  -3 410.362 34.4179
   4  -3   3 430.718 33.4809
   4  -3   4 125.712 12.8093
   4  -3   4 151.403 12.7177
  -4   3  -4 139.666 14.0869
  -4   3  -5 54.8211 9.16179
   4  -3   5 51.6510 7.35928
   4  -3   5 52.9803 7.35392
   4  -3   6 245.034 20.5797
   4  -3   6 234.073 20.7224
  -4   3  -6 260.780 22.0326
  -4   3  -7-1.66942 7.78297
   4  -3   7 0.34529 5.31403
   4  -3   7 0.27124 5.40037
  -4   3  -8 11.6116 8.37224
   4  -3   8 12.6250 6.17823
  -4   3  -9 3.29673 8.62633
  -4   3  -9 13.2357 7.70793
  -4   3 -10 7.31924 8.84212
  -4   3 -10 7.58074 7.84270
  -4   3 -11 37.5668 10.1988
  -4   3 -11 32.3759 9.04212
  -4   3 -12 21.9034 9.85445
  -4   3 -13 45.4983 11.3495
  -4   2  11 15.7228 5.20978
   4  -2 -10 22.5776 7.97056
   4  -2 -10 28.0731 7.17906
  -4   2  10 21.1494 4.93922
   4  -2  -9 19.7832 7.14282
   4  -2  -9 18.7069 6.49579
  -4   2   9 13.6340 4.26245
  -4   2   8 17.5397 4.25532
   4  -2  -8 27.2969 6.98831
   4  -2  -8 18.0781 6.14138
  -4   2   7 5.53587 3.81339
   4  -2  -7 3.98401 5.77501
   4  -2  -7-1.20142 5.38989
   4  -2  -6 18.2464 6.11542
  -4   2   6 16.4077 4.12391
  -4   2   5 197.736 17.1132
   4  -2  -5 205.447 17.2110
  -4   2   4 349.013 27.0728
  -4   2   4 319.303 27.0056
   4  -2  -4 337.564 27.0051
  -4   2   3 0.42101 4.41154
  -4   2   3 8.74462 4.67932
   4  -2  -3 2.35186 3.03616
   4  -2  -3 2.64974 4.20004
  -4   2   2 153.579 13.4739
  -4   2   2 153.242 12.0536
  -4   2   2 152.797 13.4206
   4  -2  -2 157.783 12.7702
   4  -2  -2 155.034 13.3398
   4  -2  -1 4.80113 4.03315
  -4   2   1 11.8690 4.32382
  -4   2   1 2.20500 4.22701
  -4   2   1 8.14746 2.18065
   4  -2  -1 6.36646 3.34957
  -4   2   1 3.40279 5.00292
   4  -2   0 2.61352 3.44455
   4  -2   0 5.89358 4.13421
  -4   2   0-1.15997 4.01305
  -4   2   0 5.63775 4.42229
  -4   2   0-2.24331 2.47569
  -4   2   0 3.69196 4.93841
   4  -2   0-0.36424 2.73746
   4  -2   1 12.6814 4.21726
  -4   2  -1 9.88276 4.29137
   4  -2   1 9.71912 3.68992
  -4   2  -1 14.3646 4.62375
  -4   2  -1 6.79726 5.49500
   4  -2   1 3.78628 3.25483
  -4   2  -2 74.5754 8.63777
  -4   2  -2 79.1772 7.56037
   4  -2   2 56.3409 6.74100
   4  -2   2 62.9981 6.74476
  -4   2  -3 264.854 24.2381
  -4   2  -3 345.361 24.2894
   4  -2   3 285.858 24.1129
  -4   2  -3 284.048 24.6833
   4  -2   3 297.417 23.8867
  -4   2  -4 221.629 21.3293
  -4   2  -4 286.376 21.2812
  -4   2  -4 264.931 20.8136
   4  -2   4 236.404 20.8637
  -4   2  -4 251.995 21.6565
   4  -2   4 258.930 20.9076
  -4   2  -5 179.043 17.1942
  -4   2  -5 235.760 17.1783
  -4   2  -5 211.775 16.7612
   4  -2   5 176.700 16.5559
  -4   2  -5 178.068 17.5231
   4  -2   5 192.806 16.7394
  -4   2  -6 496.348 35.5768
  -4   2  -6 463.792 35.2192
   4  -2   6 410.874 34.9634
  -4   2  -6 430.490 35.8283
   4  -2   6 414.210 35.2975
  -4   2  -7 57.0436 9.16892
   4  -2   7 77.5455 8.15388
   4  -2   8 41.9378 6.68857
  -4   2  -8 51.1386 9.03527
   4  -2   9 6.41308 5.40368
  -4   2  -9-8.74200 7.86184
  -4   2 -10 1.23135 7.78746
  -4   2 -11 5.93933 8.18803
  -4   2 -12 44.9587 10.0965
  -4   2 -13 5.60019 9.42638
  -4   2 -14 12.1908 9.30585
   4  -1 -11 43.1379 8.32039
   4  -1 -10 47.2263 8.73033
  -4   1  10 56.5533 6.56847
   4  -1 -10 56.1035 8.41729
   4  -1 -10 57.3859 8.73710
   4  -1  -9 81.7364 10.3561
   4  -1  -9 89.7525 9.89987
  -4   1   9 84.4986 8.14434
   4  -1  -9 88.6365 10.1979
  -4   1   8 47.8951 5.52774
   4  -1  -8 53.0927 7.93577
   4  -1  -8 46.7462 7.70045
   4  -1  -8 48.8137 7.35598
  -4   1   7 12.7390 3.42213
   4  -1  -7 11.3238 5.96039
   4  -1  -7 7.64704 5.87003
  -4   1   6 47.4678 6.55034
  -4   1   6 55.9594 5.58177
   4  -1  -6 51.1508 6.85678
   4  -1  -6 61.5088 7.38007
  -4   1   5 91.0028 6.97064
  -4   1   5 86.6688 7.86156
   4  -1  -5 98.1656 8.28523
   4  -1  -5 59.7601 6.18012
  -4   1   4 26.3071 4.73249
   4  -1  -4 21.9896 5.15198
   4  -1  -4 32.1732 4.92510
   4  -1  -4 19.3499 2.96861
  -4   1   3 185.218 14.8791
   4  -1  -3 194.140 14.9493
  -4   1   3 159.973 14.5569
  -4   1   3 168.109 14.6451
   4  -1  -3 169.673 13.7614
   4  -1  -3 168.682 14.5579
  -4   1   2 81.5832 8.30319
   4  -1  -2 84.0694 8.38437
  -4   1   2 80.1312 8.21286
  -4   1   2 87.8380 8.31862
   4  -1  -2 86.8408 7.34615
   4  -1  -2 81.2852 8.10603
   4  -1  -1 126.808 11.6278
  -4   1   1 137.832 11.7034
  -4   1   1 133.743 11.7067
  -4   1   1 133.771 11.7265
   4  -1  -1 137.815 11.1224
   4  -1   0 0.89364 3.67055
  -4   1   0-1.00633 3.81088
  -4   1   0 5.15149 3.91240
  -4   1   0 0.44284 4.26819
   4  -1   1 7.33870 3.68682
  -4   1  -1 3.75124 3.65308
  -4   1  -1 4.22614 3.98044
  -4   1  -1 3.37696 4.61289
  -4   1  -2 136.965 12.4402
  -4   1  -2 138.046 12.2794
  -4   1  -2 150.114 12.0614
  -4   1  -2 146.299 11.9799
  -4   1  -2 124.863 12.6125
  -4   1  -3 4.10359 4.98279
  -4   1  -3 1.20547 4.34528
  -4   1  -3 3.26194 4.46196
  -4   1  -3 0.18724 3.55868
   4  -1   3 2.08325 4.41007
  -4   1  -4-2.75625 5.06947
  -4   1  -4-1.29679 4.11283
  -4   1  -4-0.24623 4.85390
  -4   1  -4 3.22658 4.51266
   4  -1   4 0.37290 4.52211
  -4   1  -4-2.80699 4.02455
  -4   1  -5 194.897 17.4827
  -4   1  -5 222.416 17.4481
   4  -1   5 198.480 17.0009
  -4   1  -5 208.441 17.2887
  -4   1  -5 202.956 17.7243
  -4   1  -6 66.6623 8.22431
   4  -1   6 53.5736 7.63610
  -4   1  -6 63.7083 7.60773
  -4   1  -6 59.7249 7.67035
   4  -1   6 63.8989 6.88534
  -4   1  -7 88.7051 9.67070
   4  -1   7 81.1518 9.26084
  -4   1  -7 89.3301 9.63250
   4  -1   7 81.8979 8.53519
   4  -1   8 77.1506 7.99945
  -4   1  -8 75.4584 9.50340
  -4   1  -8 69.5011 9.30480
  -4   1  -9 374.971 29.1554
   4  -1   9 336.673 28.0742
  -4   1  -9 347.183 28.9655
   4  -1  10 375.219 29.4058
  -4   1 -10 349.023 30.2079
  -4   1 -11 158.376 15.5339
  -4   1 -12 261.633 23.0597
  -4   1 -13 156.417 15.8890
  -4   1 -14 87.6956 11.9624
   4   0 -11 15.4641 6.51782
   4   0 -10 82.8499 9.86672
   4   0 -10 67.7530 9.81428
   4   0 -10 74.7726 9.36679
   4   0  -9 277.557 24.0904
   4   0  -9 295.532 24.0497
   4   0  -9 279.814 23.7992
  -4   0   8 61.2213 6.37133
   4   0  -8 68.9268 8.18877
   4   0  -8 70.5966 8.49437
   4   0  -7 14.4858 5.60050
   4   0  -7 14.2085 5.13064
  -4   0   7 17.0699 3.32490
  -4   0   7 15.1641 4.80581
  -4   0   6 2.00625 2.60906
   4   0  -6 4.53998 4.55707
   4   0  -6 1.22425 4.94946
  -4   0   6 4.30490 4.02039
  -4   0   5 2.00343 2.46361
  -4   0   5 5.10480 3.75608
   4   0  -5 9.94825 4.65626
   4   0  -5 3.26023 4.05974
   4   0  -5 2.46022 4.53778
  -4   0   4 22.0705 4.17354
  -4   0   4 23.7419 5.46549
   4   0  -4 25.9595 4.91971
  -4   0   4 22.1697 3.21188
   4   0  -4 25.0895 4.43847
  -4   0   3 10.5544 3.49681
  -4   0   3 7.55375 4.54856
   4   0  -3 10.9023 4.26382
   4   0  -3 9.59058 3.56059
  -4   0   2 2.83315 4.16472
   4   0  -2 1.48339 3.59914
  -4   0   2 4.01825 3.31689
  -4   0   2 2.73531 3.72842
   4   0  -2 1.68273 3.30989
   4   0  -1 1.92489 3.35606
  -4   0   1 5.01716 3.74876
   4   0  -1-5.46578 3.60261
  -4   0   1 4.13322 3.27172
  -4   0   1 3.56447 3.62229
  -4   0   1 1.60515 1.85333
  -4   0   0 3231.59 235.673
   4   0   0 3063.81 235.631
  -4   0   0 2932.14 235.576
  -4   0   0 3116.08 235.626
  -4   0   0 3074.07 235.362
  -4   0  -1 2114.98 156.863
   4   0   1 2093.32 156.887
  -4   0  -1 1988.34 156.810
  -4   0  -1 2032.66 157.083
  -4   0  -1 2042.30 156.744
  -4   0  -1 2011.61 156.882
  -4   0  -2 525.515 44.3009
  -4   0  -2 539.393 44.1870
  -4   0  -2 605.998 44.1082
  -4   0  -2 600.403 44.2417
  -4   0  -2 556.662 44.3739
  -4   0  -2 569.919 44.0977
  -4   0  -3 7.04219 4.28265
  -4   0  -3 0.34227 3.96113
  -4   0  -3 1.84277 2.82838
  -4   0  -3 5.68210 3.78280
  -4   0  -3 8.65003 3.54567
  -4   0  -3-0.76412 4.12926
  -4   0  -4 6.36826 4.26450
  -4   0  -4-1.67638 4.19988
  -4   0  -4 3.93066 4.02267
  -4   0  -4-0.20776 3.97427
   4   0   4-1.47494 3.58970
  -4   0  -4 2.85668 3.69993
  -4   0  -5 13.8293 4.86468
   4   0   5 13.1823 5.01373
  -4   0  -5 16.1595 4.95611
   4   0   5 18.2106 4.36802
  -4   0  -5 14.8239 4.48747
   4   0   6 282.106 22.4318
  -4   0  -6 264.186 22.5295
   4   0   6 267.048 21.7972
  -4   0  -6 289.099 22.5000
  -4   0  -6 267.132 22.2697
   4   0   7 1121.25 81.5952
  -4   0  -7 1018.21 81.7271
   4   0   7 1055.69 81.0427
  -4   0  -7 1070.02 81.6383
  -4   0  -7 996.003 81.3691
   4   0   8 2228.49 155.618
  -4   0  -8 1988.86 155.757
   4   0   8 1970.19 154.984
  -4   0  -8 1944.56 155.369
   4   0   9 20.3001 4.65630
  -4   0  -9 22.2901 6.08496
  -4   0  -9 11.2381 6.49593
  -4   0 -10 61.6363 8.33802
   4   0  10 53.1692 6.85837
  -4   0 -10 64.8656 9.03846
   4   0  11 71.2586 8.65583
  -4   0 -11 88.0581 9.97507
  -4   0 -11 89.2799 10.7043
  -4   0 -12 22.0752 7.33536
  -4   0 -12 16.0026 7.77973
  -4   0 -13 4.05393 7.39206
  -4   0 -13 20.8417 8.45598
   4   1 -12 31.6318 7.43454
   4   1 -11 29.4653 6.86925
   4   1 -10 12.9991 6.96264
   4   1 -10 4.11341 6.74966
   4   1 -10 0.63991 5.73581
   4   1  -9 36.0003 6.78147
   4   1  -9 42.6097 7.62759
   4   1  -8 35.1481 6.02185
   4   1  -8 31.6745 3.33085
   4   1  -8 41.3090 6.92440
   4   1  -7 38.0673 3.59977
   4   1  -7 45.3284 6.17646
  -4  -1   7 39.8265 5.69389
   4   1  -7 50.5195 7.00339
   4   1  -6 39.2364 6.44834
   4   1  -6 50.4990 6.70844
  -4  -1   6 47.1577 4.48546
   4   1  -6 41.9035 5.87601
  -4  -1   6 36.6472 5.60305
   4   1  -5 93.5718 9.28035
  -4  -1   5 83.5751 8.38446
  -4  -1   5 108.730 10.0671
   4   1  -5 96.8463 8.71701
  -4  -1   5 89.1492 7.57311
   4   1  -5 101.018 9.31069
  -4  -1   4 184.730 14.0292
   4   1  -4 187.130 13.5722
  -4  -1   4 189.384 12.9451
   4   1  -4 208.462 13.5493
   4   1  -4 202.565 13.1744
  -4  -1   4 198.365 12.1832
  -4  -1   3 226.367 18.3084
   4   1  -3 235.288 18.0617
  -4  -1   3 209.226 17.0295
  -4  -1   3 215.810 17.5515
   4   1  -3 253.020 18.0540
   4   1  -3 213.826 17.6282
   4   1  -2 787.019 58.5696
  -4  -1   2 816.256 58.2830
  -4  -1   2 712.989 57.9337
   4   1  -2 758.681 58.2821
   4   1  -1 327.180 25.3182
  -4  -1   1 343.977 25.6881
   4   1  -1 339.085 25.5737
  -4  -1   1 345.317 25.0637
  -4  -1   1 332.734 25.2885
  -4  -1   1 323.272 25.4186
  -4  -1   1 285.045 24.9371
  -4  -1   0 533.230 37.0236
   4   1   0 429.017 36.7963
   4   1   0 493.777 36.7299
  -4  -1   0 463.514 36.7275
  -4  -1   0 464.845 36.6664
  -4  -1   0 468.213 36.6473
  -4  -1  -1 146.221 11.5565
  -4  -1  -1 142.614 11.3968
  -4  -1  -1 125.342 11.1993
  -4  -1  -2 293.001 22.8697
  -4  -1  -2 292.549 22.5797
  -4  -1  -2 278.874 22.7259
  -4  -1  -2 286.030 22.8130
  -4  -1  -3 595.839 43.9739
  -4  -1  -3 556.809 43.6120
  -4  -1  -3 524.361 43.8322
  -4  -1  -3 592.875 43.9344
   4   1   4 97.3162 8.34753
  -4  -1  -4 85.4226 8.27231
  -4  -1  -4 85.0559 7.43715
  -4  -1  -4 76.5199 7.73394
   4   1   5 237.846 16.9656
  -4  -1  -5 195.395 16.9154
   4   1   5 177.632 16.1365
  -4  -1  -5 209.017 16.4462
  -4  -1  -5 212.441 16.9913
  -4  -1  -6 9.97358 3.66812
   4   1   6-3.96373 4.42206
  -4  -1  -6 6.11052 4.69323
   4   1   6 3.59692 2.99721
  -4  -1  -6 2.65435 4.50078
  -4  -1  -7 4.90050 4.07314
   4   1   7 5.79317 4.68270
  -4  -1  -7 1.35026 4.88334
  -4  -1  -7 8.21494 5.18978
   4   1   7 5.32509 3.25922
   4   1   8 109.948 10.1430
  -4  -1  -8 110.369 10.6559
  -4  -1  -8 111.253 10.0330
   4   1   8 98.5401 8.93548
  -4  -1  -8 88.8425 9.59662
   4   1   9 9.60810 3.78412
  -4  -1  -9 6.35543 5.06452
  -4  -1  -9 2.23000 5.81152
   4   1  10 52.4334 6.22528
  -4  -1 -10 48.5704 7.37261
  -4  -1 -10 69.1357 8.53624
   4   1  11 41.8285 5.90945
  -4  -1 -11 39.7430 7.04116
  -4  -1 -11 52.6791 8.51880
  -4  -1 -12 16.6189 6.29523
  -4  -1 -12 14.7777 7.51294
  -4  -1 -13 1.06687 5.99115
  -4  -1 -13-4.56809 7.77692
   4   2 -12-0.71436 6.22166
   4   2 -11 3.31764 5.87882
   4   2 -10 12.2087 5.79110
   4   2 -10 9.97577 6.83500
   4   2  -9 9.14959 5.32985
   4   2  -9-0.94659 6.11492
   4   2  -8 1.65323 6.08392
   4   2  -8 14.6644 5.12169
   4   2  -8 13.2350 6.00989
   4   2  -7 18.5727 6.07477
   4   2  -7 21.4530 5.08606
   4   2  -7 21.3693 3.16891
  -4  -2   7 21.1311 4.74619
   4   2  -7 23.1590 5.83198
  -4  -2   7 14.9518 3.72870
   4   2  -6 29.0124 6.21108
   4   2  -6 33.0399 5.14561
  -4  -2   6 24.1979 4.80128
   4   2  -6 37.8356 3.79392
   4   2  -6 42.4659 6.14306
  -4  -2   6 31.3966 4.21224
  -4  -2   5 5.87311 6.11015
   4   2  -5 0.49862 4.54300
   4   2  -5-0.31772 3.25615
   4   2  -5 2.39250 2.13129
  -4  -2   5-3.34934 3.31003
  -4  -2   4 395.352 30.4191
   4   2  -4 381.936 29.9259
  -4  -2   4 375.591 29.3182
   4   2  -4 348.476 29.0405
   4   2  -4 362.658 29.3360
   4   2  -4 443.178 29.8846
  -4  -2   3 36.5517 6.07404
   4   2  -3 27.5541 4.87342
   4   2  -3 32.6498 3.95358
   4   2  -3 38.8275 4.88790
  -4  -2   3 30.9460 3.92543
  -4  -2   3 34.4980 3.90401
  -4  -2   2 3.00177 2.27900
  -4  -2   2 2.67065 4.48603
   4   2  -2 3.73572 3.51542
  -4  -2   2 7.22950 2.42182
   4   2  -2-0.53312 3.35979
   4   2  -2 5.94022 2.62573
  -4  -2   1 15.4180 2.49537
  -4  -2   1 13.9895 4.33209
   4   2  -1 14.1217 3.53504
  -4  -2   1 13.4285 2.54506
  -4  -2   0 99.4330 8.94670
   4   2   0 104.927 8.55596
  -4  -2   0 99.3229 8.26842
  -4  -2   0 93.1202 8.04322
  -4  -2  -1 328.038 25.0814
  -4  -2  -1 350.417 25.1991
  -4  -2  -1 307.903 24.8505
   4   2   1 281.915 24.9960
  -4  -2  -1 330.081 25.1455
  -4  -2  -1 332.257 24.9021
  -4  -2  -2 765.053 55.1435
  -4  -2  -2 714.832 54.9890
  -4  -2  -2 673.993 54.9861
  -4  -2  -3 768.150 60.9589
  -4  -2  -3 782.926 61.2895
  -4  -2  -3 785.519 61.1563
  -4  -2  -3 848.473 61.1526
   4   2   4 1484.05 100.979
  -4  -2  -4 1242.05 100.368
  -4  -2  -4 1369.90 100.933
  -4  -2  -4 1299.00 100.767
  -4  -2  -4 1312.41 100.569
   4   2   5 357.660 22.8602
  -4  -2  -5 323.410 22.8098
  -4  -2  -5 323.859 22.5443
   4   2   6 280.614 20.0691
  -4  -2  -6 255.035 20.1928
  -4  -2  -6 256.181 19.9434
  -4  -2  -6 223.013 19.2505
  -4  -2  -7 6.01943 3.15633
   4   2   7-1.20895 4.13273
  -4  -2  -7 1.44367 4.62182
  -4  -2  -7 4.42498 4.39636
   4   2   7 0.57560 2.37692
  -4  -2  -8 15.5288 3.80862
   4   2   8 15.6564 4.73105
  -4  -2  -8 19.6912 5.45199
  -4  -2  -8 16.1447 5.16469
   4   2   8 11.2711 2.92349
   4   2   9 8.39960 3.05306
  -4  -2  -9 11.6664 5.02382
  -4  -2  -9 15.7132 3.99595
  -4  -2  -9 7.83047 5.83389
   4   2  10 17.6417 3.75211
  -4  -2 -10 17.2685 4.39185
  -4  -2 -10 22.2710 6.81460
   4   2  11 53.0857 6.08185
  -4  -2 -11 52.6599 6.59707
  -4  -2 -11 70.2420 8.96258
  -4  -2 -12 32.4452 8.19013
  -4  -2 -13-6.15556 7.71781
   4   3 -11 10.0728 5.88409
   4   3 -10 27.1345 6.17974
   4   3 -10 19.9542 7.46274
   4   3  -9 0.38814 6.85110
   4   3  -9 14.5707 5.21907
   4   3  -9 17.9552 6.68440
  -4  -3   9 9.59378 4.62158
   4   3  -8 38.8933 7.73197
   4   3  -8 44.5997 6.27348
  -4  -3   8 38.7471 6.28609
   4   3  -8 45.5727 7.36812
  -4  -3   8 42.4900 5.83608
   4   3  -7 139.924 14.1989
  -4  -3   7 132.638 13.0844
   4   3  -7 163.560 12.6778
   4   3  -7 139.283 13.1424
   4   3  -7 154.073 13.9435
  -4  -3   7 170.920 13.1134
   4   3  -6 9.29054 5.81282
   4   3  -6 9.62192 4.02945
  -4  -3   6 7.82745 3.99537
   4   3  -6 11.5328 3.15096
   4   3  -6 9.16883 5.34813
   4   3  -5 34.0647 6.25578
   4   3  -5 36.9461 4.57873
  -4  -3   5 37.4055 4.68139
   4   3  -5 30.1253 4.13277
   4   3  -5 30.1349 5.61059
  -4  -3   4 57.6364 6.22373
  -4  -3   4 81.0359 8.61783
   4   3  -4 73.5761 7.77324
   4   3  -4 63.8122 6.12754
   4   3  -4 63.0533 6.10387
   4   3  -4 72.1003 7.08828
  -4  -3   3 14.3437 5.76208
  -4  -3   3 21.6164 3.97346
   4   3  -3 21.3056 4.85249
   4   3  -3 20.5093 3.32719
   4   3  -3 22.2310 3.03565
  -4  -3   3 24.0217 3.17669
   4   3  -3 21.6402 4.23949
  -4  -3   2-2.30362 4.97017
   4   3  -2 9.12292 3.87177
   4   3  -2 6.05575 3.17847
  -4  -3   2-0.61471 1.96479
  -4  -3   2 6.75639 2.98782
   4   3  -2 3.83085 1.97001
  -4  -3   1 7.50683 4.63435
   4   3  -1 6.65515 1.74718
   4   3  -1 7.32685 3.54370
  -4  -3   1 14.9861 3.09768
   4   3  -1 11.9985 3.04726
  -4  -3   1 12.7064 1.79012
  -4  -3   0-1.70667 1.10724
  -4  -3   0 5.04628 4.16605
  -4  -3   0 0.56040 1.56037
   4   3   0 1.12779 2.88553
  -4  -3   0-2.38598 2.62620
  -4  -3   0-4.43308 1.30080
  -4  -3  -1 301.383 21.2666
  -4  -3  -1 244.425 20.4578
   4   3   1 239.870 20.6657
  -4  -3  -1 297.702 21.1286
  -4  -3  -1 267.326 20.3458
  -4  -3  -1 267.294 20.3918
  -4  -3  -2 2.82624 2.13533
  -4  -3  -2-0.06857 2.10144
  -4  -3  -2 7.97515 3.23971
   4   3   2 1.53104 2.21791
  -4  -3  -2 3.32126 2.91629
  -4  -3  -2 6.75191 2.16631
  -4  -3  -3 921.838 71.9716
   4   3   3 987.986 72.1798
  -4  -3  -3 974.002 72.1072
  -4  -3  -3 889.343 72.0010
   4   3   4 701.719 48.0324
  -4  -3  -4 600.498 47.8736
  -4  -3  -4 576.445 47.7579
   4   3   5 258.753 19.5599
  -4  -3  -5 240.084 19.5809
  -4  -3  -5 230.318 19.3578
   4   3   6 258.187 20.4698
  -4  -3  -6 238.529 20.6063
  -4  -3  -6 260.896 20.3969
   4   3   7 214.213 18.6955
  -4  -3  -7 231.867 19.0375
  -4  -3  -7 239.757 18.7088
  -4  -3  -8 24.1992 5.31829
   4   3   8 28.1762 5.30371
  -4  -3  -8 28.6886 5.88615
  -4  -3  -9 3.33140 2.05523
  -4  -3  -9 4.35208 5.15378
  -4  -3  -9-0.29782 5.66762
   4   3   9 3.94178 2.00805
  -4  -3 -10 0.15595 2.63610
   4   3  10-1.29990 2.46195
  -4  -3 -11 8.25980 3.31927
  -4  -3 -11 2.89932 6.55508
  -4  -3 -12 66.4932 9.70374
  -4  -3 -13 118.705 13.3668
   4   4 -10 25.7817 6.16619
   4   4 -10 41.1873 8.24219
   4   4  -9 134.343 14.4231
   4   4  -9 136.861 12.7738
   4   4  -9 135.185 13.7919
  -4  -4   9 153.190 13.0231
   4   4  -8 145.025 15.2973
  -4  -4   8 145.418 14.1041
   4   4  -8 152.768 13.9461
   4   4  -8 170.286 15.0165
  -4  -4   8 193.291 14.5066
   4   4  -7 45.3180 7.81743
   4   4  -7 48.5343 5.93486
  -4  -4   7 36.9673 6.27852
   4   4  -7 55.0006 5.72417
   4   4  -7 45.1390 7.39749
   4   4  -6 16.6503 6.04233
   4   4  -6 12.4865 3.84758
  -4  -4   6 14.1618 4.27397
   4   4  -6 6.30597 3.52929
   4   4  -6 14.1971 5.51733
   4   4  -5 3.96988 5.25019
  -4  -4   5 15.7737 3.84223
   4   4  -5 13.1020 3.32730
   4   4  -5 15.5441 3.62831
   4   4  -5 5.48209 4.77014
  -4  -4   4 44.1112 7.09993
   4   4  -4 29.3010 5.65073
  -4  -4   4 28.7388 4.24388
   4   4  -4 27.1468 3.61076
   4   4  -4 29.9063 4.30515
   4   4  -4 48.9543 5.44895
  -4  -4   4 22.9517 3.39251
  -4  -4   4 42.3482 5.46765
  -4  -4   3 223.668 19.7489
   4   4  -3 271.342 20.8982
   4   4  -3 297.153 20.4140
  -4  -4   3 283.282 20.7586
   4   4  -3 310.095 20.5093
   4   4  -3 229.378 19.6254
  -4  -4   3 283.805 21.6007
   4   4  -2 358.624 30.9494
   4   4  -2 384.502 30.7385
  -4  -4   2 405.465 31.0690
   4   4  -2 391.048 30.5905
  -4  -4   2 433.975 31.6007
   4   4  -1 114.321 11.0047
  -4  -4   1 126.319 11.0457
   4   4  -1 129.604 10.4588
  -4  -4   1 142.433 11.9215
  -4  -4   0 57.3957 6.60674
   4   4   0 45.4589 5.50000
  -4  -4   0 49.3161 5.53254
   4   4   1 687.830 55.5809
  -4  -4  -1 776.952 56.0458
  -4  -4  -1 723.867 55.9647
  -4  -4  -2 2.37580 1.44683
  -4  -4  -2 5.11183 3.47955
  -4  -4  -2 7.53490 1.27917
   4   4   2 3.48856 2.38218
  -4  -4  -2 2.91157 3.03292
   4   4   3 81.1237 6.82504
   4   4   3 62.0490 6.20278
  -4  -4  -3 90.0804 6.86099
  -4  -4  -3 78.8412 6.41967
  -4  -4  -3 88.2605 7.57105
  -4  -4  -3 76.3113 6.60124
   4   4   4 68.3846 6.68584
  -4  -4  -4 71.2149 6.72581
  -4  -4  -4 75.4059 6.57094
  -4  -4  -4 74.4312 7.45119
   4   4   5 265.815 22.0670
  -4  -4  -5 291.740 22.1204
  -4  -4  -5 276.941 22.0966
  -4  -4  -6 264.556 20.3470
   4   4   6 240.553 20.2874
  -4  -4  -6 252.231 20.4120
  -4  -4  -7 264.934 20.8505
   4   4   7 249.950 20.7850
  -4  -4  -7 253.360 20.9685
  -4  -4  -8 316.352 23.4381
   4   4   8 274.781 23.3142
  -4  -4  -8 272.167 23.5262
  -4  -4  -9 44.6993 6.92513
  -4  -4  -9 36.3026 6.51112
   4   4   9 39.5261 6.09917
  -4  -4 -10 24.8926 6.73540
  -4  -4 -11 167.001 15.7101
  -4  -4 -12 48.3473 8.63258
  -4  -4 -13 18.0371 7.95359
  -4  -4 -15 28.2793 8.92361
  -4  -5   9 9.12158 6.06096
   4   5  -8 3.63416 7.15172
   4   5  -8 2.50415 4.12444
   4   5  -7 22.6852 6.94113
   4   5  -7 14.2088 4.05790
   4   5  -7 11.0316 4.31843
  -4  -5   6-0.49919 4.25892
   4   5  -6-1.70549 5.90705
   4   5  -6 2.30439 3.25890
   4   5  -6 2.72607 3.86323
  -4  -5   5 25.3939 4.57384
   4   5  -5 27.4330 6.55168
   4   5  -5 27.8471 3.91071
   4   5  -5 43.9662 5.11140
  -4  -5   4 62.7936 6.80764
   4   5  -4 84.2283 9.00908
   4   5  -4 86.3113 7.74243
   4   5  -4 69.7039 6.54962
  -4  -5   4 106.653 9.07490
  -4  -5   4 94.2965 7.21905
  -4  -5   3 22.5459 6.82530
   4   5  -3 15.5640 5.47989
   4   5  -3 20.2413 4.12475
  -4  -5   3 20.1319 5.06131
  -4  -5   2 51.1604 7.60784
   4   5  -2 45.3870 6.52660
   4   5  -2 43.3917 5.54978
   4   5  -2 43.8897 5.24050
  -4  -5   2 55.8603 6.29511
  -4  -5   1 14.1587 5.60583
   4   5  -1 9.60892 2.80608
   4   5  -1 11.0132 4.29701
   4   5  -1 4.07031 3.49047
  -4  -5   1 10.1473 3.96704
  -4  -5   0 21.7477 5.60141
   4   5   0 23.4083 4.33133
  -4  -5   0 22.5317 4.50451
   4   5   0 21.4805 2.72808
   4   5   1 134.664 11.2167
  -4  -5  -1 127.685 11.7732
  -4  -5  -1 138.347 11.8667
  -4  -5  -2 7.41517 3.79405
   4   5   2 15.9490 3.04931
  -4  -5  -2 14.5738 4.01832
  -4  -5  -3 7.67805 2.74170
   4   5   3 8.84884 2.57673
   4   5   3 7.21439 2.09023
   4   5   3 12.0486 3.25307
  -4  -5  -3 8.49590 3.85772
   4   5   4 47.7381 6.14935
  -4  -5  -4 65.3745 6.05649
  -4  -5  -4 98.6187 7.67856
   4   5   4 87.7747 6.71170
   4   5   5 118.464 10.4345
  -4  -5  -5 125.948 10.3960
   4   5   6 279.328 23.3026
  -4  -5  -6 322.449 23.4940
  -4  -5  -6 280.337 23.3096
  -4  -5  -7 46.7135 6.04667
   4   5   7 46.1030 5.96521
  -4  -5  -7 45.6895 4.66748
  -4  -5  -7 56.8280 6.40214
  -4  -5  -8 70.1951 7.31626
  -4  -5  -8 55.7808 7.03999
   4   5   8 49.9851 6.74703
  -4  -5  -8 52.2364 5.66504
  -4  -5  -9 9.98883 5.41696
  -4  -5  -9 8.18524 3.95970
  -4  -5 -10 14.8335 6.17367
  -4  -5 -10 18.9658 4.92257
  -4  -5 -11 41.6896 7.88081
  -4  -5 -12 3.53018 7.00948
  -4  -5 -12 5.97252 5.95856
  -4  -5 -13 3.46414 7.96984
  -4  -5 -13 14.9805 6.85656
  -4  -6   9 12.3711 7.09514
   4   6  -8 14.8666 7.84102
   4   6  -7 15.9640 7.64411
   4   6  -6 15.9171 7.16372
   4   6  -5 31.4423 7.15823
  -4  -6   5 25.0952 4.45309
   4   6  -5 14.8532 3.04887
   4   6  -4 7.66446 1.97346
   4   6  -4 6.49492 6.17792
   4   6  -4 8.13392 1.86304
  -4  -6   4 14.7584 4.01167
  -4  -6   4 12.7801 5.83708
   4   6  -3-4.11991 5.66089
   4   6  -3 6.04537 4.08845
  -4  -6   3 6.29441 5.00893
  -4  -6   2 19.0494 5.50217
  -4  -6   2 21.8889 6.59454
   4   6  -2 27.2229 6.04639
   4   6  -2 17.6245 4.46910
  -4  -6   1 50.2396 7.22880
   4   6  -1 43.2652 6.40617
   4   6  -1 41.7779 5.77658
  -4  -6   1 42.1645 6.37972
  -4  -6   0 84.1469 9.05084
   4   6   0 78.9012 8.38812
   4   6   0 82.3835 8.15082
  -4  -6   0 96.5394 8.72939
   4   6   0 92.0982 6.85508
   4   6   0 70.7598 6.72995
   4   6   1 72.9580 8.13929
  -4  -6  -1 91.5492 8.76329
   4   6   1 87.8525 7.22202
  -4  -6  -1 81.1949 8.75852
   4   6   2 151.304 12.8604
  -4  -6  -2 162.402 13.7116
   4   6   2 167.614 12.5943
  -4  -6  -2 132.990 13.0614
  -4  -6  -3 11.3480 3.44591
   4   6   3 13.9051 2.88295
   4   6   3 10.7532 2.26995
   4   6   3 13.9471 3.42730
  -4  -6  -3 10.5161 4.28618
  -4  -6  -3 10.7083 2.19483
   4   6   4 82.0120 7.65427
   4   6   4 84.0827 8.16084
  -4  -6  -4 138.808 10.0378
   4   6   4 151.067 9.02416
  -4  -6  -4 96.5133 8.11501
  -4  -6  -4 101.390 7.91618
   4   6   5 96.1808 9.48590
  -4  -6  -5 105.732 9.48250
   4   6   5 142.988 10.1216
   4   6   6 75.2897 8.02417
  -4  -6  -6 76.6556 8.01917
   4   6   6 110.025 8.59524
  -4  -6  -7 43.8912 6.11189
   4   6   7 62.0142 6.62873
   4   6   7 42.0795 6.10568
  -4  -6  -7 54.0675 7.04128
  -4  -6  -8 53.2049 6.92171
   4   6   8 52.1129 6.78141
  -4  -6  -8 60.8754 7.60424
  -4  -6  -9 45.0732 7.43087
  -4  -6  -9 66.5159 8.02337
  -4  -6 -10 37.7471 7.37964
  -4  -6 -10 37.8864 5.74054
  -4  -6 -11 11.5766 6.92288
  -4  -6 -11 25.7293 6.77339
  -4  -6 -11 17.8137 5.25897
  -4  -6 -12 13.7918 7.76545
  -4  -6 -12 20.2245 7.04197
  -4  -6 -13 64.3598 10.4186
   4   7  -7 29.5327 8.58509
   4   7  -6 39.4015 8.66343
   4   7  -5 27.0412 7.89776
  -4  -7   5 32.1840 5.57194
   4   7  -4 18.5327 6.99292
  -4  -7   4 11.5960 6.53413
   4   7  -3 11.0367 6.53686
  -4  -7   3 8.73108 5.72270
   4   7  -2 0.30180 5.81756
   4   7  -2 4.10892 1.61605
  -4  -7   2 2.81376 5.42055
  -4  -7   1 24.0998 6.80699
   4   7  -1 26.4047 6.24369
  -4  -7   1 29.3801 6.10338
   4   7  -1 21.8451 2.81713
  -4  -7   0 44.3566 7.55518
   4   7   0 61.9979 7.38122
   4   7   0 41.1320 4.83180
  -4  -7   0 68.2331 7.41642
   4   7   0 72.1293 5.19510
   4   7   1 188.383 16.7074
  -4  -7  -1 206.614 17.2868
   4   7   1 208.739 15.8108
  -4  -7  -1 175.824 16.8736
   4   7   2 83.5472 8.57552
  -4  -7  -2 74.0574 8.72814
  -4  -7  -2 107.575 9.83625
   4   7   2 98.7005 8.01853
  -4  -7  -3 4.90637 2.18109
   4   7   3 4.72666 3.53589
   4   7   3 5.13508 2.06831
  -4  -7  -3 15.1370 5.06049
   4   7   3 9.95434 3.55211
  -4  -7  -3 3.92156 3.67427
   4   7   4 215.362 16.7825
   4   7   4 160.296 16.7823
  -4  -7  -4 226.408 18.3480
   4   7   4 276.913 17.4674
  -4  -7  -4 204.747 16.8642
  -4  -7  -4 243.229 16.9811
   4   7   5 9.60235 3.35079
  -4  -7  -5 5.52401 3.25947
   4   7   5 12.9858 4.29135
  -4  -7  -6 1.25978 3.70289
   4   7   6 2.77820 3.66038
   4   7   6 11.8839 4.45336
  -4  -7  -7 3.27291 4.07664
   4   7   7 5.24588 4.74208
   4   7   7 6.22060 4.33125
  -4  -7  -7 5.99068 5.05589
  -4  -7  -8 14.9748 4.94851
   4   7   8 16.3140 5.51460
   4   7   8 22.0838 5.26190
  -4  -7  -8 19.2871 6.01227
   4   7   9 99.3928 9.51119
  -4  -7  -9 66.9566 9.28994
  -4  -7  -9 97.4716 10.1203
  -4  -7 -10 66.7404 8.72603
  -4  -7 -10 65.1088 8.91841
  -4  -7 -11 72.2859 9.84776
  -4  -7 -12 86.2109 11.1514
   4   8  -6 51.0661 9.73462
   4   8  -5 31.2124 8.84539
  -4  -8   5 37.6272 6.49995
   4   8  -4 39.8294 8.41180
   4   8  -3 46.5439 8.47160
  -4  -8   3 48.0767 8.18972
   4   8  -2 84.9621 10.2301
  -4  -8   2 85.4981 10.1457
   4   8  -1 0.43497 2.45453
   4   8  -1 2.42082 5.91547
  -4  -8   1 1.54859 5.61563
  -4  -8   0 1.60616 5.90626
   4   8   0 11.4418 2.98023
   4   8   0 12.4465 5.74097
  -4  -8   0 0.75428 5.53663
   4   8   1 944.347 76.3395
  -4  -8  -1 1055.67 77.0711
   4   8   1 1006.31 75.6330
  -4  -8  -1 927.166 76.3469
   4   8   2 205.299 18.4320
  -4  -8  -2 230.896 19.3112
   4   8   2 230.542 17.8597
  -4  -8  -2 219.879 18.4850
   4   8   3 54.3999 5.04945
   4   8   3 49.0516 5.46901
   4   8   3 24.9291 3.51338
  -4  -8  -3 40.1707 6.65039
  -4  -8  -3 38.2952 5.44108
  -4  -8  -4 14.8266 3.22930
   4   8   4 12.5159 3.75240
   4   8   4 10.0179 3.04405
  -4  -8  -4 12.0786 3.97151
   4   8   4 13.6237 4.17234
   4   8   5 61.9255 6.03524
   4   8   5 86.3493 7.48448
  -4  -8  -5 67.2560 6.68973
  -4  -8  -6 41.8191 6.87136
  -4  -8  -6 30.1536 5.17135
   4   8   6 45.9316 5.88117
  -4  -8  -7 7.66405 4.38052
  -4  -8  -7 13.8544 5.81058
   4   8   7 10.4840 4.96449
   4   8   8 51.0020 6.67768
  -4  -8  -8 34.5755 6.09278
  -4  -8  -8 41.1914 7.45688
   4   8   9 169.229 12.9651
  -4  -8  -9 107.339 12.3862
  -4  -8 -10 79.4882 9.80049
  -4  -8 -10 97.4938 10.7784
  -4  -8 -11 3.42626 6.48603
  -4  -8 -12-1.15131 7.50928
   4   9  -5 66.8743 10.5443
   4   9  -4 71.3813 10.9611
  -4  -9   4 96.5761 9.84113
   4   9  -3 59.1447 9.97240
  -4  -9   3 90.5480 10.9087
   4   9  -2 201.868 18.7355
  -4  -9   2 214.702 19.1091
   4   9  -1 176.832 17.4508
  -4  -9   1 219.438 18.2594
   4   9   0-3.01303 5.92306
  -4  -9   0 1.69879 6.36629
  -4  -9  -1 14.9186 6.19960
   4   9   1 12.3458 5.82293
   4   9   1 16.6730 3.76810
  -4  -9  -1 14.0596 6.13774
   4   9   2 11.1767 3.84728
   4   9   2 7.50902 5.15790
  -4  -9  -2 12.7904 6.03490
   4   9   3 27.1100 4.73571
   4   9   3 23.1441 5.37975
  -4  -9  -3 40.2540 7.10842
   4   9   4 96.6500 9.06466
   4   9   5 41.9012 5.87449
  -4  -9  -6-4.52815 6.06812
   4   9   6 9.85318 4.83446
  -4  -9  -6 3.67227 4.24553
   4   9   7 109.784 9.73513
  -4  -9  -7 106.153 11.1470
  -4  -9  -7 79.8460 9.25924
  -4  -9  -8 126.789 13.0873
  -4  -9  -9 18.4948 5.94174
  -4  -9 -10 4.80860 6.13881
   4  10  -3 29.4315 8.27569
   4  10  -2 6.56529 7.13747
   4  10  -1 46.5759 8.68458
  -4 -10   1 71.9432 9.57816
   4  10   0 30.9367 7.28407
  -4 -10   0 48.5548 8.75363
   4  10   1 3.22891 5.93852
  -4 -10  -1 3.24662 6.41551
  -4 -10  -2 10.6132 6.96400
   4  10   5 94.1371 9.33879
   4  10   6 58.2175 7.31227
   5  -9   1-4.57131 6.63260
   5  -8  -3-0.40086 6.39791
   5  -8  -2 1.21704 6.45731
   5  -8  -1 23.4272 7.31288
   5  -8   0 460.772 34.3722
   5  -8   0 379.926 33.4924
   5  -8   1 66.5875 9.14157
   5  -8   1 37.8481 7.81314
   5  -8   2 51.3336 8.32989
   5  -8   3-7.53578 6.71595
   5  -8   4 14.8919 7.17860
  -5   7   3 108.349 12.4938
   5  -7  -3 76.5814 9.80915
  -5   7   2 23.5119 9.19538
   5  -7  -2 22.6903 5.37427
  -5   7   1 43.7115 10.1623
   5  -7  -1 41.3177 7.18415
   5  -7  -1 25.5727 6.05205
  -5   7   0 140.813 14.9543
   5  -7   0 145.486 12.9494
   5  -7   0 115.691 12.2676
   5  -7   0 92.8790 11.3881
   5  -7   1 90.8813 10.6523
   5  -7   1 87.4805 9.86657
  -5   7  -2 66.5236 11.4007
   5  -7   2 62.0795 8.82989
   5  -7   2 50.5340 8.22341
  -5   7  -3 74.9980 13.4846
  -5   7  -3 97.3633 12.5992
   5  -7   3 71.6026 9.97763
   5  -7   3 69.6305 9.37321
  -5   7  -4 135.113 17.6517
  -5   7  -4 137.264 16.1284
   5  -7   4 134.035 13.5623
  -5   7  -5 188.666 18.8486
  -5   7  -5 178.678 19.9562
   5  -7   5 169.277 16.5337
   5  -7   5 156.438 16.1732
   5  -7   6 5.83261 7.20473
   5  -6  -5 37.4338 7.82218
  -5   6   5 23.0213 8.46618
   5  -6  -4 155.842 14.1844
  -5   6   4 121.444 14.9152
   5  -6  -3 4.21593 6.67038
   5  -6  -3 8.70914 5.56270
  -5   6   3-1.85906 7.81252
   5  -6  -2 3.73908 6.46703
   5  -6  -2 1.27395 5.38201
   5  -6  -2 0.41407 4.27264
  -5   6   2-1.42211 7.81712
  -5   6   1 29.4949 9.48799
  -5   6   1 43.9670 5.54192
   5  -6  -1 40.8338 6.95199
   5  -6  -1 38.4662 5.97418
  -5   6   0 27.4744 5.08315
   5  -6   0 37.4332 6.53625
   5  -6   0 17.3087 5.50524
   5  -6   1 50.5721 7.74185
   5  -6   1 46.6119 7.11612
  -5   6  -2 72.7513 12.4293
  -5   6  -2 80.1059 11.6589
   5  -6   2 91.7731 9.93902
   5  -6   2 72.6903 9.06181
  -5   6  -3 41.0672 10.7985
  -5   6  -3 33.8813 9.67025
   5  -6   3 47.2116 7.77156
   5  -6   3 38.0528 7.01549
  -5   6  -4 67.8878 13.1384
  -5   6  -4 74.5334 11.8490
   5  -6   4 85.0929 10.0654
   5  -6   4 68.4745 9.30251
  -5   6  -5 79.3216 13.5322
  -5   6  -5 78.9896 12.1788
   5  -6   5 78.8548 10.1623
   5  -6   5 71.9388 9.78734
  -5   6  -6 4.65203 11.2374
  -5   6  -6 11.5226 9.59910
   5  -6   6 22.8089 7.29917
  -5   6  -7 24.9413 12.2833
  -5   6  -7 20.5060 9.68083
   5  -6   7 17.4155 7.73240
  -5   6  -8-1.39278 12.1589
  -5   5   7 36.0713 6.83055
  -5   5   7 18.5139 8.61025
   5  -5  -7 36.0160 8.03112
  -5   5   6 30.9489 9.08497
   5  -5  -6 35.3346 7.86734
   5  -5  -5 71.7393 9.57648
  -5   5   5 72.3969 10.4981
   5  -5  -4 58.5791 8.55002
  -5   5   4 59.1832 9.64629
   5  -5  -3 121.731 10.3523
   5  -5  -3 77.0143 8.78090
  -5   5   3 88.3584 7.16407
   5  -5  -3 59.3454 7.22165
  -5   5   3 101.198 11.3553
   5  -5  -2 33.9855 6.82811
  -5   5   2 35.6315 4.17090
   5  -5  -2 19.0816 5.71301
   5  -5  -2 20.8609 4.38194
   5  -5  -1 100.382 9.99305
  -5   5   1 97.0825 8.07529
   5  -5  -1 77.4289 9.06743
   5  -5  -1 67.9974 8.13184
   5  -5   0 65.6175 8.24862
   5  -5   0 55.6570 7.52418
   5  -5   0 49.4189 6.66885
   5  -5   1 51.8946 7.58868
  -5   5  -1 50.0039 5.97058
   5  -5   1 40.9932 7.20414
   5  -5   1 40.2548 6.34504
  -5   5  -2 269.153 21.4264
   5  -5   2 245.725 22.0684
   5  -5   2 254.708 21.6474
  -5   5  -2 269.094 23.7439
  -5   5  -3 55.7276 10.1993
   5  -5   3 42.5727 7.23306
   5  -5   3 39.7377 6.91571
  -5   5  -4 164.748 17.9771
   5  -5   4 181.163 16.0148
   5  -5   4 163.855 15.6562
  -5   5  -5 61.8438 11.8080
   5  -5   5 58.9337 8.32709
  -5   5  -6 26.1648 11.1416
  -5   5  -6 21.4500 8.92622
   5  -5   6 21.6464 7.01103
  -5   5  -7 13.9130 11.1214
  -5   5  -7 26.6830 9.31516
   5  -5   7 23.8112 7.24939
  -5   5  -8 21.4927 11.1429
  -5   5  -8 4.66541 8.86628
   5  -5   8 16.8526 7.29343
  -5   5  -9-7.11103 11.4290
  -5   5  -9 16.1445 9.53981
   5  -5   9 6.58452 7.45932
  -5   5 -10 82.3594 15.1601
  -5   4   8 2.72571 5.13170
   5  -4  -8 0.80722 6.93263
  -5   4   8 4.15437 7.82140
  -5   4   7 7.11529 5.43747
   5  -4  -7 8.44495 6.82689
  -5   4   7 11.4713 7.56673
  -5   4   6 51.5666 9.87334
   5  -4  -6 69.3129 8.97649
  -5   4   5 66.7846 10.5769
   5  -4  -5 89.3167 9.73045
   5  -4  -4 58.1706 8.14651
   5  -4  -4 49.3842 6.43242
  -5   4   4 61.7267 9.27250
   5  -4  -3 8.56340 5.73999
   5  -4  -3 4.28924 4.29731
   5  -4  -2 121.888 10.1256
  -5   4   2 100.161 7.74797
   5  -4  -2 88.1589 8.87635
   5  -4  -2 67.4000 7.79791
   5  -4  -1 7.41277 5.72660
  -5   4   1 4.54649 3.09553
   5  -4  -1 5.09559 4.64014
   5  -4  -1 5.68102 3.57999
   5  -4   0 883.944 60.9572
  -5   4   0 803.938 60.0039
   5  -4   0 831.595 60.6639
  -5   4   0 728.384 61.2549
   5  -4   0 676.553 59.9902
   5  -4   1 323.465 24.8739
  -5   4  -1 295.068 23.9682
   5  -4   1 306.778 24.6551
  -5   4  -1 299.748 25.7818
   5  -4   1 279.180 24.1339
  -5   4  -2 12.0800 7.63940
  -5   4  -2 2.64402 3.97885
   5  -4   2 1.21425 5.05403
   5  -4   2-1.51514 4.56923
  -5   4  -3 2.27597 8.16257
  -5   4  -3 4.12256 7.23535
   5  -4   3-0.32023 5.05899
  -5   4  -3 5.26388 4.43387
   5  -4   3 3.66379 4.98940
  -5   4  -4 5.15936 8.26377
   5  -4   4 10.2252 5.36173
  -5   4  -5 17.3366 9.08700
   5  -4   5 9.09896 5.76069
  -5   4  -6 156.926 17.8784
   5  -4   6 181.590 16.0866
   5  -4   7 207.974 18.9544
  -5   4  -7 215.108 20.8690
   5  -4   8 492.611 39.0083
  -5   4  -8 456.319 39.9816
  -5   4  -9 22.6115 11.0501
  -5   4 -10 83.1859 13.3063
  -5   4 -10 75.4785 11.9197
  -5   4 -11 10.0917 10.8673
  -5   3   9 11.5990 4.75432
   5  -3  -9 8.86742 7.23130
   5  -3  -8 3.01431 6.60557
  -5   3   7 5.29572 4.64073
   5  -3  -7 7.11569 6.37192
   5  -3  -6 58.1861 6.51062
   5  -3  -6 95.1101 9.10009
  -5   3   5 282.153 21.7562
   5  -3  -5 303.598 21.0724
   5  -3  -4 136.670 13.0282
   5  -3  -4 198.441 14.5283
   5  -3  -3 510.463 35.4779
   5  -3  -3 402.762 34.5241
   5  -3  -2 2958.09 212.216
  -5   3   2 2767.93 211.091
   5  -3  -2 2702.27 211.739
  -5   3   2 2600.25 212.548
   5  -3  -1 479.742 34.4054
  -5   3   1 429.080 33.1872
   5  -3  -1 432.788 33.8790
  -5   3   1 350.012 34.5787
   5  -3   0 511.565 36.8393
  -5   3   0 459.169 35.8786
  -5   3   0 528.295 36.8301
   5  -3   0 481.244 36.4940
  -5   3   0 440.920 37.2006
   5  -3   0 397.040 35.8742
  -5   3  -1 189.835 14.5825
   5  -3   1 160.377 14.4126
  -5   3  -1 157.831 13.5054
   5  -3   1 146.735 14.0833
  -5   3  -1 179.021 14.6112
  -5   3  -1 170.096 15.4922
   5  -3   1 144.717 13.6612
  -5   3  -2 307.486 22.0766
  -5   3  -2 252.259 22.9029
   5  -3   2 239.413 21.5587
  -5   3  -3 67.8747 9.90899
  -5   3  -3 60.3244 9.24809
   5  -3   3 82.7588 8.85670
   5  -3   3 63.3539 7.71991
  -5   3  -4 53.5904 9.11901
  -5   3  -4 50.3883 8.50092
   5  -3   4 42.3558 7.25629
   5  -3   4 44.5618 6.87658
  -5   3  -5 416.478 34.8534
  -5   3  -5 456.876 35.3142
   5  -3   5 407.707 34.1128
  -5   3  -6 163.159 16.6940
  -5   3  -6 162.112 17.2615
   5  -3   6 192.740 16.0655
  -5   3  -7 2.27704 8.18476
  -5   3  -7 12.2504 7.29483
  -5   3  -8 137.045 14.9463
  -5   3  -9-3.87769 9.10869
  -5   3 -10 21.0957 10.1291
  -5   3 -11 2.03571 9.38386
  -5   3 -12 9.68119 9.79974
   5  -2  -9 26.0540 8.30118
   5  -2  -9 21.4524 7.33590
   5  -2  -8 152.764 16.1515
   5  -2  -8 166.012 15.5901
  -5   2   8 170.526 13.9699
  -5   2   7 300.131 23.3209
   5  -2  -7 273.918 24.3943
  -5   2   6 99.6611 7.91831
   5  -2  -6 121.148 9.62049
   5  -2  -5 333.517 28.2924
   5  -2  -5 458.634 29.8213
   5  -2  -4 5.01164 3.27335
   5  -2  -4 6.45966 4.93243
  -5   2   3 234.390 20.9187
   5  -2  -3 242.925 20.0971
  -5   2   3 268.365 21.7502
   5  -2  -3 272.126 20.9790
   5  -2  -2 100.977 9.24828
  -5   2   2 85.3801 6.96109
  -5   2   2 95.2781 9.37428
  -5   2   2 100.064 9.41251
   5  -2  -2 97.3032 8.29429
  -5   2   2 76.2582 9.83606
  -5   2   1 305.135 24.0244
   5  -2  -1 296.037 24.0184
  -5   2   1 282.481 22.9386
  -5   2   1 296.318 24.0275
  -5   2   1 310.706 24.0681
   5  -2  -1 298.517 23.5679
  -5   2   1 285.017 24.5349
  -5   2   0 450.007 32.2772
  -5   2   0 384.917 31.5259
  -5   2   0 417.722 32.2942
  -5   2   0 373.371 32.6535
  -5   2  -1 374.517 28.5869
   5  -2   1 353.426 28.6564
  -5   2  -1 366.254 28.7020
  -5   2  -1 319.868 29.0414
  -5   2  -2 68.5699 9.12776
  -5   2  -2 89.9701 8.39883
  -5   2  -2 81.7212 8.69215
  -5   2  -2 70.9062 9.56879
  -5   2  -3 26.5362 7.08683
  -5   2  -3 33.4504 6.43703
  -5   2  -3 31.4956 6.99117
  -5   2  -4 215.315 20.2387
  -5   2  -4 277.711 20.2053
   5  -2   4 225.792 19.6935
  -5   2  -4 217.082 20.4987
  -5   2  -5 34.1880 8.18681
  -5   2  -5 36.1805 7.32370
  -5   2  -5 48.4095 6.48331
   5  -2   5 29.6849 6.06924
  -5   2  -6-1.12064 7.05325
  -5   2  -6 7.37390 6.24051
   5  -2   6 5.78594 5.09825
  -5   2  -7 19.5141 7.83633
  -5   2  -7 15.8472 6.73343
   5  -2   7 17.8064 5.67901
  -5   2  -8 10.7900 7.64705
  -5   2  -8 7.43896 7.01834
   5  -2   8 16.0640 5.49637
  -5   2  -9 41.8697 9.26598
  -5   2  -9 48.9167 8.95054
  -5   2 -10 34.5245 9.23622
  -5   2 -10 28.8949 8.42818
  -5   2 -11 64.0605 10.9332
  -5   2 -11 74.4827 10.7814
  -5   2 -12 28.9322 9.48618
  -5   2 -13 15.3750 9.34171
   5  -1 -10 2.30478 6.58984
   5  -1  -9 18.0180 6.73236
   5  -1  -9 15.4652 7.32456
  -5   1   9 9.65412 4.07789
  -5   1   8 10.3004 3.74149
   5  -1  -8 15.4158 6.26723
   5  -1  -7 100.703 10.8372
  -5   1   7 108.063 9.30070
  -5   1   6 82.1395 7.60040
   5  -1  -6 83.0804 9.06757
  -5   1   5 3.16530 3.43892
   5  -1  -5 1.85704 5.51971
   5  -1  -5 1.28295 4.81294
  -5   1   4 34.7146 5.58303
   5  -1  -4 39.7598 6.51936
   5  -1  -4 23.0251 5.39617
  -5   1   3 3.34514 4.37814
   5  -1  -3 2.44259 5.11034
  -5   1   3 2.16297 5.03337
   5  -1  -3 0.68077 4.43048
   5  -1  -2 29.4025 5.04014
  -5   1   2 21.0554 5.21041
  -5   1   2 18.8525 4.89512
  -5   1   2 19.7878 5.36951
   5  -1  -1 44.5947 5.79284
  -5   1   1 39.3454 5.99322
  -5   1   1 44.1922 5.96711
  -5   1   1 41.5844 6.13823
  -5   1   1 39.4212 6.76359
  -5   1   0 138.157 12.0972
   5  -1   0 142.267 12.2302
  -5   1   0 143.239 12.2363
  -5   1   0 121.614 12.6670
  -5   1  -1 293.571 22.1581
   5  -1   1 266.339 22.1713
  -5   1  -1 271.895 22.1627
  -5   1  -1 252.576 22.5940
  -5   1  -2 232.090 21.6042
  -5   1  -2 288.382 21.1825
  -5   1  -2 230.039 21.6435
  -5   1  -2 275.461 21.4287
  -5   1  -3 264.565 23.1020
  -5   1  -3 287.604 22.8303
  -5   1  -3 296.099 22.5273
  -5   1  -3 273.659 22.6482
  -5   1  -3 258.854 23.1413
  -5   1  -4 394.681 33.8640
  -5   1  -4 451.853 33.8360
  -5   1  -4 437.014 33.5831
  -5   1  -4 396.311 33.9455
  -5   1  -5 71.3878 8.76198
  -5   1  -5 80.1617 8.43235
  -5   1  -5 70.9033 8.62209
  -5   1  -5 71.3682 8.14346
   5  -1   5 54.8816 7.56986
  -5   1  -6 22.5642 6.68452
  -5   1  -6 22.4203 6.59488
  -5   1  -6 30.0216 6.38948
  -5   1  -6 36.2378 6.45433
   5  -1   6 27.2951 5.38240
  -5   1  -7 9.94330 6.40426
  -5   1  -7 7.70148 6.09100
   5  -1   7 0.20332 4.44798
  -5   1  -8 27.8342 7.41142
  -5   1  -8 34.4359 7.38764
   5  -1   8 35.9446 5.70231
  -5   1  -9 40.9973 8.56179
  -5   1  -9 52.6480 8.60342
   5  -1   9 45.9669 6.51949
  -5   1 -10 221.948 19.4940
   5  -1  10 205.149 17.8501
  -5   1 -11 14.0118 7.73109
  -5   1 -11 11.3396 7.70232
  -5   1 -12 10.1011 7.73077
  -5   1 -12 20.0606 8.14103
  -5   1 -13 14.8865 8.49884
   5   0 -10 11.1557 6.59108
   5   0  -9 15.0838 6.06993
   5   0  -9 19.2421 7.41373
  -5   0   8 10.6185 3.53558
   5   0  -8 13.9229 5.69643
   5   0  -8 6.69044 6.57159
   5   0  -7 71.5786 8.64677
   5   0  -7 60.4987 7.74356
  -5   0   7 56.6401 5.80581
  -5   0   6 20.1027 3.43323
   5   0  -6 24.1557 6.24265
   5   0  -6 28.1875 5.55628
   5   0  -5 70.8702 7.75158
  -5   0   5 50.2463 7.23597
  -5   0   5 76.2896 6.29176
   5   0  -5 69.2001 8.32228
  -5   0   4 21.9664 5.19412
   5   0  -4 40.4372 6.08873
   5   0  -4 39.5588 5.36334
  -5   0   3 36.4189 5.27887
  -5   0   3 38.5909 6.22675
   5   0  -3 36.5068 5.85300
   5   0  -3 36.5119 5.30620
   5   0  -2 8.47015 4.16510
  -5   0   2 18.0432 5.24145
  -5   0   2 8.36298 4.08090
   5   0  -2 15.6658 4.68753
  -5   0   2 18.0613 4.75930
   5   0  -1-1.84733 3.75114
  -5   0   1 3.88148 4.43679
   5   0  -1-3.02447 4.22359
  -5   0   1-0.16885 3.75255
  -5   0   1 2.39171 1.72125
  -5   0   1-0.87401 4.03666
   5   0   0 6.77943 3.63747
  -5   0   0-4.60423 3.94663
  -5   0   0 4.35064 3.81353
  -5   0   0 6.60167 4.28199
  -5   0   0 6.96026 4.74673
  -5   0   0 2.42183 2.84091
  -5   0  -1 37.8030 4.76628
  -5   0  -1 16.0534 3.67970
  -5   0  -1 25.9577 4.62253
  -5   0  -1 25.7925 5.24054
  -5   0  -1 27.7451 4.00688
  -5   0  -2 93.2205 8.91343
  -5   0  -2 96.0932 8.41404
  -5   0  -2 82.2798 8.33109
  -5   0  -2 92.1703 8.20029
  -5   0  -2 87.1003 9.09267
  -5   0  -2 84.3763 8.63763
  -5   0  -3 286.044 23.6618
  -5   0  -3 290.169 23.5022
  -5   0  -3 302.171 23.1897
  -5   0  -3 265.115 23.5153
  -5   0  -3 302.297 23.3700
  -5   0  -4 56.3492 7.06826
  -5   0  -4 55.4768 6.92857
  -5   0  -4 60.3422 7.23368
  -5   0  -4 53.7940 5.86085
  -5   0  -4 55.4298 7.01030
  -5   0  -4 57.4322 6.62444
  -5   0  -5 104.725 10.4392
  -5   0  -5 108.419 10.4651
  -5   0  -5 110.573 10.6676
  -5   0  -5 103.592 10.3375
  -5   0  -5 109.885 10.4062
  -5   0  -6 149.019 13.9137
  -5   0  -6 145.205 14.0189
   5   0   6 143.231 13.0380
  -5   0  -6 167.639 13.9069
  -5   0  -6 161.724 13.8414
   5   0   7 391.131 28.7583
  -5   0  -7 348.711 28.8399
   5   0   7 353.698 27.9579
  -5   0  -7 320.194 28.4174
  -5   0  -8 315.865 24.2915
   5   0   8 278.111 22.9912
  -5   0  -8 277.579 23.7751
  -5   0  -9 23.9875 6.61995
  -5   0  -9 28.0979 7.11051
   5   0   9 21.3389 4.73195
  -5   0 -10 580.732 44.7110
   5   0  10 568.860 43.3804
  -5   0 -10 512.811 43.9043
  -5   0 -11 246.950 20.5941
  -5   0 -11 211.916 19.7109
  -5   0 -12 96.2731 11.8717
  -5   0 -12 126.900 12.8536
   5   1 -11 104.512 11.3832
   5   1 -10 3.34840 5.86533
   5   1  -9 6.17737 5.60949
   5   1  -9-0.69186 6.69693
   5   1  -8 5.27629 6.30615
   5   1  -8 2.26610 5.12125
   5   1  -8 6.10070 6.21987
   5   1  -7 7.16103 5.72324
   5   1  -7-1.28126 4.72967
   5   1  -7-2.37293 5.83633
   5   1  -6 17.4232 5.83775
  -5  -1   6 19.7990 2.99054
   5   1  -6 15.7135 4.79732
   5   1  -6 19.3391 6.04453
  -5  -1   6 15.6367 4.71913
  -5  -1   5 1.74325 2.14228
   5   1  -5 6.36095 5.01464
   5   1  -5-2.75431 5.20358
   5   1  -5 7.17628 4.16562
  -5  -1   5-0.68139 3.74992
  -5  -1   4 18.4081 4.14392
   5   1  -4 20.3106 5.26437
   5   1  -4 28.3468 4.55971
  -5  -1   4 20.8052 2.70762
  -5  -1   3 35.1690 4.22967
  -5  -1   3 32.0103 5.92294
   5   1  -3 42.5762 5.40614
   5   1  -3 31.2307 4.29400
   5   1  -2 1250.69 87.8311
  -5  -1   2 1252.48 88.2255
   5   1  -2 1163.38 88.0788
  -5  -1   2 1243.47 87.7927
  -5  -1   2 1024.14 87.2651
  -5  -1   1 380.276 29.1306
   5   1  -1 400.372 28.8265
   5   1  -1 344.368 28.9360
  -5  -1   1 351.342 28.3297
  -5  -1   1 365.932 28.7161
  -5  -1   1 360.387 28.8512
  -5  -1   0 57.0649 6.26101
   5   1   0 44.9558 5.40779
   5   1   0 47.8439 5.92574
  -5  -1   0 54.2578 4.95034
  -5  -1   0 47.7624 5.49181
  -5  -1   0 58.4590 5.85342
  -5  -1   0 49.5451 5.24251
  -5  -1  -1 3.51511 3.69903
  -5  -1  -1-0.95092 3.60241
  -5  -1  -1-0.55666 3.53371
  -5  -1  -1 4.59267 3.26338
  -5  -1  -1-5.35382 2.94030
  -5  -1  -2-3.01903 3.30424
  -5  -1  -2 2.39417 3.33490
  -5  -1  -2-4.82084 3.37417
  -5  -1  -2 1.65290 3.24855
  -5  -1  -2 0.38766 3.61916
  -5  -1  -3 2.44679 3.33986
  -5  -1  -3-2.75301 2.89101
  -5  -1  -3 4.52299 3.79705
  -5  -1  -3 3.61221 3.76256
  -5  -1  -4 815.559 66.4776
  -5  -1  -4 852.034 66.0662
  -5  -1  -4 816.842 66.4046
  -5  -1  -4 890.551 66.4472
  -5  -1  -4 926.931 66.6960
  -5  -1  -5 1940.45 144.302
  -5  -1  -5 1711.48 143.665
  -5  -1  -5 1929.86 143.975
  -5  -1  -5 2093.19 144.459
   5   1   6 2452.57 180.685
  -5  -1  -6 2193.39 180.693
  -5  -1  -6 2585.65 180.966
  -5  -1  -6 2257.42 180.313
   5   1   7 196.336 15.9048
  -5  -1  -7 169.074 16.0376
   5   1   7 181.797 14.9084
  -5  -1  -7 180.479 15.2858
  -5  -1  -8 230.467 19.0883
  -5  -1  -8 223.836 18.5659
   5   1   8 217.394 17.5933
  -5  -1  -8 206.814 18.1025
  -5  -1  -9 203.074 16.0686
   5   1   9 157.518 14.0863
  -5  -1  -9 175.969 14.8845
  -5  -1 -10 0.65724 5.36936
   5   1  10 9.14651 3.84124
  -5  -1 -11 1.40637 5.67316
  -5  -1 -11 12.1895 7.06890
  -5  -1 -12 69.4333 8.77127
  -5  -1 -12 81.9350 10.6251
  -5  -1 -13 109.202 13.1697
   5   2 -10 10.2100 5.82203
   5   2  -9 8.32435 6.65183
   5   2  -9 8.50134 5.31257
   5   2  -9 3.78299 6.70687
   5   2  -8 21.8355 6.98419
   5   2  -8 26.8717 5.75508
   5   2  -8 36.8003 7.25853
   5   2  -7 29.2550 6.71806
   5   2  -7 29.1467 5.47502
   5   2  -7 38.3427 7.05054
  -5  -2   7 31.8218 5.44044
   5   2  -6 48.4367 6.66795
   5   2  -6 35.1735 5.27604
   5   2  -6 33.5870 6.49991
  -5  -2   6 43.2878 5.08142
  -5  -2   6 23.0280 3.62598
   5   2  -5 215.433 17.1855
  -5  -2   5 208.549 16.1912
   5   2  -5 259.584 17.2186
   5   2  -5 226.593 16.3909
   5   2  -4 312.924 28.6013
  -5  -2   4 338.896 28.0424
   5   2  -4 410.953 28.7905
   5   2  -4 375.701 28.1933
  -5  -2   3 182.051 15.0705
   5   2  -3 161.287 14.3210
  -5  -2   3 168.348 13.5936
  -5  -2   3 150.134 13.3805
   5   2  -3 183.513 13.7345
  -5  -2   2 163.445 13.9390
   5   2  -2 159.183 12.8101
   5   2  -2 156.621 13.4547
  -5  -2   2 149.894 12.6771
  -5  -2   2 154.544 12.6182
   5   2  -1 74.5818 7.15646
   5   2  -1 71.7494 6.42951
  -5  -2   1 76.6418 7.73620
  -5  -2   1 76.4761 6.27408
  -5  -2   1 69.0805 6.22518
  -5  -2   1 58.0422 6.01464
  -5  -2   0 190.335 14.7010
   5   2   0 148.407 14.2282
  -5  -2   0 190.913 14.0617
  -5  -2   0 163.784 13.8881
  -5  -2   0 176.687 14.1370
  -5  -2  -1 145.101 11.0128
  -5  -2  -1 128.400 11.1379
   5   2   1 110.076 10.9060
  -5  -2  -1 120.303 10.7334
  -5  -2  -1 132.138 10.6920
  -5  -2  -1 136.292 10.6978
  -5  -2  -2 13.5284 3.20810
  -5  -2  -2 10.6004 3.58028
  -5  -2  -2 17.1279 3.08211
  -5  -2  -2 13.2984 3.32890
  -5  -2  -3 821.606 60.8941
  -5  -2  -3 788.347 60.6309
  -5  -2  -3 754.885 60.7561
  -5  -2  -3 786.213 60.8437
  -5  -2  -4 5.13802 3.36712
  -5  -2  -4 0.18038 3.57212
  -5  -2  -4 3.12870 3.50838
  -5  -2  -5 3.24903 3.27031
  -5  -2  -5 1.90349 2.47014
  -5  -2  -5 2.11253 4.34923
  -5  -2  -5 3.94680 4.20350
  -5  -2  -6 13.2347 3.24399
   5   2   6 22.6208 5.00927
  -5  -2  -6 12.9242 2.91676
  -5  -2  -6 19.9650 4.95616
  -5  -2  -6 21.7987 5.02902
  -5  -2  -7-1.99418 3.35372
   5   2   7 5.07108 4.81634
  -5  -2  -7 4.41116 2.64569
  -5  -2  -7-4.03981 4.60326
  -5  -2  -7-2.88036 5.03697
   5   2   8 128.756 10.8574
  -5  -2  -8 114.966 11.1169
  -5  -2  -8 121.179 10.5751
  -5  -2  -8 90.8294 9.50730
  -5  -2  -9 54.7632 6.07228
  -5  -2  -9 54.4900 7.96184
   5   2   9 50.8584 5.28254
  -5  -2 -10 7.92397 4.15715
  -5  -2 -10 0.34677 6.30557
   5   2  10 2.73984 3.05255
  -5  -2 -11 0.29505 4.10667
  -5  -2 -11 16.9103 7.24056
  -5  -2 -12 9.33867 7.46265
  -5  -2 -13 49.8313 9.87953
   5   3  -9 16.7367 5.44965
   5   3  -9 26.8221 7.40490
   5   3  -8 0.36112 6.24535
   5   3  -8 4.60601 4.64699
   5   3  -8-7.58076 6.32854
   5   3  -7 4.99464 5.93404
  -5  -3   7 8.43124 4.59488
   5   3  -7-0.20272 4.01427
   5   3  -7 8.91881 5.89875
  -5  -3   7 5.71979 3.69595
   5   3  -6 53.2108 7.72764
  -5  -3   6 42.3587 6.18206
   5   3  -6 63.0095 6.22765
   5   3  -6 56.6748 7.50340
   5   3  -5 23.1199 4.23063
   5   3  -5 33.1677 6.09306
  -5  -3   5 22.1224 4.22993
   5   3  -5 30.4285 5.74880
   5   3  -4 2.21360 4.44707
  -5  -3   4 4.70719 3.07520
   5   3  -4 0.99462 3.04971
  -5  -3   3 23.6933 6.52071
   5   3  -3 17.0650 4.71710
   5   3  -3 25.4483 4.71321
  -5  -3   3 18.2978 3.90104
  -5  -3   3 18.1923 3.21445
   5   3  -3 17.9469 3.28542
   5   3  -2 82.7251 8.00933
   5   3  -2 79.6903 6.89676
  -5  -3   2 71.9545 6.76645
  -5  -3   2 76.9934 9.08245
  -5  -3   2 89.6468 7.51880
  -5  -3   1 218.980 18.1196
   5   3  -1 208.436 17.4640
  -5  -3   1 204.101 16.7327
  -5  -3   1 240.068 17.4205
  -5  -3   0 308.583 22.7687
  -5  -3   0 253.859 21.6986
   5   3   0 244.970 22.0673
  -5  -3   0 269.251 21.5528
  -5  -3   0 295.725 22.1820
  -5  -3   0 292.780 21.4050
  -5  -3  -1 378.371 28.0348
  -5  -3  -1 319.194 27.3284
   5   3   1 311.448 27.5353
  -5  -3  -1 350.273 27.8312
  -5  -3  -1 374.233 27.2147
  -5  -3  -1 365.114 27.1602
  -5  -3  -2 436.149 32.2607
  -5  -3  -2 469.878 32.0278
   5   3   2 345.577 31.8853
  -5  -3  -2 440.749 32.3777
  -5  -3  -2 401.189 31.7087
  -5  -3  -2 411.822 31.7550
  -5  -3  -2 404.626 31.7881
  -5  -3  -3 256.216 19.3373
  -5  -3  -3 239.091 19.1393
  -5  -3  -3 225.154 18.8470
  -5  -3  -3 238.593 19.0293
  -5  -3  -3 262.319 19.2311
  -5  -3  -4 205.456 16.0750
  -5  -3  -4 200.937 16.5200
  -5  -3  -4 188.033 16.3132
  -5  -3  -4 212.264 16.1843
  -5  -3  -5 14.6288 2.39982
   5   3   5 11.5255 4.36402
  -5  -3  -5 12.7386 2.47574
  -5  -3  -5 12.6206 4.08007
  -5  -3  -5 13.8567 4.06483
  -5  -3  -6 3.02258 4.32397
   5   3   6 1.96154 4.31717
  -5  -3  -6 1.44536 4.24206
  -5  -3  -7 51.5665 6.40827
   5   3   7 57.2781 6.61383
  -5  -3  -7 33.9773 6.66269
  -5  -3  -8 74.4558 8.19160
   5   3   8 73.1164 8.29048
  -5  -3  -8 70.8428 8.55123
  -5  -3  -9 87.0753 9.97393
  -5  -3 -10 45.0101 8.01800
  -5  -3 -11 3.02440 6.84030
  -5  -3 -12 42.9193 8.61430
  -5  -3 -13 33.4520 8.87356
   5   4  -9 90.0002 10.6900
   5   4  -7 24.5133 7.15721
   5   4  -7 13.9919 4.13785
   5   4  -7 12.0154 6.21059
   5   4  -6 18.2162 6.29369
  -5  -4   6 19.7919 4.58460
   5   4  -6 19.0445 3.95523
   5   4  -6 20.0383 5.89129
   5   4  -5 18.9741 6.03754
  -5  -4   5 7.61192 3.69190
   5   4  -5 7.97893 3.30502
   5   4  -5 5.79881 3.12820
   5   4  -5 9.29844 5.06405
   5   4  -4 0.27463 4.95148
  -5  -4   4 4.83997 3.09720
   5   4  -4 2.75858 4.61176
   5   4  -4 1.02326 2.66557
  -5  -4   4-2.50523 4.22265
   5   4  -3 2.92125 2.14339
  -5  -4   3 10.6892 6.29480
   5   4  -3 3.70301 4.85301
  -5  -4   3 5.22786 2.48523
   5   4  -3 5.15856 3.98227
  -5  -4   3 1.56542 1.28705
  -5  -4   3 2.79867 3.92446
  -5  -4   2 48.5160 6.95103
   5   4  -2 27.7676 5.03831
   5   4  -2 40.1822 4.42920
  -5  -4   2 34.7159 4.71217
   5   4  -1 210.412 18.5039
  -5  -4   1 247.685 18.6246
  -5  -4   1 221.362 19.3069
  -5  -4   0 1.99779 5.07446
   5   4   0 1.24323 3.48737
  -5  -4   0 7.43184 3.59169
   5   4   1 352.971 30.7198
  -5  -4  -1 444.019 31.2816
  -5  -4  -1 417.768 31.3769
  -5  -4  -2 176.808 13.7464
   5   4   2 163.319 13.9071
  -5  -4  -2 170.755 13.4943
  -5  -4  -2 214.307 14.8360
  -5  -4  -2 165.600 13.4996
  -5  -4  -2 204.702 14.7407
  -5  -4  -3 176.095 14.5082
  -5  -4  -3 166.271 14.3781
  -5  -4  -3 191.386 14.3919
  -5  -4  -3 192.287 15.3923
  -5  -4  -3 191.006 14.8072
  -5  -4  -4 131.011 10.6089
  -5  -4  -4 150.486 10.5273
  -5  -4  -4 134.546 11.3532
  -5  -4  -4 130.460 10.0504
  -5  -4  -4 103.417 9.99118
  -5  -4  -5 122.048 10.5483
   5   4   5 112.926 10.7966
  -5  -4  -5 130.183 10.6430
   5   4   6 3.23404 4.12341
  -5  -4  -6 0.15455 3.97062
  -5  -4  -6 2.94586 4.04646
   5   4   7 6.31576 4.42941
  -5  -4  -7 0.70347 4.37005
  -5  -4  -7 6.33826 4.69236
   5   4   8 14.3240 4.94278
  -5  -4  -8 7.29891 4.83218
  -5  -4  -8 5.59579 5.20204
  -5  -4  -9 59.0292 8.03637
  -5  -4 -10 70.3258 8.94247
  -5  -4 -11 113.130 12.2799
  -5  -4 -12 45.2406 8.82398
  -5  -4 -13 1.30604 8.07722
   5   5  -9 32.9029 7.60445
   5   5  -8 9.75104 6.59219
   5   5  -7 6.29541 7.04518
   5   5  -7 8.55740 5.88483
   5   5  -6 50.8956 8.22001
   5   5  -6 35.4454 6.60949
   5   5  -5 97.4391 10.7442
   5   5  -5 122.011 9.44359
   5   5  -5 113.823 9.97282
   5   5  -5 86.9640 8.31474
  -5  -5   4 42.1745 4.95589
   5   5  -4 64.3458 7.81242
   5   5  -4 70.9229 6.31892
  -5  -5   4 97.6009 7.94573
   5   5  -4 78.5174 6.77863
   5   5  -4 46.7135 4.69007
   5   5  -3 15.3553 5.58780
   5   5  -3 26.4072 4.38989
   5   5  -3 24.4008 4.59646
  -5  -5   3 23.4538 5.10923
  -5  -5   2 83.1544 9.59125
   5   5  -2 61.7678 7.92364
   5   5  -2 68.9704 6.88177
  -5  -5   2 73.9961 7.99352
   5   5  -1 210.090 19.7087
  -5  -5   1 273.472 20.0534
  -5  -5   1 246.203 20.5954
  -5  -5   0 12.3307 5.92024
   5   5   0 12.4322 3.99215
  -5  -5   0 11.4594 4.17016
   5   5   1 76.0822 7.42600
  -5  -5  -1 81.6651 8.69888
  -5  -5  -1 84.0060 8.22333
   5   5   2 109.338 10.1383
  -5  -5  -2 145.723 11.3830
  -5  -5  -2 135.439 11.1874
  -5  -5  -3 110.256 9.84140
   5   5   3 134.801 10.1736
  -5  -5  -3 118.041 9.79012
  -5  -5  -3 167.515 10.7357
  -5  -5  -4 196.324 14.5028
  -5  -5  -4 158.432 14.0383
  -5  -5  -4 210.592 15.5433
   5   5   5 126.256 12.2887
  -5  -5  -5 158.988 12.4145
  -5  -5  -5 140.529 12.0055
  -5  -5  -5 173.064 13.3737
   5   5   6 160.503 14.6037
  -5  -5  -6 198.189 14.8107
  -5  -5  -6 153.586 14.4413
  -5  -5  -6 207.148 15.6288
  -5  -5  -7 7.68171 4.23635
  -5  -5  -7 4.69320 4.60158
   5   5   7 0.92250 4.13555
  -5  -5  -7-0.32630 4.94044
  -5  -5  -7 1.34952 1.85689
  -5  -5  -8 80.2224 8.51414
  -5  -5  -8 95.8658 8.70777
   5   5   8 85.3203 8.29483
  -5  -5  -8 69.0495 6.84373
  -5  -5  -9 221.504 18.2887
  -5  -5  -9 207.003 17.0428
  -5  -5 -10 45.9166 7.66329
  -5  -5 -10 45.8434 5.99229
  -5  -5 -11 21.5100 7.27178
  -5  -5 -11 26.8578 5.62618
  -5  -5 -12 29.5679 7.91823
  -5  -5 -13 47.8474 9.56326
   5   6  -8 1.87627 6.24463
   5   6  -7 44.2961 8.99511
   5   6  -7 46.8314 7.44783
   5   6  -6 42.3125 8.41117
   5   6  -6 52.2604 7.20575
   5   6  -5 8.88731 4.91905
   5   6  -4 35.7046 6.98422
   5   6  -4 38.2665 5.43997
  -5  -6   4 25.6935 4.45606
  -5  -6   4 37.6013 7.02355
   5   6  -3 1.44210 5.55540
   5   6  -3 16.8348 4.21101
  -5  -6   3 7.93139 5.43184
  -5  -6   2 10.7948 7.11881
   5   6  -2 3.08990 5.18900
   5   6  -2 16.7213 3.59153
  -5  -6   2 11.0975 5.30085
  -5  -6   1 42.5670 7.35205
   5   6  -1 37.5714 5.72515
   5   6  -1 25.4098 3.77044
  -5  -6   1 28.9487 5.73830
  -5  -6   0 1.77006 5.82444
   5   6   0 3.49093 4.28582
  -5  -6   0 4.27394 4.59304
  -5  -6  -1-0.20995 4.94582
   5   6   1 3.70833 3.79282
  -5  -6  -1 7.11479 4.55114
   5   6   2 94.6715 8.07501
  -5  -6  -2 90.9945 9.23918
  -5  -6  -2 81.4205 8.75495
   5   6   3 154.062 13.7261
  -5  -6  -3 185.800 14.1482
  -5  -6  -4 174.303 12.5180
  -5  -6  -4 140.340 12.2755
   5   6   5 8.71459 3.47305
  -5  -6  -5 7.19523 2.87942
  -5  -6  -5 7.17402 4.84333
  -5  -6  -6 8.54959 3.62082
   5   6   6 15.6937 3.95566
  -5  -6  -6 12.8286 5.12190
  -5  -6  -7 1.78928 4.07388
   5   6   7 4.54946 4.23485
  -5  -6  -8 12.8297 4.85031
   5   6   8 12.3659 4.80269
  -5  -6  -9 18.7446 5.65844
  -5  -6  -9 22.1279 6.22989
  -5  -6 -10 12.2166 6.10451
  -5  -6 -10 18.9819 6.55778
  -5  -6 -11 40.3587 7.70448
  -5  -6 -11 32.3147 7.97996
  -5  -6 -12 11.7733 7.42257
  -5  -6 -13 3.37642 7.92318
   5   7  -7 6.72373 5.88983
   5   7  -6 9.74044 7.65118
   5   7  -5 12.0111 6.97754
   5   7  -5 7.89196 4.94297
   5   7  -4 10.0252 6.67936
   5   7  -4 21.4081 4.87041
  -5  -7   4 19.6847 4.56346
  -5  -7   4 30.2158 7.08617
   5   7  -3 33.3278 6.91825
   5   7  -3 25.5891 4.75464
  -5  -7   3 42.2106 7.05766
   5   7  -2 58.0180 7.60973
   5   7  -2 48.9065 5.46044
  -5  -7   2 56.4126 7.85786
  -5  -7   1 36.4215 7.40307
   5   7  -1 34.7440 6.08173
   5   7  -1 23.0969 3.48513
  -5  -7   1 35.4738 6.44276
  -5  -7   0 32.6447 6.99062
   5   7   0 35.5374 5.88052
  -5  -7   0 39.6010 6.50559
  -5  -7  -1 5.19397 5.28331
   5   7   1 5.94173 4.19896
  -5  -7  -1-0.97582 4.74929
  -5  -7  -2 42.9211 5.74548
   5   7   2 28.8195 4.65500
  -5  -7  -2 37.2002 6.12206
   5   7   3 114.248 10.5321
  -5  -7  -3 168.741 12.5408
  -5  -7  -3 131.810 10.9359
  -5  -7  -4 44.3497 3.64832
  -5  -7  -4 26.8135 2.73631
   5   7   5 27.1806 4.22269
  -5  -7  -5 43.5219 6.62533
  -5  -7  -5 38.3470 4.12570
   5   7   6 61.0845 6.55090
  -5  -7  -6 60.1090 6.36249
  -5  -7  -6 86.3141 8.56754
  -5  -7  -7 58.8542 6.64980
  -5  -7  -8 31.9764 5.59738
  -5  -7  -9-0.74386 5.17048
  -5  -7  -9-4.18095 6.16887
  -5  -7 -10-0.57673 5.73955
  -5  -7 -10 9.75306 6.30519
  -5  -7 -11 112.798 11.9430
  -5  -7 -12 9.66948 7.42134
   5   8  -5 2.01066 7.19351
   5   8  -4 3.73772 6.74196
  -5  -8   4 3.16192 6.77589
   5   8  -3 27.5737 7.03955
  -5  -8   3 29.7380 7.45633
   5   8  -2 45.0031 7.50837
  -5  -8   2 40.7127 7.76613
   5   8  -1 162.564 14.7940
  -5  -8   1 166.227 15.4555
  -5  -8   0 10.0925 6.56277
   5   8   0 20.9432 5.59637
  -5  -8   0 9.99568 5.87251
  -5  -8  -1 2.78520 5.57196
  -5  -8  -1 8.14669 5.67078
  -5  -8  -2 59.9673 7.46785
   5   8   2 68.0819 6.88204
   5   8   2 63.9254 6.41839
  -5  -8  -2 62.5496 8.28534
   5   8   3-0.36234 3.23298
   5   8   3 2.15795 3.81517
  -5  -8  -3 1.11412 5.43242
   5   8   4 7.29939 4.16989
  -5  -8  -4 4.09006 5.31145
   5   8   5 13.4712 4.72444
  -5  -8  -5 13.2495 5.60828
  -5  -8  -5 6.56572 2.86292
   5   8   6 38.3974 5.84426
  -5  -8  -6 22.3790 4.23305
  -5  -8  -7 58.7052 6.53274
  -5  -8  -8 27.2615 7.15509
  -5  -8  -9 50.2971 8.28229
  -5  -8 -11 30.9513 7.43391
   5   9  -4 8.70740 7.07006
   5   9  -3 8.54723 6.81722
  -5  -9   3 19.1598 7.65789
   5   9  -2 8.81304 6.50261
  -5  -9   2 20.8654 7.18851
   5   9  -1 419.561 37.0475
  -5  -9   1 533.843 38.2445
   5   9   0 61.6926 8.29618
  -5  -9   0 75.9827 9.64191
   5   9   1 21.7471 5.59975
  -5  -9  -1 33.7774 7.21514
  -5  -9  -2 23.9515 6.62207
   5   9   3 46.0523 5.71483
  -5  -9  -3 40.3696 7.74633
   5   9   4 8.63438 4.51887
  -5  -9  -4-4.18362 6.08496
   5   9   5 36.6337 5.96650
  -5  -9  -5 37.1662 7.48421
   5   9   6 90.7955 9.34714
   5   9   7 113.397 11.1475
   5  10  -3 58.6399 9.20687
   5  10  -2 1.07593 6.57757
   5  10   6 65.8921 8.10390
   6  -8   3 11.2085 6.56935
   6  -7  -3 38.5768 7.37864
   6  -7  -2 340.329 28.4496
   6  -7  -1 16.7332 6.83527
   6  -7   0 44.2445 8.17049
   6  -7   1-6.26331 6.51124
   6  -7   2 17.5885 7.26903
   6  -7   2 8.49762 5.64875
   6  -7   3 29.4631 6.88955
   6  -7   4-3.96100 6.20375
   6  -7   5 2.52886 6.54783
   6  -6  -4 19.6578 5.89813
   6  -6  -3 39.0416 6.89996
   6  -6  -2 118.101 11.3524
   6  -6  -2 75.0305 10.0755
   6  -6  -1 74.6919 9.53767
   6  -6  -1 57.8568 8.53973
  -6   6   0 22.5329 9.74371
   6  -6   0 21.2828 7.37047
   6  -6   0 24.6673 6.73585
  -6   6  -1 80.5306 11.7276
   6  -6   1 69.6316 8.86954
   6  -6   1 51.1298 7.51620
  -6   6  -2 159.120 17.3391
   6  -6   2 175.513 15.0175
   6  -6   2 136.155 13.8433
  -6   6  -3 161.371 17.1607
   6  -6   3 159.156 14.4496
   6  -6   3 124.572 13.3602
  -6   6  -4 20.6552 11.0901
   6  -6   4 20.4547 6.54443
  -6   6  -5 186.855 20.0605
   6  -6   5 170.539 16.2941
   6  -6   6 231.963 20.6691
   6  -5  -4 6.73357 6.84258
   6  -5  -4 10.4543 5.09087
  -6   5   4 13.0459 8.35044
   6  -5  -3 58.7465 8.32022
   6  -5  -3 30.0164 6.34631
   6  -5  -2 49.9537 7.92840
   6  -5  -2 28.3940 6.26448
   6  -5  -1 86.0695 9.55203
   6  -5  -1 76.0028 8.49338
   6  -5  -1 58.7057 6.93930
  -6   5   1 79.0447 11.3283
   6  -5   0 213.783 16.5887
   6  -5   0 176.203 15.9191
  -6   5   0 185.041 17.6967
   6  -5   0 155.728 14.7902
  -6   5  -1 48.8981 10.2648
  -6   5  -1 63.6329 6.44903
   6  -5   1 47.9367 7.61148
   6  -5   1 37.8806 6.36894
  -6   5  -2 30.8511 9.53170
  -6   5  -2 38.9132 9.43848
   6  -5   2 51.0355 7.54767
   6  -5   2 34.5000 6.30298
  -6   5  -3-0.54562 9.59439
  -6   5  -3 15.6119 8.70264
   6  -5   3 5.22884 5.15498
  -6   5  -4 15.6859 10.1842
  -6   5  -4 19.9739 9.13018
   6  -5   4 12.8389 5.85794
  -6   5  -5 19.4950 10.7796
   6  -5   5 7.01312 6.02961
  -6   5  -6 19.7488 11.0371
   6  -5   6 13.6400 6.70844
   6  -5   7 63.6378 9.42085
  -6   5  -7 48.6867 12.3918
  -6   5  -8 108.858 15.7061
  -6   4   7 45.1090 7.09721
   6  -4  -6 22.0787 7.45981
   6  -4  -5 25.1386 7.32903
   6  -4  -4 5.81084 6.32849
   6  -4  -4 6.34657 4.44324
   6  -4  -3 32.6672 7.05266
   6  -4  -3 22.7168 5.36704
   6  -4  -2 35.3744 7.08499
   6  -4  -2 31.1038 5.75234
  -6   4   2 38.4712 8.81632
   6  -4  -1 2.71653 5.97336
  -6   4   1 0.81103 2.96608
   6  -4  -1 9.92642 4.90756
  -6   4   1-3.53376 7.60520
   6  -4   0 379.695 29.9760
  -6   4   0 350.170 28.7558
   6  -4   0 372.785 29.6387
  -6   4   0 370.828 30.8292
  -6   4  -1 62.2278 10.5810
  -6   4  -1 66.8762 7.17297
   6  -4   1 70.3202 8.44787
  -6   4  -2 165.809 17.3491
  -6   4  -2 189.164 15.4813
  -6   4  -2 170.381 17.5937
   6  -4   3 56.5524 7.49062
  -6   4  -3 70.2737 10.6745
  -6   4  -3 52.7254 9.85843
  -6   4  -4 18.5764 9.16640
  -6   4  -4 26.7464 8.78311
  -6   4  -5 18.7901 9.73332
  -6   4  -5 30.7207 9.03486
  -6   4  -6 16.8720 9.58182
  -6   4  -6-7.84980 8.41555
  -6   4  -7 85.9628 13.4939
  -6   4  -7 80.6774 11.9779
  -6   4  -8 192.411 18.6936
  -6   4  -8 173.872 19.2424
  -6   4  -9 9.13965 10.5321
  -6   4 -10 183.258 19.8700
   6  -3  -7 45.6355 8.39133
  -6   3   7 38.8769 6.11067
   6  -3  -6 37.7662 7.74585
   6  -3  -5 17.2928 6.62531
   6  -3  -4 120.294 11.9047
   6  -3  -4 114.528 10.3829
   6  -3  -3-6.11115 5.56363
   6  -3  -3 5.54741 4.15753
  -6   3   3 1.68829 7.17707
   6  -3  -2 383.700 26.4300
  -6   3   2 303.208 24.2362
   6  -3  -2 337.479 25.4662
  -6   3   2 338.180 27.3459
   6  -3  -1 25.6763 6.16064
  -6   3   1 23.0811 3.41601
   6  -3  -1 23.0992 5.35254
  -6   3   1 21.6449 7.69121
   6  -3   0 8.57692 5.63092
  -6   3   0 13.8781 3.48439
  -6   3   0 18.0763 7.11032
  -6   3  -1 2.23330 3.55111
  -6   3  -1 0.40957 7.05922
  -6   3  -2 14.2394 7.71301
  -6   3  -2 7.24346 7.11057
  -6   3  -2 8.49150 4.37269
  -6   3  -3 68.0938 10.3513
  -6   3  -3 67.0976 9.83114
  -6   3  -4 258.448 23.0488
  -6   3  -4 262.084 23.4220
  -6   3  -5 183.948 17.2051
  -6   3  -5 163.159 17.1105
  -6   3  -6 378.967 31.5647
  -6   3  -6 367.435 31.9702
  -6   3  -7 90.4742 12.2407
  -6   3  -7 73.9418 11.0792
  -6   3  -8 92.5853 12.6376
  -6   3  -8 86.4134 11.9802
  -6   3  -9 22.2210 9.90722
  -6   3  -9 40.0908 9.34464
  -6   3 -10 60.9854 11.4479
  -6   3 -10 57.6117 10.6137
  -6   3 -11 41.7408 11.3392
  -6   3 -12 36.5123 11.0822
   6  -2  -8 62.6179 9.20450
  -6   2   7 61.5763 7.07723
   6  -2  -7 77.1785 9.20109
  -6   2   6 18.7327 4.73892
   6  -2  -6 3.39406 6.07640
   6  -2  -5 514.454 41.1583
   6  -2  -4 1232.41 98.6598
  -6   2   4 1334.08 99.4450
   6  -2  -3 139.550 12.6861
  -6   2   3 124.419 13.7238
   6  -2  -2 229.235 17.7154
  -6   2   2 168.313 18.2673
  -6   2   1 128.230 13.2247
   6  -2   0 152.551 13.2475
  -6   2   0 140.388 11.9253
  -6   2   0 136.492 14.1034
  -6   2  -1 0.36188 6.36982
  -6   2  -2 214.513 19.1905
  -6   2  -2 217.322 19.4011
  -6   2  -3 722.798 57.1744
  -6   2  -3 719.292 57.2236
  -6   2  -4 143.409 14.0877
  -6   2  -4 133.001 14.1362
  -6   2  -5 18.7960 7.51628
  -6   2  -5 0.77546 6.77719
  -6   2  -6 118.403 13.4344
  -6   2  -6 120.599 12.8150
  -6   2  -7-1.24840 8.03542
  -6   2  -7 3.22498 6.93912
  -6   2  -8 24.3611 8.59393
  -6   2  -8 22.8418 7.84070
  -6   2  -9-7.58588 7.94526
  -6   2  -9-4.86352 7.62421
  -6   2 -10-2.61993 8.52570
  -6   2 -10 14.8829 8.22019
  -6   2 -11 62.7253 10.9952
  -6   2 -12 108.550 13.5349
   6  -1  -9 141.391 14.0202
   6  -1  -8 9.97535 6.28816
   6  -1  -7 357.609 30.0750
   6  -1  -7 369.308 29.5873
  -6   1   7 356.179 28.2431
  -6   1   6 21.6814 4.13145
   6  -1  -6 23.8896 7.05850
   6  -1  -6 16.1049 6.03314
   6  -1  -5 145.671 15.0844
  -6   1   5 162.745 13.4580
   6  -1  -5 169.510 14.5482
   6  -1  -4 70.2096 8.15129
   6  -1  -4 61.2451 8.86565
   6  -1  -3 212.811 18.0782
   6  -1  -2 226.045 18.1062
  -6   1   2 205.760 18.0501
  -6   1   2 204.019 18.9764
   6  -1  -1 142.499 10.5222
  -6   1   1 87.7045 8.53321
  -6   1   1 123.441 10.3618
  -6   1   1 132.333 11.5298
   6  -1   0 6.07456 4.60312
  -6   1   0 2.84240 4.84097
  -6   1   0 5.67239 4.90845
  -6   1   0 4.33141 5.15295
  -6   1   0 6.90534 5.94586
  -6   1  -1 3.85541 4.88706
  -6   1  -1 4.38227 5.06898
  -6   1  -1-2.24101 5.91135
  -6   1  -2 130.774 13.7374
  -6   1  -2 149.307 12.9203
  -6   1  -2 136.663 13.7233
  -6   1  -2 157.404 13.3393
  -6   1  -3 137.471 11.6158
  -6   1  -3 103.762 12.4877
  -6   1  -3 137.155 12.1628
  -6   1  -3 119.293 12.6457
  -6   1  -4 9.20154 6.37976
  -6   1  -4 9.24241 5.76363
  -6   1  -4 12.3897 6.26688
  -6   1  -4 10.9685 4.72023
  -6   1  -4 2.79175 5.21094
  -6   1  -5 80.3361 10.1594
  -6   1  -5 94.0625 8.69428
  -6   1  -5 72.1333 9.86089
  -6   1  -6 19.1999 7.11044
  -6   1  -6 19.4044 6.50327
  -6   1  -7 74.4570 10.0449
  -6   1  -7 98.8913 10.1192
   6  -1   7 66.3882 8.21974
  -6   1  -8 51.5194 8.47269
  -6   1  -8 51.4308 8.57952
   6  -1   8 41.9353 6.51253
  -6   1  -9 50.5200 8.92228
  -6   1  -9 62.8288 9.17249
   6  -1   9 44.8911 6.85538
  -6   1 -10 14.1561 7.81110
  -6   1 -10 20.1308 7.76278
  -6   1 -11 4.01283 7.93861
  -6   1 -11 6.83940 7.87765
  -6   1 -12 31.1680 8.73342
   6   0  -9 27.6385 7.15293
   6   0  -8 4.23617 5.59753
   6   0  -7 3.01753 6.69383
   6   0  -7 0.60382 5.30324
  -6   0   6 1.86450 2.87742
   6   0  -6 1.41517 6.06846
   6   0  -6 0.83888 5.16744
  -6   0   5 8.24294 3.04274
   6   0  -5 8.24801 4.94840
   6   0  -4 38.8359 5.78128
  -6   0   4 27.4997 5.55595
   6   0  -4 31.3255 6.77422
   6   0  -3 42.1289 6.03149
  -6   0   3 41.5389 5.97165
   6   0  -3 31.5857 6.63887
   6   0  -2 96.9999 9.24086
   6   0  -2 87.4807 9.68439
  -6   0   2 95.0896 9.25344
  -6   0   2 90.9060 9.57572
  -6   0   1 158.179 13.5334
   6   0  -1 168.938 13.0429
  -6   0   1 137.312 11.7462
  -6   0   1 142.338 12.9933
  -6   0   1 157.954 13.2690
  -6   0   0 151.140 13.0659
   6   0   0 148.189 12.8614
  -6   0   0 143.534 12.8880
  -6   0   0 129.885 12.8367
  -6   0   0 160.256 13.7058
  -6   0  -1 162.660 14.5666
  -6   0  -1 160.622 14.5457
  -6   0  -1 179.156 14.6330
  -6   0  -1 178.141 15.3227
  -6   0  -1 166.777 14.2155
  -6   0  -2 178.532 15.6681
  -6   0  -2 177.758 15.2168
  -6   0  -2 179.742 15.0837
  -6   0  -2 176.229 15.7880
  -6   0  -2 170.876 15.0885
  -6   0  -2 189.772 15.3738
  -6   0  -3 38.8080 6.08086
  -6   0  -3 36.1466 6.58033
  -6   0  -3 34.1183 5.53376
  -6   0  -3 37.8382 5.81407
  -6   0  -3 32.5124 5.31929
  -6   0  -3 36.2938 6.56523
  -6   0  -4 9.13863 5.45656
  -6   0  -4 10.4692 5.18484
  -6   0  -4 5.98730 5.39456
  -6   0  -4 2.41494 3.68246
  -6   0  -4 10.0780 5.52566
  -6   0  -4 6.15773 4.96025
  -6   0  -5 11.0728 5.62496
  -6   0  -5 12.0462 5.76123
  -6   0  -5-1.17470 5.34873
  -6   0  -5 2.92669 3.63945
  -6   0  -5 12.8817 5.81460
  -6   0  -5 5.37713 5.36302
  -6   0  -6 108.513 9.91033
  -6   0  -6 107.830 11.2137
  -6   0  -7 157.176 14.7528
  -6   0  -7 158.950 14.5473
  -6   0  -8 471.419 34.6570
   6   0   8 397.392 33.2849
  -6   0  -8 425.461 33.8957
  -6   0  -9 18.9428 6.59124
  -6   0  -9 22.1920 7.01269
   6   0   9 18.4828 4.88050
  -6   0 -10 12.1871 6.65107
  -6   0 -10 19.8226 7.54371
  -6   0 -11 10.7990 6.60645
  -6   0 -11 5.54469 7.71528
  -6   0 -12-0.89387 7.61805
   6   1  -9 17.9127 6.18250
   6   1  -8 15.8160 5.80508
   6   1  -7 17.4818 7.05829
   6   1  -7 24.8421 5.57805
   6   1  -6 12.9665 6.38876
   6   1  -6 15.5976 5.01459
  -6  -1   5 0.56969 4.17457
  -6  -1   5 5.53247 2.26115
   6   1  -5 16.8888 5.92607
   6   1  -5 11.3331 4.60396
  -6  -1   4 5.63319 3.95690
  -6  -1   4 1.32980 2.13485
   6   1  -4-1.47707 5.33264
   6   1  -4 2.95895 4.28620
   6   1  -3 9.22413 4.08559
  -6  -1   3 5.92421 3.97048
   6   1  -3 8.48365 5.32187
   6   1  -2 15.5317 4.21419
  -6  -1   2 17.1364 4.06463
   6   1  -2 19.1815 5.18589
  -6  -1   2 5.98118 2.06936
  -6  -1   2 11.6371 2.69640
   6   1  -1 73.6899 6.93823
  -6  -1   1 77.2345 7.80830
   6   1  -1 69.5320 7.50508
  -6  -1   1 69.9170 5.75593
  -6  -1   1 58.7059 6.75469
  -6  -1   1 58.7402 7.27160
  -6  -1   1 45.8959 6.13457
  -6  -1   0 121.233 11.2334
  -6  -1   0 126.250 10.1246
  -6  -1   0 124.422 10.7633
  -6  -1   0 117.647 10.8473
  -6  -1   0 111.056 10.4604
  -6  -1  -1 196.014 15.0618
  -6  -1  -1 176.048 14.8234
  -6  -1  -1 159.169 14.5502
  -6  -1  -1 172.705 14.4490
  -6  -1  -1 160.446 14.4005
  -6  -1  -1 188.591 15.1948
  -6  -1  -1 170.164 14.5842
  -6  -1  -2 52.5628 5.92061
  -6  -1  -2 38.1479 5.66962
  -6  -1  -2 42.8800 5.69371
  -6  -1  -2 29.5649 5.25464
  -6  -1  -2 42.5879 5.99116
  -6  -1  -2 48.4819 5.78905
  -6  -1  -3 78.5356 8.45481
  -6  -1  -3 109.557 8.81636
  -6  -1  -3 73.5266 8.13727
  -6  -1  -3 89.9903 8.79888
  -6  -1  -3 95.9594 8.71928
  -6  -1  -3 84.5052 8.78189
  -6  -1  -4 157.249 13.0196
  -6  -1  -4 141.295 12.7322
  -6  -1  -4 146.962 12.3496
  -6  -1  -4 129.430 13.1906
  -6  -1  -4 130.685 12.8400
  -6  -1  -4 169.255 13.2634
  -6  -1  -5 109.969 11.0625
  -6  -1  -5 114.415 10.2058
  -6  -1  -5 115.947 10.9471
  -6  -1  -5 121.548 11.5659
  -6  -1  -5 111.570 10.7161
  -6  -1  -5 127.377 11.5023
  -6  -1  -6 82.5238 9.38302
  -6  -1  -6 97.4329 8.86744
  -6  -1  -6 110.858 10.1192
  -6  -1  -6 97.3622 9.99150
  -6  -1  -7 36.5855 5.62540
  -6  -1  -7 21.5335 4.67227
  -6  -1  -7 29.3340 6.52060
  -6  -1  -8 697.604 52.9258
  -6  -1  -8 649.674 52.1531
  -6  -1  -9 197.161 16.3934
  -6  -1  -9 159.123 15.0144
  -6  -1 -10 125.764 12.8624
  -6  -1 -10 116.115 11.4294
  -6  -1 -11 85.9102 9.69501
  -6  -1 -11 95.0092 11.2194
  -6  -1 -12 97.0796 11.9336
   6   2  -8 14.2232 7.25900
   6   2  -8 10.9776 5.31454
   6   2  -7 3.20444 6.25637
   6   2  -7 5.75362 4.67442
   6   2  -6 16.9259 6.19278
  -6  -2   6 11.1504 4.54507
   6   2  -6 19.1658 4.66843
   6   2  -5 31.1157 6.68012
  -6  -2   5 37.5625 5.36260
   6   2  -5 46.5998 5.57662
   6   2  -4 293.093 22.8630
  -6  -2   4 251.332 21.8471
   6   2  -4 287.788 22.0702
  -6  -2   3 39.6421 5.13992
   6   2  -3 50.2359 5.44748
   6   2  -3 46.0885 6.46302
  -6  -2   3 37.5972 4.37025
  -6  -2   2 1.54806 3.21327
   6   2  -2 1.22015 3.50901
   6   2  -2 1.44606 4.50503
  -6  -2   2 1.54040 2.60844
  -6  -2   1 1.23468 5.31217
   6   2  -1 0.27707 3.25889
   6   2  -1 2.63802 4.27278
  -6  -2   1-3.18451 2.49615
  -6  -2   0-0.52020 4.02291
  -6  -2   0 2.61672 4.84543
   6   2   0-3.66819 4.15991
  -6  -2   0 3.61218 2.93592
  -6  -2   0 2.53364 2.63653
  -6  -2   0 11.8419 3.91052
  -6  -2   0 6.69995 3.56177
  -6  -2  -1 51.8184 5.89418
  -6  -2  -1 47.4312 6.12982
  -6  -2  -1 38.7557 4.81150
  -6  -2  -1 34.9819 4.90786
  -6  -2  -1 49.6257 5.30379
  -6  -2  -1 45.5008 5.62454
  -6  -2  -2 1071.07 74.4832
  -6  -2  -2 949.237 74.3253
  -6  -2  -2 901.390 74.1078
  -6  -2  -2 977.782 74.5619
  -6  -2  -2 953.453 74.2018
  -6  -2  -3 1571.14 128.151
  -6  -2  -3 1704.49 128.366
  -6  -2  -3 1649.68 128.142
  -6  -2  -3 1794.50 128.464
  -6  -2  -4 1323.62 108.615
  -6  -2  -4 1429.36 108.282
  -6  -2  -4 1353.75 108.488
  -6  -2  -4 1533.11 108.634
  -6  -2  -5 640.819 51.7858
  -6  -2  -5 677.760 51.2092
  -6  -2  -5 624.166 51.5767
  -6  -2  -5 671.663 51.5715
  -6  -2  -5 682.406 51.5028
  -6  -2  -6 334.828 26.4302
  -6  -2  -6 343.357 27.3915
  -6  -2  -6 329.288 27.0851
  -6  -2  -6 344.711 27.0602
  -6  -2  -6 335.387 26.6622
  -6  -2  -7 228.823 19.1731
  -6  -2  -7 205.418 17.8529
  -6  -2  -7 227.306 18.7844
  -6  -2  -7 244.364 18.1026
  -6  -2  -8 22.2635 4.40001
  -6  -2  -8 12.9179 3.57779
  -6  -2  -8 28.3895 6.59740
  -6  -2  -9 54.3008 6.19067
  -6  -2  -9 54.3695 5.77496
  -6  -2  -9 61.0186 8.33562
  -6  -2 -10 166.566 14.7347
  -6  -2 -10 208.597 16.8494
  -6  -2 -11 121.110 13.0505
  -6  -2 -12 24.3851 8.28251
   6   3  -8 8.59899 6.93480
   6   3  -7 158.315 16.3621
   6   3  -7 198.080 16.4218
   6   3  -6 162.722 15.6622
   6   3  -6 184.840 15.5413
   6   3  -6 166.067 14.3562
   6   3  -5 81.9963 8.52294
  -6  -3   5 57.9061 6.66153
   6   3  -5 63.2660 6.66025
   6   3  -4 41.2763 4.86852
   6   3  -4 32.4558 6.22348
  -6  -3   4 32.6764 4.54094
   6   3  -3 37.7043 4.61239
   6   3  -3 45.7187 6.19755
  -6  -3   3 32.7805 4.64268
  -6  -3   3 30.7746 4.41084
  -6  -3   2 69.3396 6.52048
  -6  -3   2 72.9296 9.22956
   6   3  -2 72.3298 6.67269
   6   3  -2 77.3266 7.91303
  -6  -3   2 73.3758 7.08449
  -6  -3   1 5.29137 2.47634
  -6  -3   1 5.56238 5.72907
   6   3  -1 1.68992 4.19594
  -6  -3   1 7.42152 3.25018
  -6  -3   1 3.83245 2.81258
  -6  -3   0 139.080 12.4553
  -6  -3   0 135.705 11.1919
   6   3   0 106.272 11.5027
  -6  -3   0 117.787 10.7803
  -6  -3   0 134.042 11.3917
  -6  -3   0 144.731 10.4751
  -6  -3  -1 827.155 64.2986
  -6  -3  -1 870.814 63.7865
   6   3   1 701.947 63.9044
  -6  -3  -1 841.880 64.1149
  -6  -3  -1 851.639 63.6090
  -6  -3  -1 838.078 63.4856
  -6  -3  -2 24.7516 5.07074
  -6  -3  -2 23.2526 4.20902
  -6  -3  -2 21.6670 4.34809
  -6  -3  -2 19.9861 3.67148
  -6  -3  -2 32.6130 3.63090
  -6  -3  -2 28.2825 3.84060
  -6  -3  -3 3.99002 3.77967
  -6  -3  -3 10.3957 3.77998
  -6  -3  -3 9.75077 3.85905
  -6  -3  -3 15.1508 3.07881
  -6  -3  -3 8.25433 3.08511
  -6  -3  -3 12.6443 4.08028
  -6  -3  -3 12.7900 3.62878
  -6  -3  -4 2.95493 3.81238
  -6  -3  -4 3.11435 3.30424
  -6  -3  -4-4.96061 3.74438
  -6  -3  -4 4.14198 3.51655
  -6  -3  -4 3.24811 3.70894
  -6  -3  -5 2.48507 3.31209
  -6  -3  -5 11.1954 3.10251
  -6  -3  -5 8.57061 4.22605
  -6  -3  -5 6.92678 4.12049
  -6  -3  -5 6.40741 4.25308
  -6  -3  -6 131.802 9.65902
  -6  -3  -6 94.8125 10.9766
  -6  -3  -6 112.834 10.7122
  -6  -3  -6 112.782 9.60037
   6   3   7 28.3424 5.95566
  -6  -3  -7 25.4851 6.25067
  -6  -3  -7 31.9136 5.56177
  -6  -3  -8 5.02255 5.64822
  -6  -3  -9 23.2802 6.36807
  -6  -3 -10 1.72552 6.41704
  -6  -3 -11 105.007 12.0925
  -6  -3 -12 54.8969 9.61344
  -6  -3 -13 44.4957 9.27911
   6   4  -8-0.33561 6.48010
   6   4  -7 22.5438 7.13562
   6   4  -7 27.0346 6.75929
   6   4  -6 18.5006 6.66607
   6   4  -6 8.06062 5.91000
   6   4  -5 18.9740 6.33945
   6   4  -5 24.6373 5.81481
   6   4  -4 47.0549 5.06867
   6   4  -4 58.6727 7.39657
  -6  -4   3 58.0123 6.32249
   6   4  -3 74.2173 6.19837
   6   4  -3 73.9433 8.33931
  -6  -4   3 103.982 7.87977
  -6  -4   2 32.4085 3.49206
   6   4  -2 51.5343 6.03305
  -6  -4   2 28.4002 3.26183
  -6  -4   2 57.9155 5.45183
  -6  -4   2 25.3799 3.12165
   6   4  -1 116.068 11.5695
  -6  -4   1 139.259 11.5730
  -6  -4   1 139.589 12.7628
  -6  -4   0 110.038 10.6382
   6   4   0 87.4449 9.30384
  -6  -4   0 112.595 9.54373
  -6  -4  -1 80.7898 6.01019
   6   4   1 73.7770 7.35987
  -6  -4  -1 65.7117 6.21073
  -6  -4  -1 86.6192 8.72155
  -6  -4  -1 72.0510 5.90062
  -6  -4  -1 88.8781 7.75013
  -6  -4  -2 73.8846 7.35323
  -6  -4  -2 88.7433 7.42822
   6   4   2 75.4712 7.98123
  -6  -4  -2 104.887 8.71570
  -6  -4  -2 100.035 7.27703
  -6  -4  -2 92.7675 8.94237
  -6  -4  -3 31.3001 5.39423
  -6  -4  -3 35.9956 5.32503
  -6  -4  -3 27.6687 3.94740
  -6  -4  -3 33.0630 3.94471
  -6  -4  -3 35.9899 3.91212
  -6  -4  -4 19.0324 3.82059
  -6  -4  -4 17.6542 3.92227
  -6  -4  -4 20.5532 3.80024
  -6  -4  -4 24.3105 4.92027
  -6  -4  -4 21.2348 3.62388
  -6  -4  -4 29.2863 3.91269
  -6  -4  -5 77.6627 6.18966
  -6  -4  -5 63.9830 6.08833
  -6  -4  -5 53.3772 4.92805
  -6  -4  -5 46.1337 4.46372
  -6  -4  -5 51.3171 4.50942
  -6  -4  -5 77.1966 6.16846
  -6  -4  -6 66.0989 7.09184
  -6  -4  -6 62.5663 7.18019
   6   4   7 82.0502 8.11604
  -6  -4  -7 70.9834 7.78228
  -6  -4  -7 62.9512 7.95645
   6   4   8 21.1746 5.69406
  -6  -4  -8 19.4977 5.73673
  -6  -4  -9 8.63373 6.02225
  -6  -4 -10 7.94281 6.44914
  -6  -4 -11 88.3747 10.8150
  -6  -4 -12 18.2197 7.59017
  -6  -4 -13 86.7321 11.7295
   6   5  -8 5.59713 6.52773
   6   5  -7-7.51070 6.23058
   6   5  -6 9.72401 6.68578
   6   5  -6-1.07391 5.46523
   6   5  -5 11.9753 6.31416
   6   5  -5 18.7467 5.45831
   6   5  -4 48.4261 8.05511
   6   5  -4 68.9085 7.30144
  -6  -5   4 61.7810 7.75034
   6   5  -3 137.113 13.9323
  -6  -5   3 174.278 14.0269
   6   5  -2 11.5167 5.12341
   6   5  -1 160.149 14.9002
  -6  -5   1 185.643 15.1813
  -6  -5   1 186.300 16.2079
  -6  -5   0 59.0632 8.20792
   6   5   0 47.8033 6.26099
  -6  -5   0 64.1446 6.89406
   6   5   1 74.4517 7.60077
  -6  -5  -1 78.1055 9.25801
  -6  -5  -1 89.7751 8.38294
  -6  -5  -2 32.2532 5.99651
   6   5   2 24.9031 4.14965
  -6  -5  -2 42.9751 5.60222
  -6  -5  -3 22.7159 4.94821
   6   5   3 21.4912 3.71581
  -6  -5  -3 39.1562 5.47991
  -6  -5  -4 9.14801 2.50456
  -6  -5  -4 8.35137 2.99652
  -6  -5  -4 12.8251 4.80479
  -6  -5  -4 9.07353 2.85696
  -6  -5  -4 14.9146 3.62282
  -6  -5  -5 15.8768 4.10065
  -6  -5  -5 10.1334 3.41257
  -6  -5  -5 14.4242 3.55024
  -6  -5  -5 22.6355 5.36537
  -6  -5  -6 26.2262 4.52585
   6   5   6 19.0376 4.80756
  -6  -5  -6 25.4334 5.69354
  -6  -5  -6 26.9470 4.93154
  -6  -5  -7 73.3080 9.04379
  -6  -5  -7 103.071 9.35318
  -6  -5  -7 120.434 10.4516
  -6  -5  -8 51.5753 6.27182
   6   5   8 50.7926 6.34405
  -6  -5  -8 25.4604 3.66656
  -6  -5  -9 66.6882 8.45125
  -6  -5 -10 15.7193 6.55018
  -6  -5 -11 8.94064 6.71236
  -6  -5 -12 6.46868 7.27858
  -6  -5 -13 8.29851 7.70777
   6   6  -6 4.26194 7.17213
   6   6  -6 3.89575 5.36774
   6   6  -5 3.25775 6.48013
   6   6  -5 15.2643 5.24395
   6   6  -4 54.1473 8.59210
   6   6  -4 63.1504 7.15342
  -6  -6   4 72.1619 8.60249
   6   6  -3 76.9162 9.35148
  -6  -6   3 105.522 9.58153
   6   6  -3 75.8451 8.09139
   6   6  -2 13.9003 5.47432
  -6  -6   2 16.9466 5.45122
   6   6  -1 56.9351 7.11535
  -6  -6   1 66.0897 7.79121
   6   6   0 94.1937 9.77136
  -6  -6   0 119.573 11.5619
  -6  -6   0 117.124 10.6505
   6   6   1 74.8246 8.02199
  -6  -6  -1 93.0023 9.64907
  -6  -6  -1 102.876 9.41073
   6   6   2 72.5666 7.60908
  -6  -6  -2 106.444 9.19334
  -6  -6  -2 91.4150 8.82813
  -6  -6  -3 43.9745 5.51933
   6   6   3 38.6367 4.60054
  -6  -6  -3 60.7806 6.83470
  -6  -6  -4 61.8680 5.08578
  -6  -6  -4 46.0534 5.05756
  -6  -6  -5 20.3434 3.22466
  -6  -6  -5 16.1630 3.03944
  -6  -6  -5 33.5275 5.86127
  -6  -6  -6 114.862 10.8933
  -6  -6  -6 175.857 13.0115
  -6  -6  -7 146.128 14.0548
  -6  -6  -7 224.452 15.9694
  -6  -6  -8 46.0372 6.58661
  -6  -6  -8 60.5481 8.04392
  -6  -6  -9 34.8658 6.48990
  -6  -6  -9 40.6446 7.26372
  -6  -6 -10 73.9575 9.00283
  -6  -6 -11 16.6528 6.80594
  -6  -6 -12 15.3615 7.41471
   6   7  -5 3.14863 6.97977
   6   7  -4 17.7502 6.70330
  -6  -7   4 0.78147 6.26174
   6   7  -3 2.96971 6.02427
  -6  -7   3 9.51955 6.19661
   6   7  -2 7.34111 5.72542
  -6  -7   2 7.65502 6.16267
   6   7  -1 22.7500 5.57843
  -6  -7   1 20.3615 6.20005
  -6  -7   0 90.1870 10.8066
   6   7   0 86.1366 9.32351
  -6  -7   0 117.129 10.5629
   6   7   1 172.339 15.9007
  -6  -7  -1 230.833 17.3134
  -6  -7  -1 199.972 16.9616
   6   7   2 84.3345 9.20758
  -6  -7  -2 119.876 10.3677
   6   7   3-0.27595 2.67115
  -6  -7  -3 7.25013 5.25766
  -6  -7  -4-1.05988 5.08112
  -6  -7  -5 1.47142 5.42659
  -6  -7  -6 7.27400 5.71053
  -6  -7  -7 1.45743 3.72255
  -6  -7  -7 1.19749 5.62063
  -6  -7  -8 48.0385 6.20064
  -6  -7  -8 48.7707 8.07294
  -6  -7  -9 33.1540 6.02377
  -6  -7 -11 6.51300 6.23925
   6   8  -4 28.3025 7.62623
   6   8  -3 4.83443 6.37981
  -6  -8   3-6.28021 6.56890
   6   8  -2 1.24696 5.79001
  -6  -8   2 0.82067 6.27720
   6   8  -1 14.0831 5.88447
  -6  -8   1 19.4191 6.72653
   6   8   0 15.1228 5.27652
  -6  -8   0 8.32795 6.17452
   6   8   1 69.4202 7.77294
  -6  -8  -1 85.4158 9.53235
  -6  -8  -2 22.6790 6.45677
  -6  -8  -3 49.5116 7.58641
  -6  -8  -4 82.5706 9.67464
  -6  -8  -5 50.7217 7.92452
  -6  -8  -6 21.9063 6.57693
  -6  -8  -7 6.89089 6.18350
   6   9  -3 59.2072 9.29411
  -6  -9   3 90.3993 10.8659
   6   9  -2-4.20908 6.13064
  -6  -9   2 3.65971 6.71396
  -6  -9   1 5.45680 6.89359
  -6  -9   0 20.0827 7.42148
  -6  -9  -1 6.96351 6.47240
  -6  -9  -2 6.84937 6.22046
  -6  -9  -3 21.8705 6.99800
  -6  -9  -4 31.4632 7.45897
   7  -6  -1 11.0993 6.15368
   7  -6   0 19.9446 6.46794
   7  -5  -2-1.20516 5.29800
   7  -5  -1 55.0708 7.71912
  -7   5   0 125.021 15.1059
  -7   5  -1 66.2473 11.7295
  -7   5  -2 112.592 13.7640
  -7   5  -2 87.0808 12.9651
  -7   5  -3 343.579 29.2170
  -7   5  -3 315.316 29.4894
  -7   5  -4 222.304 22.3467
  -7   5  -5 111.261 15.3877
   7  -4  -4 44.6387 8.49245
   7  -4  -3 73.6102 9.80602
   7  -4  -2 240.867 19.6883
  -7   4   2 189.221 20.8282
   7  -4  -1 31.2741 7.45204
  -7   4   1 28.1848 9.09744
   7  -4   0 6.57437 6.24446
  -7   4   0 1.98304 8.42716
  -7   4  -1 24.0118 9.24914
  -7   4  -2 52.1348 10.6762
  -7   4  -2 47.8053 9.97141
  -7   4  -3 35.8851 9.94181
  -7   4  -3 16.7053 9.26156
  -7   4  -4 70.5289 11.6406
  -7   4  -4 65.8965 11.3773
  -7   4  -5 154.437 17.6033
  -7   4  -5 172.130 17.2900
  -7   4  -6 198.898 18.3188
  -7   4  -6 149.625 18.4771
  -7   4  -7 44.0012 12.0520
  -7   4  -8 151.233 17.6713
  -7   4  -9 2.89050 10.7161
   7  -3  -5 1.13516 6.74503
   7  -3  -4 3.30598 6.70342
  -7   3   4 1.49012 8.45798
   7  -3  -3 5.37475 6.51560
  -7   3   3 2.39991 7.92111
   7  -3  -2 265.127 21.0535
  -7   3   2 206.823 21.9587
   7  -3  -1 51.4251 7.67477
  -7   3   1 27.8423 9.22050
   7  -3   0 100.693 11.3403
  -7   3   0 117.873 12.9320
  -7   3  -1 21.8930 8.61635
  -7   3  -2 14.2493 8.39343
  -7   3  -2 9.54516 8.13901
  -7   3  -2 11.0839 4.83689
  -7   3  -3-2.79407 8.08464
  -7   3  -3 14.7871 8.25731
  -7   3  -4 48.0678 9.94422
  -7   3  -4 40.9113 9.51303
  -7   3  -5 297.727 24.8151
  -7   3  -5 252.724 24.7566
  -7   3  -6 286.030 25.9343
  -7   3  -6 300.487 26.4627
  -7   3  -7 3.61080 9.57609
  -7   3  -7 10.3202 8.58826
  -7   3  -8 228.645 20.7273
  -7   3  -8 198.272 20.9141
  -7   3  -9 31.3205 10.2760
  -7   3 -10 68.8959 12.4388
  -7   3 -11 14.7966 10.4966
   7  -2  -6 76.9934 9.75198
   7  -2  -5 6.25282 6.22206
  -7   2   5 16.5899 8.74813
   7  -2  -4 76.6015 9.41946
  -7   2   4 86.0260 11.6926
   7  -2  -3 15.0093 6.07313
  -7   2   3 16.1843 8.31048
   7  -2  -2 12.8654 5.74017
  -7   2   2 11.4219 8.01726
   7  -2  -1 13.2089 5.71256
  -7   2   1 4.22424 7.30905
   7  -2   0 17.6600 5.90530
  -7   2   0 23.8509 3.83892
  -7   2   0 23.1785 7.80256
  -7   2  -1 72.3340 10.4296
  -7   2  -2 201.362 16.9219
  -7   2  -2 151.404 16.6569
  -7   2  -3 42.4468 8.98134
  -7   2  -3 49.0090 9.12830
  -7   2  -4 211.462 19.7550
  -7   2  -4 212.145 19.5694
  -7   2  -5 242.655 22.1052
  -7   2  -5 249.817 22.2732
  -7   2  -6 72.5809 11.3158
  -7   2  -6 93.8280 11.3950
  -7   2  -7 105.171 12.8337
  -7   2  -7 97.4439 12.3271
  -7   2  -8 78.1795 12.0328
  -7   2  -8 99.5463 12.0370
  -7   2  -9 58.2462 10.5778
  -7   2  -9 71.7895 10.7318
  -7   2 -10 51.0022 10.5878
  -7   2 -11 49.2331 10.9253
   7  -1  -7 310.365 26.0537
   7  -1  -6 356.454 29.3830
   7  -1  -5 42.2482 6.96016
   7  -1  -4 70.6648 8.57415
   7  -1  -3 57.6016 7.87098
  -7   1   3 73.8636 10.0050
   7  -1  -2 31.5848 6.36778
  -7   1   2 39.4675 8.35951
   7  -1  -1 37.1755 6.20468
  -7   1   1 27.9968 3.03986
  -7   1   1 37.4642 7.91946
   7  -1   0 286.600 23.3515
  -7   1   0 271.856 24.1664
  -7   1  -1 757.797 56.7733
  -7   1  -1 675.308 56.6845
  -7   1  -2 32.6448 7.58324
  -7   1  -2 38.6478 7.95992
  -7   1  -3 21.3649 7.32621
  -7   1  -3 12.9721 7.19247
  -7   1  -4 62.7068 9.69559
  -7   1  -4 76.9251 9.79521
  -7   1  -5-0.74705 7.14961
  -7   1  -5-0.38275 6.88359
  -7   1  -6 14.0135 7.52168
  -7   1  -6 10.0787 6.77258
  -7   1  -7 14.2342 7.85061
  -7   1  -7 12.0116 7.27688
  -7   1  -8 32.9786 8.36354
  -7   1  -8 29.6510 8.19110
  -7   1  -9 169.683 16.1817
  -7   1  -9 153.035 15.6675
  -7   1 -10 371.299 30.6702
  -7   1 -10 349.317 30.0856
   7   0  -8 18.1724 6.38646
   7   0  -7 71.9193 8.83810
   7   0  -6 47.0673 7.06138
   7   0  -6 38.6477 8.60548
   7   0  -5 131.348 11.8682
   7   0  -5 112.080 12.9008
   7   0  -4 83.6362 8.90683
   7   0  -4 80.2929 9.98080
   7   0  -3 17.7386 5.25261
   7   0  -2 11.9341 5.07702
   7   0  -1 6.03724 4.74602
  -7   0   1 1.14451 4.91592
  -7   0   1 14.4298 2.27515
  -7   0   1 1.45786 6.61900
  -7   0   0 49.5742 6.72958
  -7   0   0 40.1518 4.72415
  -7   0   0 65.8594 8.36308
  -7   0  -1 155.715 14.1522
  -7   0  -1 140.048 13.3844
  -7   0  -1 157.049 14.4173
  -7   0  -2 7.66315 5.88011
  -7   0  -2 6.82721 5.24604
  -7   0  -2 6.38060 5.48170
  -7   0  -2 14.9805 5.42936
  -7   0  -2 6.87462 6.17759
  -7   0  -3 99.3052 10.4646
  -7   0  -3 106.976 11.5441
  -7   0  -3 122.008 10.7337
  -7   0  -3 108.105 10.6834
  -7   0  -3 116.373 11.0034
  -7   0  -3 104.583 11.5720
  -7   0  -4 34.1757 7.31464
  -7   0  -4 25.9901 6.92887
  -7   0  -4 31.7119 5.52840
  -7   0  -4 41.2858 6.63371
  -7   0  -5 98.8609 10.8802
  -7   0  -5 93.4626 9.31060
  -7   0  -5 106.994 10.8569
  -7   0  -6 37.1515 7.60408
  -7   0  -7 6.74105 6.32399
  -7   0  -7 9.58152 4.62392
  -7   0  -7 5.43220 6.51859
  -7   0  -8 21.9952 6.82657
  -7   0  -8 16.7376 7.28447
  -7   0  -9 29.8429 6.95225
  -7   0  -9 14.4247 7.59774
  -7   0 -10 76.0351 10.6694
  -7   0 -11 32.0127 8.91752
   7   1  -6 24.1214 5.75750
   7   1  -6 37.6977 7.65998
   7   1  -5 14.1518 5.04305
   7   1  -5 22.2952 6.98915
   7   1  -4 49.8878 6.44887
   7   1  -4 41.9234 7.82809
  -7  -1   3 65.2626 8.25327
   7   1  -3 91.4468 8.50550
   7   1  -3 91.0727 9.64258
   7   1  -2 49.0971 5.33552
   7   1  -2 36.9729 6.66663
  -7  -1   1 52.5516 6.58239
   7   1  -1 52.7766 6.30206
  -7  -1   1 50.9286 4.94456
  -7  -1   0 27.3527 5.38391
  -7  -1   0 33.3651 4.16699
  -7  -1   0 35.0390 5.89801
  -7  -1   0 34.9722 7.13073
  -7  -1   0 29.7164 5.02013
  -7  -1  -1 14.4377 5.35554
  -7  -1  -1 15.7647 5.72175
  -7  -1  -1 17.8066 3.38153
  -7  -1  -1 4.00673 4.51384
  -7  -1  -1 4.56552 4.80805
  -7  -1  -1 16.0432 5.96516
  -7  -1  -1 3.21221 4.43620
  -7  -1  -2 6.04753 4.85467
  -7  -1  -2-1.38671 4.98694
  -7  -1  -2 1.74655 4.55747
  -7  -1  -2 11.0421 4.38947
  -7  -1  -2 4.28489 4.56968
  -7  -1  -2 6.96708 5.57639
  -7  -1  -2-0.23129 4.86237
  -7  -1  -3 16.7890 4.91229
  -7  -1  -3 13.3983 4.91016
  -7  -1  -3 14.1388 5.07982
  -7  -1  -3 11.6806 4.69412
  -7  -1  -3 13.4743 4.74830
  -7  -1  -3 21.8612 5.24976
  -7  -1  -4 214.773 17.0753
  -7  -1  -4 195.266 16.3621
  -7  -1  -4 183.811 17.1662
  -7  -1  -4 186.101 16.9977
  -7  -1  -4 207.240 17.0984
  -7  -1  -4 191.096 16.7596
  -7  -1  -5 237.900 20.4914
  -7  -1  -5 237.567 20.2155
  -7  -1  -5 252.909 19.7925
  -7  -1  -5 234.126 20.2366
  -7  -1  -6 519.851 44.4763
  -7  -1  -6 573.153 43.7969
  -7  -1  -6 574.677 44.1744
  -7  -1  -7 2.39123 5.20347
  -7  -1  -7 4.19356 4.31730
  -7  -1  -7 7.89191 6.35797
  -7  -1  -8 11.9765 5.18470
  -7  -1  -8-8.71969 6.53562
  -7  -1  -9 8.55632 6.98226
  -7  -1 -10 3.56483 7.11280
  -7  -1 -11-1.24073 7.46308
   7   2  -6 12.3200 6.91789
   7   2  -5 14.6650 4.55266
   7   2  -5 10.8250 6.34177
   7   2  -4 18.3911 4.69233
   7   2  -4 20.8646 6.57938
  -7  -2   3 44.1972 6.14102
   7   2  -3 65.4758 6.41997
   7   2  -3 57.1289 7.79151
  -7  -2   2 55.1706 5.99193
   7   2  -2 62.5134 6.09132
   7   2  -2 62.0514 7.53753
  -7  -2   2 47.8256 5.05611
  -7  -2   2 41.5342 5.43079
  -7  -2   1 68.0253 6.29413
   7   2  -1 66.1441 7.46773
  -7  -2   1 49.5484 5.36746
  -7  -2   1 46.0684 6.09621
  -7  -2   0 28.0306 5.70393
  -7  -2   0 33.8767 4.58313
  -7  -2   0 24.2438 3.78036
  -7  -2   0 20.5295 4.92675
  -7  -2  -1 36.9727 6.12418
  -7  -2  -1 44.0659 6.50706
  -7  -2  -1 27.9295 4.72063
  -7  -2  -1 34.3233 4.56198
  -7  -2  -1 48.8074 5.56464
  -7  -2  -1 34.8527 5.44644
  -7  -2  -1 39.5429 6.43915
  -7  -2  -1 37.2182 5.81339
  -7  -2  -2 57.9644 6.64418
  -7  -2  -2 58.0866 6.70648
  -7  -2  -2 44.6425 5.43150
  -7  -2  -2 48.5901 5.73111
  -7  -2  -2 33.7545 5.56440
  -7  -2  -2 46.2977 6.64352
  -7  -2  -2 47.3052 6.41618
  -7  -2  -2 56.5585 6.62910
  -7  -2  -3 8.87798 4.08083
  -7  -2  -3 18.5450 4.85888
  -7  -2  -3 1.93398 3.74812
  -7  -2  -3 15.1418 5.10876
  -7  -2  -3 8.66021 3.92970
  -7  -2  -3 9.43470 4.96326
  -7  -2  -3 12.6896 4.63779
  -7  -2  -4 14.3404 4.32383
  -7  -2  -4 6.93527 4.17754
  -7  -2  -4 4.92589 4.25188
  -7  -2  -4-0.28433 5.18759
  -7  -2  -4 9.83182 4.84889
  -7  -2  -4 0.57940 5.17565
  -7  -2  -5 130.762 10.5824
  -7  -2  -5 114.551 11.0426
  -7  -2  -5 108.495 10.8490
  -7  -2  -5 100.540 10.8301
  -7  -2  -5 131.915 10.9740
  -7  -2  -6 582.100 41.2687
  -7  -2  -6 518.511 41.9425
  -7  -2  -6 513.892 41.6659
  -7  -2  -6 505.328 41.6077
  -7  -2  -6 504.981 41.3962
  -7  -2  -7 139.818 10.9152
  -7  -2  -7 113.883 12.1646
  -7  -2  -7 115.603 11.0005
  -7  -2  -8 146.874 13.3740
  -7  -2  -8 130.246 11.8753
  -7  -2  -9 119.455 12.4317
  -7  -2 -10 72.7768 9.71473
  -7  -2 -11-1.56852 7.09980
  -7  -2 -12 12.0183 7.77461
   7   3  -6 36.7520 7.61732
   7   3  -5 3.09389 6.27504
   7   3  -4 1.60466 5.83646
   7   3  -3 5.82902 3.44424
   7   3  -3 3.86765 5.51761
  -7  -3   3 2.96864 3.32344
   7   3  -2 4.90920 5.10079
  -7  -3   2 9.36265 3.59068
  -7  -3   1 73.5439 7.38464
  -7  -3   1 66.8322 6.55310
   7   3  -1 68.7386 7.99494
  -7  -3   1 73.5373 6.96859
  -7  -3   0 516.268 39.3666
  -7  -3   0 537.155 38.6172
   7   3   0 451.164 38.8311
  -7  -3   0 523.361 38.2543
  -7  -3   0 526.461 38.6343
  -7  -3   0 369.218 38.2306
  -7  -3   0 515.681 37.8389
  -7  -3  -1 737.767 56.4512
  -7  -3  -1 840.345 55.9623
  -7  -3  -1 750.872 56.0987
  -7  -3  -1 765.548 55.6848
  -7  -3  -2 408.506 30.1127
  -7  -3  -2 370.261 30.2413
  -7  -3  -2 378.710 29.6396
  -7  -3  -2 403.057 29.8034
  -7  -3  -2 332.551 29.7832
  -7  -3  -2 404.719 30.5368
  -7  -3  -3 758.659 63.3958
  -7  -3  -3 850.916 63.5302
  -7  -3  -3 770.134 63.6022
  -7  -3  -3 798.359 63.0457
  -7  -3  -3 807.043 63.0648
  -7  -3  -3 832.317 63.1920
  -7  -3  -3 944.365 63.7192
  -7  -3  -4 207.823 16.1608
  -7  -3  -4 166.505 16.3636
  -7  -3  -4 195.486 15.9335
  -7  -3  -4 186.659 15.8102
  -7  -3  -4 214.658 16.4619
  -7  -3  -4 200.312 16.1465
  -7  -3  -5 186.879 13.5420
  -7  -3  -5 137.239 13.8058
  -7  -3  -5 139.368 13.9823
  -7  -3  -5 160.637 13.6814
  -7  -3  -5 174.303 13.7418
  -7  -3  -6 77.0201 6.41537
  -7  -3  -6 50.1391 7.31988
  -7  -3  -6 49.4115 7.53586
  -7  -3  -6 62.5593 7.36262
  -7  -3  -6 67.8424 6.42106
  -7  -3  -7 203.100 17.8660
  -7  -3  -7 217.429 17.9033
  -7  -3  -7 214.225 16.8517
  -7  -3  -8 314.256 26.0029
  -7  -3  -9 92.4783 10.4880
  -7  -3 -10-3.07277 6.46218
  -7  -3 -11 74.9851 10.3307
  -7  -3 -12 99.6225 12.0901
   7   4  -5 23.8185 6.90834
   7   4  -4 26.2179 6.38137
   7   4  -3 19.6881 5.92648
  -7  -4   3 17.9196 4.56205
   7   4  -2 184.066 16.4426
  -7  -4   2 193.094 15.9988
   7   4  -1 399.972 33.8607
  -7  -4   1 449.040 33.7588
  -7  -4   0 43.6015 4.34087
  -7  -4   0 46.1976 4.14977
  -7  -4   0 62.2811 8.19522
   7   4   0 47.5093 6.21912
  -7  -4   0 56.7000 6.05323
  -7  -4  -1 9.30089 2.16427
  -7  -4  -1 22.4769 6.34745
   7   4   1 14.8371 4.43130
  -7  -4  -1 16.0737 2.76962
  -7  -4  -1 16.6706 4.42836
  -7  -4  -2 7.74163 5.47106
  -7  -4  -2 7.84345 2.49166
  -7  -4  -2 11.8299 2.91035
  -7  -4  -2 14.7388 4.24568
  -7  -4  -2 1.94997 2.43181
  -7  -4  -3 21.7043 5.23041
  -7  -4  -3 0.80958 2.86346
  -7  -4  -3 6.49158 4.51990
  -7  -4  -3 16.9699 3.33817
  -7  -4  -3 10.2824 3.13127
  -7  -4  -3 5.23340 4.39664
  -7  -4  -4 32.5519 5.22733
  -7  -4  -4 36.3183 4.61448
  -7  -4  -4 35.7883 5.87948
  -7  -4  -4 29.5500 4.62866
  -7  -4  -4 38.7038 4.77589
  -7  -4  -4 47.9188 5.39581
  -7  -4  -5 3.12225 3.29535
  -7  -4  -5 0.15493 3.80923
  -7  -4  -5-12.4211 3.62486
  -7  -4  -5-0.43783 3.90971
  -7  -4  -5 2.19792 4.77502
  -7  -4  -5 3.96546 2.67671
  -7  -4  -5-6.19742 3.80114
  -7  -4  -6 39.1271 5.73326
  -7  -4  -6 47.1545 5.85609
  -7  -4  -6 29.9437 4.45939
  -7  -4  -6 56.8633 6.01908
  -7  -4  -7 25.7083 5.28223
  -7  -4  -7 18.9856 5.17021
  -7  -4  -7 24.6993 5.49863
  -7  -4  -8 6.83405 5.51170
  -7  -4  -9 118.392 12.0939
  -7  -4 -10 72.1123 9.65790
  -7  -4 -11 77.8718 10.2902
  -7  -4 -12 66.0987 10.0306
   7   5  -5 20.4717 6.71196
   7   5  -4-3.57832 5.79163
   7   5  -3 44.2810 7.02819
   7   5  -2 23.3763 5.68934
   7   5  -1 21.5832 5.25826
  -7  -5   0 28.5707 7.09804
   7   5   0 16.7328 4.98262
  -7  -5   0 32.7512 5.50807
  -7  -5  -1 33.2940 7.12371
   7   5   1 29.7076 5.27149
  -7  -5  -1 49.5762 6.11032
  -7  -5  -2 36.7934 6.77511
   7   5   2 33.2880 5.04119
  -7  -5  -2 39.7501 5.97030
  -7  -5  -3 55.1463 7.26596
  -7  -5  -3 48.3667 7.08501
  -7  -5  -3 66.4947 6.66000
  -7  -5  -4 37.4736 4.52228
  -7  -5  -4 29.2179 5.85967
  -7  -5  -4 40.9674 4.57612
  -7  -5  -4 25.7998 3.59088
  -7  -5  -5 33.7801 4.94321
  -7  -5  -5 39.9263 6.40647
  -7  -5  -5 28.3194 4.25777
  -7  -5  -6 2.85715 5.43816
  -7  -5  -6-0.45773 3.75425
  -7  -5  -7 7.72449 4.91702
  -7  -5  -7 16.4867 6.15338
  -7  -5  -7 9.32203 4.61731
  -7  -5  -8-4.94116 5.87306
  -7  -5  -8-0.68242 4.97700
  -7  -5 -10 60.6521 8.47981
  -7  -5 -11 118.343 12.6675
  -7  -5 -12 72.5026 10.1541
   7   6  -4 0.33859 5.96001
   7   6  -3 80.6193 9.55893
  -7  -6   3 89.5422 9.58024
   7   6  -2 25.0468 5.91197
  -7  -6   2 10.4098 5.71650
   7   6  -1 26.2092 5.74628
  -7  -6   1 43.3814 6.54667
   7   6   0 8.00926 4.37632
  -7  -6   0 0.92990 5.02362
   7   6   1 8.61185 4.00084
  -7  -6  -1 3.48293 4.92789
   7   6   2 15.0502 3.91812
  -7  -6  -2 18.1560 5.47370
  -7  -6  -3 27.2974 6.08270
  -7  -6  -4 37.5675 6.59466
  -7  -6  -5 70.1109 8.65766
  -7  -6  -6 13.2624 5.69765
  -7  -6  -7 33.4652 7.10559
  -7  -6  -8 2.56331 6.25199
  -7  -6  -9 9.99749 6.78926
   7   7  -4 9.08623 6.57376
   7   7  -3 39.5375 7.47774
  -7  -7   3 51.8285 7.93965
   7   7  -2 48.0357 7.55829
  -7  -7   2 62.3619 8.35115
   7   7  -1 30.6801 5.96140
  -7  -7   1 43.9988 7.40861
   7   7   0 27.2304 5.43443
  -7  -7   0 43.9504 7.01804
  -7  -7  -1 25.8738 6.24854
  -7  -7  -2 13.7435 5.93826
  -7  -7  -3 65.4823 8.55341
  -7  -7  -4 126.770 12.6169
  -7  -7  -5 106.061 11.2912
  -7  -7  -6 41.0695 7.44898
  -7  -7  -7 37.0163 7.68197
   7   8  -3 23.5663 6.83246
  -7  -8   3 22.3646 7.59919
  -7  -8   2 57.0418 8.90570
  -7  -8   1 138.108 14.0091
  -7  -8   0 34.1463 7.45793
  -7  -8  -1 9.54078 6.17028
  -7  -8  -3-0.40769 5.92333
  -7  -8  -4 9.03343 6.08521
  -7  -8  -5 15.1275 6.66462
   8  -3  -2 19.1253 6.66546
   8  -3  -1 51.8793 8.35582
  -8   3   0 49.5429 10.4060
  -8   3  -1 45.1148 9.84025
  -8   3  -1 31.2406 9.56100
  -8   3  -2 144.093 15.6479
  -8   3  -2 139.665 15.5886
  -8   3  -3 231.003 20.4965
  -8   3  -3 188.509 20.1458
  -8   3  -4 114.174 14.7205
  -8   3  -4 133.239 14.8082
  -8   3  -5 0.51514 9.35333
  -8   3  -5 19.4832 9.45542
  -8   3  -6 114.347 14.8377
  -8   3  -7 9.67744 10.0634
  -8   3  -8 5.39986 10.2933
  -8   3  -9-6.30916 9.95644
   8  -2  -4 84.3632 10.0453
   8  -2  -3 11.0647 6.08863
   8  -2  -2 48.2789 7.63122
  -8   2   2 33.4865 9.82285
   8  -2  -1 10.2890 5.89142
  -8   2   1 27.1265 8.92420
  -8   2   0 1.39818 8.06100
  -8   2  -1 21.1985 8.45172
  -8   2  -1 11.5140 8.48449
  -8   2  -2 76.8879 10.8909
  -8   2  -2 57.4974 10.4698
  -8   2  -3 489.035 38.5753
  -8   2  -3 440.746 38.3045
  -8   2  -4 303.120 24.8255
  -8   2  -4 251.094 24.3736
  -8   2  -5 4.16201 8.49905
  -8   2  -5 6.18844 8.05337
  -8   2  -6 224.559 20.2390
  -8   2  -6 199.654 20.0731
  -8   2  -7 16.0062 9.26421
  -8   2  -7 14.0158 8.68003
  -8   2  -8 57.0636 11.1207
  -8   2  -9 13.1861 9.51387
   8  -1  -6 12.7434 6.54350
   8  -1  -5 13.2774 6.07074
   8  -1  -4 33.5647 6.88753
   8  -1  -3 7.51119 5.31825
  -8   1   3 12.5922 8.69781
   8  -1  -2 38.0548 6.66217
  -8   1   2 27.6776 9.10386
   8  -1  -1 52.1312 7.33733
  -8   1   1 41.1346 9.75350
  -8   1   0 41.4154 8.80363
  -8   1  -1 0.81842 7.37108
  -8   1  -1 5.47262 7.71534
  -8   1  -2 80.3946 10.9580
  -8   1  -2 82.7647 11.0186
  -8   1  -3 423.806 32.8309
  -8   1  -3 360.141 32.3628
  -8   1  -4 87.6600 11.5329
  -8   1  -4 94.5884 11.8135
  -8   1  -5 134.551 14.8366
  -8   1  -5 148.048 14.9166
  -8   1  -6 133.800 14.4849
  -8   1  -6 138.431 14.5568
  -8   1  -7 102.347 12.8192
  -8   1  -7 109.464 12.6480
  -8   1  -8 48.4619 9.70794
  -8   1  -8 55.8058 10.0287
   8   0  -5 19.8027 5.82773
   8   0  -4 1.74381 5.17622
   8   0  -3 70.3519 8.34013
  -8   0   3 73.1972 11.0621
   8   0  -2 173.446 15.8011
  -8   0   2 199.005 18.0766
  -8   0   1 365.880 30.8394
  -8   0   0-4.32805 5.86213
  -8   0   0 13.8375 7.69926
  -8   0  -1 18.0437 3.60900
  -8   0  -1 20.4079 7.52918
  -8   0  -2 29.3378 7.33110
  -8   0  -2 23.5561 7.61105
  -8   0  -3 13.1610 6.84446
  -8   0  -3 11.7948 7.25462
  -8   0  -4 1.44038 6.94431
  -8   0  -4 19.8189 7.14521
  -8   0  -5 23.3649 7.53845
  -8   0  -5 22.8864 7.40840
  -8   0  -6 107.310 11.0509
  -8   0  -6 79.5976 11.0337
  -8   0  -7 293.488 25.8223
  -8   0  -7 310.183 25.6979
  -8   0  -8 598.700 46.7778
  -8   0  -8 562.659 46.2057
   8   1  -4 43.9373 8.35889
   8   1  -3 0.72864 4.70334
   8   1  -2 12.5939 4.74184
  -8  -1   1 82.7063 10.8832
  -8  -1   0 12.9948 6.54283
  -8  -1   0 12.2833 3.14085
  -8  -1   0 8.96817 6.93465
  -8  -1  -1 81.5104 9.00848
  -8  -1  -1 54.2485 7.44476
  -8  -1  -1 57.6303 6.30922
  -8  -1  -1 66.3950 9.16199
  -8  -1  -2 30.3033 7.18786
  -8  -1  -3 55.1034 7.84032
  -8  -1  -3 33.9571 7.01744
  -8  -1  -3 74.1035 8.06899
  -8  -1  -3 76.7983 8.25714
  -8  -1  -4 3.79093 5.97242
  -8  -1  -4-9.05947 5.24970
  -8  -1  -5 49.0194 7.12894
  -8  -1  -5 32.6069 7.17601
  -8  -1  -6 94.3994 11.4968
  -8  -1  -6 122.122 11.2331
  -8  -1  -7 74.8060 8.86906
  -8  -1  -7 67.2797 9.52609
  -8  -1  -8 52.5526 8.87068
  -8  -1  -9 27.0471 7.94921
  -8  -1 -10 36.0890 8.66340
   8   2  -4 7.47104 6.85961
   8   2  -3 14.4036 6.53559
   8   2  -2 0.33061 5.93927
  -8  -2   1 4.24266 6.03160
  -8  -2   0 12.5256 5.82234
  -8  -2   0 6.99321 3.14582
  -8  -2   0 7.01360 6.64158
  -8  -2  -1 14.0172 5.98037
  -8  -2  -1 14.8202 3.97536
  -8  -2  -1 34.7135 5.66689
  -8  -2  -1 28.3386 6.88779
  -8  -2  -2 163.339 13.5777
  -8  -2  -2 141.001 12.5232
  -8  -2  -2 140.428 12.7541
  -8  -2  -2 162.249 13.6257
  -8  -2  -2 125.384 13.2653
  -8  -2  -3 195.991 14.4905
  -8  -2  -3 172.947 14.2501
  -8  -2  -3 129.509 13.5252
  -8  -2  -3 143.521 14.3804
  -8  -2  -3 174.081 14.5678
  -8  -2  -4 361.363 27.5862
  -8  -2  -4 321.216 27.1455
  -8  -2  -4 338.267 27.6173
  -8  -2  -5-1.69159 5.53117
  -8  -2  -5 7.04948 5.11216
  -8  -2  -6-14.5077 5.33284
  -8  -2  -6 11.4434 5.63943
  -8  -2  -7 29.7797 6.82644
  -8  -2  -8 32.5762 7.40203
  -8  -2  -9 45.6933 8.46284
  -8  -2 -10 92.7049 11.2588
  -8  -2 -11 57.2682 9.70279
   8   3  -4 19.0663 6.85094
   8   3  -3 26.9247 6.80931
   8   3  -2 12.6427 5.98449
   8   3  -1 4.10057 5.52681
  -8  -3   0 1.98436 3.58765
  -8  -3  -1 61.0842 7.19562
  -8  -3  -1 87.8977 8.71644
  -8  -3  -2 3.70419 6.12887
  -8  -3  -2 5.97311 4.57019
  -8  -3  -2 1.68395 3.70492
  -8  -3  -2 11.8798 5.51870
  -8  -3  -3 134.627 10.3144
  -8  -3  -3 96.4534 10.0326
  -8  -3  -3 105.329 9.47475
  -8  -3  -3 74.5999 10.5323
  -8  -3  -3 121.035 10.6950
  -8  -3  -4 231.497 18.9176
  -8  -3  -4 190.047 18.8693
  -8  -3  -4 258.191 19.1290
  -8  -3  -5 38.6350 6.68221
  -8  -3  -5 52.4952 6.52624
  -8  -3  -7 87.4093 9.67373
  -8  -3  -8 32.4556 7.09451
  -8  -3  -9 18.5952 6.97272
  -8  -3 -10 16.7776 7.31893
   8   4  -4 0.35637 6.27295
   8   4  -3 60.2359 8.31199
   8   4  -2 161.412 14.8444
   8   4  -1 182.767 16.1086
   8   4   0 25.5503 5.77482
  -8  -4   0 32.3846 5.16060
  -8  -4  -1 414.633 33.0689
  -8  -4  -2 57.5746 7.64177
  -8  -4  -2 87.9049 8.58582
  -8  -4  -3 92.2553 9.88370
  -8  -4  -3 108.995 10.2314
  -8  -4  -4 84.4117 9.97927
  -8  -4  -4 110.819 9.77765
  -8  -4  -5 239.467 19.5726
  -8  -4  -5 252.649 20.4813
  -8  -4  -5 231.694 19.3492
  -8  -4  -6 232.398 18.9438
  -8  -4  -6 248.869 19.9665
  -8  -4  -6 211.660 18.6433
  -8  -4  -7 28.0771 5.91500
  -8  -4  -8 28.2939 6.47573
  -8  -4  -9 67.4016 8.90205
  -8  -4 -10 84.7104 10.5217
  -8  -4 -11 8.68088 7.36028
   8   5  -3 168.081 15.4840
   8   5  -2 67.6816 8.39998
   8   5  -1 13.5143 5.31902
  -8  -5   1 17.7433 5.30174
   8   5   0 10.4450 5.16166
   8   5   1 3.03764 4.48089
  -8  -5  -1 9.47406 4.98557
  -8  -5  -2 2.67831 4.68019
  -8  -5  -3 21.5499 5.66531
  -8  -5  -4 52.1717 7.46856
  -8  -5  -5 19.9713 6.19360
  -8  -5  -6 8.05508 5.97925
  -8  -5  -7 215.799 19.3372
  -8  -5  -8 76.3365 10.0880
   8   6  -3 2.30338 5.88099
   8   6  -2 3.27864 5.46010
   8   6  -1 20.5856 5.69770
  -8  -6   1 30.1648 6.40392
  -8  -6   0 18.0360 5.66805
  -8  -6  -1 21.2029 5.90114
  -8  -6  -2 15.0756 5.75547
  -8  -6  -3 12.4377 5.93599
  -8  -6  -4 2.91002 5.49155
  -8  -6  -5 22.2198 6.35337
  -8  -6  -6 17.3022 6.55637
  -8  -6  -7 167.003 15.9474
  -8  -7  -1 21.9647 6.53452
  -8  -7  -2 17.6726 6.06812
  -8  -7  -3 48.2698 7.89900
  -8  -7  -4 0.78596 5.94687
  -8  -7  -5-6.95922 6.13959
  -8  -8   0 1.24515 6.82666
  -8  -8  -1 44.5411 8.16274
  -8  -8  -2 73.5174 9.70568
  -9   2   0 158.296 16.6687
  -9   2  -1 168.696 17.4423
  -9   2  -2 29.5343 9.84190
  -9   2  -2 16.1659 9.15463
  -9   2  -3 55.2346 10.7281
  -9   2  -3 56.5031 11.0012
  -9   2  -4 15.7757 9.53999
  -9   2  -5 6.89353 9.20679
  -9   2  -6-3.43312 9.19663
  -9   2  -7-0.98859 9.79726
  -9   1   0 57.2828 10.0458
  -9   1   0 69.0781 10.9966
  -9   1  -1 340.167 28.8032
  -9   1  -1 327.961 28.9610
  -9   1  -2 131.332 14.3128
  -9   1  -2 116.389 14.1503
  -9   1  -3 16.2320 8.75964
  -9   1  -3 7.53064 8.37995
  -9   1  -4 143.601 16.7341
  -9   1  -4 196.379 17.6016
  -9   1  -5 13.7361 9.11269
  -9   1  -5 32.1619 8.98209
  -9   1  -6 32.7727 9.12076
  -9   1  -6 22.5099 8.96799
  -9   0   1 20.6580 7.05851
  -9   0   1 9.58464 8.91433
  -9   0   0 1.21756 6.48710
  -9   0   0 0.45107 8.24597
  -9   0  -1 238.203 21.7877
  -9   0  -1 252.902 22.2109
  -9   0  -2 40.9657 8.61581
  -9   0  -2 55.4940 9.71039
  -9   0  -3 186.742 16.7053
  -9   0  -3 153.988 16.7236
  -9   0  -4 101.276 13.3319
  -9   0  -4 145.783 13.6341
  -9   0  -5 94.4882 11.6506
  -9   0  -5 87.2149 11.6261
  -9   0  -6 35.5729 8.78500
  -9   0  -7 67.7616 10.5535
  -9   0  -8 53.8294 9.87145
  -9  -1   1-0.90253 8.28468
  -9  -1   0-2.58210 7.88613
  -9  -1  -1 17.2078 7.57841
  -9  -1  -1 23.6079 8.05783
  -9  -1  -2 13.4402 7.16268
  -9  -1  -2 17.2013 7.35204
  -9  -1  -3 12.1878 6.65965
  -9  -1  -3 32.6033 5.01699
  -9  -1  -4 106.552 11.8103
  -9  -1  -5 396.665 32.7027
  -9  -1  -6 545.566 43.9759
  -9  -1  -7 175.329 16.7285
  -9  -1  -9 30.3937 8.64381
  -9  -2   2 7.37868 8.58300
  -9  -2   1 21.4465 8.27653
  -9  -2   0 9.57354 7.69223
  -9  -2  -1 13.9182 7.04469
  -9  -2  -3 94.1536 10.0602
  -9  -2  -3 137.174 11.6335
  -9  -2  -4 175.953 14.1645
  -9  -2  -4 131.000 13.1342
  -9  -2  -5 78.4073 9.19896
  -9  -2  -6 25.3411 6.74045
  -9  -2  -7 30.0180 7.37916
  -9  -2  -9 58.7847 9.72250
  -9  -3   0 49.7966 8.58494
  -9  -3  -2 87.4896 10.0618
  -9  -3  -3 9.54582 4.34669
  -9  -3  -4-0.60350 4.65110
  -9  -3  -5 14.6081 5.55149
   9   4  -2 7.91398 6.31214
  -9  -4  -3 20.9469 5.36883
  -9  -4  -4 28.6493 6.09750
  -9  -4  -5 14.0476 6.05924
  -9  -4  -6-2.66514 5.99419
  -9  -4  -7 40.6714 7.70840
  -9  -5  -2 76.2055 8.86934
  -9  -5  -3 128.348 12.4484
  -9  -5  -4 72.2828 8.78019
  -9  -5  -5-1.85703 5.82029
  -9  -5  -6 71.4852 9.30472
  -9  -6  -2 18.6651 6.19364
  -9  -6  -3 0.71480 5.79201
  -9  -6  -4 3.75534 5.76905
  -9  -6  -5 157.446 15.1024
  -9  -7  -2 13.3210 6.30865
   0   0   0    0.00    0.00
;
_shelx_hkl_checksum              37253
loop_
_space_group_symop_operation_xyz
'x, y, z'
'-x, -y, -z'
loop_
_atom_site_label
_atom_site_type_symbol
_atom_site_fract_x
_atom_site_fract_y
_atom_site_fract_z
_atom_site_U_iso_or_equiv
_atom_site_adp_type
_atom_site_occupancy
_atom_site_site_symmetry_order
_atom_site_calc_flag
_atom_site_refinement_flags_posn
_atom_site_refinement_flags_adp
_atom_site_refinement_flags_occupancy
_atom_site_disorder_assembly
_atom_site_disorder_group
S001 S 0.75702(8) -0.08830(7) 0.05796(6) 0.0216(3) Uani 1 1 d . . . . .
C002 C 0.5061(3) 0.1756(3) 0.0770(2) 0.0195(6) Uani 1 1 d . . . . .
C003 C 0.1825(4) 1.0402(3) 0.3493(2) 0.0227(6) Uani 1 1 d . . . . .
H6 H 0.178914 1.109209 0.271500 0.027 Uiso 1 1 calc R U . . .
H7 H 0.047791 1.034075 0.392395 0.027 Uiso 1 1 calc R U . . .
C004 C 0.1803(4) 0.8001(3) 0.2378(2) 0.0236(6) Uani 1 1 d . . . . .
H8 H 0.046608 0.794383 0.283265 0.028 Uiso 1 1 calc R U . . .
H9 H 0.172865 0.873635 0.162605 0.028 Uiso 1 1 calc R U . . .
C005 C 0.2690(4) 0.6367(3) 0.1983(2) 0.0219(6) Uani 1 1 d . . . . .
C006 C 0.4236(3) 0.3300(3) 0.1154(2) 0.0198(5) Uani 1 1 d . . . . .
C007 C 0.5231(3) 0.4059(3) 0.1823(2) 0.0208(6) Uani 1 1 d . . . . .
C008 C 0.6798(3) 0.1014(3) 0.1092(2) 0.0220(6) Uani 1 1 d . . . . .
C009 C 0.7785(4) 0.1774(3) 0.1758(2) 0.0236(6) Uani 1 1 d . . . . .
H1 H 0.896668 0.125574 0.195964 0.028 Uiso 1 1 calc R U . . .
C00A C 0.4414(3) 0.0725(3) 0.0092(2) 0.0194(5) Uani 1 1 d . . . . .
C00B C 0.2818(4) 0.8733(3) 0.3179(2) 0.0242(6) Uani 1 1 d . . . . .
H10 H 0.416351 0.878749 0.274160 0.029 Uiso 1 1 calc R U . . .
H11 H 0.285260 0.803520 0.395347 0.029 Uiso 1 1 calc R U . . .
C00C C 0.4434(4) 0.5585(3) 0.2216(2) 0.0237(6) Uani 1 1 d . . . . .
H2 H 0.511706 0.609095 0.265491 0.028 Uiso 1 1 calc R U . . .
C00D C 0.1709(4) 0.5576(3) 0.1333(2) 0.0232(6) Uani 1 1 d . . . . .
H3 H 0.049534 0.608428 0.117563 0.028 Uiso 1 1 calc R U . . .
C00E C 0.2441(4) 0.4115(3) 0.0926(2) 0.0228(6) Uani 1 1 d . . . . .
H4 H 0.174282 0.363152 0.048265 0.027 Uiso 1 1 calc R U . . .
C00F C 0.2787(4) 1.1178(3) 0.4292(2) 0.0247(6) Uani 1 1 d . . . . .
H12 H 0.413554 1.123898 0.386514 0.030 Uiso 1 1 calc R U . . .
H13 H 0.281226 1.049747 0.507510 0.030 Uiso 1 1 calc R U . . .
C00G C 0.7014(4) 0.3256(3) 0.2106(2) 0.0253(6) Uani 1 1 d . . . . .
H5 H 0.767607 0.377448 0.254957 0.030 Uiso 1 1 calc R U . . .
C00H C 0.1771(4) 1.2849(3) 0.4583(2) 0.0259(6) Uani 1 1 d . . . . .
H14 H 0.175312 1.352987 0.379989 0.031 Uiso 1 1 calc R U . . .
H15 H 0.041933 1.278746 0.500423 0.031 Uiso 1 1 calc R U . . .
C00I C 0.2722(4) 1.3625(4) 0.5391(3) 0.0369(7) Uani 1 1 d . . . . .
H16 H 0.276728 1.294714 0.616241 0.055 Uiso 1 1 calc R U . . .
H17 H 0.197912 1.467368 0.557594 0.055 Uiso 1 1 calc R U . . .
H18 H 0.403478 1.375403 0.495714 0.055 Uiso 1 1 calc R U . . .
loop_
_atom_site_aniso_label
_atom_site_aniso_U_11
_atom_site_aniso_U_22
_atom_site_aniso_U_33
_atom_site_aniso_U_23
_atom_site_aniso_U_13
_atom_site_aniso_U_12
S001 0.0122(4) 0.0204(4) 0.0328(4) -0.0035(3) -0.0136(3) 0.0083(2)
C002 0.0113(12) 0.0204(13) 0.0256(13) -0.0007(10) -0.0071(10) 0.0038(10)
C003 0.0165(13) 0.0217(13) 0.0292(14) -0.0017(10) -0.0096(10) 0.0049(10)
C004 0.0162(13) 0.0212(13) 0.0320(14) 0.0005(11) -0.0099(11) 0.0056(10)
C005 0.0172(13) 0.0203(13) 0.0265(13) 0.0009(10) -0.0076(10) 0.0036(10)
C006 0.0132(12) 0.0188(12) 0.0252(13) 0.0014(10) -0.0074(10) 0.0053(10)
C007 0.0144(13) 0.0210(13) 0.0263(13) -0.0001(10) -0.0085(10) 0.0031(10)
C008 0.0135(12) 0.0216(13) 0.0288(13) 0.0002(10) -0.0090(10) 0.0072(10)
C009 0.0140(12) 0.0227(14) 0.0348(15) -0.0041(11) -0.0128(11) 0.0065(10)
C00A 0.0119(12) 0.0197(12) 0.0256(13) 0.0003(10) -0.0098(10) 0.0061(10)
C00B 0.0165(13) 0.0226(14) 0.0319(14) -0.0017(11) -0.0087(10) 0.0055(10)
C00C 0.0159(13) 0.0241(14) 0.0317(14) -0.0025(11) -0.0101(11) 0.0018(10)
C00D 0.0138(12) 0.0225(13) 0.0323(14) -0.0005(11) -0.0117(10) 0.0073(10)
C00E 0.0184(13) 0.0201(13) 0.0315(14) -0.0013(10) -0.0135(11) 0.0030(10)
C00F 0.0164(13) 0.0231(14) 0.0347(15) -0.0022(11) -0.0121(11) 0.0052(10)
C00G 0.0171(13) 0.0278(14) 0.0324(14) -0.0028(11) -0.0128(11) 0.0028(11)
C00H 0.0205(13) 0.0242(14) 0.0323(14) -0.0041(11) -0.0094(11) 0.0048(11)
C00I 0.0330(17) 0.0325(16) 0.0480(18) -0.0112(13) -0.0168(14) 0.0037(13)
loop_
_atom_type_symbol
_atom_type_description
_atom_type_scat_dispersion_real
_atom_type_scat_dispersion_imag
_atom_type_scat_source
C C 0.0033 0.0016 'International Tables Vol C Tables 4.2.6.8 and 6.1.1.4'
H H 0.0000 0.0000 'International Tables Vol C Tables 4.2.6.8 and 6.1.1.4'
S S 0.1246 0.1234 'International Tables Vol C Tables 4.2.6.8 and 6.1.1.4'
loop_
_geom_angle_atom_site_label_1
_geom_angle_atom_site_label_2
_geom_angle_atom_site_label_3
_geom_angle
_geom_angle_site_symmetry_1
_geom_angle_site_symmetry_3
_geom_angle_publ_flag
C00A S001 C008 91.11(11) 2_655 . ?
C008 C002 C006 119.3(2) . . ?
C008 C002 C00A 109.6(2) . . ?
C006 C002 C00A 131.2(2) . . ?
C00F C003 C00B 114.1(2) . . ?
C00F C003 H6 108.7 . . ?
C00B C003 H6 108.7 . . ?
C00F C003 H7 108.7 . . ?
C00B C003 H7 108.7 . . ?
H6 C003 H7 107.6 . . ?
C005 C004 C00B 116.9(2) . . ?
C005 C004 H8 108.1 . . ?
C00B C004 H8 108.1 . . ?
C005 C004 H9 108.1 . . ?
C00B C004 H9 108.1 . . ?
H8 C004 H9 107.3 . . ?
C00C C005 C00D 117.5(2) . . ?
C00C C005 C004 123.5(2) . . ?
C00D C005 C004 119.0(2) . . ?
C007 C006 C00E 117.9(2) . . ?
C007 C006 C002 118.7(2) . . ?
C00E C006 C002 123.5(2) . . ?
C00C C007 C006 119.5(2) . . ?
C00C C007 C00G 120.9(2) . . ?
C006 C007 C00G 119.6(2) . . ?
C002 C008 C009 121.9(2) . . ?
C002 C008 S001 113.17(19) . . ?
C009 C008 S001 125.0(2) . . ?
C00G C009 C008 118.8(2) . . ?
C00G C009 H1 120.6 . . ?
C008 C009 H1 120.6 . . ?
C00A C00A C002 115.1(3) 2_655 . ?
C00A C00A S001 111.0(2) 2_655 2_655 ?
C002 C00A S001 133.83(19) . 2_655 ?
C004 C00B C003 112.3(2) . . ?
C004 C00B H10 109.1 . . ?
C003 C00B H10 109.1 . . ?
C004 C00B H11 109.1 . . ?
C003 C00B H11 109.1 . . ?
H10 C00B H11 107.9 . . ?
C005 C00C C007 122.0(2) . . ?
C005 C00C H2 119.0 . . ?
C007 C00C H2 119.0 . . ?
C00E C00D C005 122.3(2) . . ?
C00E C00D H3 118.9 . . ?
C005 C00D H3 118.9 . . ?
C00D C00E C006 120.9(2) . . ?
C00D C00E H4 119.6 . . ?
C006 C00E H4 119.6 . . ?
C003 C00F C00H 112.9(2) . . ?
C003 C00F H12 109.0 . . ?
C00H C00F H12 109.0 . . ?
C003 C00F H13 109.0 . . ?
C00H C00F H13 109.0 . . ?
H12 C00F H13 107.8 . . ?
C009 C00G C007 121.8(2) . . ?
C009 C00G H5 119.1 . . ?
C007 C00G H5 119.1 . . ?
C00I C00H C00F 113.1(2) . . ?
C00I C00H H14 109.0 . . ?
C00F C00H H14 109.0 . . ?
C00I C00H H15 109.0 . . ?
C00F C00H H15 109.0 . . ?
H14 C00H H15 107.8 . . ?
C00H C00I H16 109.5 . . ?
C00H C00I H17 109.5 . . ?
H16 C00I H17 109.5 . . ?
C00H C00I H18 109.5 . . ?
H16 C00I H18 109.5 . . ?
H17 C00I H18 109.5 . . ?
loop_
_geom_bond_atom_site_label_1
_geom_bond_atom_site_label_2
_geom_bond_distance
_geom_bond_site_symmetry_2
_geom_bond_publ_flag
S001 C00A 1.736(2) 2_655 ?
S001 C008 1.740(3) . ?
C002 C008 1.403(3) . ?
C002 C006 1.424(3) . ?
C002 C00A 1.425(3) . ?
C003 C00F 1.515(4) . ?
C003 C00B 1.523(3) . ?
C003 H6 0.9900 . ?
C003 H7 0.9900 . ?
C004 C005 1.504(3) . ?
C004 C00B 1.522(4) . ?
C004 H8 0.9900 . ?
C004 H9 0.9900 . ?
C005 C00C 1.381(4) . ?
C005 C00D 1.413(4) . ?
C006 C007 1.418(4) . ?
C006 C00E 1.419(3) . ?
C007 C00C 1.410(3) . ?
C007 C00G 1.430(3) . ?
C008 C009 1.412(4) . ?
C009 C00G 1.356(4) . ?
C009 H1 0.9500 . ?
C00A C00A 1.381(5) 2_655 ?
C00B H10 0.9900 . ?
C00B H11 0.9900 . ?
C00C H2 0.9500 . ?
C00D C00E 1.358(3) . ?
C00D H3 0.9500 . ?
C00E H4 0.9500 . ?
C00F C00H 1.523(3) . ?
C00F H12 0.9900 . ?
C00F H13 0.9900 . ?
C00G H5 0.9500 . ?
C00H C00I 1.518(4) . ?
C00H H14 0.9900 . ?
C00H H15 0.9900 . ?
C00I H16 0.9800 . ?
C00I H17 0.9800 . ?
C00I H18 0.9800 . ?
loop_
_geom_torsion_atom_site_label_1
_geom_torsion_atom_site_label_2
_geom_torsion_atom_site_label_3
_geom_torsion_atom_site_label_4
_geom_torsion
_geom_torsion_site_symmetry_1
_geom_torsion_site_symmetry_2
_geom_torsion_site_symmetry_3
_geom_torsion_site_symmetry_4
_geom_torsion_publ_flag
C00B C004 C005 C00C -6.0(4) . . . . ?
C00B C004 C005 C00D 174.3(2) . . . . ?
C008 C002 C006 C007 1.7(4) . . . . ?
C00A C002 C006 C007 -179.6(2) . . . . ?
C008 C002 C006 C00E -176.9(2) . . . . ?
C00A C002 C006 C00E 1.8(4) . . . . ?
C00E C006 C007 C00C -1.1(4) . . . . ?
C002 C006 C007 C00C -179.7(2) . . . . ?
C00E C006 C007 C00G 178.0(2) . . . . ?
C002 C006 C007 C00G -0.7(4) . . . . ?
C006 C002 C008 C009 -1.8(4) . . . . ?
C00A C002 C008 C009 179.2(2) . . . . ?
C006 C002 C008 S001 178.58(18) . . . . ?
C00A C002 C008 S001 -0.4(3) . . . . ?
C00A S001 C008 C002 0.4(2) 2_655 . . . ?
C00A S001 C008 C009 -179.2(2) 2_655 . . . ?
C002 C008 C009 C00G 0.7(4) . . . . ?
S001 C008 C009 C00G -179.72(19) . . . . ?
C008 C002 C00A C00A 0.1(4) . . . 2_655 ?
C006 C002 C00A C00A -178.7(3) . . . 2_655 ?
C008 C002 C00A S001 -179.6(2) . . . 2_655 ?
C006 C002 C00A S001 1.5(4) . . . 2_655 ?
C005 C004 C00B C003 178.4(2) . . . . ?
C00F C003 C00B C004 179.9(2) . . . . ?
C00D C005 C00C C007 0.3(4) . . . . ?
C004 C005 C00C C007 -179.5(2) . . . . ?
C006 C007 C00C C005 0.8(4) . . . . ?
C00G C007 C00C C005 -178.3(2) . . . . ?
C00C C005 C00D C00E -1.1(4) . . . . ?
C004 C005 C00D C00E 178.6(2) . . . . ?
C005 C00D C00E C006 0.9(4) . . . . ?
C007 C006 C00E C00D 0.3(4) . . . . ?
C002 C006 C00E C00D 178.9(2) . . . . ?
C00B C003 C00F C00H 179.6(2) . . . . ?
C008 C009 C00G C007 0.4(4) . . . . ?
C00C C007 C00G C009 178.6(2) . . . . ?
C006 C007 C00G C009 -0.4(4) . . . . ?
C003 C00F C00H C00I 179.6(2) . . . . ?
