#------------------------------------------------------------------------------
#$Date: 2020-02-06 01:18:33 +0200 (Thu, 06 Feb 2020) $
#$Revision: 247898 $
#$URL: file:///home/coder/svn-repositories/cod/cif/4/00/34/4003470.cif $
#------------------------------------------------------------------------------
#
# This file is available in the Crystallography Open Database (COD),
# http://www.crystallography.net/
#
# All data on this site have been placed in the public domain by the
# contributors.
#
data_4003470
loop_
_publ_author_name
'M\,aczka, Mirosl&#x0337;aw'
'Ptak, Maciej'
'G\,agor, Anna'
'Stefa\'nska, Dagmara'
'Zar\,eba, Jan K.'
'Sieradzki, Adam'
_publ_section_title
;
 Methylhydrazinium Lead Bromide: Noncentrosymmetric Three-Dimensional
 Perovskite with Exceptionally Large Framework Distortion and Green
 Photoluminescence
;
_journal_name_full               'Chemistry of Materials'
_journal_paper_doi               10.1021/acs.chemmater.9b05273
_journal_year                    2020
_chemical_formula_sum            'C H7 Br3 N2 Pb'
_chemical_formula_weight         494.01
_space_group_crystal_system      monoclinic
_space_group_IT_number           4
_space_group_name_Hall           'P 2yb'
_space_group_name_H-M_alt        'P 1 21 1'
_atom_sites_solution_hydrogens   mixed
_audit_creation_method           SHELXL-2018/3
_cell_angle_alpha                90
_cell_angle_beta                 92.361(2)
_cell_angle_gamma                90
_cell_formula_units_Z            4
_cell_length_a                   5.97010(10)
_cell_length_b                   11.8291(2)
_cell_length_c                   11.8582(2)
_cell_measurement_reflns_used    14030
_cell_measurement_temperature    293.52(10)
_cell_measurement_theta_max      32.2630
_cell_measurement_theta_min      3.4130
_cell_volume                     836.73(2)
_computing_cell_refinement       'CrysAlisPro 1.171.38.46 (Rigaku OD, 2015)'
_computing_data_collection       'CrysAlisPro 1.171.38.46 (Rigaku OD, 2015)'
_computing_data_reduction        'CrysAlisPro 1.171.38.46 (Rigaku OD, 2015)'
_computing_structure_refinement  'SHELXL-2018/3 (Sheldrick, 2018)'
_diffrn_ambient_environment      air
_diffrn_ambient_temperature      293.52(10)
_diffrn_detector                 'CCD plate'
_diffrn_detector_area_resol_mean 10.6249
_diffrn_detector_type            Atlas
_diffrn_measured_fraction_theta_full 0.998
_diffrn_measured_fraction_theta_max 0.998
_diffrn_measurement_device       'four-circle diffractometer'
_diffrn_measurement_device_type  'Xcalibur, Atlas'
_diffrn_radiation_monochromator  graphite
_diffrn_radiation_probe          x-ray
_diffrn_radiation_type           'Mo K\a'
_diffrn_radiation_wavelength     0.71073
_diffrn_reflns_av_R_equivalents  0.0347
_diffrn_reflns_av_unetI/netI     0.0211
_diffrn_reflns_Laue_measured_fraction_full 0.998
_diffrn_reflns_Laue_measured_fraction_max 0.998
_diffrn_reflns_limit_h_max       7
_diffrn_reflns_limit_h_min       -7
_diffrn_reflns_limit_k_max       14
_diffrn_reflns_limit_k_min       -14
_diffrn_reflns_limit_l_max       14
_diffrn_reflns_limit_l_min       -14
_diffrn_reflns_number            19426
_diffrn_reflns_point_group_measured_fraction_full 0.999
_diffrn_reflns_point_group_measured_fraction_max 0.999
_diffrn_reflns_theta_full        26.356
_diffrn_reflns_theta_max         26.356
_diffrn_reflns_theta_min         2.433
_diffrn_source                   'fine-focus sealed X-ray tube'
_diffrn_source_type              'Enhance (Mo) X-ray Source'
_exptl_absorpt_coefficient_mu    34.335
_exptl_absorpt_correction_T_max  0.335
_exptl_absorpt_correction_T_min  0.024
_exptl_absorpt_correction_type   gaussian
_exptl_absorpt_process_details
;
CrysAlisPro 1.171.38.46 (Rigaku Oxford Diffraction, 2015)
Numerical absorption correction based on gaussian integration over
			a multifaceted crystal model
Empirical absorption correction using spherical harmonics,
 implemented in SCALE3 ABSPACK scaling algorithm.
;
_exptl_crystal_colour            yellow
_exptl_crystal_density_diffrn    3.922
_exptl_crystal_description       plate
_exptl_crystal_F_000             856
_exptl_crystal_size_max          0.189
_exptl_crystal_size_mid          0.113
_exptl_crystal_size_min          0.034
_refine_diff_density_max         1.352
_refine_diff_density_min         -0.958
_refine_diff_density_rms         0.175
_refine_ls_abs_structure_details
;
 Flack x determined using 1535 quotients [(I+)-(I-)]/[(I+)+(I-)]
 (Parsons, Flack and Wagner, Acta Cryst. B69 (2013) 249-259).
;
_refine_ls_abs_structure_Flack   -0.013(4)
_refine_ls_extinction_coef       0.00236(13)
_refine_ls_extinction_expression Fc^*^=kFc[1+0.001xFc^2^\l^3^/sin(2\q)]^-1/4^
_refine_ls_extinction_method     'SHELXL-2018/3 (Sheldrick 2018)'
_refine_ls_goodness_of_fit_ref   1.099
_refine_ls_hydrogen_treatment    constr
_refine_ls_matrix_type           full
_refine_ls_number_parameters     132
_refine_ls_number_reflns         3415
_refine_ls_number_restraints     1
_refine_ls_restrained_S_all      1.099
_refine_ls_R_factor_all          0.0185
_refine_ls_R_factor_gt           0.0176
_refine_ls_shift/su_max          0.006
_refine_ls_shift/su_mean         0.000
_refine_ls_structure_factor_coef Fsqd
_refine_ls_weighting_details
'w=1/[\s^2^(Fo^2^)+(0.0212P)^2^+0.2641P] where P=(Fo^2^+2Fc^2^)/3'
_refine_ls_weighting_scheme      calc
_refine_ls_wR_factor_gt          0.0399
_refine_ls_wR_factor_ref         0.0401
_reflns_Friedel_coverage         0.905
_reflns_Friedel_fraction_full    1.000
_reflns_Friedel_fraction_max     1.000
_reflns_number_gt                3331
_reflns_number_total             3415
_reflns_threshold_expression     'I > 2\s(I)'
_cod_data_source_file            cm9b05273_si_003.cif
_cod_data_source_block           Phase_II
_cod_original_sg_symbol_H-M      'P 21'
_cod_database_code               4003470
_shelx_shelxl_version_number     2018/3
_shelx_space_group_comment
;
The symmetry employed for this shelxl refinement is uniquely defined
by the following loop, which should always be used as a source of
symmetry information in preference to the above space-group names.
They are only intended as comments.
;
_oxdiff_exptl_absorpt_empirical_full_min 0.872
_oxdiff_exptl_absorpt_empirical_full_max 1.101
_oxdiff_exptl_absorpt_empirical_details
;
Empirical correction (ABSPACK) includes:
- Absorption correction using spherical harmonics
- Frame scaling
;
_shelx_res_file
;

TITL mhy_pbbr3_1503_a.res in P2(1)
    abs.res
    created by SHELXL-2018/3 at 11:24:25 on 21-Oct-2019
REM Old TITL MHy_PbBr3_1503 in P2(1)
REM SHELXT solution in P2(1)
REM R1 0.079, Rweak 0.028, Alpha 0.001, Orientation as input
REM Flack x = 0.025 ( 0.011 ) from Parsons' quotients
REM Formula found by SHELXT: N Br3 Pb
CELL 0.71073 5.9701 11.8291 11.8582 90 92.361 90
ZERR 4 0.0001 0.0002 0.0002 0 0.002 0
LATT -1
SYMM -X,0.5+Y,-Z
SFAC C H N Br Pb
UNIT 4 28 8 12 4

L.S. 20
PLAN  20
BOND $H
list 4
fmap 2
ACTA 56
omit 0 0 4
omit -2 0 6
shel 10 0.8
htab
EQIV $7 -x, y-1/2, -z+1
HTAB C1 Br4_$7
HTAB C1 Br4
EQIV $1 x-1, y, z
HTAB C1 Br5_$1
EQIV $8 -x+1, y-1/2, -z+2
HTAB N1 Br1_$8
HTAB N1 Br2
HTAB N1 Br5
HTAB N2 Br6_$1
HTAB N2 Br2_$1
EQIV $9 -x, y-1/2, -z+2
HTAB C2 Br6_$9
EQIV $10 x-1, y, z+1
HTAB C2 Br5_$10
HTAB N3 Br1_$1
HTAB N3 Br3_$10
EQIV $5 x, y, z+1
HTAB N3 Br3_$5
HTAB N4 Br1_$8
HTAB N4 Br2_$1
WGHT    0.021200    0.264100
EXTI    0.002364
FVAR       1.98704
PB1   5    0.510110    0.493918    0.512040    11.00000    0.02011    0.01828 =
         0.01950    0.00071    0.00110   -0.00018
PB2   5    0.408287    0.464840    1.002976    11.00000    0.02709    0.02573 =
         0.02276   -0.00176   -0.00048    0.00234
BR1   4    0.905060    0.539596    1.032971    11.00000    0.02002    0.02873 =
         0.04269   -0.00341    0.00147   -0.00082
BR2   4    0.618743    0.241152    0.985170    11.00000    0.02759    0.02018 =
         0.05922    0.00027    0.00783    0.00244
BR3   4    0.502514    0.479415    0.258381    11.00000    0.04758    0.06065 =
         0.01895   -0.00266    0.00036   -0.00708
BR4   4    0.012714    0.477629    0.517765    11.00000    0.01981    0.04389 =
         0.07991    0.00926    0.00304    0.00151
BR5   4    0.475976    0.245018    0.523190    11.00000    0.04768    0.01841 =
         0.08249   -0.00039    0.01131   -0.00094
BR6   4    0.542415    0.509142    0.761278    11.00000    0.05980    0.07274 =
         0.01757    0.00236    0.00300   -0.00557
C1    1   -0.006868    0.206434    0.703793    11.00000    0.05278    0.04950 =
         0.03033   -0.00646   -0.00559   -0.00941
AFIX 137
H1A   2   -0.116664    0.170101    0.748313    11.00000   -1.50000
H1B   2    0.059241    0.151728    0.655464    11.00000   -1.50000
H1C   2   -0.077640    0.264700    0.658641    11.00000   -1.50000
AFIX   0
N1    3    0.167946    0.256487    0.778571    11.00000    0.03505    0.05069 =
         0.02956   -0.00906    0.00408    0.00404
AFIX  23
H1D   2    0.223174    0.202674    0.824209    11.00000   -1.20000
H1E   2    0.278825    0.280140    0.736538    11.00000   -1.20000
AFIX   0
N2    3    0.098150    0.348569    0.845971    11.00000    0.03954    0.03800 =
         0.04489   -0.01010    0.00097    0.00152
AFIX   7
H2A   2   -0.010250    0.383830    0.809544    11.00000   -1.20000
H2B   2    0.047040    0.325539    0.909677    11.00000   -1.20000
AFIX   0

C2    1   -0.056296    0.235301    1.297719    11.00000    0.05998    0.04352 =
         0.04327    0.00395    0.01539   -0.01005
AFIX 137
H20A  2   -0.151759    0.184733    1.254466    11.00000   -1.50000
H20B  2   -0.139568    0.269012    1.356561    11.00000   -1.50000
H20C  2    0.068529    0.194000    1.330539    11.00000   -1.50000
AFIX   0

N3    3    0.026174    0.324272    1.223665    11.00000    0.04098    0.04789 =
         0.04917   -0.00117    0.01272    0.00430
AFIX  23
H3A   2   -0.091260    0.361994    1.194259    11.00000   -1.20000
H3B   2    0.107606    0.372680    1.265644    11.00000   -1.20000
AFIX   0

N4    3    0.158738    0.286142    1.133265    11.00000    0.04638    0.04173 =
         0.04257   -0.00719    0.01432   -0.00265
AFIX   7
H4A   2    0.275730    0.249445    1.160103    11.00000   -1.20000
H4B   2    0.081348    0.240828    1.088710    11.00000   -1.20000

AFIX   0
HKLF 4




REM  mhy_pbbr3_1503_a.res in P2(1)
REM wR2 = 0.0401, GooF = S = 1.099, Restrained GooF = 1.099 for all data
REM R1 = 0.0176 for 3331 Fo > 4sig(Fo) and 0.0185 for all 3415 data
REM 132 parameters refined using 1 restraints

END

WGHT      0.0188      0.3751

REM Instructions for potential hydrogen bonds
HTAB C1 Br4_$7
HTAB C1 Br4
HTAB C1 Br5_$1
HTAB N1 Br1_$8
HTAB N1 Br2
HTAB N1 Br5
HTAB N2 Br6_$1
HTAB N2 Br2_$1
HTAB C2 Br6_$9
HTAB C2 Br5_$10
HTAB N3 Br1_$1
HTAB N3 Br3_$10
HTAB N3 Br3_$5
HTAB N4 Br1_$8
HTAB N4 Br2_$1

REM Highest difference peak  1.352,  deepest hole -0.958,  1-sigma level  0.175
Q1    1   0.3747  0.4749  0.4991  11.00000  0.05    1.35
Q2    1   0.5455  0.4881  1.0035  11.00000  0.05    1.23
Q3    1   0.6639  0.4884  0.5171  11.00000  0.05    1.23
Q4    1   0.2671  0.4803  0.9929  11.00000  0.05    0.79
Q5    1   0.6954  0.4816  1.0212  11.00000  0.05    0.78
Q6    1   0.1816  0.4791  0.5174  11.00000  0.05    0.65
Q7    1  -0.1619  0.4946  0.5043  11.00000  0.05    0.64
Q8    1   1.0195  0.4821  1.0299  11.00000  0.05    0.60
Q9    1   0.8349  0.4586  0.9833  11.00000  0.05    0.58
Q10   1   0.9748  0.5223  0.9573  11.00000  0.05    0.55
Q11   1   0.4614  0.2438  0.4556  11.00000  0.05    0.53
Q12   1   0.4317  0.2274  0.9641  11.00000  0.05    0.49
Q13   1   0.1456  0.4784  0.9693  11.00000  0.05    0.48
Q14   1   0.6488  0.2396  0.5279  11.00000  0.05    0.47
Q15   1   0.3456  0.4767  0.2467  11.00000  0.05    0.47
Q16   1   0.9750  0.4508  1.0961  11.00000  0.05    0.46
Q17   1   1.0381  0.6415  1.1041  11.00000  0.05    0.44
Q18   1   0.6797  0.4596  0.2326  11.00000  0.05    0.42
Q19   1   0.0021  0.5544  0.5441  11.00000  0.05    0.41
Q20   1   0.5026  0.2254  1.0331  11.00000  0.05    0.41
;
_shelx_res_checksum              46147
_shelx_hkl_file
;
   0 -17   0 525.714 613.966   2
   0 -17  -1-358.923 693.620   2
   0 -17   1-567.188 579.603   2
   0 -17   2 39.2866 348.362   1
   0 -17   2-72.3237 543.844   2
   0 -17   3 1463.67 671.514   2
   0 -17   3 882.753 426.453   1
   0 -17   4 1274.88 476.763   1
   0 -17   4 1309.22 594.261   2
   0 -17   5 292.771 389.637   1
   0 -16   0 8836.01 1135.18   2
   0 -16  -1 21217.6 1660.04   2
   0 -16   1 20037.9 1502.28   2
   0 -16   2 6944.99 701.194   1
   0 -16  -2 7315.71 1072.76   2
   0 -16   2 6649.26 906.957   2
   0 -16  -3 16856.8 1578.18   2
   0 -16   3 15856.6 1256.57   2
   0 -16   3 15682.3 1026.89   1
   0 -16   3 18761.6 1192.74   8
   0 -16  -4 4594.06 988.822   2
   0 -16   4 3922.72 697.878   2
   0 -16   4 4567.33 627.611   1
   0 -16   4 5599.49 746.361   8
   0 -16   5 13169.9 1061.43   8
   0 -16   5 11903.3 927.814   1
   0 -16   5 12289.9 1058.60   2
   0 -16  -5 11322.9 1456.68   2
   0 -16   6 812.727 450.633   1
   0 -16   7 8101.75 813.414   1
   0 -15   0 134.507 484.982   2
   0 -15  -1 737.711 619.250   2
   0 -15   1 54.8448 544.253   2
   0 -15   2 900.107 563.396   2
   0 -15  -2-416.153 588.998   2
   0 -15   3 1632.43 423.108   1
   0 -15  -3 393.895 587.276   2
   0 -15   3 1122.51 528.632   2
   0 -15   4 702.639 430.003   8
   0 -15  -4-233.576 691.566   2
   0 -15   4 691.524 387.021   1
   0 -15   4 1815.32 577.583   2
   0 -15   5 4012.50 643.183   8
   0 -15   5 4737.39 675.033   2
   0 -15   5 4343.23 592.920   1
   0 -15  -5 5086.40 989.456   2
   0 -15  -6 1313.77 752.700   2
   0 -15   6 811.315 421.546   1
   0 -15   6 759.387 465.892   8
   0 -15   6 724.627 440.556   2
   0 -15   7 2812.72 555.726   1
   0 -15   7 3562.40 656.475   8
   0 -15  -7 3969.95 1133.48   2
   0 -15   8 1300.96 509.977   1
   0 -15   9 3648.17 673.681   1
   0 -14   0 10615.6 1105.91   2
   0 -14  -1 35432.0 1991.54   2
   0 -14   1 34097.1 1845.41   2
   0 -14  -2 7999.64 1046.58   2
   0 -14   2 7533.39 872.078   2
   0 -14   3 31315.8 1647.49   2
   0 -14   3 31098.7 1368.54   1
   0 -14  -3 30992.5 2010.89   2
   0 -14   4 6463.49 758.782   2
   0 -14  -4 7358.57 1170.28   2
   0 -14   4 7445.13 674.549   1
   0 -14   4 7787.07 748.160   8
   0 -14   5 25657.5 1399.62   2
   0 -14   5 25969.6 1364.12   8
   0 -14   5 22639.6 1185.47   1
   0 -14  -5 23413.8 1871.34   2
   0 -14   6 3651.88 580.309   2
   0 -14  -6 3279.97 985.784   2
   0 -14   6 3013.88 606.293   8
   0 -14   6 2893.29 504.378   1
   0 -14   7 16357.9 1159.39   8
   0 -14  -7 18232.4 1800.96   2
   0 -14   7 15649.1 1037.00   1
   0 -14  -8 2145.00 919.472   2
   0 -14   8 1941.60 532.696   1
   0 -14   8 1176.44 511.310   8
   0 -14   9 12113.4 1034.44   1
   0 -14  -9 10545.8 1441.02   2
   0 -14   9 11569.1 1064.85   8
   0 -14  10 696.393 490.779   1
   0 -13   0 85.9437 429.398   2
   0 -13   1 472.587 456.346   2
   0 -13  -1-444.089 545.457   2
   0 -13   2 1109.74 492.563   2
   0 -13  -2 312.874 561.118   2
   0 -13  -3 5629.81 976.074   2
   0 -13   3 4893.38 681.753   2
   0 -13   3 5820.33 559.281   1
   0 -13   4 1074.21 317.638   1
   0 -13   4 1565.59 452.981   8
   0 -13  -4 1250.77 729.685   2
   0 -13   4 987.442 424.651   2
   0 -13  -5 3716.24 859.344   2
   0 -13   5 3960.90 508.751   1
   0 -13   5 4369.66 602.676   2
   0 -13   5 4012.46 590.599   8
   0 -13  -6 1737.45 774.811   2
   0 -13   6 1231.25 437.065   8
   0 -13   6 895.313 379.685   1
   0 -13   6 2224.35 479.087   2
   0 -13   7 6820.82 714.051   1
   0 -13   7 9675.69 774.104   2
   0 -13  -7 10008.0 1380.24   2
   0 -13   7 8083.44 822.322   8
   0 -13   8 1830.58 503.917   1
   0 -13  -8 1585.77 845.308   2
   0 -13   8 1810.92 553.020   8
   0 -13   9 6031.85 767.143   1
   0 -13  -9 6486.29 1157.32   2
   0 -13   9 5377.69 771.371   8
   0 -13  10 1539.88 556.880   1
   0 -13  10 2816.26 718.659   8
   0 -13 -10 2046.37 827.957   2
   0 -13 -11 6110.33 1020.51   2
   0 -13  11 4795.27 780.361   1
   0 -12   0 39699.4 1920.31   2
   0 -12  -1 61766.9 2573.55   2
   0 -12   1 60366.3 2391.07   2
   0 -12   2 28804.9 1498.32   2
   0 -12  -2 28373.8 1741.61   2
   0 -12  -3 52408.5 2515.97   2
   0 -12   3 51961.8 1738.56   1
   0 -12   3 52542.8 2058.12   2
   0 -12   4 31037.7 1354.78   8
   0 -12   4 28986.8 1423.76   2
   0 -12   4 29976.6 1240.39   1
   0 -12  -4 32891.7 2029.49   2
   0 -12   5 34357.2 1514.08   2
   0 -12  -5 29874.7 2005.99   2
   0 -12   5 34268.5 1477.68   8
   0 -12   5 33435.1 1354.94   1
   0 -12   6 11869.1 806.894   1
   0 -12   6 11891.9 878.545   8
   0 -12  -6 12071.5 1387.67   2
   0 -12   6 13698.7 901.061   2
   0 -12  -7 27253.4 2068.89   2
   0 -12   7 26998.7 1254.20   2
   0 -12   7 24025.7 1229.17   1
   0 -12   7 25202.9 1343.73   8
   0 -12  -8 12280.0 1524.45   2
   0 -12   8 10503.8 910.575   8
   0 -12   8 11877.9 899.770   1
   0 -12   9 8939.60 896.249   8
   0 -12   9 9067.28 861.633   1
   0 -12  -9 10208.0 1287.43   2
   0 -12 -10 4598.63 860.262   2
   0 -12  10 4591.26 722.953   1
   0 -12  10 4733.37 749.655   8
   0 -12  11 6561.78 866.230   1
   0 -12 -11 8793.22 1099.24   2
   0 -12  11 8108.77 968.317   8
   0 -12 -12 3279.89 766.284   2
   0 -12  12 3036.53 720.773   1
   0 -12 -13 1820.99 623.223   2
   0 -11   0 913.093 458.780   2
   0 -11   1 2347.35 509.416   2
   0 -11  -1 1603.81 549.732   2
   0 -11   2 604.548 406.612   2
   0 -11  -2 1391.76 564.391   2
   0 -11  -3 5515.37 876.712   2
   0 -11   3 5648.63 627.222   2
   0 -11   4 301.551 329.034   2
   0 -11   4 511.013 271.938   1
   0 -11   4 403.984 343.431   8
   0 -11  -4-395.133 578.917   2
   0 -11  -5 10511.5 1178.27   2
   0 -11   5 11551.8 805.950   2
   0 -11   5 11597.6 721.521   1
   0 -11   5 12159.9 817.829   8
   0 -11  -6 109.188 582.548   2
   0 -11   6 703.226 334.485   2
   0 -11   6 543.377 285.555   1
   0 -11   6 749.524 400.671   8
   0 -11  -7 12187.4 1428.06   2
   0 -11   7 11040.9 847.582   8
   0 -11   7 12828.3 787.577   2
   0 -11   7 10843.8 772.269   1
   0 -11   8 1741.10 353.118   2
   0 -11   8 1621.68 434.930   1
   0 -11   8 918.359 456.219   8
   0 -11  -8 712.070 771.987   2
   0 -11   9 13247.6 977.316   1
   0 -11  -9 12087.1 1344.25   2
   0 -11   9 12161.6 999.149   8
   0 -11 -10 1903.40 650.548   2
   0 -11  10 1820.02 579.958   8
   0 -11  10 708.826 441.155   1
   0 -11 -11 8733.66 1047.60   2
   0 -11  11 8872.62 1021.77   8
   0 -11  11 8411.87 951.983   1
   0 -11  12 3389.91 736.905   8
   0 -11  12 2718.28 712.616   1
   0 -11 -12 2137.67 656.748   2
   0 -11  13 5087.86 877.387   1
   0 -11 -13 6062.21 855.987   2
   0 -11 -14 1365.16 504.728   2
   0 -10   0 27198.1 1417.72   2
   0 -10   0 26491.8 824.132   3
   0 -10  -1 76075.2 1845.62   6
   0 -10  -1 73460.2 2663.74   2
   0 -10   1 69662.5 2447.81   2
   0 -10  -1 69534.3 1676.77   3
   0 -10   2 30455.1 1380.27   2
   0 -10  -2 27170.6 778.724   6
   0 -10  -2 28436.5 1617.55   2
   0 -10  -3 61824.4 1435.99   6
   0 -10   3 62152.3 2129.57   2
   0 -10  -3 62899.8 2615.01   2
   0 -10   4 21960.4 1027.97   8
   0 -10   4 21893.5 944.441   1
   0 -10   4 22020.8 1104.61   2
   0 -10  -4 24433.7 1626.55   2
   0 -10  -5 45625.4 2373.35   2
   0 -10   5 47522.7 1699.23   2
   0 -10   5 46636.2 1665.81   8
   0 -10   5 46699.7 1579.86   1
   0 -10   6 17246.8 891.250   1
   0 -10   6 17623.1 917.730   2
   0 -10  -6 19059.9 1570.95   2
   0 -10   6 16554.5 956.487   8
   0 -10  -7 33492.5 2164.18   2
   0 -10   7 30810.2 1325.09   1
   0 -10   7 32306.4 1273.57   2
   0 -10   7 30490.3 1407.83   8
   0 -10   8 17708.2 891.763   2
   0 -10   8 16953.0 1027.46   1
   0 -10   8 16275.4 1064.80   8
   0 -10   9 15346.5 1043.15   1
   0 -10   9 16816.0 1150.67   8
   0 -10  10 6789.61 809.955   8
   0 -10  10 7815.85 817.333   1
   0 -10 -10 9008.85 1052.73   2
   0 -10  11 13855.8 1195.01   8
   0 -10 -11 11108.1 1087.25   2
   0 -10  11 11303.7 1074.63   1
   0 -10  12 8129.54 990.605   8
   0 -10 -12 8860.98 966.980   2
   0 -10  12 7742.06 978.477   1
   0 -10  13 3003.01 762.802   1
   0 -10  13 4542.86 901.887   8
   0 -10 -13 4762.30 759.044   2
   0 -10 -14 1994.76 561.345   2
   0 -10  14 2094.90 757.984   1
   0  -9   0 460.688 413.206   2
   0  -9   0-42.1688 101.027   3
   0  -9   1 1718.35 407.753   2
   0  -9  -1 1915.63 529.153   2
   0  -9  -1 1406.14 168.741   6
   0  -9  -1 1513.57 126.433   3
   0  -9  -2 236.739 85.3433   6
   0  -9  -2-206.364 381.981   2
   0  -9   2 188.717 285.933   2
   0  -9   3 21301.4 1031.67   2
   0  -9  -3 18562.7 513.761   6
   0  -9   3 19235.3 547.694   4
   0  -9  -3 20707.0 1376.69   2
   0  -9   4 2267.42 299.333   1
   0  -9  -4 3088.21 680.404   2
   0  -9   4 2393.90 386.828   2
   0  -9   4 2532.02 225.603   4
   0  -9   4 3184.45 415.056   8
   0  -9  -5 12290.3 1200.76   2
   0  -9   5 12749.6 693.128   1
   0  -9   5 13048.3 769.801   8
   0  -9   5 12551.3 731.786   2
   0  -9   6 531.176 319.110   8
   0  -9   6 381.697 258.352   1
   0  -9  -6 1182.15 705.915   2
   0  -9   6 293.744 225.930   2
   0  -9  -7 28496.8 1942.42   2
   0  -9   7 28123.0 1116.95   2
   0  -9   7 26580.3 1194.12   1
   0  -9   7 27324.8 1278.49   8
   0  -9  -8 6761.10 1082.30   2
   0  -9   8 5877.29 484.603   2
   0  -9   8 5997.30 614.549   1
   0  -9   8 5798.33 631.743   8
   0  -9  -9 14598.5 1309.05   2
   0  -9   9 12423.0 931.793   1
   0  -9  -9 12794.7 1012.44   4
   0  -9   9 13231.2 1013.97   8
   0  -9  10 642.204 436.125   1
   0  -9 -10 1256.64 567.225   4
   0  -9 -10 1522.60 623.410   2
   0  -9  11 11094.1 1056.39   1
   0  -9 -11 12032.3 1095.86   2
   0  -9  11 13662.8 1141.25   8
   0  -9 -11 14273.5 1171.45   4
   0  -9  12 5807.71 871.377   8
   0  -9 -12 6098.08 801.110   4
   0  -9  12 5599.45 883.635   1
   0  -9 -12 6895.67 867.641   2
   0  -9 -13 5373.00 750.647   2
   0  -9 -13 5085.26 740.956   4
   0  -9  13 4902.97 881.209   1
   0  -9  13 4069.66 814.860   8
   0  -9 -14 2038.75 560.418   2
   0  -9  14 1757.04 658.022   8
   0  -9  14 2710.07 785.414   1
   0  -9  15 4478.53 843.935   1
   0  -8   0 208153. 4693.41   3
   0  -8   0 213933. 5420.55   2
   0  -8  -1 76563.5 1735.17   6
   0  -8  -1 72914.0 2435.43   2
   0  -8   1 76343.6 2294.55   2
   0  -8   1 74325.0 1878.46   3
   0  -8  -2 95900.9 3073.79   2
   0  -8  -2 91930.4 2059.40   6
   0  -8   3 62077.8 1444.15   4
   0  -8  -3 54676.2 1316.88   6
   0  -8  -3 59651.5 2363.08   2
   0  -8   3 66906.8 1953.23   2
   0  -8   4 154619. 3818.80   8
   0  -8   4 150929. 3877.42   2
   0  -8   4 149902. 3709.02   1
   0  -8   4 149578. 3600.72   4
   0  -8   5 36240.8 1100.64  11
   0  -8   5 35879.5 1261.04   1
   0  -8   5 38119.5 1323.50   2
   0  -8  -5 38835.0 2018.75   2
   0  -8   5 37781.7 1359.01   8
   0  -8   6 56274.8 1794.68   1
   0  -8  -6 59890.2 1920.57   4
   0  -8   6 56220.6 1881.13   8
   0  -8   6 54724.6 1427.06  11
   0  -8   6 59119.6 1763.91   2
   0  -8   7 32811.7 1193.93   2
   0  -8  -7 34170.5 1499.65   4
   0  -8  -7 37489.5 2167.44   2
   0  -8   7 34408.6 1359.90   1
   0  -8   7 32925.7 1417.32   8
   0  -8   8 63036.9 2256.87   8
   0  -8  -8 66562.3 2479.42   4
   0  -8   8 62213.3 2177.39   1
   0  -8  -9 12016.6 1166.44   2
   0  -8  -9 12509.2 1085.94   4
   0  -8   9 11122.8 875.286   1
   0  -8   9 11477.6 946.673   8
   0  -8  10 21553.1 1350.50   8
   0  -8 -10 23464.4 1503.72   2
   0  -8 -10 24216.0 1478.21   4
   0  -8  10 19762.9 1282.64   1
   0  -8 -11 15673.4 1193.32   2
   0  -8  11 15470.4 1234.57   8
   0  -8 -11 15756.3 1168.57   4
   0  -8  11 15621.1 1206.38   1
   0  -8  12 19241.7 1448.35   1
   0  -8 -12 21623.5 1359.29   2
   0  -8  12 21171.2 1521.14   8
   0  -8 -12 20237.8 1335.33   4
   0  -8 -13 4627.68 696.040   2
   0  -8  13 2460.68 757.307   1
   0  -8  13 1577.25 634.732   8
   0  -8 -13 3690.55 684.942   4
   0  -8  14 6301.99 1038.97   8
   0  -8 -14 6860.18 772.467   2
   0  -8  14 6896.54 980.745   1
   0  -8 -14 5738.91 767.024   4
   0  -8 -14 4211.24 843.860  10
   0  -8  15 5994.07 880.142   1
   0  -8 -15 5624.18 770.650   4
   0  -8 -15 4661.60 840.196  10
   0  -8  15 5483.51 949.105   8
   0  -8  16 5240.99 858.847   1
   0  -7   0 117.311 96.1864   7
   0  -7   0 510.629 320.427   2
   0  -7   0 314.922 109.448   3
   0  -7  -1 7842.24 283.524   3
   0  -7   1 8038.43 616.738   2
   0  -7   1 8591.55 460.635   3
   0  -7   1 8745.16 407.962   7
   0  -7  -1 8304.46 350.117   6
   0  -7  -1 7513.83 359.923   7
   0  -7  -1 8418.16 704.402   2
   0  -7  -2-148.583 385.178   2
   0  -7   2 150.970 243.713   2
   0  -7  -2 265.234 108.741   7
   0  -7   2 276.263 65.7231   4
   0  -7  -2 161.894 65.1921   6
   0  -7  -3 13529.9 1021.47   2
   0  -7   3 13567.4 529.993   1
   0  -7   3 12837.9 654.056   2
   0  -7  -4 6703.94 832.369   2
   0  -7   4 6780.52 434.786   1
   0  -7   4 6611.70 468.799   2
   0  -7   4 6779.56 496.288   8
   0  -7  -4 7021.50 431.356   4
   0  -7   4 5403.33 402.614   4
   0  -7  -5 14392.8 760.838   4
   0  -7   5 13373.8 657.446   2
   0  -7   5 12177.7 483.697  11
   0  -7  -5 15501.7 1254.24   2
   0  -7   5 12804.1 651.881   1
   0  -7   5 12563.7 707.409   8
   0  -7   6 3637.53 354.552   2
   0  -7   6 3369.92 181.358  11
   0  -7  -6 3612.78 480.138   4
   0  -7   6 3513.11 407.235   1
   0  -7  -6 2626.22 711.425   2
   0  -7   6 3504.60 426.803   8
   0  -7  -7 19036.6 1169.84   4
   0  -7   7 17275.2 969.704   8
   0  -7   7 18216.7 776.006   2
   0  -7   7 17886.5 926.185   1
   0  -7  -7 19967.4 1563.35   2
   0  -7   8 9246.91 735.169   1
   0  -7  -8 9884.51 962.873   4
   0  -7  -8 10446.5 1086.30   2
   0  -7   8 9674.43 790.364   8
   0  -7  -9 15722.4 1149.11   4
   0  -7   9 16200.4 1052.77   1
   0  -7   9 15453.4 1065.66   8
   0  -7  -9 18554.7 1300.79   2
   0  -7 -10 2867.49 591.271   4
   0  -7  10 3837.95 671.364   8
   0  -7 -10 4058.58 675.955   2
   0  -7  10 2255.71 531.750   1
   0  -7  11 10459.1 1037.33   8
   0  -7 -11 11444.2 978.731   2
   0  -7  11 10895.5 1030.30   1
   0  -7 -11 10786.7 956.049   4
   0  -7 -12 11633.6 957.727   2
   0  -7  12 11260.6 1159.84   8
   0  -7  12 11573.3 1131.31   1
   0  -7 -12 10483.0 953.575   4
   0  -7 -13 7404.17 761.583   2
   0  -7 -13 7652.30 833.901   4
   0  -7  13 7869.99 1051.76   1
   0  -7  13 6046.80 965.538   8
   0  -7 -14 3640.68 563.768   2
   0  -7  14 2637.84 688.909   1
   0  -7 -14 3064.26 631.949   4
   0  -7 -14 2364.14 666.091  10
   0  -7  15 6120.18 878.568   1
   0  -7  15 3817.17 784.224   8
   0  -7 -15 4730.37 826.924  10
   0  -7 -15 4144.30 688.518   4
   0  -7  16 7763.59 941.864   1
   0  -7 -16 6818.58 839.895   4
   0  -6   0 119366. 2773.28   7
   0  -6   0 120735. 2789.15   3
   0  -6   0 123915. 3286.68   2
   0  -6  -1 42396.5 1620.59   2
   0  -6  -1 43344.7 1126.46   7
   0  -6  -1 44456.3 1110.01   6
   0  -6   1 41279.4 1277.32   3
   0  -6  -1 41611.5 1020.88   3
   0  -6   1 45669.4 1501.35   2
   0  -6   1 44682.4 1177.45   7
   0  -6  -2 38088.0 1045.24   7
   0  -6   2 42154.6 1346.95   2
   0  -6   2 37153.8 965.291   4
   0  -6  -2 36624.5 909.272   6
   0  -6  -2 39262.1 1625.95   2
   0  -6   2 39585.0 1384.11   3
   0  -6   2 40355.8 1137.00   7
   0  -6  -3 49584.3 1982.87   2
   0  -6   3 44721.8 1346.10   4
   0  -6  -3 50627.2 1325.64   7
   0  -6   3 49582.8 1485.60   2
   0  -6   3 47344.3 1348.48   1
   0  -6  -3 48261.0 1314.29   4
   0  -6  -4 106877. 2837.11   4
   0  -6   4 107941. 2879.33   4
   0  -6   4 105336. 2679.54   1
   0  -6   4 105686. 2728.36   2
   0  -6  -4 114142. 3530.43   2
   0  -6   4 109764. 2768.20   8
   0  -6   5 27909.1 1011.61   1
   0  -6   5 28613.1 1082.69   8
   0  -6   5 26438.8 749.311  11
   0  -6  -5 27114.5 1222.97   4
   0  -6  -5 30143.5 1619.35   2
   0  -6   5 28558.6 974.008   2
   0  -6  -6 35190.5 1553.82   4
   0  -6  -6 36971.1 1872.80   2
   0  -6   6 35756.9 1209.95   1
   0  -6   6 33778.8 1247.11   8
   0  -6   6 33797.9 1039.94   2
   0  -6   7 31809.3 1310.84   1
   0  -6  -7 33885.0 1930.36   2
   0  -6  -7 35883.2 1765.77   4
   0  -6   7 31893.9 1350.90   8
   0  -6   8 86649.4 2687.44   1
   0  -6  -8 86366.7 3149.70   2
   0  -6   8 82611.5 2686.91   8
   0  -6  -8 82808.1 2971.30   4
   0  -6  -9 14308.2 1080.38   4
   0  -6   9 14296.0 1001.50   1
   0  -6   9 15298.0 1049.13   8
   0  -6  -9 15101.3 1134.37   2
   0  -6 -10 22602.4 1323.64   2
   0  -6  10 21964.0 1373.25   8
   0  -6  10 21585.1 1350.55   1
   0  -6 -10 23505.9 1366.68   4
   0  -6 -11 17741.0 1200.08   4
   0  -6  11 17734.5 1295.58   1
   0  -6 -11 20155.2 1214.43   2
   0  -6  11 17058.4 1314.28   8
   0  -6 -12 35203.1 1628.39   2
   0  -6  12 34131.1 1958.82   1
   0  -6  12 32546.1 1949.07   8
   0  -6 -12 32229.6 1683.66   4
   0  -6 -13 4924.18 647.625   2
   0  -6  13 3803.33 862.758   8
   0  -6  13 4504.46 781.434   1
   0  -6 -13 3346.96 618.956   4
   0  -6 -14 8392.63 883.526   4
   0  -6 -14 8856.50 791.350   2
   0  -6  14 9135.96 1021.72   1
   0  -6  14 8970.05 1067.89   8
   0  -6 -14 7492.95 978.354  10
   0  -6  15 8399.72 1038.62   8
   0  -6 -15 8930.52 918.490   4
   0  -6 -15 5844.07 917.457  10
   0  -6  15 7329.40 916.424   1
   0  -6 -16 8688.75 926.495   4
   0  -6 -16 8700.04 1020.33  10
   0  -6  16 7471.13 965.834   8
   0  -6  16 7067.41 892.081   1
   0  -5   0 50.2698 69.5007   7
   0  -5   0 84.9759 228.456   5
   0  -5   0 433.041 269.811   2
   0  -5   0 160.355 95.7607   3
   0  -5   0 126.585 100.861  10
   0  -5   1 1237.61 278.135   2
   0  -5   1 1034.32 234.995   5
   0  -5   1 1120.54 73.9151   4
   0  -5  -1 1208.45 120.600   6
   0  -5   1 1207.36 148.949  10
   0  -5  -1 924.526 138.168  10
   0  -5  -1 1063.92 346.410   2
   0  -5   1 1268.51 150.158   7
   0  -5  -1 1452.10 142.078   7
   0  -5  -1 1170.60 87.4396   3
   0  -5   1 1102.80 211.167   3
   0  -5   2 4245.51 276.937   7
   0  -5  -2 4399.46 271.093  10
   0  -5  -2 3893.68 231.704   7
   0  -5  -2 3872.83 151.604   6
   0  -5   2 4138.47 354.170   2
   0  -5   2 3765.44 234.664   4
   0  -5  -2 4359.46 564.585   2
   0  -5   2 3851.25 405.708   3
   0  -5  -3 28904.2 995.865   4
   0  -5   3 27493.3 1000.19   4
   0  -5   3 28787.2 969.540   2
   0  -5   3 28980.0 899.080   1
   0  -5  -3 29562.8 1388.59   2
   0  -5   3 28482.0 944.838   8
   0  -5   4 20321.7 750.532   1
   0  -5  -4 20112.9 1198.08   2
   0  -5   4 19660.0 734.630   2
   0  -5   4 20885.1 1004.16   4
   0  -5   4 19853.0 601.455  11
   0  -5   4 21064.8 813.578   8
   0  -5  -4 17977.0 923.369   4
   0  -5  -5 17836.5 1057.18   4
   0  -5   5 19240.3 830.871   8
   0  -5  -5 17825.2 1161.72   2
   0  -5   5 18780.5 775.981   1
   0  -5   5 17272.2 472.303  11
   0  -5   5 18124.7 685.483   2
   0  -5  -6 8088.46 892.975   2
   0  -5   6 8412.40 566.256   1
   0  -5   6 7677.83 574.604   8
   0  -5  -6 8346.80 867.602   4
   0  -5   7 37638.7 1470.92   1
   0  -5   7 37257.4 1493.14   8
   0  -5  -7 40794.8 1989.17   2
   0  -5  -7 38552.2 1787.36   4
   0  -5   8 33423.0 1513.69   8
   0  -5   8 34383.0 1313.74   9
   0  -5  -8 36390.6 1689.91   4
   0  -5  -8 34649.7 1373.25   9
   0  -5  -8 36979.5 1750.41   2
   0  -5   8 36597.5 1548.17   1
   0  -5   9 10038.0 886.438   1
   0  -5  -9 11458.5 945.574   4
   0  -5   9 9997.68 895.944   8
   0  -5  -9 11695.0 930.264   2
   0  -5  10 6121.75 807.362   8
   0  -5  10 6503.59 782.329   1
   0  -5 -10 6357.56 680.731   2
   0  -5 -10 8068.16 814.820   4
   0  -5  11 14975.2 1255.72   8
   0  -5  11 15995.5 1278.78   1
   0  -5 -11 15523.3 1012.44   2
   0  -5 -11 16180.9 1138.09   4
   0  -5 -12 20948.5 1506.08  10
   0  -5 -12 21758.7 1350.65   4
   0  -5 -12 25129.1 1284.45   2
   0  -5  12 23834.7 1510.72   1
   0  -5  12 22204.8 1601.19   8
   0  -5  13 6306.79 925.545   8
   0  -5  13 6185.68 824.090   1
   0  -5 -13 5451.96 821.245  10
   0  -5 -13 5828.04 778.594   4
   0  -5 -13 5383.15 606.990   2
   0  -5  14 3787.06 797.105   8
   0  -5 -14 2125.14 622.989  10
   0  -5  14 3398.69 723.891   1
   0  -5 -14 2665.53 603.605   4
   0  -5  15 5485.52 779.657   1
   0  -5  15 4922.73 820.294   8
   0  -5 -15 4931.41 868.052  10
   0  -5 -15 5501.71 794.045   4
   0  -5 -16 9696.37 1060.23  10
   0  -5 -16 12371.9 1101.69   4
   0  -5  16 12813.4 1114.90   1
   0  -5  16 12600.4 1196.31   8
   0  -5  17 2280.67 634.189   1
   0  -4   0 797112. 16836.2  10
   0  -4   0 685330. 17112.0   2
   0  -4   0 861980. 16850.5   3
   0  -4   0 704657. 17140.8   5
   0  -4   0 792440. 16770.7   7
   0  -4   1 19590.1 776.856   2
   0  -4  -1 19347.8 484.617   3
   0  -4  -1 20068.9 916.986   2
   0  -4   1 19415.6 514.591   4
   0  -4  -1 21481.8 928.123   5
   0  -4   1 22778.9 815.438   5
   0  -4   1 20893.2 602.210   7
   0  -4  -1 20938.9 572.513   7
   0  -4  -1 20336.5 539.618   6
   0  -4   1 18874.2 757.508   3
   0  -4  -1 20711.7 618.720  10
   0  -4   1 20610.2 629.105  10
   0  -4   2 310759. 7134.58   2
   0  -4  -2 307522. 7554.88   2
   0  -4   2 326616. 7072.04  10
   0  -4  -2 321162. 7057.81   8
   0  -4  -2 294375. 7060.41   4
   0  -4  -2 340016. 7051.84  10
   0  -4   2 315570. 7064.87   7
   0  -4  -2 321574. 7584.04   5
   0  -4  -2 342885. 7125.13   1
   0  -4   2 324150. 7122.55   4
   0  -4   2 328591. 7579.21   3
   0  -4  -3 19564.8 698.689   8
   0  -4   3 18837.0 662.599   1
   0  -4  -3 17249.3 840.898   4
   0  -4   3 19764.5 689.261   2
   0  -4   3 20403.4 729.417  10
   0  -4   3 19637.6 708.889   8
   0  -4  -3 20082.9 1030.66   5
   0  -4  -3 21297.4 708.035  10
   0  -4  -3 20350.3 1060.05   2
   0  -4   3 20132.5 1172.76   3
   0  -4   3 18604.2 880.955   4
   0  -4   4 557098. 12336.4   1
   0  -4   4 562216. 12041.2  11
   0  -4   4 593617. 12424.7   8
   0  -4   4 544170. 12246.4   2
   0  -4  -4 590115. 13019.0   4
   0  -4   4 621452. 13187.2   4
   0  -4  -4 582156. 13063.7   2
   0  -4  -5 9603.12 938.153   4
   0  -4   5 10094.5 452.870   2
   0  -4   5 10796.8 579.849   1
   0  -4  -5 9073.35 819.801   2
   0  -4   5 9437.77 574.410   8
   0  -4  -6 134658. 4048.96   4
   0  -4   6 132309. 3542.59   1
   0  -4   6 134825. 3582.05   8
   0  -4  -7 17460.5 1126.31   4
   0  -4   7 18332.0 1002.93   8
   0  -4  -7 18878.3 1197.01   2
   0  -4   7 18374.2 988.839   1
   0  -4  -8 189936. 5128.58   4
   0  -4  -8 197431. 5089.40   2
   0  -4   8 192518. 5004.57   8
   0  -4   8 179038. 4397.04   9
   0  -4   8 189655. 4997.65   1
   0  -4  -8 176512. 4461.08   9
   0  -4   9 4349.73 642.767   1
   0  -4   9 4169.99 313.843   9
   0  -4   9 4821.63 655.683   8
   0  -4  -9 4765.13 363.184   9
   0  -4  -9 4851.74 683.323   4
   0  -4  -9 4244.77 548.027   2
   0  -4  10 37157.1 1901.39   8
   0  -4 -10 40584.0 1656.62   2
   0  -4 -10 38060.0 1785.60   4
   0  -4  10 40862.1 1962.54   1
   0  -4  11 17701.2 1342.89   8
   0  -4  11 14886.5 1171.74   1
   0  -4 -11 17863.7 1020.27   2
   0  -4 -11 14607.5 1236.64  10
   0  -4 -11 16716.8 1159.07   4
   0  -4  12 45723.3 2228.60   8
   0  -4  12 50338.7 2155.67   1
   0  -4 -12 46087.5 2042.64   4
   0  -4 -12 43019.5 2151.45  10
   0  -4 -12 47991.8 1818.33   2
   0  -4  13 2864.05 635.954   1
   0  -4 -13 1698.56 586.154  10
   0  -4 -13 3143.41 634.648   4
   0  -4  13 1683.51 586.736   8
   0  -4 -13 3509.00 500.541   2
   0  -4  14 10508.8 999.485   1
   0  -4  14 8637.43 986.227   8
   0  -4 -14 8667.28 929.616   4
   0  -4 -14 7212.03 886.814  10
   0  -4 -15 5362.59 780.649   4
   0  -4  15 3922.48 701.830   1
   0  -4  15 6854.98 886.241   8
   0  -4 -15 5423.56 833.236  10
   0  -4  16 10817.4 1073.67   8
   0  -4 -16 12023.6 1127.57  10
   0  -4 -16 9760.40 986.994   4
   0  -4  16 8808.44 962.718   1
   0  -4  17 1031.04 503.993   1
   0  -3   0-69.4834 224.353   2
   0  -3   0 310.020 104.125   3
   0  -3   0 219.234 65.7641   7
   0  -3   0 294.775 179.858   5
   0  -3   0 104.171 74.2684  10
   0  -3   1 5791.87 243.048   4
   0  -3   1 6161.58 348.941   2
   0  -3  -1 5558.23 243.717  10
   0  -3  -1 5201.62 442.918   2
   0  -3  -1 4550.54 172.818   6
   0  -3  -1 5897.01 218.848   4
   0  -3  -1 6317.27 280.703   1
   0  -3   1 6431.07 431.619   3
   0  -3   1 5907.85 343.098   5
   0  -3  -1 6228.38 460.799   5
   0  -3   1 5837.29 242.640   7
   0  -3   1 5463.61 247.698  10
   0  -3  -1 5660.74 222.073   7
   0  -3   2 7038.23 478.580   4
   0  -3   2 7517.25 649.360   3
   0  -3   2 8364.87 364.091  10
   0  -3   2 8423.16 333.103   1
   0  -3   2 8094.12 366.915   2
   0  -3  -2 8735.14 351.155  10
   0  -3  -2 7093.64 474.293   4
   0  -3  -2 8225.01 564.103   5
   0  -3   2 7764.58 366.720   7
   0  -3  -2 7549.83 560.792   2
   0  -3  -2 7884.03 347.602   8
   0  -3  -2 7867.57 372.677   1
   0  -3   3 4756.55 318.660   8
   0  -3  -3 3681.71 533.611   4
   0  -3   3 4120.53 251.204   2
   0  -3   3 4482.59 555.410   4
   0  -3   3 4130.79 701.800   3
   0  -3   3 4695.48 319.326  10
   0  -3   3 4080.23 275.826   1
   0  -3  -3 4446.47 471.513   5
   0  -3   3 4149.71 169.752  11
   0  -3  -3 4517.30 331.117   1
   0  -3  -3 4404.33 292.238   8
   0  -3  -3 4041.92 487.353   2
   0  -3   4 45708.3 1977.54   4
   0  -3   4 42381.7 1331.56   8
   0  -3  -4 43972.9 1344.62   8
   0  -3   4 43944.5 1170.14   2
   0  -3  -4 42081.4 1636.51   5
   0  -3  -4 45989.9 2004.56   4
   0  -3  -4 41735.2 1639.48   2
   0  -3   4 45718.9 1418.40  10
   0  -3   4 46399.7 1326.43   1
   0  -3   5 13966.8 733.935   8
   0  -3  -5 13709.5 937.059   5
   0  -3  -5 15296.3 974.744   2
   0  -3  -5 14444.7 1032.04   4
   0  -3   5 14249.8 716.536   1
   0  -3   6 17918.4 933.085   1
   0  -3   6 19195.0 958.219   8
   0  -3  -6 18577.9 1133.25   4
   0  -3  -6 20218.1 1197.77   2
   0  -3  -7 5080.95 373.935   9
   0  -3   7 4839.89 561.949   8
   0  -3  -7 5588.64 615.490   2
   0  -3  -7 5283.44 646.375   4
   0  -3   7 5350.44 606.977   1
   0  -3   7 4879.24 340.714   9
   0  -3  -8 55208.0 1560.11   9
   0  -3  -8 62747.7 2088.27   2
   0  -3  -8 60830.3 2254.41   4
   0  -3   8 63856.0 2283.08   8
   0  -3   8 56904.8 1527.46   9
   0  -3   8 64071.9 2286.19   1
   0  -3  -9 7841.84 802.709   4
   0  -3  -9 8138.29 667.618   2
   0  -3   9 9200.45 922.909   1
   0  -3   9 7220.97 839.992   8
   0  -3 -10 9790.04 969.603  10
   0  -3  10 9137.13 887.677   1
   0  -3 -10 10441.2 913.328   4
   0  -3  10 8577.68 939.665   8
   0  -3 -10 9184.35 692.936   2
   0  -3 -11 8039.26 826.637   4
   0  -3  11 6065.52 797.953   8
   0  -3  11 8788.72 870.602   1
   0  -3 -11 8701.86 908.243  10
   0  -3 -11 8346.89 656.978   2
   0  -3 -12 37310.9 1789.04   4
   0  -3  12 35927.6 1844.99   8
   0  -3  12 35682.2 1746.25   1
   0  -3 -12 35825.0 1450.63   2
   0  -3 -12 33448.5 1787.43  10
   0  -3 -13 5363.03 745.122   4
   0  -3  13 4719.04 760.720   8
   0  -3 -13 5364.98 543.288   2
   0  -3 -13 5212.18 788.587  10
   0  -3  13 5415.68 723.011   1
   0  -3 -14 4383.94 746.975  10
   0  -3  14 4438.12 727.225   8
   0  -3 -14 4680.74 731.173   4
   0  -3  14 3839.21 678.269   1
   0  -3  15 6052.86 814.470   8
   0  -3 -15 4365.02 721.286  10
   0  -3 -15 4894.56 735.128   4
   0  -3  15 3400.31 642.924   1
   0  -3  16 18228.6 1325.52   8
   0  -3  16 15918.2 1206.08   1
   0  -3 -16 13791.0 1210.78  10
   0  -3 -16 15755.5 1251.76   4
   0  -3  17 2562.84 605.907   1
   0  -2   0 326870. 2092.33   5
   0  -2   0 319884. 2043.27   2
   0  -2  -1 4565.58 193.457  10
   0  -2  -1 4764.91 339.852   2
   0  -2   1 4433.96 199.974  10
   0  -2   1 4394.31 388.773   3
   0  -2   1 4792.63 241.790   5
   0  -2   1 4750.63 242.049   2
   0  -2   1 3566.21 184.147   7
   0  -2  -1 5072.60 357.906   5
   0  -2  -1 4644.28 216.702   1
   0  -2  -1 4630.60 267.513   4
   0  -2  -2 127865. 3397.01   4
   0  -2   2 123393. 2853.75   2
   0  -2   2 130360. 2939.68  10
   0  -2   2 125983. 2879.89   1
   0  -2  -2 125094. 3178.63   5
   0  -2  -2 122656. 3169.45   2
   0  -2   2 129147. 2910.67   8
   0  -2  -2 124970. 2909.73   8
   0  -2   2 137663. 3523.52   4
   0  -2  -2 133922. 2960.40   1
   0  -2   2 143353. 3708.09   3
   0  -2   3 3917.87 280.862   1
   0  -2   3 2858.72 645.159   4
   0  -2  -3 3548.92 384.007   5
   0  -2   3 2949.60 293.062  10
   0  -2  -3 4366.70 779.830   4
   0  -2  -3 3005.01 265.441   8
   0  -2   3 4320.29 791.812   3
   0  -2   3 3328.35 198.352   2
   0  -2  -3 3291.64 413.749   2
   0  -2   3 3076.18 271.402   8
   0  -2  -3 3086.98 286.290   1
   0  -2   4 380310. 8561.51   8
   0  -2   4 384753. 8685.75  10
   0  -2   4 366785. 9201.29   4
   0  -2   4 377737. 8564.82   1
   0  -2  -4 393363. 8885.14   5
   0  -2  -4 391221. 8877.68   2
   0  -2  -4 395755. 9271.63   4
   0  -2  -4 383709. 8661.93   1
   0  -2  -4 380618. 8752.33   3
   0  -2   4 388790. 9375.88   3
   0  -2  -4 372078. 8595.78   8
   0  -2  -5 3033.42 445.460   5
   0  -2   5 2769.61 392.054   1
   0  -2  -5 2001.55 536.458   4
   0  -2  -5 3138.51 534.856   3
   0  -2  -5 2696.90 477.143   2
   0  -2   5 2926.54 414.889   8
   0  -2  -6 47487.9 1354.51   9
   0  -2  -6 52916.8 1837.16   5
   0  -2   6 51066.2 1849.90   1
   0  -2   6 48254.9 1316.89   9
   0  -2   6 48366.3 1801.91   8
   0  -2  -6 48939.3 1983.42   4
   0  -2  -6 53431.4 1850.49   2
   0  -2  -7 8610.70 644.248   2
   0  -2   7 7581.91 745.530   1
   0  -2  -7 7612.87 669.051   3
   0  -2  -7 8727.21 798.649   4
   0  -2  -7 8173.32 349.207   9
   0  -2   7 9098.84 799.944   8
   0  -2   8 189856. 5207.34   8
   0  -2   8 191916. 5054.43   1
   0  -2  -8 170693. 4540.29   2
   0  -2  -8 171660. 4922.98   4
   0  -2   9 3837.36 628.571   8
   0  -2  -9 4628.00 660.208   4
   0  -2  -9 4042.69 459.428   2
   0  -2  -9 3494.40 614.456  10
   0  -2   9 4197.26 618.425   1
   0  -2 -10 16948.2 1159.52   4
   0  -2  10 18113.1 1199.76   8
   0  -2  10 18757.7 1144.07   1
   0  -2 -10 16848.0 894.492   2
   0  -2 -10 15369.9 1132.96  10
   0  -2 -11 3121.76 631.612  10
   0  -2  11 4476.34 646.998   1
   0  -2  11 4463.69 694.547   8
   0  -2 -11 4010.02 459.097   2
   0  -2 -11 4375.86 649.772   4
   0  -2 -12 57993.9 1901.29   2
   0  -2  12 58115.1 2263.93   1
   0  -2  12 54550.2 2289.88   8
   0  -2 -12 57682.5 2343.05   4
   0  -2 -12 54671.7 2312.85  10
   0  -2  13 1273.38 490.075   1
   0  -2  13 1829.25 580.760   8
   0  -2 -13 2009.70 587.621   4
   0  -2 -13 1872.02 585.183  10
   0  -2 -13 1688.99 331.862   2
   0  -2  14 7143.47 857.341   8
   0  -2  14 5965.19 767.248   1
   0  -2 -14 5959.60 816.953   4
   0  -2 -14 7326.48 895.494  10
   0  -2 -15 3041.51 648.458   4
   0  -2  15 1639.84 549.590   1
   0  -2  15 3247.98 658.319   8
   0  -2 -15 3989.28 799.006  10
   0  -2 -16 12390.5 1104.24   4
   0  -2  16 13193.8 1092.07   1
   0  -2  16 11841.2 1087.96   8
   0  -2 -16 12483.0 1162.75  10
   0  -2  17 1330.13 537.483   1
   0  -2  17 724.938 518.565   8
   0  -1   1 396.720 61.7743   1
   0  -1  -1 542.900 139.177   2
   0  -1  -2 9109.54 494.745   3
   0  -1  -2 8443.95 448.546   5
   0  -1   2 9197.64 901.489   4
   0  -1   2 9300.62 393.585   8
   0  -1   2 8974.01 383.365   1
   0  -1  -2 9068.74 410.741   1
   0  -1   2 9223.81 421.450  10
   0  -1  -2 9091.42 401.163   8
   0  -1  -2 10266.7 958.195   4
   0  -1  -2 8598.01 455.794   2
   0  -1  -3 13013.3 958.542   4
   0  -1   3 12678.2 613.923   1
   0  -1   3 12370.5 592.224   8
   0  -1  -3 14032.1 675.490   2
   0  -1   3 12105.6 638.018  10
   0  -1   3 11848.4 922.579   3
   0  -1   3 10339.3 860.893   4
   0  -1  -3 12135.9 618.459   1
   0  -1  -3 13060.1 627.010   8
   0  -1  -3 13629.7 660.442   5
   0  -1  -3 12572.0 858.769   3
   0  -1   4 62213.7 2328.00   4
   0  -1  -4 69308.0 2129.34   8
   0  -1   4 66431.1 2063.06   8
   0  -1   4 65430.6 2356.82   3
   0  -1   4 67246.8 1643.38   9
   0  -1  -4 67170.6 2388.12   4
   0  -1  -4 77105.1 2148.82   5
   0  -1   4 74220.6 2220.78  10
   0  -1  -4 78948.6 2184.25   2
   0  -1  -4 68099.2 2194.00   3
   0  -1   4 73458.6 2140.39   1
   0  -1  -4 71606.7 2137.96   1
   0  -1  -5 10380.8 634.688   5
   0  -1  -5 11279.0 818.458   8
   0  -1   5 11958.8 837.246   1
   0  -1  -5 10784.0 891.248   4
   0  -1  -5 10302.0 754.613   3
   0  -1  -5 12183.4 835.398   1
   0  -1   5 9783.19 813.422   3
   0  -1  -5 11415.6 678.260   2
   0  -1   5 10845.7 785.184   8
   0  -1  -6 28343.0 1295.04   3
   0  -1  -6 30391.7 1161.94   2
   0  -1  -6 28124.1 1439.51   4
   0  -1  -6 29542.6 1133.81   5
   0  -1   6 28820.2 1421.28   8
   0  -1   6 30649.3 1414.38   1
   0  -1  -7 19543.0 875.461   5
   0  -1  -7 17134.4 1118.30   4
   0  -1  -7 18603.9 875.109   2
   0  -1   7 18700.6 1066.31   1
   0  -1  -7 18481.9 1045.69   3
   0  -1  -7 17908.4 1099.91  10
   0  -1   7 18884.0 1119.49   8
   0  -1   8 87325.1 2700.39   1
   0  -1  -8 80251.7 2332.85   2
   0  -1  -8 77917.3 2703.54  10
   0  -1   8 82581.3 2729.19   8
   0  -1  -8 79750.6 2314.56   5
   0  -1  -8 80145.3 2599.29   3
   0  -1  -8 80061.2 2783.89   4
   0  -1   9 7491.76 762.690   8
   0  -1   9 8598.04 763.466   1
   0  -1  -9 6494.90 731.655  10
   0  -1  -9 8023.34 721.176   3
   0  -1  -9 8250.72 570.682   2
   0  -1  -9 8743.64 840.868   4
   0  -1 -10 15442.3 1083.79  10
   0  -1  10 15326.5 1056.32   8
   0  -1  10 15417.5 1027.03   1
   0  -1 -10 16083.3 809.687   2
   0  -1 -10 15024.0 1107.78   4
   0  -1  11 7924.53 796.736   8
   0  -1 -11 7899.04 853.148   4
   0  -1  11 9096.38 818.329   1
   0  -1 -11 8171.87 846.256  10
   0  -1 -11 8482.85 585.318   2
   0  -1  12 46507.0 1984.58   8
   0  -1 -12 47430.5 1579.97   2
   0  -1 -12 44509.9 2000.56  10
   0  -1 -12 44955.3 2036.44   4
   0  -1  12 45898.9 1945.29   1
   0  -1 -13 5240.30 745.015   4
   0  -1  13 4285.97 658.356   1
   0  -1 -13 4688.90 697.455  10
   0  -1  13 4366.75 659.626   8
   0  -1  14 3867.93 656.529   1
   0  -1 -14 3577.23 678.268   4
   0  -1 -14 4291.55 716.798  10
   0  -1  14 4111.71 687.708   8
   0  -1 -15 4550.22 771.373  10
   0  -1  15 4906.46 711.292   1
   0  -1 -15 6143.41 806.645   4
   0  -1  15 5625.03 778.195   8
   0  -1  16 17975.2 1283.47   8
   0  -1 -16 18796.1 1354.24  10
   0  -1 -16 17482.1 1333.93   4
   0  -1  16 18646.4 1280.65   1
   0  -1  17 2235.51 602.059   8
   0  -1  17 2914.43 641.621   1
   0   0   2 448489. 7654.89   1
   0   0   2 426026. 7660.11   8
   0   0  -2 202859. 7260.03   8
   0   0  -2 426713. 7230.88   5
   0   0  -2 438778. 8192.98   4
   0   0  -2 492410. 7751.51  10
   0   0  -2 431548. 7845.15   3
   0   0   2 427530. 7894.42   3
   0   0   2 426219. 8148.82   4
   0   0  -2 120374. 7108.63   1
   0   0  -3 1216.79 217.156   2
   0   0   3 1322.93 414.297   3
   0   0  -3 1684.70 221.659   5
   0   0   3 1905.93 571.511   4
   0   0  -3 1471.43 568.244   4
   0   0  -3 1720.04 404.326   8
   0   0  -3 989.327 384.592   1
   0   0  -3 1680.07 476.002   3
   0   0  -3 1238.85 442.660  10
   0   0   3 2550.58 415.297   8
   0   0   3 1657.00 237.353   5
   0   0   3 1900.60 418.917   1
   0   0  -4 985157. 21675.5   4
   0   0  -4 999999. 21354.6   1
   0   0   4 959738. 21318.4   8
   0   0  -4 987683. 21341.2  10
   0   0   4 986910. 21502.9   3
   0   0  -4 952380. 21318.2   8
   0   0   4 953214. 21257.3   1
   0   0  -4 974150. 20870.3   5
   0   0   4 963687. 21654.9   4
   0   0  -4 956134. 21400.3   3
   0   0  -4 956556. 20875.1   2
   0   0   4 984764. 20870.6   5
   0   0  -5 183.814 456.556   4
   0   0  -5 296.833 271.238   8
   0   0  -5 78.1373 370.921   3
   0   0  -5-99.5624 400.775  10
   0   0   5 349.693 357.751   1
   0   0  -5 71.0897 181.370   2
   0   0   5 420.339 349.239   3
   0   0  -5 84.8683 162.769   5
   0   0  -5 44.5864 268.567   1
   0   0   5 376.386 190.330   5
   0   0   5 327.395 381.151   8
   0   0   6 197698. 4980.64   1
   0   0  -6 193301. 5052.86  10
   0   0   6 195658. 5045.39   8
   0   0  -6 196924. 5269.52   4
   0   0   6 186722. 4545.85   5
   0   0  -6 195105. 4559.24   2
   0   0  -6 191035. 4559.35   5
   0   0  -6 190780. 5038.27   3
   0   0  -7 337.931 189.795   2
   0   0   7 1071.97 407.415   1
   0   0   7 228.869 377.325   8
   0   0  -7 203.090 372.854   4
   0   0  -7-9.30709 362.809  10
   0   0  -7 404.202 168.794   5
   0   0  -7 488.708 380.450   3
   0   0   7 241.731 197.724   5
   0   0   8 288466. 6724.06   5
   0   0  -8 297644. 7471.81   4
   0   0  -8 297328. 6755.35   2
   0   0   8 303505. 7303.16   8
   0   0  -8 287536. 7249.56   3
   0   0  -8 283867. 6724.61   5
   0   0  -8 296590. 7311.14  10
   0   0   8 297095. 7252.39   1
   0   0  -9 1329.46 257.068   5
   0   0  -9 1142.98 496.209  10
   0   0   9 1165.37 417.201   8
   0   0  -9 1392.53 443.781   3
   0   0  -9 793.998 230.130   2
   0   0  -9 1032.02 489.642   4
   0   0   9 1705.63 298.215   5
   0   0   9 1531.42 469.492   1
   0   0 -10 27792.9 1456.00  10
   0   0  10 29763.3 1101.03   5
   0   0  10 29782.1 1447.10   1
   0   0 -10 28839.3 1427.14   3
   0   0 -10 27477.8 1080.24   2
   0   0 -10 29954.2 1559.19   4
   0   0  10 28724.2 1441.49   8
   0   0  11 395.937 413.733   1
   0   0 -11 285.073 443.370  10
   0   0  11 251.852 410.649   8
   0   0 -11-52.3126 182.598   2
   0   0 -11 191.824 396.949   4
   0   0  12 57007.2 2195.11   1
   0   0 -12 52642.1 2253.83   4
   0   0 -12 53364.5 2215.42  10
   0   0 -12 55995.0 1706.18   2
   0   0  12 52174.9 2162.35   8
   0   0  13 1807.99 536.247   1
   0   0 -13 2106.10 610.675  10
   0   0  13 2304.14 567.492   8
   0   0 -13 2319.98 625.799   4
   0   0 -14 3854.61 696.420  10
   0   0 -14 5248.89 753.321   4
   0   0  14 4935.70 701.127   8
   0   0  14 4296.07 671.885   1
   0   0  15 307.072 427.352   1
   0   0 -15 717.246 551.164  10
   0   0  15 726.499 494.604   8
   0   0 -15 1136.96 580.134   4
   0   0  16 8805.79 908.188   8
   0   0 -16 11815.7 1075.03  10
   0   0 -16 10397.6 1031.20   4
   0   0  16 9448.04 941.535   1
   0   0  17 985.776 523.791   1
   0   0  17 1344.66 545.966   8
   0   1  -1 347.786 83.2601   7
   0   1  -1 454.813 281.269   3
   0   1   1 309.982 69.8198   8
   0   1   2 10814.7 736.293   3
   0   1   2 9375.01 417.158   1
   0   1   2 8652.13 425.019   5
   0   1  -2 9177.50 427.228  10
   0   1   2 10490.9 882.334   4
   0   1  -2 10058.4 870.475   4
   0   1   2 9179.87 396.413   8
   0   1   2 8859.10 433.535   2
   0   1  -2 8942.75 303.379   2
   0   1  -2 8739.50 380.161   8
   0   1  -2 9862.37 913.775   3
   0   1  -2 9551.06 383.314   1
   0   1  -3 11665.1 564.229   8
   0   1   3 10836.6 870.672   4
   0   1  -3 12119.4 971.496   3
   0   1  -3 11272.8 399.479   5
   0   1   3 11473.4 558.646   2
   0   1  -3 11257.4 565.476   1
   0   1  -3 12318.0 986.398   4
   0   1   3 12246.1 620.842   1
   0   1   3 11198.9 745.775   3
   0   1   3 12479.4 572.034   5
   0   1  -3 11498.0 630.596  10
   0   1   3 12061.3 609.729   8
   0   1   4 68285.0 2443.52   4
   0   1   4 72304.9 2010.08   5
   0   1  -4 76429.2 2276.01  10
   0   1  -4 75829.5 2200.91   1
   0   1  -4 69173.1 1786.54   5
   0   1  -4 70408.5 2116.23   8
   0   1   4 78722.1 2264.66   1
   0   1   4 66037.4 2236.24   3
   0   1   4 74535.1 2212.37   8
   0   1  -4 67656.9 2403.17   3
   0   1  -4 72283.1 2526.16   4
   0   1   4 74366.0 2045.00   2
   0   1  -5 9249.18 474.498   5
   0   1  -5 8558.03 796.075   3
   0   1   5 10309.1 823.523   8
   0   1  -5 10592.8 783.507   1
   0   1   5 11549.5 862.792   1
   0   1  -5 8565.42 830.187   4
   0   1   5 8181.59 574.418   5
   0   1  -5 9717.80 860.122  10
   0   1   5 8466.00 691.817   3
   0   1  -6 30547.9 1030.43   5
   0   1   6 35450.5 1552.46   1
   0   1  -6 28901.5 1430.30   3
   0   1  -6 34045.6 1582.81  10
   0   1   6 35561.1 1635.37   8
   0   1   6 30771.9 1170.14   5
   0   1  -6 32189.1 1570.17   4
   0   1   7 16347.9 794.016   5
   0   1   7 17469.9 1104.90   8
   0   1  -7 16793.1 1064.75   3
   0   1  -7 17438.5 1090.42  10
   0   1  -7 15858.7 688.963   2
   0   1  -7 16599.3 1133.70   4
   0   1   7 16600.4 1044.75   1
   0   1  -7 16246.0 688.032   5
   0   1   8 82645.6 2770.86   8
   0   1  -8 80835.1 2759.18   3
   0   1  -8 84929.3 2812.21  10
   0   1   8 88118.8 2786.68   1
   0   1  -8 81088.7 2204.27   5
   0   1   8 82714.4 2353.75   5
   0   1  -8 85387.1 2900.32   4
   0   1  -8 83730.3 2213.14   2
   0   1  -9 6230.77 422.259   5
   0   1  -9 5823.18 708.718  10
   0   1   9 6408.06 709.277   8
   0   1   9 5931.64 483.327   5
   0   1  -9 6428.67 724.115   3
   0   1  -9 6707.92 439.734   2
   0   1  -9 6666.58 771.910   4
   0   1   9 6620.14 708.209   1
   0   1 -10 14668.3 687.331   5
   0   1  10 14828.0 778.586   5
   0   1  10 17119.3 1088.93   1
   0   1 -10 16546.6 1124.09  10
   0   1 -10 15375.4 1062.84   3
   0   1 -10 15708.8 715.864   2
   0   1 -10 16340.6 1149.23   4
   0   1  10 15819.6 1046.10   8
   0   1  11 6831.69 520.959   5
   0   1 -11 7390.98 831.024   4
   0   1  11 6252.43 729.625   8
   0   1 -11 5555.03 713.444   3
   0   1 -11 6781.27 459.841   2
   0   1 -11 5916.17 742.101  10
   0   1  11 7169.94 764.225   1
   0   1 -11 6318.80 379.615  11
   0   1 -12 47246.8 2073.77  10
   0   1 -12 47747.0 1474.98   2
   0   1  12 49377.9 2036.43   8
   0   1  12 46839.8 2002.54   1
   0   1 -12 46407.4 2102.10   4
   0   1  12 48478.5 1607.35   5
   0   1 -13 4640.14 733.335   4
   0   1  13 3138.79 630.351   8
   0   1 -13 4138.13 706.675  10
   0   1  13 3542.09 613.994   1
   0   1 -14 3573.69 701.313   4
   0   1 -14 3428.20 677.404  10
   0   1  14 3746.17 671.711   8
   0   1  14 4427.43 688.789   1
   0   1 -15 4650.04 742.297   4
   0   1 -15 4832.92 788.924  10
   0   1  15 4848.80 723.490   1
   0   1  15 5232.62 737.996   8
   0   1  16 18548.1 1275.90   8
   0   1 -16 16593.7 1258.19  10
   0   1 -16 19795.2 1398.86   4
   0   1  16 18439.2 1274.66   1
   0   1  17 2959.30 688.490   1
   0   1  17 1804.41 575.628   8
   0   2   0 330394. 2570.09   3
   0   2   0 329256. 2731.36   2
   0   2   0 333884. 2729.15   5
   0   2  -1 4194.05 184.347   7
   0   2  -1 3514.21 181.955  10
   0   2   1 3912.68 326.033   2
   0   2  -1 5495.04 661.757   4
   0   2  -1 4526.59 545.490   3
   0   2  -1 4169.02 251.140   2
   0   2   1 4983.95 518.334   4
   0   2   1 3805.43 337.046   5
   0   2  -1 4148.60 263.686   5
   0   2   1 3718.65 180.662  10
   0   2  -2 145373. 3689.42   4
   0   2  -2 130568. 2856.43   2
   0   2   2 131809. 2864.34   8
   0   2   2 132840. 2906.70   1
   0   2   2 127072. 3500.52   4
   0   2  -2 132062. 2906.57   7
   0   2  -2 132136. 2830.26   1
   0   2   2 132342. 2714.78   6
   0   2   2 133527. 3097.57   5
   0   2   2 133591. 3117.10   2
   0   2  -2 135452. 2886.82  10
   0   2  -3 1412.16 189.176   8
   0   2  -3 1296.76 170.757   1
   0   2   3 1760.38 360.208   3
   0   2   3 1500.26 255.005   1
   0   2  -3 1354.02 152.678   2
   0   2   3 1418.01 448.412   4
   0   2   3 1816.30 290.205   2
   0   2   3 1634.35 222.376   8
   0   2   3 1719.45 297.870   5
   0   2  -3 1540.28 247.362  10
   0   2  -3 1667.62 678.093   3
   0   2  -3 1785.09 549.907   4
   0   2   4 366016. 9303.42   4
   0   2   4 387985. 8787.63   8
   0   2  -4 386941. 8537.32   2
   0   2  -4 386007. 8481.15   5
   0   2  -4 407191. 9650.12   3
   0   2  -4 388466. 8769.57   8
   0   2  -4 401800. 8876.31  10
   0   2  -4 390745. 8737.37   1
   0   2  -4 403283. 9456.63   4
   0   2   4 414176. 8927.72   2
   0   2   4 392551. 9057.04   3
   0   2   4 392958. 8856.42   1
   0   2   4 405424. 8898.38   5
   0   2  -5 2435.47 409.368  10
   0   2  -5 2745.58 238.529   2
   0   2  -5 2448.05 329.859   1
   0   2   5 2375.99 392.964   3
   0   2   5 2509.39 389.322   8
   0   2   5 2342.57 332.849   2
   0   2   5 3482.46 476.793   1
   0   2  -5 3144.81 604.364   4
   0   2  -5 2382.38 205.437   5
   0   2  -5 3252.17 629.443   3
   0   2   5 1854.87 349.225   5
   0   2  -6 48707.1 1355.40   5
   0   2  -6 48205.8 1406.70   2
   0   2  -6 48509.4 2006.36   3
   0   2   6 49979.5 1691.27   5
   0   2   6 44026.0 1695.60   3
   0   2  -6 48619.2 1993.94   4
   0   2  -6 49403.4 1900.68  10
   0   2   6 50988.1 1900.12   1
   0   2   6 47530.7 1801.59   8
   0   2   7 7429.35 624.279   5
   0   2   7 8485.71 868.237   1
   0   2  -7 8581.28 492.816   2
   0   2  -7 7046.07 755.143   3
   0   2  -7 7365.33 445.630   5
   0   2  -7 7982.93 853.291  10
   0   2  -7 6919.15 302.487  11
   0   2   7 7564.18 759.663   8
   0   2  -7 7453.52 783.111   4
   0   2  -8 172954. 5002.28   4
   0   2  -8 173996. 4988.22   3
   0   2  -8 185185. 4381.24   2
   0   2   8 186067. 5117.46   1
   0   2   8 177152. 4596.96   5
   0   2  -8 180928. 4058.82  11
   0   2  -8 180146. 4274.39   2
   0   2  -8 170025. 4234.16   5
   0   2  -8 191103. 5233.39  10
   0   2   8 204138. 5378.97   8
   0   2   9 2779.74 397.886   5
   0   2  -9 2687.95 194.151  11
   0   2  -9 2355.36 255.240   5
   0   2  -9 3377.65 606.905   4
   0   2   9 3228.38 579.481   1
   0   2   9 3333.35 588.983   8
   0   2  -9 3141.04 596.288  10
   0   2  -9 2418.68 274.791   2
   0   2  -9 2766.35 602.072   3
   0   2  -9 3019.37 311.607   2
   0   2  -9 2505.96 175.833  11
   0   2  10 15615.6 1088.88   1
   0   2 -10 15888.7 679.272   2
   0   2 -10 16455.0 1160.64  10
   0   2  10 15851.9 1131.29   8
   0   2 -10 13807.3 468.917  11
   0   2 -10 14394.8 489.623  11
   0   2 -10 15387.0 658.433   5
   0   2 -10 15505.5 683.984   2
   0   2  10 14728.9 832.172   5
   0   2 -10 14359.2 1059.98   3
   0   2 -10 17228.9 1183.32   4
   0   2  11 3542.15 444.350   5
   0   2 -11 5013.80 721.871   4
   0   2 -11 4108.62 345.751   2
   0   2 -11 3296.59 637.273  10
   0   2  11 3317.21 621.760   1
   0   2 -11 3920.66 632.366   3
   0   2  11 3099.73 633.800   8
   0   2  12 56120.4 2281.87   8
   0   2  12 59220.9 1925.95   5
   0   2 -12 57653.2 2371.90   4
   0   2  12 55330.9 2271.06   1
   0   2 -12 55652.6 2336.66  10
   0   2 -12 60227.7 2371.46   3
   0   2  13 754.119 459.725   8
   0   2 -13 610.642 481.455  10
   0   2  13 1548.62 481.340   1
   0   2 -13 1004.05 531.232   4
   0   2 -14 3641.97 691.695  10
   0   2 -14 5210.22 765.150   4
   0   2  14 4513.42 696.450   8
   0   2  14 3873.61 661.609   1
   0   2  15 2296.09 589.908   1
   0   2 -15 1274.66 511.609  10
   0   2 -15 2498.62 602.228   4
   0   2  15 1604.23 523.521   8
   0   2  16 12840.0 1092.13   1
   0   2 -16 10983.9 1048.02  10
   0   2 -16 12334.7 1100.32   7
   0   2  16 12755.9 1065.53   8
   0   2 -16 13390.8 1176.80   4
   0   2  17 985.904 569.658   1
   0   2  17 804.254 512.538   8
   0   3   0 169.548 245.844   3
   0   3   0 103.471 60.8098   7
   0   3   0 377.781 181.191   2
   0   3   0 403.798 249.691   5
   0   3   0 146.760 83.7830  10
   0   3  -1 5470.08 253.933  10
   0   3  -1 5282.44 223.661   7
   0   3   1 5505.82 446.333   2
   0   3  -1 5205.40 361.358   2
   0   3  -1 5130.61 372.711   5
   0   3   1 5770.11 446.584   5
   0   3   1 5941.46 255.274  10
   0   3  -1 5390.61 634.026   3
   0   3  -1 5542.93 512.424   4
   0   3  -2 10286.3 1083.06   3
   0   3   2 9458.24 733.407   4
   0   3   2 9619.29 418.734   1
   0   3  -2 9216.60 452.083   5
   0   3  -2 8857.80 380.830  10
   0   3   2 8719.88 575.488   5
   0   3  -2 8573.35 442.542   2
   0   3  -2 8365.89 763.360   4
   0   3   2 10197.0 594.325   2
   0   3  -2 9473.87 380.335   7
   0   3  -3 3251.96 270.369   5
   0   3   3 3170.71 487.061   4
   0   3   3 3086.17 400.847   5
   0   3   3 4286.06 302.898   8
   0   3   3 3522.18 393.333   2
   0   3   3 3099.92 148.971   6
   0   3  -3 3098.23 543.608   4
   0   3  -3 3507.57 269.550   2
   0   3  -3 3213.13 277.865  10
   0   3   3 2995.66 302.659   3
   0   3  -3 3066.78 283.492   7
   0   3   3 2984.58 292.607   1
   0   3  -3 3600.15 242.991   1
   0   3   4 45085.3 1166.01   6
   0   3  -4 45568.3 1455.90   7
   0   3  -4 45911.3 1284.47   2
   0   3  -4 51081.7 2157.88   3
   0   3   4 46241.5 1571.05   5
   0   3   4 44748.7 1418.43   1
   0   3   4 41763.4 1717.55   4
   0   3  -4 47445.2 1419.98  10
   0   3   4 47249.7 1377.39   8
   0   3   4 40225.6 1409.00   3
   0   3   4 49418.7 1604.66   2
   0   3  -4 42437.5 1774.52   4
   0   3  -4 44378.1 1303.32   1
   0   3  -5 16764.2 1199.91   3
   0   3   5 13884.1 754.151   3
   0   3   5 16193.6 853.625   2
   0   3   5 17149.4 841.222   1
   0   3  -5 14692.9 1006.23   4
   0   3   5 14154.1 930.593   4
   0   3  -5 15592.7 811.150  10
   0   3   5 15806.0 770.359   8
   0   3   5 14935.9 836.866   5
   0   3  -5 15151.4 613.819   2
   0   3   6 19879.5 996.820   5
   0   3   6 19585.8 1030.00   1
   0   3  -6 20408.6 1196.13   4
   0   3  -6 19577.3 1032.00  10
   0   3  -6 18145.5 1226.90   3
   0   3  -6 19578.3 746.176   2
   0   3   6 19359.5 971.703   8
   0   3   6 17732.5 898.448   3
   0   3  -6 19061.5 669.649   5
   0   3  -7 5051.52 659.661   4
   0   3  -7 5218.63 379.586   2
   0   3  -7 4278.82 663.120   3
   0   3   7 4752.61 485.536   3
   0   3   7 4763.24 557.284   5
   0   3   7 5529.75 616.866   8
   0   3   7 5029.57 627.628   1
   0   3  -7 5080.95 648.715  10
   0   3  -7 4734.68 327.461   5
   0   3  -8 72321.3 2647.99  10
   0   3   8 75116.4 2680.01   1
   0   3  -8 66249.0 2483.71   4
   0   3   8 72811.3 2370.53   5
   0   3  -8 66027.9 2577.03   3
   0   3  -8 72653.3 2012.86   2
   0   3   8 73643.1 2565.89   8
   0   3  -8 66697.8 1883.80   5
   0   3   9 9563.78 973.825   8
   0   3  -9 9215.36 874.349   4
   0   3   9 9150.45 732.179   5
   0   3   9 10781.5 1017.47   1
   0   3  -9 10160.3 1064.10  10
   0   3  -9 8256.37 481.372   5
   0   3  -9 9193.45 900.219   3
   0   3  -9 9702.57 558.653   2
   0   3 -10 9422.53 993.674  10
   0   3 -10 10379.6 532.311   2
   0   3  10 10187.7 971.611   1
   0   3 -10 11357.3 953.323   4
   0   3 -10 10829.2 949.518   3
   0   3  10 11147.7 780.636   5
   0   3 -10 10275.7 552.565   2
   0   3  10 11413.3 1074.25   8
   0   3  11 8605.69 687.241   5
   0   3 -11 9346.28 914.508   3
   0   3  11 7166.78 823.160   1
   0   3 -11 8610.38 465.640   2
   0   3 -11 8925.14 886.254   4
   0   3  11 7635.63 881.405   8
   0   3 -11 7923.63 884.776  10
   0   3  12 37097.0 1850.67   8
   0   3  12 39499.7 1871.49   1
   0   3 -12 36698.3 1825.49   4
   0   3  12 37404.5 1515.15   5
   0   3 -12 37929.3 1880.55  10
   0   3 -12 38541.1 1879.91   3
   0   3 -13 5348.45 736.349   4
   0   3  13 5353.08 749.019   1
   0   3  13 7127.12 855.197   8
   0   3  13 6178.98 581.849   5
   0   3 -13 6095.56 797.228  10
   0   3  14 3873.16 662.274   8
   0   3 -14 3364.60 673.043  10
   0   3  14 3316.92 634.569   1
   0   3 -14 4287.38 728.973   7
   0   3 -14 3732.56 676.829   4
   0   3  15 5119.67 771.613   8
   0   3 -15 4905.03 807.378  10
   0   3 -15 4561.90 763.822   7
   0   3  15 5526.15 768.381   1
   0   3 -15 4514.17 755.561   4
   0   3  16 14578.3 1172.39   8
   0   3 -16 16161.1 1278.96   4
   0   3  16 16863.6 1273.76   1
   0   3 -16 15638.9 1261.76  10
   0   3 -16 17647.7 1308.30   7
   0   3  17 4181.69 739.576   8
   0   3  17 3278.95 694.757   1
   0   4   0 725338. 16639.7   5
   0   4   0 773211. 16864.9   3
   0   4   0 760664. 16149.8   7
   0   4   0 771828. 16210.8  10
   0   4   0 748943. 16657.2   2
   0   4  -1 13707.2 535.895   4
   0   4   1 14924.3 796.184   5
   0   4   1 13581.5 468.000  10
   0   4  -1 13159.7 429.182   7
   0   4  -1 14683.2 723.881   5
   0   4  -1 15382.0 726.703   2
   0   4   1 14503.5 765.534   2
   0   4  -1 13549.5 470.698  10
   0   4   1 13892.0 598.262   3
   0   4  -1 12502.0 1001.58   3
   0   4   2 332652. 7655.54   5
   0   4   2 343034. 7700.03   2
   0   4  -2 326022. 7439.49   5
   0   4  -2 322648. 7129.52   7
   0   4  -2 323082. 7429.97   2
   0   4  -2 312847. 7750.64   4
   0   4   2 334831. 7530.30   4
   0   4  -2 322416. 7165.35  10
   0   4   3 20156.7 975.885   2
   0   4   3 19993.6 755.277   1
   0   4  -3 19601.8 715.659  10
   0   4   3 19207.6 966.436   5
   0   4   3 19967.5 502.148   6
   0   4  -3 20707.8 1199.42   4
   0   4   3 23499.6 1263.00   4
   0   4  -3 22814.8 1459.03   3
   0   4  -3 19625.9 809.759   5
   0   4  -3 18298.7 784.885   2
   0   4  -3 20686.2 718.894   7
   0   4  -4 605802. 13290.7   4
   0   4   4 568506. 13161.2   4
   0   4  -4 589090. 12607.3   7
   0   4   4 555720. 12200.6   6
   0   4  -4 569153. 12596.9   5
   0   4   4 539590. 12508.3   3
   0   4  -4 578406. 12595.7   2
   0   4   4 618898. 13013.2   5
   0   4  -4 591205. 12592.0  10
   0   4   4 581084. 12542.4   8
   0   4  -4 653300. 13836.1   3
   0   4   4 585776. 12634.9   1
   0   4   5 6171.16 456.061   3
   0   4  -5 6254.74 806.664   3
   0   4   5 6836.59 649.202   4
   0   4  -5 7124.70 550.044   7
   0   4  -5 9017.85 794.872   4
   0   4   5 6848.95 314.508   6
   0   4  -5 7910.94 550.039  10
   0   4   5 7698.29 557.134   1
   0   4  -5 7574.86 478.937   5
   0   4   5 7421.64 508.366   8
   0   4   5 7413.86 653.560   5
   0   4  -5 7021.32 450.474   2
   0   4   6 135258. 3604.50   1
   0   4  -6 131944. 3296.00   2
   0   4  -6 136345. 3587.35  10
   0   4   6 129362. 3130.85   6
   0   4   6 121268. 3377.89   3
   0   4  -6 142080. 4213.47   3
   0   4   6 134840. 3705.65   5
   0   4   6 132418. 3483.88   8
   0   4  -6 130127. 3850.45   4
   0   4  -6 136260. 3662.29   7
   0   4  -7 19636.6 1300.90   3
   0   4   7 18543.6 777.215   6
   0   4  -7 17042.0 1113.24   4
   0   4  -7 18208.1 791.028   2
   0   4  -7 16957.8 662.511   5
   0   4  -7 20196.0 1151.89   7
   0   4  -7 16642.9 1005.92  10
   0   4   7 18495.7 1047.44   5
   0   4   7 17743.5 1050.61   1
   0   4   7 16737.3 869.824   3
   0   4   7 17231.6 983.115   8
   0   4  -8 212169. 5745.77   3
   0   4  -8 192863. 5445.51   4
   0   4  -8 209903. 5651.12   7
   0   4  -8 211651. 4903.19   2
   0   4  -8 194371. 4668.36   5
   0   4  -8 195606. 5435.09  10
   0   4   8 206194. 5372.21   8
   0   4   8 199295. 5474.46   1
   0   4   8 207863. 5360.30   5
   0   4   9 6226.70 804.222   1
   0   4   9 4760.97 702.745   8
   0   4  -9 5192.32 377.161   5
   0   4  -9 4983.28 663.102   4
   0   4  -9 5351.56 754.031   3
   0   4  -9 5785.21 454.053   2
   0   4   9 6172.80 680.080   5
   0   4  -9 5567.76 815.722   7
   0   4  -9 6001.34 777.512  10
   0   4  10 36690.5 1882.59   8
   0   4 -10 36799.2 1966.14  10
   0   4 -10 32192.6 1658.20   4
   0   4  10 38169.2 1666.65   5
   0   4 -10 35569.3 1875.59   7
   0   4  10 38169.5 2014.51   1
   0   4 -10 38018.8 1861.25   3
   0   4  11 16405.5 1024.73   5
   0   4 -11 15387.3 1273.54  10
   0   4 -11 15892.7 1147.66   4
   0   4 -11 16148.3 1218.87   3
   0   4  11 14968.3 1218.52   1
   0   4 -11 16217.5 1220.25   7
   0   4  11 18367.4 1411.39   8
   0   4 -12 46745.7 2078.06   4
   0   4  12 47124.9 1778.61   6
   0   4  12 46110.8 2170.96   1
   0   4  12 46939.3 2230.80   8
   0   4 -12 47100.0 2153.30   7
   0   4 -12 45641.5 2130.91   3
   0   4 -12 44100.7 2155.87  10
   0   4  12 49578.7 1882.97   5
   0   4  13 3252.10 491.527   5
   0   4  13 3698.65 713.331   8
   0   4 -13 3950.99 735.004  10
   0   4  13 3735.39 724.012   1
   0   4  13 3318.16 492.843   6
   0   4 -13 4472.24 748.922   7
   0   4 -13 2312.16 596.396   4
   0   4 -14 7066.91 873.539   7
   0   4 -14 7527.70 872.567   4
   0   4  14 6133.99 852.312   1
   0   4 -14 6981.02 874.262  10
   0   4  14 6625.41 860.299   8
   0   4  15 6452.73 868.301   1
   0   4 -15 6707.13 866.396   7
   0   4  15 4713.29 763.777   8
   0   4 -15 6235.52 833.833   4
   0   4 -15 4900.00 800.343  10
   0   4 -16 10820.8 1064.14   4
   0   4  16 10125.3 1033.59   8
   0   4 -16 12558.8 1122.26   7
   0   4  16 10894.2 1082.29   1
   0   4 -16 8578.92 986.883  10
   0   5   0-327.740 624.346   3
   0   5   0 6.16146 238.972   2
   0   5   0 87.4614 88.7316   7
   0   5   0 4.23714 109.031  10
   0   5   0-81.2247 306.170   5
   0   5  -1 1729.97 334.776   2
   0   5  -1 1717.47 392.263   5
   0   5  -1 1135.28 129.577   7
   0   5  -1 1270.10 128.905   4
   0   5  -1 1743.40 191.316  10
   0   5   1 1175.93 319.980   3
   0   5   1 1337.21 167.081  10
   0   5  -1 599.357 698.444   3
   0   5   1 1220.17 394.502   5
   0   5   2 4160.26 546.970   5
   0   5  -2 3854.27 409.315   2
   0   5  -2 4415.53 412.906   4
   0   5  -2 4099.52 253.720   7
   0   5   2 3610.60 272.865   4
   0   5  -2 4281.62 284.138  10
   0   5  -2 4609.07 481.255   5
   0   5  -2 3864.59 713.390   3
   0   5  -3 27876.8 1135.66   5
   0   5   3 27318.0 1158.59   4
   0   5  -3 27805.2 916.317  10
   0   5  -3 27527.4 1562.62   3
   0   5  -3 27352.7 880.035   7
   0   5   3 27609.6 1270.44   5
   0   5  -3 27039.4 1105.97   2
   0   5  -3 28208.3 1331.72   4
   0   5  -4 21219.0 946.253   2
   0   5  -4 21233.6 832.267  10
   0   5  -4 23141.1 1280.16   4
   0   5   4 23638.6 1172.17   5
   0   5  -4 21965.6 841.548   7
   0   5   4 25199.3 1329.40   4
   0   5  -4 22001.1 967.686   5
   0   5   4 21714.2 887.563   1
   0   5  -4 21938.0 1370.86   3
   0   5   4 21213.4 553.350   6
   0   5   5 16430.6 990.787   5
   0   5   5 15637.9 804.300   1
   0   5   5 16578.6 766.688   8
   0   5   5 14039.8 966.288   4
   0   5   5 16099.3 479.560   6
   0   5  -5 16235.9 803.166   2
   0   5  -5 16824.7 805.508   7
   0   5   5 18393.6 806.308   3
   0   5  -5 15579.1 768.897  10
   0   5  -5 17079.2 834.670   5
   0   5  -5 16248.0 1051.85   4
   0   5  -5 15906.0 1162.77   3
   0   5  -6 11412.5 663.738   2
   0   5  -6 11348.8 1002.47   3
   0   5   6 11406.1 855.721   5
   0   5   6 9999.58 655.328   8
   0   5   6 11059.7 630.664   3
   0   5  -6 11607.7 687.787   5
   0   5  -6 10581.9 865.154   4
   0   5   6 11211.0 423.122   6
   0   5  -6 9616.29 678.560  10
   0   5  -6 11638.4 742.530   7
   0   5   6 10842.8 730.622   1
   0   5   7 35015.9 1580.25   5
   0   5   7 37148.3 1435.99   8
   0   5   7 31048.9 1235.82   3
   0   5   7 34451.3 1042.45   6
   0   5  -7 31424.4 1561.31   4
   0   5  -7 34993.3 1520.85   7
   0   5  -7 34737.5 1473.71  10
   0   5   7 34947.0 1506.37   1
   0   5  -7 35903.2 1316.52   2
   0   5  -7 36390.9 1335.13   5
   0   5  -7 34455.5 1765.16   3
   0   5  -8 35928.1 1816.66   3
   0   5  -8 37289.3 1719.12   7
   0   5   8 36232.7 1644.06   5
   0   5   8 36374.4 1664.83   1
   0   5  -8 40180.1 1423.02   5
   0   5   8 32434.9 1310.75   3
   0   5  -8 35823.2 1137.08   5
   0   5  -8 38671.9 1392.75   2
   0   5   8 35976.9 1183.14   6
   0   5  -8 34643.2 1651.25   4
   0   5  -8 37144.8 1650.08  10
   0   5   8 35115.8 1544.06   8
   0   5  -9 8744.76 873.827  10
   0   5   9 9408.42 861.096   5
   0   5   9 9303.40 595.742   6
   0   5  -9 9487.34 859.704   4
   0   5  -9 10574.0 631.374   2
   0   5   9 9326.50 857.734   8
   0   5  -9 10821.2 649.738   5
   0   5  -9 7396.09 857.034   7
   0   5   9 8667.33 881.301   1
   0   5  -9 11060.8 1030.42   3
   0   5  -9 9292.73 496.401   5
   0   5  10 9078.29 978.665   1
   0   5  10 8945.82 852.885   5
   0   5 -10 9157.11 870.984   4
   0   5 -10 9010.18 531.477   5
   0   5 -10 8053.73 949.774  10
   0   5 -10 8682.86 947.838   3
   0   5  10 8617.87 646.192   6
   0   5 -10 7845.14 971.468   7
   0   5  10 7802.45 883.447   8
   0   5 -11 11954.0 1187.38  10
   0   5  11 13399.2 1271.62   1
   0   5  11 13862.6 918.656   6
   0   5 -11 13959.9 1183.11   3
   0   5 -11 14058.7 1227.55   7
   0   5  11 13537.2 1040.27   5
   0   5 -11 13626.0 1060.62   4
   0   5  11 12592.1 1166.52   8
   0   5 -12 23702.1 1418.84   4
   0   5 -12 21905.9 1591.67  10
   0   5 -12 27019.1 1622.18   3
   0   5  12 27262.6 1785.29   8
   0   5 -12 25364.3 1597.54   7
   0   5  12 25227.7 1632.18   1
   0   5  12 24952.4 1355.45   5
   0   5  12 24177.2 1197.42   6
   0   5 -13 4933.42 819.958  10
   0   5 -13 6150.02 778.649   4
   0   5 -13 5379.07 803.251   7
   0   5  13 5647.77 674.367   5
   0   5  13 4774.45 818.880   1
   0   5  13 5320.33 874.393   8
   0   5  14 3270.40 719.935   8
   0   5  14 2628.06 672.065   1
   0   5 -14 3007.66 630.927   4
   0   5 -14 1832.77 640.946  10
   0   5 -14 3147.30 670.523   7
   0   5 -15 4870.71 764.678   4
   0   5 -15 3596.17 724.170  10
   0   5 -15 5057.38 842.233   7
   0   5  15 3419.35 729.187   1
   0   5  15 3342.94 716.562   8
   0   5  16 11966.0 1109.28   8
   0   5  16 13029.8 1183.66   1
   0   5 -16 10348.3 1088.42  10
   0   5 -16 12060.9 1125.40   7
   0   5 -16 11234.8 1067.49   4
   0   6   0 120439. 3460.56   5
   0   6   0 124147. 2882.96  10
   0   6   0 119765. 2790.32   7
   0   6   0 130570. 3727.18   3
   0   6  -1 36375.6 974.405   7
   0   6   1 35608.1 1045.03  10
   0   6   1 36286.9 1239.16   3
   0   6   1 34060.2 1488.17   5
   0   6  -1 37905.9 1891.54   3
   0   6  -1 35325.7 1043.84  10
   0   6  -1 37058.0 1482.12   5
   0   6   2 29730.5 904.657  10
   0   6  -2 28504.5 831.189   7
   0   6   2 30117.4 1405.84   5
   0   6  -2 29497.1 912.194  10
   0   6  -2 31018.5 1317.79   5
   0   6  -2 27687.7 913.798   4
   0   6  -2 30221.7 1626.13   3
   0   6   3 44212.9 1784.54   5
   0   6   3 40136.4 1292.13   4
   0   6  -3 42971.5 1637.01   5
   0   6  -3 41586.5 1491.92   4
   0   6  -3 41298.2 1197.73   7
   0   6  -3 42541.9 1945.83   3
   0   6  -3 41641.6 1255.62  10
   0   6   4 120467. 3479.75   5
   0   6  -4 112729. 2824.39   7
   0   6  -4 110791. 2860.55  10
   0   6  -4 111758. 3667.03   3
   0   6  -4 110045. 3199.27   5
   0   6   4 111562. 3170.69   4
   0   6  -4 113064. 3439.14   4
   0   6  -5 23915.7 972.984  10
   0   6   5 23927.6 1024.47   1
   0   6  -5 24635.1 960.180   7
   0   6   5 24430.1 1289.84   5
   0   6  -5 24885.4 1458.09   3
   0   6   5 26697.5 1389.84   4
   0   6   5 23607.0 582.085   6
   0   6  -5 26092.3 1403.77   4
   0   6   5 20377.1 537.860   3
   0   6  -5 24969.4 1152.07   5
   0   6  -5 24497.8 1121.81   2
   0   6   6 27570.1 732.334   6
   0   6  -6 27867.2 1250.09   5
   0   6  -6 26671.4 1542.67   3
   0   6   6 27683.4 1226.88   1
   0   6   6 26942.7 901.208   3
   0   6   6 29456.4 1461.14   5
   0   6  -6 26556.5 1154.18   7
   0   6  -6 26417.4 1141.53  10
   0   6  -6 27703.9 1435.15   4
   0   6  -6 26295.9 1212.44   2
   0   6  -7 29758.6 1495.82   4
   0   6  -7 27643.4 1279.24  10
   0   6   7 29005.0 1361.28   1
   0   6  -7 30937.8 1363.46   7
   0   6  -7 28622.3 1610.24   3
   0   6  -7 31581.5 1347.62   5
   0   6  -7 28993.7 1289.37   2
   0   6   7 32243.6 1176.85   3
   0   6   7 30302.6 1524.47   5
   0   6   7 28412.2 836.574   6
   0   6   7 29336.1 1264.11   8
   0   6  -8 81343.5 3041.57   3
   0   6  -8 81378.5 2844.72   4
   0   6   8 85899.3 2938.98   5
   0   6  -8 80258.8 2733.11  10
   0   6  -8 89424.8 2661.27   2
   0   6   8 84085.1 2818.94   1
   0   6   8 83376.0 2109.25   6
   0   6   8 81499.0 2655.25   8
   0   6  -8 83541.7 2794.39   7
   0   6   8 82443.5 2405.11   3
   0   6  -9 15644.7 1195.13   3
   0   6  -9 11970.5 1003.33  10
   0   6   9 14652.9 1025.85   8
   0   6  -9 13073.9 1006.28   4
   0   6   9 14604.3 1119.14   1
   0   6  -9 16114.1 836.985   5
   0   6   9 15248.8 661.505   6
   0   6  -9 13959.5 1088.66   7
   0   6   9 13778.0 1063.83   5
   0   6 -10 19443.2 1235.68   4
   0   6 -10 19054.2 1380.66   7
   0   6  10 20225.2 1297.47   5
   0   6  10 18146.2 1340.93   1
   0   6 -10 19429.3 853.738   5
   0   6  10 18344.7 1257.73   8
   0   6 -10 18398.6 1319.06   3
   0   6  10 19112.7 853.528   6
   0   6 -10 17281.0 1288.48  10
   0   6  11 20584.9 1545.13   1
   0   6  11 19518.4 1388.90   8
   0   6  11 19875.9 1312.85   5
   0   6 -11 19336.1 1260.33   4
   0   6 -11 17268.1 1363.22  10
   0   6 -11 19476.7 1523.58   7
   0   6 -11 20211.5 1390.36   3
   0   6 -12 35473.2 1777.85   4
   0   6  12 35691.3 1778.23   5
   0   6 -12 36451.0 2042.26   7
   0   6  12 37379.9 2130.14   1
   0   6  12 37384.4 2072.53   8
   0   6 -12 36226.9 1920.79   3
   0   6 -12 36705.0 2135.10  10
   0   6 -13 4745.34 720.800   4
   0   6 -13 2212.55 760.044  10
   0   6 -13 4763.47 817.327   7
   0   6  13 4366.37 830.112   1
   0   6  13 2510.60 804.060   8
   0   6  13 4152.89 648.609   5
   0   6 -14 7957.76 988.917  10
   0   6  14 8284.77 1039.92   8
   0   6  14 7550.23 980.295   1
   0   6 -14 7069.60 855.740   4
   0   6 -14 8802.74 1023.02   7
   0   6 -15 8114.49 1008.83  10
   0   6 -15 8041.41 985.999   7
   0   6  15 7965.09 996.377   8
   0   6 -15 7155.91 879.553   4
   0   6  15 7763.02 990.977   1
   0   6 -16 8383.92 952.722   4
   0   6 -16 8843.96 1044.40   7
   0   6  16 11023.5 1113.37   8
   0   7   0 20.1266 109.051   7
   0   7   0 28.3603 332.406   5
   0   7   0 173.892 143.654  10
   0   7   0-153.907 341.287   3
   0   7  -1 8306.63 889.111   3
   0   7  -1 8095.11 435.691  10
   0   7   1 8177.04 435.060  10
   0   7   1 7684.28 734.207   5
   0   7  -1 8886.64 383.754   7
   0   7   1 8102.78 494.622   3
   0   7  -1 8304.25 740.968   5
   0   7  -2-14.4311 447.157   3
   0   7   2 225.777 164.432  10
   0   7  -2 326.226 146.347   7
   0   7  -2 338.984 114.274   4
   0   7   2 642.067 490.849   5
   0   7  -2 387.504 338.187   5
   0   7  -2 355.324 176.768  10
   0   7  -3 12006.9 586.855  10
   0   7   3 11931.9 487.950   4
   0   7  -3 12371.4 631.007   4
   0   7  -3 11924.0 1029.49   3
   0   7  -3 12996.0 909.539   5
   0   7  -3 11986.0 534.800   7
   0   7   3 13835.2 1030.94   5
   0   7  -4 7784.19 729.575   5
   0   7  -4 8733.62 536.574  10
   0   7  -4 8541.45 482.320   7
   0   7   4 7838.31 813.559   5
   0   7  -4 8528.56 892.336   3
   0   7   4 8185.95 532.542   4
   0   7  -4 7281.99 610.159   4
   0   7  -5 16586.5 1039.09   5
   0   7   5 15732.5 918.347   4
   0   7  -5 15078.6 1058.11   4
   0   7   5 14561.3 1077.37   5
   0   7  -5 15928.8 792.809  10
   0   7  -5 14897.6 735.724   7
   0   7  -5 14869.4 1166.21   3
   0   7  -6 2948.81 552.950   4
   0   7  -6 4759.35 484.724   7
   0   7   6 4161.02 666.437   5
   0   7  -6 4396.26 594.732   5
   0   7  -6 4764.85 727.017   3
   0   7  -6 3435.66 455.780  10
   0   7  -7 16875.6 1228.24   3
   0   7  -7 18467.8 1083.81   5
   0   7  -7 17832.2 959.499   7
   0   7   7 16705.1 1180.71   5
   0   7  -7 15146.8 892.672  10
   0   7   7 17305.4 1007.53   1
   0   7   7 15808.2 432.800   6
   0   7  -7 17693.7 1132.33   4
   0   7  -8 11394.6 868.569   7
   0   7  -8 12819.3 1104.36   3
   0   7   8 11317.9 898.421   1
   0   7  -8 12210.7 899.061  10
   0   7   8 12548.2 1056.63   5
   0   7  -8 12109.7 863.519   5
   0   7   8 11685.2 428.449   6
   0   7  -8 10821.4 920.471   4
   0   7  -9 16817.5 1150.53   4
   0   7   9 16623.3 1222.53   5
   0   7  -9 18977.8 960.997   5
   0   7  -9 19181.1 1221.40   7
   0   7   9 16730.6 1181.05   1
   0   7  -9 16935.4 1152.62  10
   0   7  -9 19709.3 1349.10   3
   0   7  10 3421.46 716.844   1
   0   7 -10 2051.21 612.274  10
   0   7  10 3235.68 630.791   5
   0   7 -10 3345.79 616.634   4
   0   7  10 3144.78 623.825   8
   0   7 -10 3469.06 680.578   3
   0   7 -10 3435.59 682.202   7
   0   7 -11 9892.11 1059.12  10
   0   7 -11 11054.1 969.925   4
   0   7  11 12772.9 1200.67   1
   0   7 -11 10681.9 1045.68   3
   0   7  11 10972.2 1066.13   8
   0   7 -11 11274.4 1141.60   7
   0   7  11 10183.6 1004.43   5
   0   7  12 13755.2 1189.79   5
   0   7 -12 13082.5 1170.67   3
   0   7 -12 14538.1 1318.73  10
   0   7 -12 13615.2 1094.01   4
   0   7  12 12858.0 1347.93   1
   0   7  12 13503.8 1247.75   8
   0   7 -12 15694.7 1438.97   7
   0   7  13 7488.59 1033.27   1
   0   7  13 9088.92 1176.55   8
   0   7 -13 7457.88 1012.73   7
   0   7 -13 7929.96 1122.61  10
   0   7 -13 10414.2 985.782   4
   0   7  13 9209.82 926.915   5
   0   7  14 1382.74 715.372   8
   0   7  14 2983.34 625.911   5
   0   7 -14 2759.36 688.542   7
   0   7 -14 2070.45 716.631  10
   0   7  14 2133.76 734.430   1
   0   7 -14 2929.87 629.899   4
   0   7  15 4841.08 891.342   8
   0   7 -15 6018.32 811.478   4
   0   7  15 4359.46 825.503   1
   0   7 -15 4989.60 896.394  10
   0   7 -15 5376.10 858.267   7
   0   7 -16 6045.66 812.037   4
   0   8   0 218043. 4997.31  10
   0   8   0 216856. 5828.33   5
   0   8   0 216169. 4870.30   7
   0   8   0 215037. 5427.98   3
   0   8  -1 68526.4 2468.85   5
   0   8  -1 70615.6 2541.68   3
   0   8   1 64727.9 1794.96  10
   0   8   1 68637.4 1867.15   3
   0   8  -1 67639.1 1702.97   7
   0   8   1 67171.7 2488.82   5
   0   8  -1 62160.0 1786.97  10
   0   8  -2 98570.8 2436.55   7
   0   8   2 99804.1 2555.68  10
   0   8  -2 96948.8 3210.65   5
   0   8  -2 99833.4 2561.18  10
   0   8   2 98038.9 3274.55   5
   0   8   3 56026.7 1406.99   4
   0   8  -3 62022.9 2333.87   5
   0   8  -3 60501.5 1625.85   7
   0   8   3 62192.6 2397.86   5
   0   8  -3 59603.5 1725.61  10
   0   8  -3 63841.0 1637.33   4
   0   8  -3 63528.2 2577.75   3
   0   8   4 156971. 3790.55   4
   0   8  -4 156804. 3960.97  10
   0   8  -4 161407. 3866.62   7
   0   8  -4 163256. 4635.59   5
   0   8   4 172005. 4860.64   5
   0   8  -4 167565. 4925.25   3
   0   8  -4 162595. 4098.09   4
   0   8  -5 37043.5 1537.31   4
   0   8   5 35726.3 1813.68   5
   0   8   5 33023.0 1268.32   4
   0   8  -5 33350.7 1264.58  10
   0   8  -5 37665.4 1732.21   5
   0   8  -5 33560.1 1196.71   7
   0   8  -5 32215.5 1764.57   3
   0   8  -6 57123.7 2439.33   3
   0   8   6 63673.1 2535.57   5
   0   8  -6 62822.4 2367.45   4
   0   8  -6 60765.3 2354.99   5
   0   8  -6 54303.9 1888.65  10
   0   8  -6 57530.8 1860.66   7
   0   8   7 36473.0 1876.09   5
   0   8  -7 35079.9 1837.58   3
   0   8  -7 34022.6 1462.41  10
   0   8  -7 39517.3 1875.02   4
   0   8  -7 34406.6 1436.68   7
   0   8  -7 42206.7 1873.45   5
   0   8  -8 67198.5 2359.44   7
   0   8   8 72619.2 2795.70   5
   0   8  -8 75752.7 2509.22   5
   0   8  -8 64657.5 2338.13  10
   0   8  -8 65481.2 2714.98   3
   0   8  -8 70181.0 2617.49   4
   0   8   9 13470.0 1075.06   1
   0   8  -9 12932.6 974.543   7
   0   8  -9 11276.5 1055.73   3
   0   8   9 11215.7 1068.67   5
   0   8  -9 10109.0 916.717  10
   0   8  -9 10946.3 760.921   5
   0   8  -9 12521.2 1005.74   4
   0   8 -10 21764.4 1381.71   7
   0   8  10 21987.0 1485.85   5
   0   8 -10 19198.8 1337.13  10
   0   8 -10 20728.9 1316.20   4
   0   8 -10 22592.3 1490.99   3
   0   8  10 20915.5 1423.09   1
   0   8 -11 17955.2 1381.70   7
   0   8  11 17261.1 1347.98   5
   0   8 -11 15824.8 1298.07  10
   0   8 -11 18481.3 1369.29   3
   0   8 -11 18353.4 1237.48   4
   0   8  11 18701.0 1448.49   1
   0   8 -12 20642.5 1361.75   4
   0   8 -12 24328.0 1590.63   3
   0   8 -12 24339.1 1692.09   7
   0   8 -12 20448.1 1571.05  10
   0   8  12 22268.1 1528.91   5
   0   8  12 21931.7 1681.36   1
   0   8  13 3853.26 704.195   5
   0   8 -13 3243.33 779.227  10
   0   8 -13 4042.84 694.272   4
   0   8 -13 3959.54 894.953   7
   0   8  13 4508.90 1014.48   1
   0   8  14 6581.67 818.371   5
   0   8 -14 4663.65 877.906   7
   0   8  14 5773.58 983.615   1
   0   8 -14 6289.01 1058.35  10
   0   8 -14 6451.78 822.744   4
   0   8 -15 6226.86 933.373   7
   0   8 -15 6659.76 818.243   4
   0   8 -15 6025.09 1004.13  10
   0   9   0-192.824 498.059   5
   0   9   0 181.341 186.746  10
   0   9   0 558.035 318.459   3
   0   9  -1 1782.13 552.101   5
   0   9   1 1597.86 261.471  10
   0   9  -1 1597.25 448.979   3
   0   9  -1 1780.20 212.608   7
   0   9  -1 1648.43 278.452  10
   0   9   1 1196.90 491.435   5
   0   9  -2 365.266 160.526   7
   0   9  -2 444.107 428.770   5
   0   9   2 177.850 211.097  10
   0   9  -2 386.625 482.257   3
   0   9  -2 322.949 218.341  10
   0   9   2-215.085 571.147   5
   0   9  -3 18411.5 728.302   7
   0   9   3 19285.2 1332.38   5
   0   9  -3 21852.3 1596.82   3
   0   9  -3 18138.8 1238.62   5
   0   9  -3 18126.6 815.955  10
   0   9   4 2157.18 184.015   4
   0   9  -4 2219.35 299.602   7
   0   9  -4 2446.92 305.331   4
   0   9  -4 2226.79 340.322  10
   0   9  -4 3210.58 678.777   3
   0   9  -4 2935.78 609.434   5
   0   9   4 2092.10 675.351   5
   0   9  -5 12368.0 729.818  10
   0   9  -5 13731.4 1156.21   3
   0   9  -5 12158.9 662.919   7
   0   9   5 12188.7 602.990   4
   0   9  -5 14220.5 1118.17   5
   0   9  -5 14151.2 820.850   4
   0   9   5 15294.0 1250.20   5
   0   9  -6 1122.45 363.652  10
   0   9  -6 461.770 478.099   3
   0   9  -6 232.629 248.373   7
   0   9   6 143.049 511.855   5
   0   9  -6 422.138 359.863   4
   0   9  -6 700.212 453.576   5
   0   9  -7 28637.8 1608.68   5
   0   9   7 26044.6 1639.73   5
   0   9  -7 24190.7 1554.59   3
   0   9  -7 24273.4 1146.29   7
   0   9  -7 24563.1 1217.27  10
   0   9  -7 30055.6 1572.41   4
   0   9  -8 5959.65 671.697   5
   0   9  -8 6003.49 664.810  10
   0   9  -8 7319.56 878.766   4
   0   9  -8 6386.43 854.618   3
   0   9   8 7622.39 945.393   5
   0   9  -8 5867.36 626.493   7
   0   9  -9 11186.0 922.599  10
   0   9  -9 11064.5 1087.32   3
   0   9  -9 10659.1 762.734   5
   0   9  -9 10800.1 960.424   4
   0   9   9 11473.1 1110.69   5
   0   9  -9 9427.64 848.380   7
   0   9 -10 2678.72 711.313   3
   0   9 -10 1405.27 538.306  10
   0   9 -10 1885.21 529.511   4
   0   9  10 2470.17 693.244   5
   0   9 -10 1418.61 488.513   7
   0   9 -11 10294.0 1029.55   7
   0   9 -11 11896.7 1020.41   4
   0   9  11 10930.5 1144.02   5
   0   9 -11 11601.5 1117.87   3
   0   9 -11 11375.7 1121.89  10
   0   9 -12 5925.27 894.051   7
   0   9  12 5507.69 858.114   5
   0   9 -12 5400.47 924.805  10
   0   9 -12 6252.53 789.073   4
   0   9 -13 6222.10 1019.90  10
   0   9  13 4878.12 849.255   5
   0   9 -13 5270.41 941.302   7
   0   9 -13 6247.18 817.531   4
   0   9 -14-108.948 697.385   7
   0   9 -14 1412.32 513.279   4
   0   9 -14 1328.91 738.727  10
   0   9  14 1781.22 608.506   5
   0   9 -15 3176.41 632.907   4
   0  10   0 20488.2 1402.77   5
   0  10   0 21876.6 1001.04   3
   0  10   0 19591.0 853.869  10
   0  10   1 69731.8 2786.49   5
   0  10  -1 66741.2 1976.33  10
   0  10  -1 71725.2 1852.36   7
   0  10  -1 69467.8 2780.62   5
   0  10   1 66347.0 1958.26  10
   0  10  -1 74279.5 2448.34   3
   0  10   2 21075.9 905.946  10
   0  10  -2 21061.9 1434.13   5
   0  10  -2 22658.7 816.409   7
   0  10   2 21315.0 1447.04   5
   0  10  -2 21355.6 914.960  10
   0  10  -2 21591.8 1351.64   3
   0  10   3 57798.6 2549.00   5
   0  10  -3 58414.6 2519.31   5
   0  10  -3 60624.2 1695.94   7
   0  10  -3 57047.7 1816.21  10
   0  10  -4 17572.9 1310.82   5
   0  10  -4 20108.9 1522.03   3
   0  10  -4 19200.1 917.775  10
   0  10   4 17789.5 1381.37   5
   0  10  -4 18762.4 801.816   7
   0  10  -5 47495.8 1526.45   4
   0  10  -5 44661.6 1488.99   7
   0  10  -5 45882.6 2248.22   3
   0  10   5 48656.1 2313.48   5
   0  10  -5 43170.6 1591.08  10
   0  10  -5 48799.5 2257.74   5
   0  10  -6 13920.6 1207.98   5
   0  10  -6 12878.9 740.002   7
   0  10  -6 13254.3 831.028  10
   0  10  -6 15282.4 892.698   4
   0  10  -6 14692.5 1222.49   3
   0  10   6 12190.5 1210.58   5
   0  10   7 34350.9 1993.66   5
   0  10  -7 31996.8 1357.41   7
   0  10  -7 38091.3 1664.03   4
   0  10  -7 35092.0 1891.05   3
   0  10  -7 37802.4 1873.42   5
   0  10  -7 30470.0 1413.52  10
   0  10  -8 19035.0 1386.76   3
   0  10  -8 17905.9 1053.04   7
   0  10  -8 22061.9 1361.81   4
   0  10  -8 19124.4 1145.21  10
   0  10  -8 19605.6 1187.69   5
   0  10   8 19416.3 1516.78   5
   0  10   9 16322.6 1386.42   5
   0  10  -9 14089.7 1027.22   7
   0  10  -9 17144.9 1145.91  10
   0  10  -9 17956.2 1314.08   4
   0  10  -9 15032.6 1257.24   3
   0  10  10 8633.67 1070.03   5
   0  10 -10 5593.63 746.741   7
   0  10 -10 6823.71 827.201   4
   0  10 -10 9221.61 950.027  10
   0  10 -10 7535.85 949.187   3
   0  10 -11 12100.7 1136.15   7
   0  10 -11 15360.5 1256.69  10
   0  10 -11 14320.4 1127.12   4
   0  10 -11 14941.9 1262.79   3
   0  10  11 15320.9 1337.10   5
   0  10  12 8963.40 1110.22   5
   0  10 -12 10359.2 1128.84  10
   0  10 -12 10101.3 956.593   4
   0  10 -12 7637.16 979.157   7
   0  10  13 4402.00 872.509   5
   0  10 -13 3815.26 853.653  10
   0  10 -13 3910.12 819.363   7
   0  10 -13 4165.45 696.021   4
   0  10 -14 1990.69 797.218   7
   0  10  14 2863.91 706.914   5
   0  11   0 91.0249 227.465  10
   0  11   0 6.09419 601.954   5
   0  11   1 2967.27 696.050   5
   0  11   1 2812.91 369.614  10
   0  11  -1 2936.92 701.641   5
   0  11  -1 3313.73 387.208  10
   0  11  -1 3596.88 527.245   3
   0  11   2-74.4715 248.135  10
   0  11  -2-37.1741 509.990   5
   0  11  -2 164.650 186.125   7
   0  11  -2 261.130 406.278   3
   0  11  -2 249.951 240.672  10
   0  11  -3 5571.32 509.313  10
   0  11  -3 5919.03 813.762   3
   0  11  -3 4796.24 828.727   5
   0  11  -3 5156.88 398.858   7
   0  11   3 5689.09 911.925   5
   0  11  -4 47.9346 515.232   3
   0  11  -4 152.880 201.594   7
   0  11  -4-264.267 551.023   5
   0  11   4 281.410 592.392   5
   0  11  -4 164.149 275.101  10
   0  11   5 13701.7 1280.51   5
   0  11  -5 15204.0 1334.39   3
   0  11  -5 14346.2 1286.25   5
   0  11  -5 13871.6 839.680  10
   0  11  -5 14101.5 733.994   7
   0  11  -6-9.99536 534.258   5
   0  11  -6 679.424 581.509   3
   0  11   6 671.150 651.231   5
   0  11  -6 58.7446 313.784  10
   0  11  -6 544.414 277.230   7
   0  11   7 12336.7 1262.01   5
   0  11  -7 13139.3 1195.46   3
   0  11  -7 11802.2 860.586  10
   0  11  -7 13094.7 1125.38   5
   0  11  -7 12331.0 780.457   7
   0  11  -8 1276.04 620.641   3
   0  11  -8 1412.22 454.085  10
   0  11   8 559.719 618.501   5
   0  11  -8 1208.74 465.041   5
   0  11  -8 1673.46 411.174   7
   0  11   9 15919.0 1443.29   5
   0  11  -9 16346.1 1338.99   3
   0  11  -9 14874.7 1074.51  10
   0  11  -9 14840.2 1019.05   7
   0  11  10-55.2720 621.622   5
   0  11 -10 1413.61 544.032  10
   0  11 -10 1179.25 481.884   7
   0  11 -11 8214.70 932.850   7
   0  11 -11 9123.39 1021.85  10
   0  11  11 8615.34 1112.38   5
   0  11  12 740.702 598.970   5
   0  11 -12 2747.60 680.797   7
   0  11 -12 2720.22 735.466  10
   0  11 -13 5974.04 1002.75  10
   0  11  13 6528.12 1035.26   5
   0  11 -13 6466.63 941.548   7
   0  11  14 1849.05 713.574   5
   0  11 -14 705.403 646.258   7
   0  12   0 41042.9 1456.65  10
   0  12   0 40649.5 2235.96   5
   0  12  -1 67135.5 2928.64   5
   0  12  -1 60092.0 1927.69  10
   0  12   1 60970.3 1931.34  10
   0  12   1 61898.6 2850.73   5
   0  12   2 27953.4 1838.36   5
   0  12  -2 24512.0 1763.97   5
   0  12  -2 27174.8 1149.12  10
   0  12  -2 28256.8 1010.49   7
   0  12  -3 51720.0 2609.65   5
   0  12  -3 54197.7 1844.60  10
   0  12  -3 57555.8 1699.86   7
   0  12  -3 61341.9 2505.01   3
   0  12   3 55594.3 2680.08   5
   0  12  -4 32102.2 2007.51   5
   0  12  -4 34889.8 2005.05   3
   0  12  -4 33651.3 1218.04   7
   0  12  -4 34169.0 1386.58  10
   0  12   4 33708.6 2034.19   5
   0  12  -5 33894.5 1255.90   7
   0  12  -5 31286.0 1381.44  10
   0  12   5 33738.5 2068.90   5
   0  12  -5 35043.3 2126.35   5
   0  12  -5 36234.9 2194.37   3
   0  12  -6 13671.7 1343.12   5
   0  12  -6 13442.8 784.693   7
   0  12   6 14843.8 1434.30   5
   0  12  -6 15706.9 1357.67   3
   0  12  -6 13318.9 897.564  10
   0  12  -7 28359.4 1786.01   3
   0  12  -7 25803.3 1190.63   7
   0  12  -7 25819.9 1320.60  10
   0  12  -7 25392.4 1599.30   5
   0  12   7 26707.5 1850.11   5
   0  12  -8 13616.2 898.333   7
   0  12  -8 11231.5 1168.02   3
   0  12  -8 11098.8 921.929  10
   0  12   8 14506.2 1432.25   5
   0  12  -9 8176.38 858.378  10
   0  12   9 11465.1 1265.18   5
   0  12  -9 11044.0 864.927   7
   0  12 -10 4394.42 682.841   7
   0  12 -10 3587.10 672.542  10
   0  12  10 5829.88 1019.86   5
   0  12  11 9347.00 1215.08   5
   0  12 -11 7338.53 945.011  10
   0  12 -11 9262.74 951.915   7
   0  12 -12 3408.53 783.600  10
   0  12  12 2511.61 768.474   5
   0  12 -12 1968.86 622.303   7
   0  12 -13 2737.32 742.527   7
   0  12  13 2449.84 802.878   5
   0  13   0 891.030 695.930   5
   0  13   0 466.230 329.824  10
   0  13   1 995.087 628.087   5
   0  13  -1 1068.61 326.908  10
   0  13  -1 645.776 659.516   5
   0  13   1 969.953 318.639  10
   0  13  -2 766.323 635.166   5
   0  13   2 280.776 662.718   5
   0  13  -2-89.4385 289.215  10
   0  13  -3 4913.58 918.126   5
   0  13  -3 4939.93 421.662   7
   0  13  -3 4476.73 532.095  10
   0  13   3 4518.92 902.505   5
   0  13  -4 700.398 632.621   5
   0  13  -4 1426.35 390.897  10
   0  13  -4 1346.81 284.022   7
   0  13   4 1149.02 728.777   5
   0  13  -5 3515.74 884.632   5
   0  13   5 4918.00 1014.96   5
   0  13  -5 4214.83 555.568  10
   0  13  -5 4100.27 434.839   7
   0  13  -6 95.5603 544.819   5
   0  13  -6 1107.12 312.179   7
   0  13   6 1406.83 780.582   5
   0  13  -6 1905.18 454.771  10
   0  13  -7 7582.85 758.649  10
   0  13   7 7898.04 1157.49   5
   0  13  -7 8158.46 922.292   5
   0  13  -7 6824.62 602.048   7
   0  13  -8 1629.33 398.693   7
   0  13  -8 1180.27 437.018  10
   0  13   8 1630.84 727.989   5
   0  13   9 5968.70 1020.75   5
   0  13  -9 5185.77 742.311  10
   0  13  -9 5403.84 628.290   7
   0  13 -10 1280.78 458.336   7
   0  13 -10 1020.05 496.833  10
   0  13  10 1213.25 776.248   5
   0  13  11 6069.34 1057.07   5
   0  13 -11 4836.87 826.120  10
   0  14   0 8705.07 692.706  10
   0  14   0 9166.18 1242.34   5
   0  14   1 35725.2 2268.75   5
   0  14  -1 34322.0 2238.46   5
   0  14   1 34570.4 1426.67  10
   0  14  -1 32759.9 1398.82  10
   0  14   2 10024.9 1285.48   5
   0  14  -2 8121.50 1158.85   5
   0  14  -2 7115.31 642.190  10
   0  14  -3 31281.3 1391.84  10
   0  14  -3 33719.8 2225.48   5
   0  14   3 36017.0 2260.52   5
   0  14  -4 5229.13 1046.31   5
   0  14  -4 5611.97 624.329  10
   0  14   4 6045.12 1026.25   5
   0  14  -5 24396.2 1267.38  10
   0  14   5 25773.4 1926.23   5
   0  14  -5 24721.0 1983.95   5
   0  14  -6 1402.85 631.325   5
   0  14   6 1169.14 782.214   5
   0  14  -6 2333.16 530.279  10
   0  14  -7 15275.7 1080.00  10
   0  14   7 18055.2 1621.63   5
   0  14  -8 1065.69 494.834  10
   0  14   8 1509.90 713.693   5
   0  14   9 12513.6 1424.17   5
   0  14  -9 9305.39 962.397  10
   0  14 -10-104.639 486.107  10
   0  15   0 182.187 664.445   5
   0  15   0-315.635 347.329  10
   0  15  -1 765.820 386.989  10
   0  15   1 1229.20 692.013   5
   0  15  -1 1109.37 828.863   5
   0  15  -2 839.843 792.124   5
   0  15  -2 28.1693 338.939  10
   0  15   2 300.712 698.362   5
   0  15  -3 1498.62 445.162  10
   0  15   3 2870.44 859.317   5
   0  15  -3 1748.21 864.027   5
   0  15  -4 1356.08 858.669   5
   0  15   4-253.088 650.070   5
   0  15  -4 447.679 338.175  10
   0  15   5 5432.46 1122.63   5
   0  15  -5 5174.86 643.151  10
   0  15  -5 5121.50 1064.77   5
   0  15  -6 881.373 587.680   5
   0  15   6 519.563 808.483   5
   0  15  -6 629.022 448.892  10
   0  15   7 4420.82 945.921   5
   0  15  -7 4641.13 692.390  10
   0  15  -8 1820.95 570.728  10
   0  15  -9 4864.81 753.507  10
   0  16   0 8617.78 1330.92   5
   0  16   0 7848.33 737.668  10
   0  16  -1 21547.2 1187.53  10
   0  16  -1 20373.7 1934.72   5
   0  16   1 22067.1 1973.02   5
   0  16  -2 5885.12 1195.01   5
   0  16   2 5515.95 1134.64   5
   0  16  -2 7022.26 704.729  10
   0  16  -3 20260.9 1891.06   5
   0  16  -3 18052.7 1113.30  10
   0  16   3 18265.8 1773.63   5
   0  16  -4 4107.41 620.180  10
   0  16  -4 3413.17 1017.74   5
   0  16   4 5563.26 1089.62   5
   0  16   5 12915.3 1539.74   5
   0  16  -5 12315.6 968.277  10
   0  16  -5 15183.3 1613.76   5
   0  16  -6 1292.36 501.716  10
   0  16  -7 10832.0 969.779  10
   0  17   0 82.4935 834.551   5
   0  17  -1 83.7584 362.973  10
   0  17   1-294.297 707.135   5
   0  17  -1 833.531 880.358   5
   0  17  -2-480.228 829.400   5
   0  17  -2 634.201 422.441  10
   0  17  -3 1520.38 477.934  10
   0  17  -3 405.888 802.223   5
   0  17  -4 1924.14 806.723   5
   0  17  -4 511.483 399.714  10
   0  17  -5 519.833 436.190  10
  -1 -17   5 2461.81 667.122   2
  -1 -17   4 488.376 533.496   2
  -1 -17   3 3296.95 730.081   2
  -1 -17   3 3506.56 534.183   1
  -1 -17   2 1308.49 413.736   1
  -1 -17   2 1254.76 704.104   2
  -1 -17   1 1132.58 691.582   2
   1 -17  -1 1735.35 789.368   2
   1 -17   0 1517.72 665.894   2
  -1 -17   0 1714.08 753.920   2
   1 -17   1 1040.88 604.599   2
   1 -17   2 2634.33 574.351   1
   1 -17   2 2362.12 689.965   2
   1 -17   3-122.501 411.761   1
   1 -17   3-637.568 563.667   2
  -1 -16   6 1035.12 496.158   2
  -1 -16   5 12736.3 1151.80   2
   1 -16  -5 14599.2 1610.20   2
  -1 -16   5 14472.8 1094.13   8
  -1 -16   4 2004.76 572.164   2
  -1 -16   4 3527.65 544.156   1
   1 -16  -4 4000.68 925.752   2
  -1 -16   4 4232.00 635.686   8
   1 -16  -3 17375.4 1661.65   2
  -1 -16   3 16759.8 1013.10   1
  -1 -16   3 14102.1 1269.57   2
   1 -16  -2 5384.90 1039.97   2
  -1 -16   2 5673.95 915.459   2
  -1 -16   2 4458.09 579.996   1
   1 -16  -1 17290.3 1515.30   2
  -1 -16   1 18790.3 1484.05   2
   1 -16   0 6830.61 993.788   2
  -1 -16   0 6631.80 1061.42   2
   1 -16   1 15374.8 1312.61   2
  -1 -16  -1 18411.8 1578.18   2
   1 -16   2 5534.85 842.829   2
   1 -16   2 5649.65 732.153   8
  -1 -16  -2 6545.52 1106.02   2
   1 -16   2 5623.22 679.253   1
   1 -16   3 16429.0 1142.65   8
   1 -16   3 14305.1 1022.66   1
   1 -16   3 13757.0 1174.80   2
  -1 -16  -3 15084.2 1551.66   2
   1 -16   4 4692.02 661.150   1
  -1 -16  -4 4420.97 965.741   2
   1 -16   4 5521.56 763.711   8
   1 -16   4 3104.53 622.727   2
   1 -16   5 10620.3 915.366   1
   1 -16   5 11222.0 1015.33   8
   1 -16   6 1451.76 495.803   1
  -1 -15   7 4494.60 681.881   8
   1 -15  -7 4035.55 1033.48   2
   1 -15  -6 299.810 736.194   2
  -1 -15   6 569.292 450.247   2
  -1 -15   6 223.019 353.337   1
  -1 -15   6 598.857 460.694   8
  -1 -15   5 4615.44 574.165   1
   1 -15  -5 3892.44 998.166   2
  -1 -15   5 6375.00 729.745   8
  -1 -15   5 5312.16 747.155   2
   1 -15  -4 711.904 727.547   2
  -1 -15   4 976.570 528.720   2
  -1 -15   4 556.980 369.046   1
  -1 -15   4 1197.65 482.558   8
  -1 -15   3 3075.29 472.372   1
   1 -15  -3 2847.87 857.014   2
  -1 -15   3 2371.57 637.731   2
  -1 -15   2 2032.42 658.699   2
   1 -15  -2 1246.47 739.250   2
  -1 -15   1 3012.77 729.399   2
   1 -15  -1 4396.43 862.142   2
  -1 -15   0 2252.21 704.799   2
   1 -15   0 1321.24 638.142   2
  -1 -15  -1 541.988 621.907   2
   1 -15   1 315.609 494.376   2
  -1 -15  -2 2543.12 790.686   2
   1 -15   2 2547.54 639.026   2
   1 -15   2 4103.56 553.669   1
   1 -15   3 870.052 467.018   2
   1 -15   3 813.195 394.746   1
   1 -15   3 1466.87 501.340   8
  -1 -15  -3 528.448 734.447   2
  -1 -15  -4 3642.24 977.937   2
   1 -15   4 4621.56 685.930   2
   1 -15   4 5237.18 695.589   8
   1 -15   4 4797.90 623.540   1
   1 -15   5-42.2054 363.179   1
   1 -15   5 264.053 394.369   8
   1 -15   5 187.351 405.058   2
  -1 -15  -5 375.261 759.251   2
  -1 -15  -6 4910.62 1119.74   2
   1 -15   6 5608.89 757.636   8
   1 -15   6 5827.60 699.419   1
  -1 -15  -7 1590.01 947.965   2
   1 -15   7 1203.67 550.128   8
   1 -15   7 430.401 424.990   1
   1 -15   8 4845.55 717.425   1
   1 -15   9 1354.95 589.495   1
  -1 -14   9 10350.7 984.720   8
   1 -14  -9 11337.3 1491.97   2
  -1 -14   8 1338.76 490.867   8
   1 -14  -8 2006.89 1004.89   2
   1 -14  -7 17256.9 1807.44   2
  -1 -14   7 16536.4 1044.65   1
  -1 -14   7 15498.5 1113.32   2
  -1 -14   7 15025.5 1092.91   8
  -1 -14   6 1655.47 532.378   8
  -1 -14   6 701.796 495.878   2
  -1 -14   6 122.230 336.754   1
   1 -14  -6 938.233 740.488   2
   1 -14  -5 15890.5 1580.94   2
  -1 -14   5 16543.1 1182.46   2
  -1 -14   5 14444.8 897.620   1
  -1 -14   5 16308.4 1052.37   8
  -1 -14   4 995.827 538.627   2
  -1 -14   4 1071.79 433.483   8
  -1 -14   4 856.859 348.684   1
   1 -14  -4 173.856 666.264   2
  -1 -14   3 15542.0 1193.82   2
  -1 -14   3 16313.1 903.913   1
   1 -14  -3 15698.7 1462.44   2
  -1 -14   2 479.783 477.689   2
   1 -14  -2 552.006 561.098   2
  -1 -14   1 17966.1 1357.30   2
   1 -14  -1 17473.0 1429.69   2
   1 -14   0 84.8239 496.159   2
  -1 -14   0 780.897 597.901   2
  -1 -14  -1 15958.3 1380.03   2
   1 -14   1 14109.2 1163.89   2
  -1 -14  -2 565.974 602.041   2
   1 -14   2 981.481 459.544   2
   1 -14   3 17644.8 1070.49   8
   1 -14   3 16501.8 1150.30   2
   1 -14   3 16049.8 967.790   1
  -1 -14  -4-508.453 733.525   2
   1 -14   4 747.420 436.596   8
   1 -14   4 125.837 344.964   1
   1 -14   4 135.022 369.442   2
   1 -14   5 15338.0 1040.78   2
  -1 -14  -5 13021.1 1506.75   2
   1 -14   5 16698.9 1121.49   8
   1 -14   5 14647.7 979.630   1
  -1 -14  -6 11.7559 687.132   2
   1 -14   6 377.535 417.815   8
   1 -14   6 353.765 355.678   1
   1 -14   7 14332.0 1040.50   1
  -1 -14  -7 14984.1 1659.59   2
   1 -14   7 15268.0 1147.50   8
   1 -14   8 941.044 498.844   8
   1 -14   8 1685.51 548.531   1
  -1 -14  -8 341.689 743.002   2
   1 -14   9 10724.7 1107.45   8
  -1 -14  -9 12938.9 1588.78   2
   1 -14   9 10216.3 994.295   1
   1 -14  10 995.976 549.700   1
   1 -13 -11 6993.92 1053.98   2
   1 -13 -10 1279.22 747.799   2
  -1 -13  10 1714.86 586.906   8
   1 -13  -9 5128.02 1000.69   2
  -1 -13   9 3969.24 644.073   8
  -1 -13   9 4050.69 630.822   1
  -1 -13   8 136.598 377.165   8
  -1 -13   8 740.899 379.182   1
   1 -13  -8 891.976 855.992   2
  -1 -13   8 297.712 348.902   2
  -1 -13   7 5594.37 689.147   8
   1 -13  -7 6935.15 1192.73   2
  -1 -13   7 5898.14 682.017   2
  -1 -13   7 5542.80 612.622   1
  -1 -13   6 522.456 411.251   2
  -1 -13   6 652.060 346.620   1
   1 -13  -6-623.739 824.513   2
  -1 -13   6 197.367 355.012   8
  -1 -13   5 1859.02 504.254   2
  -1 -13   5 2071.43 487.799   8
  -1 -13   5 1544.92 355.188   1
   1 -13  -5 934.653 776.667   2
   1 -13  -4 399.949 640.217   2
  -1 -13   4 177.898 270.984   1
  -1 -13   4 90.1123 402.803   2
  -1 -13   3 3838.23 664.490   2
   1 -13  -3 3431.70 902.342   2
  -1 -13   3 3849.61 452.047   1
  -1 -13   2-338.672 447.123   2
   1 -13  -2 686.914 617.280   2
  -1 -13   1-285.303 437.186   2
   1 -13  -1 658.765 565.785   2
   1 -13   0 329.954 422.827   2
  -1 -13   0 216.736 527.348   2
   1 -13   1 1086.58 528.803   2
  -1 -13  -1 456.488 542.507   2
  -1 -13  -2 2113.06 608.025   2
   1 -13   2 2955.86 567.806   2
  -1 -13  -3 1476.33 686.316   2
   1 -13   3 2071.12 473.702   8
   1 -13   3 1137.62 416.172   2
   1 -13   3 1383.71 391.177   1
   1 -13   4 5691.04 633.024   8
  -1 -13  -4 4473.55 885.405   2
   1 -13   4 4967.31 563.266   1
   1 -13   4 4868.50 620.551   2
   1 -13   5-30.6056 306.001   2
  -1 -13  -5-183.460 657.569   2
   1 -13   5 311.002 342.907   1
   1 -13   5 232.602 371.935   8
   1 -13   6 5916.41 607.014   2
  -1 -13  -6 7566.13 1195.49   2
   1 -13   6 5692.79 696.443   8
   1 -13   6 6590.63 660.348   1
  -1 -13  -7 2338.26 853.824   2
   1 -13   7 2685.72 514.694   1
   1 -13   7 1661.81 492.149   8
   1 -13   8 8035.70 847.953   8
  -1 -13  -8 10117.5 1435.74   2
   1 -13   8 8959.59 847.684   1
  -1 -13  -9-74.2184 719.634   2
   1 -13   9 1715.62 575.944   1
   1 -13   9 803.173 530.200   8
  -1 -13 -10 7644.09 1094.21   2
   1 -13  10 6604.75 930.761   8
   1 -13  10 5890.53 794.884   1
  -1 -13 -11 4239.14 895.928   2
   1 -13  11 2216.78 655.625   1
   1 -12 -12 1603.86 643.454   2
  -1 -12  12 1639.59 572.016   8
   1 -12 -11 10628.5 1170.87   2
  -1 -12  11 8741.04 994.873   8
   1 -12 -10 2330.62 757.032   2
  -1 -12  10 2683.88 627.555   8
  -1 -12  10 1185.26 457.182   1
  -1 -12   9 16041.3 1153.10   8
   1 -12  -9 17938.8 1662.16   2
  -1 -12   9 16331.3 1093.46   1
  -1 -12   8 5961.99 706.259   8
   1 -12  -8 6307.11 1244.30   2
  -1 -12   8 5702.82 652.674   1
  -1 -12   8 5490.99 631.366   2
   1 -12  -7 26346.5 2076.75   2
  -1 -12   7 22165.9 1243.77   8
  -1 -12   7 23943.7 1256.85   2
  -1 -12   7 23122.0 1149.86   1
  -1 -12   6 5305.22 627.171   8
  -1 -12   6 5685.23 561.205   1
  -1 -12   6 6505.31 708.413   2
   1 -12  -6 5812.76 1066.86   2
  -1 -12   5 31470.6 1254.92   1
  -1 -12   5 32854.2 1548.97   2
   1 -12  -5 28391.3 2020.83   2
  -1 -12   5 30221.9 1366.53   8
  -1 -12   4 16650.3 1112.05   2
   1 -12  -4 16203.6 1499.26   2
  -1 -12   4 16952.9 853.971   1
   1 -12  -3 33360.2 1992.74   2
  -1 -12   3 30593.4 1561.77   2
   1 -12  -2 19921.0 1486.15   2
  -1 -12   2 20486.1 1286.89   2
  -1 -12   1 31898.0 1672.07   2
   1 -12  -1 31995.8 1789.61   2
  -1 -12   0 36331.0 1862.09   2
   1 -12   0 35817.7 1828.67   2
  -1 -12  -1 25314.4 1598.12   2
   1 -12   1 27580.7 1498.67   2
  -1 -12  -2 25659.8 1654.85   2
   1 -12   2 23979.2 1347.11   2
   1 -12   3 26483.1 1219.53   8
   1 -12   3 24894.2 1129.94   1
   1 -12   3 24637.8 1305.92   2
  -1 -12  -3 23548.6 1671.36   2
  -1 -12  -4 24716.8 1771.51   2
   1 -12   4 27085.7 1215.22   1
   1 -12   4 27348.6 1291.91   8
   1 -12   4 25983.1 1294.23   2
   1 -12   5 16103.3 949.835   1
   1 -12   5 15842.7 1006.76   8
  -1 -12  -5 15723.0 1485.59   2
   1 -12   5 17230.5 986.181   2
   1 -12   6 12432.9 933.322   8
   1 -12   6 12248.4 802.682   2
   1 -12   6 11241.5 834.448   1
  -1 -12  -6 13268.9 1408.40   2
  -1 -12  -7 14372.1 1531.03   2
   1 -12   7 13442.9 937.305   1
   1 -12   7 14499.9 1053.39   8
  -1 -12  -8 7568.01 1217.85   2
   1 -12   8 9662.03 861.899   1
   1 -12   8 9494.92 933.711   8
   1 -12   9 8704.05 880.232   1
   1 -12   9 11534.6 1044.94   8
  -1 -12  -9 9607.25 1316.40   2
   1 -12  10 1466.64 541.321   1
  -1 -12 -10 2895.89 823.262   2
   1 -12  10 2056.64 644.711   8
  -1 -12 -11 7666.00 1047.54   2
   1 -12  11 7970.86 964.995   8
   1 -12  11 5793.89 853.230   1
  -1 -12 -12 2157.44 697.697   2
   1 -12  12 2362.53 673.623   1
  -1 -12 -13 3430.42 704.075   2
  -1 -11  13 8067.36 1047.06   8
   1 -11 -13 9320.48 1018.98   2
   1 -11 -12 3616.93 799.495   2
  -1 -11  12 2321.46 690.048   8
  -1 -11  11 7482.33 864.550   1
  -1 -11  11 10614.3 1046.51   8
   1 -11 -11 8945.44 1090.84   2
  -1 -11  10 2573.96 612.422   8
  -1 -11  10 1258.09 458.194   1
   1 -11 -10 2347.75 778.228   2
   1 -11  -9 16637.4 1526.76   2
  -1 -11   9 15693.2 1102.29   8
  -1 -11   9 16967.5 1084.05   1
  -1 -11   8 4190.86 532.156   1
  -1 -11   8 3413.89 551.516   8
   1 -11  -8 3550.15 1040.91   2
  -1 -11   8 3413.37 486.170   2
   1 -11  -7 10669.2 1423.00   2
  -1 -11   7 11357.9 826.999   2
  -1 -11   7 11187.7 824.626   8
  -1 -11   7 12148.5 790.028   1
  -1 -11   6 2734.02 399.426   1
  -1 -11   6 3193.28 496.114   2
  -1 -11   6 2761.37 457.579   8
   1 -11  -6 1445.04 726.399   2
  -1 -11   5 25407.3 1070.61   1
  -1 -11   5 25835.3 1307.34   2
   1 -11  -5 25444.8 1863.06   2
  -1 -11   5 27289.8 1216.09   8
   1 -11  -4 4045.90 816.226   2
  -1 -11   4 4512.87 429.736   1
  -1 -11   4 4871.93 619.362   2
  -1 -11   3 7627.07 754.966   2
   1 -11  -3 6093.08 925.562   2
   1 -11  -2 2693.63 647.221   2
  -1 -11   2 3809.46 606.047   2
   1 -11  -1 22874.5 1462.59   2
  -1 -11   1 24165.0 1365.19   2
   1 -11   0 8378.55 855.922   2
  -1 -11   0 8652.02 882.787   2
  -1 -11  -1 1685.97 516.249   2
   1 -11   1 1929.54 544.472   2
   1 -11   2 9899.80 809.429   2
  -1 -11  -2 7635.34 895.117   2
   1 -11   3 8276.62 645.689   8
   1 -11   3 8866.08 630.190   1
   1 -11   3 8268.55 711.312   2
  -1 -11  -3 7393.13 985.555   2
   1 -11   4 13022.6 847.140   2
   1 -11   4 14245.5 821.333   1
  -1 -11  -4 13764.7 1273.75   2
   1 -11   4 14177.0 866.904   8
  -1 -11  -5 326.182 664.044   2
   1 -11   5 541.134 359.872   8
   1 -11   5 459.070 312.102   1
   1 -11   5 477.887 311.878   2
   1 -11   6 11471.0 847.475   8
   1 -11   6 11140.7 789.768   1
  -1 -11  -6 12027.5 1287.94   2
   1 -11   6 11168.5 719.394   2
   1 -11   7 1351.01 363.048   1
  -1 -11  -7 1009.89 693.761   2
   1 -11   7 2001.04 357.393   2
   1 -11   7 1825.79 503.693   8
   1 -11   8 14457.4 1066.06   8
  -1 -11  -8 12910.3 1437.36   2
   1 -11   8 14417.4 997.720   1
  -1 -11  -9 283.244 640.524   2
   1 -11   9 1187.51 538.322   8
   1 -11   9 297.010 421.395   1
  -1 -11 -10 6961.11 1005.09   2
   1 -11  10 7656.96 926.035   8
   1 -11  10 7856.52 860.507   1
   1 -11  11 1539.91 667.915   8
  -1 -11 -11 1494.08 583.929   2
   1 -11  11 1606.02 584.553   1
   1 -11  12 6718.03 928.666   1
  -1 -11 -12 7187.58 893.994   2
   1 -11  12 6307.26 956.680   8
  -1 -11 -13 793.094 467.683   2
   1 -11  13 570.855 581.542   1
   1 -10 -14 1443.13 593.259   2
  -1 -10  13 4794.04 839.231   8
   1 -10 -13 5245.91 794.299   2
   1 -10 -12 5507.85 878.964   2
  -1 -10  12 3648.64 735.166   8
  -1 -10  12 4170.58 719.231   1
  -1 -10  11 13023.2 1110.73   8
  -1 -10  11 9973.54 988.069   1
   1 -10 -11 12915.8 1206.74   2
   1 -10 -10 3747.78 757.095   2
  -1 -10  10 2795.09 547.352   1
  -1 -10  10 3756.56 675.069   8
  -1 -10   9 14485.5 1038.18   8
  -1 -10   9 17455.1 1076.37   1
   1 -10  -9 15208.1 1395.82   2
  -1 -10   8 7150.01 718.130   8
   1 -10  -8 9280.86 1255.04   2
  -1 -10   8 8167.18 695.915   1
   1 -10  -7 24649.3 1210.88   4
  -1 -10   7 23412.9 1187.75   8
  -1 -10   7 24768.7 1170.99   2
   1 -10  -7 27341.8 2045.29   2
  -1 -10   7 23377.8 1093.10   1
   1 -10  -6 5838.23 1034.63   2
  -1 -10   6 5061.74 555.826   2
  -1 -10   6 5887.51 571.847   8
  -1 -10   6 4545.26 450.336   1
   1 -10  -6 5879.79 512.293   4
  -1 -10   5 24589.1 1198.61   2
   1 -10  -5 23518.8 1751.72   2
  -1 -10   5 23054.3 965.959   1
  -1 -10   5 24001.6 1094.67   8
   1 -10  -4 13710.2 1304.98   2
  -1 -10   4 12835.5 664.090   1
  -1 -10   4 12188.3 860.348   2
   1 -10  -3 27684.6 1756.29   2
  -1 -10   3 29572.7 1390.59   2
   1 -10  -2 6665.82 859.674   2
  -1 -10   2 6964.15 710.897   2
   1 -10  -1 32151.8 1668.08   2
  -1 -10   1 33151.1 1561.92   2
  -1 -10   0 15620.8 1084.02   2
   1 -10   0 15097.1 624.133   3
   1 -10   0 15086.3 1090.65   2
  -1 -10  -1 21564.5 1351.57   2
   1 -10   1 21928.4 1219.45   2
  -1 -10  -2 5769.04 223.033   6
   1 -10   2 8417.80 726.368   2
  -1 -10  -2 6588.40 254.980   6
  -1 -10  -2 7542.77 884.382   2
   1 -10   3 33948.5 1271.68   1
  -1 -10  -3 34350.0 1841.14   2
   1 -10   3 34662.5 1324.13   8
   1 -10   3 32414.9 1391.82   2
   1 -10   4 15061.5 814.607   1
   1 -10   4 16201.3 890.007   2
   1 -10   4 16366.2 892.248   8
  -1 -10  -4 15652.2 1308.95   2
   1 -10   5 18323.6 1006.22   8
   1 -10   5 19666.2 968.925   1
  -1 -10  -5 18596.0 1454.27   2
   1 -10   5 20303.8 957.205   2
   1 -10   6 5666.18 558.725   1
   1 -10   6 6676.73 523.250   2
   1 -10   6 5635.00 610.822   8
  -1 -10  -6 5853.92 923.304   2
   1 -10   7 28198.9 1096.51   2
   1 -10   7 28101.9 1386.92   8
   1 -10   7 27132.8 1283.97   1
  -1 -10  -7 26240.5 1892.86   2
   1 -10   8 9929.83 893.883   8
   1 -10   8 10388.8 825.873   1
  -1 -10  -8 9078.08 1216.07   2
  -1 -10  -9 13605.5 1367.10   2
   1 -10   9 15047.7 1130.73   8
   1 -10   9 12617.8 990.977   1
   1 -10  10 4012.82 684.906   1
   1 -10  10 4126.42 750.354   8
  -1 -10 -10 3284.22 774.446   2
  -1 -10 -11 13943.5 1205.02   2
   1 -10  11 14800.2 1270.53   8
   1 -10  11 12939.1 1144.44   1
   1 -10  12 3413.82 729.474   1
   1 -10  12 4344.32 857.709   8
  -1 -10 -12 4050.70 691.805   2
   1 -10  13 4866.58 870.863   1
  -1 -10 -13 4399.26 680.470   2
   1 -10  13 5195.77 950.025   8
   1 -10  14 3057.91 841.327   1
  -1 -10 -14 908.426 598.074  10
   1  -9 -15 4896.61 743.343   2
  -1  -9  14 1824.93 706.964   8
   1  -9 -14 3232.14 628.707   2
  -1  -9  13 5807.52 908.305   8
   1  -9 -13 6817.38 789.019   4
   1  -9 -13 5689.24 779.384   2
  -1  -9  13 8730.85 1046.30   1
  -1  -9  12 5247.72 812.456   1
  -1  -9  12 4743.69 784.066   8
   1  -9 -12 6524.75 771.079   4
   1  -9 -12 4953.15 750.043   2
   1  -9 -11 4766.20 651.196   4
   1  -9 -11 4415.33 771.525   2
  -1  -9  11 4842.57 730.252   8
  -1  -9  11 3503.84 653.940   1
  -1  -9  10 3772.42 601.888   1
  -1  -9  10 6290.51 772.730   8
   1  -9 -10 6458.24 882.814   2
   1  -9 -10 6013.26 698.402   4
  -1  -9   9 6994.82 724.641   8
   1  -9  -9 7549.68 764.037   4
   1  -9  -9 7758.67 1023.49   2
  -1  -9   9 6535.41 684.541   1
   1  -9  -8 10163.1 1213.82   2
   1  -9  -8 10502.9 882.178   4
  -1  -9   8 10357.2 762.419   1
  -1  -9   8 9971.90 788.907   8
   1  -9  -7 1820.34 834.453   2
   1  -9  -7 1413.83 463.787   4
  -1  -9   7 1556.86 356.381   1
  -1  -9   7 1128.45 363.060   8
  -1  -9   7 1175.57 326.426   2
  -1  -9   6 10825.7 717.637   8
  -1  -9   6 11138.3 652.985   1
   1  -9  -6 11991.1 1285.63   2
  -1  -9   6 11449.2 748.109   2
   1  -9  -6 11328.5 813.168   4
   1  -9  -5 7215.66 546.584   4
  -1  -9   5 6420.42 594.579   2
  -1  -9   5 7049.94 563.984   8
  -1  -9   5 6351.03 473.954   1
   1  -9  -5 8562.79 1093.20   2
  -1  -9   4 11010.5 573.752   1
   1  -9  -4 11564.9 542.171   4
  -1  -9   4 11223.0 781.562   2
   1  -9  -4 10714.0 1118.81   2
  -1  -9   4 11004.1 471.080   4
   1  -9  -4 10799.6 428.139   6
   1  -9  -3 242.334 556.239   2
   1  -9  -3 30.9394 95.7840   6
  -1  -9   3 676.608 352.778   2
  -1  -9   2 8490.76 717.357   2
   1  -9  -2 9199.53 940.039   2
  -1  -9   1 10012.3 491.050   7
   1  -9  -1 10317.1 390.386   3
   1  -9  -1 11675.4 955.932   2
  -1  -9   1 12399.6 881.524   2
   1  -9   0 5226.54 364.642   3
  -1  -9   0 5027.23 626.986   2
   1  -9   0 5257.04 661.442   2
  -1  -9   0 5828.55 319.974   7
  -1  -9   0 5304.94 315.354   3
  -1  -9  -1 422.858 118.351   7
  -1  -9  -1 508.190 113.339   3
   1  -9   1 588.499 371.866   2
  -1  -9  -1 560.851 411.167   2
   1  -9   2 1035.46 75.1037   4
  -1  -9  -2 1188.74 100.569   6
  -1  -9  -2 886.293 135.474   7
  -1  -9  -2 768.195 490.942   2
  -1  -9  -2 877.416 79.6378   6
   1  -9   2 1049.04 64.5646   4
  -1  -9  -3 8807.20 416.611   7
   1  -9   3 9460.67 680.376   2
   1  -9   3 9701.01 595.710   1
   1  -9   3 9407.54 619.666   8
   1  -9   3 10029.2 468.094   4
  -1  -9  -3 8588.63 911.480   2
   1  -9   4 6514.20 549.672   8
  -1  -9  -4 6299.97 858.825   2
   1  -9   4 7406.30 566.095   2
   1  -9   4 6233.47 503.520   4
   1  -9   4 6361.00 508.437   1
  -1  -9  -5 631.946 571.022   2
   1  -9   5 492.569 262.801   1
   1  -9   5 873.301 354.195   8
   1  -9   5 608.553 253.740   2
  -1  -9  -6 5956.31 939.915   2
   1  -9   6 5402.08 441.858   2
   1  -9   6 4982.54 560.715   8
   1  -9   6 5469.96 526.988   1
   1  -9   7 6469.33 632.097   1
  -1  -9  -7 7133.86 1006.45   2
   1  -9   7 7962.24 735.035   8
   1  -9   7 7402.66 484.102   2
   1  -9   8 11375.7 852.904   1
  -1  -9  -8 11028.8 1280.11   2
   1  -9   8 11256.1 911.437   8
   1  -9   9 1292.95 491.077   1
  -1  -9  -9 1044.70 682.646   2
   1  -9   9 2296.10 581.732   8
  -1  -9 -10 5424.32 844.759   2
   1  -9  10 5096.54 790.731   8
   1  -9  10 4971.63 697.699   1
  -1  -9 -11 5347.01 794.052   2
   1  -9  11 4764.50 810.509   1
   1  -9  11 6180.31 891.196   8
  -1  -9 -12 11264.3 1042.18   2
   1  -9  12 9551.49 1089.53   1
   1  -9  12 8836.98 1067.09   8
  -1  -9 -13 1307.02 663.517  10
   1  -9  13 731.582 628.940   8
   1  -9  13 2443.07 721.514   1
  -1  -9 -13 2326.74 570.499   2
  -1  -9 -14 2412.06 676.590  10
   1  -9  14 2238.81 855.034   8
   1  -9  14 2524.98 833.670   1
   1  -8 -15 3390.80 640.584   2
   1  -8 -15 2432.84 572.917   4
  -1  -8  14 1158.60 747.276   8
   1  -8 -14 1287.60 516.874   4
  -1  -8  14 2041.66 595.137   1
   1  -8 -14 1433.55 500.024   2
  -1  -8  13 2537.55 709.041   8
   1  -8 -13 3694.15 672.909   2
  -1  -8  13 3920.72 726.856   1
   1  -8 -13 3755.51 633.019   4
  -1  -8  12 6826.67 901.642   1
   1  -8 -12 6729.14 849.279   2
  -1  -8  12 8592.68 980.987   8
   1  -8 -12 7043.53 799.582   4
  -1  -8  11 10128.1 997.068   8
   1  -8 -11 10141.7 997.199   2
   1  -8 -11 10499.8 899.882   4
  -1  -8  11 9434.92 953.128   1
   1  -8 -10 5382.28 832.523   2
  -1  -8  10 4463.51 689.925   8
   1  -8 -10 4116.04 618.538   4
  -1  -8  10 4876.41 701.039   1
   1  -8  -9 12536.7 1133.37   2
  -1  -8   9 15077.5 1001.01   8
  -1  -8   9 13040.5 925.587   1
   1  -8  -9 14016.8 999.724   4
  -1  -8   8 28955.2 1377.42   8
   1  -8  -8 32723.7 1530.28   4
  -1  -8   8 31580.4 1371.77   1
  -1  -8   7 26540.6 1130.32   2
   1  -8  -7 26368.7 1337.35   4
   1  -8  -7 28167.9 1911.33   2
  -1  -8   7 26317.5 1128.58   1
  -1  -8   7 24802.9 1164.81   8
   1  -8  -6 17656.9 1096.84   4
  -1  -8   6 16619.7 803.718   1
  -1  -8   6 18196.1 911.291   8
  -1  -8   6 16445.8 879.882   2
  -1  -8   6 17151.6 633.888  11
   1  -8  -5 36023.2 1602.44   4
  -1  -8   5 33302.3 1157.45   1
   1  -8  -5 36414.7 2020.95   2
  -1  -8   5 35282.4 1350.80   2
  -1  -8   5 33737.0 1264.40   8
  -1  -8   4 93533.8 2656.74   2
   1  -8  -4 88869.8 2144.10   6
   1  -8  -4 96797.3 3437.28   2
  -1  -8   4 90420.4 2339.38   1
  -1  -8   4 87524.8 2227.05   4
   1  -8  -4 96712.4 2682.31   4
   1  -8  -3 52934.9 2296.57   2
   1  -8  -3 50992.5 1322.24   6
  -1  -8   3 53949.3 1806.35   2
  -1  -8   3 51760.8 1310.76   4
   1  -8  -3 49120.9 1463.96   4
  -1  -8   2 73623.0 2299.76   2
   1  -8  -2 79536.6 2757.49   2
  -1  -8   1 62645.5 1633.49   7
   1  -8  -1 59542.0 1541.18   3
   1  -8  -1 64286.0 2359.90   2
   1  -8   0 156526. 3839.80   3
  -1  -8   0 154340. 3547.53   7
  -1  -8   0 155935. 3592.63   3
   1  -8   0 155597. 4370.02   2
  -1  -8   0 168589. 4383.97   2
   1  -8   1 56402.8 1980.31   2
  -1  -8  -1 54987.6 1394.09   3
  -1  -8  -1 56287.4 1395.29   7
   1  -8   1 57551.3 1953.83   3
  -1  -8  -1 57773.3 2140.27   2
   1  -8   2 83954.1 2512.36   2
  -1  -8  -2 84721.5 1877.44   6
   1  -8   2 80593.5 2087.80   4
  -1  -8  -2 82995.1 1996.48   7
  -1  -8  -2 90037.4 2920.05   2
   1  -8   3 59925.1 1799.75   1
   1  -8   3 60379.2 1931.10   4
  -1  -8  -3 62307.4 1578.75   7
   1  -8   3 62986.7 1858.78   8
  -1  -8  -3 63221.3 2426.11   2
   1  -8   3 64796.3 1960.90   2
   1  -8   4 136594. 3530.41   2
  -1  -8  -4 136150. 4285.49   2
   1  -8   4 140480. 3998.66   4
   1  -8   4 141011. 3512.86   1
   1  -8   4 136800. 3564.02   8
   1  -8   5 33401.4 1321.89   8
  -1  -8  -5 32972.3 1821.41   2
   1  -8   5 34996.3 1281.75   1
   1  -8   5 34056.6 1188.07   2
  -1  -8  -6 49787.2 2369.93   2
   1  -8   6 46977.2 1653.79   1
   1  -8   6 46943.8 1322.96  11
   1  -8   6 51187.1 1492.64   2
   1  -8   6 50538.8 1781.58   8
   1  -8   7 34301.8 1412.45   1
  -1  -8  -7 31611.2 1924.92   2
   1  -8   7 32482.6 1463.81   8
   1  -8   7 34306.3 1113.36   2
   1  -8   8 55509.0 2156.49   8
   1  -8   8 56789.7 2070.84   1
  -1  -8  -8 59699.2 2816.59   2
   1  -8   9 8253.35 850.029   8
   1  -8   9 8253.66 800.241   1
  -1  -8  -9 8281.81 1013.27   2
   1  -8  10 11471.1 1043.23   8
  -1  -8 -10 12960.2 1131.84   2
   1  -8  10 13655.1 1071.80   1
   1  -8  11 13997.9 1193.17   8
  -1  -8 -11 12792.9 1067.53   2
   1  -8  11 12634.4 1133.91   1
  -1  -8 -12 12807.4 1034.93   2
   1  -8  12 14876.5 1299.25   1
   1  -8  12 11077.0 1193.01   8
  -1  -8 -13 1181.35 553.483  10
   1  -8  13 1034.36 619.705   8
  -1  -8 -13 1615.72 448.023   2
   1  -8  13 1306.05 620.779   1
  -1  -8 -14 2379.58 653.909  10
   1  -8  14 3312.35 851.370   1
   1  -8  14 3152.92 798.426   8
  -1  -8 -15 4353.85 805.435  10
   1  -8  15 5011.44 963.888   1
   1  -7 -16 7349.00 866.602   4
   1  -7 -15 2836.39 586.279   4
   1  -7 -15 1853.88 724.541  10
  -1  -7  15 4115.55 778.425   8
  -1  -7  14 3427.76 867.957   8
   1  -7 -14 4250.30 718.616   4
   1  -7 -14 5854.18 760.110   2
  -1  -7  14 5461.09 760.723   1
   1  -7 -13 11000.0 966.267   2
  -1  -7  13 12792.1 1077.88   1
  -1  -7  13 9271.51 1075.33   8
   1  -7 -13 10946.3 978.874   4
  -1  -7  12 14650.6 1190.84   1
  -1  -7  12 13666.0 1216.31   8
   1  -7 -12 15542.6 1142.55   2
   1  -7 -12 14544.3 1082.78   4
   1  -7 -11 10288.8 935.784   2
   1  -7 -11 9158.09 860.451   4
  -1  -7  11 8624.92 916.862   1
  -1  -7  11 8939.03 921.696   8
   1  -7 -10 10241.6 880.071   4
  -1  -7  10 9938.58 903.054   8
   1  -7 -10 11319.1 999.709   2
  -1  -7  10 9491.68 883.137   1
   1  -7  -9 41531.3 1991.09   2
  -1  -7   9 39150.0 1705.72   8
   1  -7  -9 41946.1 1811.34   4
  -1  -7   9 39127.1 1708.22   1
  -1  -7   8 28041.2 1295.55   8
   1  -7  -8 26153.7 1350.01   4
  -1  -7   8 26536.0 1249.48   1
   1  -7  -8 26064.5 1611.80   2
   1  -7  -7 30951.5 1860.89   2
   1  -7  -7 31515.5 1472.32   4
  -1  -7   7 31626.0 1256.52   1
  -1  -7   7 31233.9 1295.62   8
  -1  -7   6 20439.3 954.845   8
   1  -7  -6 21097.6 1143.46   4
  -1  -7   6 21573.4 951.169   2
   1  -7  -6 21674.5 1581.31   2
  -1  -7   6 20675.8 894.863   1
  -1  -7   6 20863.8 631.025  11
   1  -7  -5 87014.4 2810.13   4
  -1  -7   5 92851.8 2420.87   1
  -1  -7   5 92332.9 2596.10   2
  -1  -7   5 95793.9 2547.15   8
   1  -7  -5 95925.9 3486.51   2
  -1  -7   4 35130.3 1104.06   1
  -1  -7   4 35980.3 1323.32   2
  -1  -7   4 36081.9 1086.41   4
   1  -7  -4 37087.0 1881.32   2
   1  -7  -4 33307.4 1424.31   4
   1  -7  -4 36522.7 987.625   6
   1  -7  -3 44505.8 1150.92   6
   1  -7  -3 40300.7 1532.85   4
  -1  -7   3 44828.6 1540.28   2
  -1  -7   3 43768.5 1167.96   4
   1  -7  -3 46617.8 2034.80   2
   1  -7  -2 32501.5 1261.33   4
   1  -7  -2 33093.9 943.193   6
   1  -7  -2 34014.9 1632.55   2
  -1  -7   2 37159.4 1354.60   2
  -1  -7   1 86305.2 2119.50   7
   1  -7  -1 87719.8 2840.53   2
  -1  -7   1 87421.7 2612.10   2
   1  -7  -1 91662.1 2166.93   6
   1  -7  -1 82304.8 2160.93   3
  -1  -7   1 89246.1 2198.37   3
  -1  -7   0 35449.2 996.263   3
   1  -7   0 34779.0 1497.70   2
   1  -7   0 32863.3 1288.57   3
  -1  -7   0 35992.4 1474.51   2
  -1  -7   0 35874.9 937.834   7
  -1  -7  -1 12204.7 427.947   3
   1  -7   1 12120.0 671.726   4
  -1  -7  -1 11873.1 403.497   7
  -1  -7  -1 13787.0 930.595   2
   1  -7   1 11959.1 780.296   2
   1  -7   1 11572.2 870.523   3
  -1  -7  -2 25240.4 610.076   6
  -1  -7  -2 26628.1 1328.13   2
  -1  -7  -2 24409.7 710.015   7
   1  -7   2 23882.4 1096.24   4
   1  -7   3 25784.6 966.925   8
   1  -7   3 25518.1 1004.84   2
   1  -7   3 24681.3 918.013   1
  -1  -7  -3 24442.1 1350.07   2
  -1  -7  -3 24665.5 751.033   7
   1  -7   4 17179.8 815.568   8
   1  -7   4 18538.1 796.157   1
  -1  -7  -4 17389.4 1190.71   2
   1  -7   4 18336.7 780.368   2
   1  -7   4 16508.9 665.922  11
   1  -7   5 3974.25 453.441   8
  -1  -7  -5 4154.32 717.098   2
   1  -7   5 3907.97 400.149   1
   1  -7   5 3887.99 274.592  11
   1  -7   5 4456.39 355.654   2
  -1  -7  -6 6961.08 917.185   2
   1  -7   6 8409.69 444.560   2
   1  -7   6 8376.14 616.653   1
   1  -7   6 7566.86 360.028  11
   1  -7   6 7502.46 640.721   8
  -1  -7  -7 7973.78 988.453   2
   1  -7   7 6744.69 383.564   2
   1  -7   7 7524.58 639.015   1
   1  -7   7 6323.07 297.235  11
   1  -7   7 6515.58 669.512   8
   1  -7   8 17473.5 1103.65   8
   1  -7   8 15581.4 982.430   1
  -1  -7  -8 15689.9 1399.59   2
   1  -7   9 4589.89 668.199   8
  -1  -7  -9 6067.86 849.357   2
   1  -7   9 4666.69 629.749   1
  -1  -7 -10 2236.10 552.738   2
   1  -7  10 1956.20 558.047   8
   1  -7  10 1510.93 502.013   1
   1  -7  11 6691.16 870.749   1
   1  -7  11 6758.02 902.779   8
  -1  -7 -11 7395.69 786.910   2
   1  -7  12 9041.22 1058.03   1
  -1  -7 -12 9353.77 838.365   2
   1  -7  12 9056.21 1100.41   8
  -1  -7 -12 7967.75 992.916  10
  -1  -7 -13 3197.76 738.069  10
   1  -7  13 2982.54 755.044   1
   1  -7  13 2050.46 792.829   8
  -1  -7 -14 1895.81 634.601  10
   1  -7  14 1246.80 625.594   8
   1  -7  14 1700.05 782.311   1
   1  -7  15 4333.61 832.216   1
   1  -7  15 5973.06 978.077   8
  -1  -7 -15 5577.59 832.531  10
  -1  -6  16 6298.43 935.693   8
   1  -6 -16 5881.22 807.496   4
  -1  -6  15 1007.41 462.951   1
   1  -6 -15 2044.47 697.253  10
   1  -6 -15 2196.16 596.792   4
  -1  -6  15 2387.37 679.661   8
   1  -6 -14 2812.57 765.296  10
  -1  -6  14 2681.65 699.898   8
   1  -6 -14 2359.55 583.152   4
   1  -6 -14 3716.12 619.489   2
  -1  -6  14 2905.93 598.710   1
   1  -6 -13 1376.24 514.183   4
  -1  -6  13 1231.19 484.423   1
  -1  -6  13 726.354 614.925   8
   1  -6 -13 1332.09 464.624   2
   1  -6 -12 23113.9 1357.77   2
   1  -6 -12 23093.9 1392.44   4
  -1  -6  12 21848.9 1549.16   8
  -1  -6  11 6698.19 841.570   1
  -1  -6  11 5482.61 788.214   8
   1  -6 -11 5904.85 724.622   2
   1  -6 -11 6694.14 770.811   4
   1  -6 -10 8167.22 816.236   4
   1  -6 -10 7798.12 812.674   2
  -1  -6  10 8146.74 841.442   8
  -1  -6  10 8677.55 855.504   1
   1  -6  -9 5246.67 680.204   4
  -1  -6   9 5900.81 675.791   1
   1  -6  -9 5566.79 742.645   2
  -1  -6   9 6966.62 728.205   8
   1  -6  -8 53272.7 2257.81   2
   1  -6  -8 50045.8 2059.42   4
  -1  -6   8 51116.9 1898.72   8
  -1  -6   8 54365.6 1939.32   1
   1  -6  -7 15255.0 1023.51   4
   1  -6  -7 13937.0 1164.68   2
  -1  -6   7 15999.0 863.964   8
  -1  -6   7 16324.4 858.020   1
  -1  -6   6 14378.2 720.089   1
   1  -6  -6 13688.4 973.976   4
   1  -6  -6 16179.2 1353.37   2
  -1  -6   6 13199.9 701.557   2
  -1  -6   6 14481.2 770.888   8
   1  -6  -5 26803.7 1619.70   2
  -1  -6   5 25591.4 1007.70   2
   1  -6  -5 24454.8 1297.08   4
  -1  -6   5 24529.2 753.535  11
  -1  -6   5 24234.9 896.186   1
  -1  -6   5 24840.6 968.816   8
  -1  -6   4 72009.8 1862.21   1
   1  -6  -4 73177.7 2596.33   4
   1  -6  -4 76286.7 2786.72   2
  -1  -6   4 72569.8 2090.61   2
  -1  -6   4 73613.9 1963.49   8
  -1  -6   4 73180.3 1893.26   4
   1  -6  -4 68219.6 1738.53   6
   1  -6  -3 32415.0 1407.87   4
   1  -6  -3 34204.1 934.513   6
  -1  -6   3 35020.0 983.294   4
  -1  -6   3 34574.2 999.943   1
   1  -6  -3 33614.1 1664.85   2
  -1  -6   3 36146.4 1261.11   2
   1  -6  -2 20463.4 1192.30   2
  -1  -6   2 19986.6 588.089   4
  -1  -6   2 20690.2 918.675   2
   1  -6  -2 19799.1 620.369   6
   1  -6  -2 19649.3 774.718   4
   1  -6  -1 56374.8 2063.49   2
   1  -6  -1 56517.4 1396.79   4
   1  -6  -1 61085.4 1517.90   6
  -1  -6   1 60523.5 1872.95   2
  -1  -6   1 59262.4 1558.04   3
  -1  -6   1 62259.9 1544.21  10
  -1  -6   1 58263.0 1469.14   7
   1  -6  -1 53773.6 1715.62   3
  -1  -6   0 82332.1 1907.05   3
   1  -6   0 80284.3 2704.02   3
  -1  -6   0 83206.2 2406.83   2
   1  -6   0 74221.6 1786.82   4
   1  -6   0 80439.3 2468.69   2
   1  -6   0 74797.0 1725.10   4
  -1  -6   0 80758.5 1812.85   7
  -1  -6   0 85088.7 1937.46  10
   1  -6   0 85105.8 2025.32   6
   1  -6   1 64561.1 2655.48   3
  -1  -6  -1 58146.8 1362.66   7
   1  -6   1 60447.9 1905.12   2
   1  -6   1 54362.1 1568.85   4
  -1  -6  -1 57684.1 1413.81   3
  -1  -6  -1 62828.8 2050.71   2
  -1  -6  -1 60374.4 1498.92  10
   1  -6   2 44089.9 1451.20   2
  -1  -6  -2 47882.7 1777.40   2
   1  -6   2 43433.9 2033.06   3
   1  -6   2 39570.8 1504.72   4
  -1  -6  -2 43348.2 1090.81   7
  -1  -6  -2 45475.6 1205.83  10
   1  -6   2 43548.5 1359.83  11
   1  -6   3 82804.0 2222.19   8
  -1  -6  -3 81261.9 2714.62   2
   1  -6   3 83356.9 2244.14   2
   1  -6   3 83801.5 2257.69   5
   1  -6   3 81692.7 2184.11   1
   1  -6   3 84385.4 2845.80   4
   1  -6   3 85904.2 2156.81  11
   1  -6   4 72692.8 2103.95   8
   1  -6   4 78230.7 2773.43   4
   1  -6   4 75609.0 2060.35   1
  -1  -6  -4 70553.3 2582.03   2
   1  -6   4 73127.0 1884.29  11
   1  -6   4 75159.9 1978.63   2
   1  -6   5 30528.1 1136.90   1
   1  -6   5 32078.8 1218.12   8
  -1  -6  -5 28180.8 1539.95   2
   1  -6   5 30818.5 962.902   2
   1  -6   5 30032.0 894.256  11
   1  -6   6 25311.6 756.435  11
   1  -6   6 26705.1 1125.92   1
  -1  -6  -6 26512.6 1539.55   2
   1  -6   6 26403.4 1170.36   8
   1  -6   6 26037.3 826.739   2
  -1  -6  -7 49982.2 2252.81   2
   1  -6   7 45700.9 1167.30  11
   1  -6   7 46342.8 1784.54   8
   1  -6   7 46940.7 1707.46   1
   1  -6   8 44957.0 1790.79   1
   1  -6   8 44298.7 1869.13   8
   1  -6   9 9937.37 906.457   8
  -1  -6  -9 10318.2 979.633   4
  -1  -6  -9 11095.5 1009.24   2
   1  -6   9 9208.51 843.751   1
  -1  -6 -10 12413.3 1214.04   4
   1  -6  10 10029.2 1002.85   8
   1  -6  10 11201.4 988.542   1
  -1  -6 -10 13702.0 1028.33   2
   1  -6  11 14545.5 1213.50   1
  -1  -6 -11 13903.1 1221.05   4
  -1  -6 -11 14519.3 1195.06  10
   1  -6  11 14552.1 1261.76   8
  -1  -6 -11 16339.3 1068.85   2
  -1  -6 -12 15857.9 1276.89  10
  -1  -6 -12 16854.6 1298.88   4
  -1  -6 -12 19421.0 1127.20   2
   1  -6  12 17200.1 1389.82   1
   1  -6  12 18861.0 1560.20   8
  -1  -6 -13 2606.21 478.173   2
   1  -6  13 571.870 621.591   8
   1  -6  13 1324.23 660.858   1
  -1  -6 -13 2234.54 609.550  10
   1  -6  14 2626.57 667.101   8
  -1  -6 -14 2899.27 660.469  10
   1  -6  14 3714.94 786.117   1
   1  -6  15 4421.04 821.764   8
  -1  -6 -15 4316.41 774.654  10
   1  -6  15 5183.81 893.760   1
  -1  -6 -16 4786.43 790.388  10
   1  -6  16 5262.71 831.565   1
  -1  -5  16 11782.2 1002.11   1
   1  -5 -16 12208.9 1086.64   4
   1  -5 -16 12877.2 1271.05  10
  -1  -5  16 13262.3 1202.33   8
   1  -5 -15 1221.70 510.066   4
  -1  -5  15 1178.48 488.085   1
   1  -5 -15 985.467 551.991  10
  -1  -5  15 872.284 489.085   8
   1  -5 -14 6890.79 735.548   2
  -1  -5  14 4062.25 753.657   8
   1  -5 -14 5718.07 936.388  10
  -1  -5  14 6283.51 757.857   1
   1  -5 -14 6685.95 824.442   4
   1  -5 -13 3369.50 552.018   2
  -1  -5  13 3695.09 618.120   1
  -1  -5  13 2278.13 654.855   8
   1  -5 -13 2107.10 537.569   4
  -1  -5  12 23770.0 1367.31   1
   1  -5 -12 24640.6 1328.96   2
   1  -5 -12 23431.7 1412.99   4
  -1  -5  12 23546.9 1641.97   8
  -1  -5  11 1563.93 541.232   8
   1  -5 -11 1183.54 498.028   4
   1  -5 -11 741.685 395.604   2
  -1  -5  11 1253.75 489.423   1
   1  -5 -10 13072.3 1028.33   4
  -1  -5  10 13671.7 1065.67   8
  -1  -5  10 15168.0 1141.56   1
   1  -5 -10 14049.8 1006.14   2
  -1  -5   9 9436.29 825.648   1
   1  -5  -9 8099.81 800.815   2
  -1  -5   9 6873.24 715.715   8
   1  -5  -9 8396.07 833.675   4
  -1  -5   8 30701.7 1383.17   8
   1  -5  -8 30444.1 1556.34   4
  -1  -5   8 31727.4 1436.97   1
   1  -5  -8 32485.2 1593.54   2
   1  -5  -8 31932.6 1203.57   3
  -1  -5   7 437.031 297.377   1
  -1  -5   7 1419.85 400.085   8
   1  -5  -7 1017.98 435.867   2
   1  -5  -7 738.230 252.519   3
   1  -5  -7 483.174 431.726   4
   1  -5  -6 26953.6 979.299   3
  -1  -5   6 28432.4 1097.82   8
   1  -5  -6 24128.1 1425.81   4
  -1  -5   6 28296.8 1084.43   1
   1  -5  -6 26652.5 1562.26   2
  -1  -5   5 22217.8 875.042   8
  -1  -5   5 22825.6 899.902   2
  -1  -5   5 22749.1 844.355   1
  -1  -5   5 21881.6 611.382  11
   1  -5  -5 20702.4 763.120   3
   1  -5  -5 22617.5 1460.09   2
   1  -5  -5 21799.2 1375.87   4
   1  -5  -4 30353.5 919.932   3
  -1  -5   4 35499.3 1102.26   8
  -1  -5   4 36372.3 1188.82   2
   1  -5  -4 33563.1 1680.55   2
   1  -5  -4 33638.5 1447.95   4
  -1  -5   4 34112.7 1080.12   4
  -1  -5   4 35178.5 1026.92   1
   1  -5  -4 34826.7 950.466   6
  -1  -5   3 2017.71 239.741  10
  -1  -5   3 1524.66 183.680   1
   1  -5  -3 1936.59 320.064   4
   1  -5  -3 1279.42 142.353   6
  -1  -5   3 1647.20 302.879   2
  -1  -5   3 2027.58 206.470   4
   1  -5  -2 19469.9 482.488   3
  -1  -5   2 21897.6 875.776   2
   1  -5  -2 21822.3 1157.65   2
   1  -5  -2 21766.7 621.302   6
   1  -5  -2 18789.2 638.158   3
  -1  -5   2 23015.9 724.255  10
   1  -5  -2 21059.8 693.409   4
  -1  -5   2 20276.8 601.969   4
  -1  -5   2 21499.6 775.114   3
   1  -5  -1 24897.9 965.680   3
  -1  -5   1 26720.1 1024.47   2
   1  -5  -1 26368.0 795.252   7
  -1  -5   1 26097.1 771.148  10
   1  -5  -1 26700.5 771.306   6
   1  -5  -1 24677.8 670.769   4
   1  -5  -1 24942.1 1185.70   2
  -1  -5   1 26999.5 818.652   3
   1  -5   0 15018.1 874.351   3
   1  -5   0 17498.8 612.746   6
  -1  -5   0 16426.1 584.386   1
  -1  -5   0 16758.1 819.903   2
   1  -5   0 15926.4 424.725   4
   1  -5   0 15911.7 864.227   2
  -1  -5   0 16651.1 449.350   7
  -1  -5   0 16063.6 530.924   3
   1  -5   0 15588.2 563.939   7
  -1  -5   0 16688.7 531.371  10
   1  -5   0 18226.2 883.578   5
  -1  -5  -1 9980.42 353.504   3
   1  -5   1 9850.97 436.259   7
   1  -5   1 11319.1 632.198   5
  -1  -5  -1 10731.8 476.815   1
  -1  -5  -1 10151.4 382.572  10
   1  -5   1 10107.6 415.967   4
  -1  -5  -1 10120.2 344.151   6
  -1  -5  -1 11377.6 708.930   2
  -1  -5  -1 10018.7 302.271   7
   1  -5   1 11262.6 651.915   2
   1  -5   1 9734.45 814.858   3
   1  -5   1 10323.6 540.276  11
  -1  -5  -2 8552.44 363.175  10
   1  -5   2 8095.17 497.662   2
   1  -5   2 6892.05 806.592   3
   1  -5   2 8878.68 514.170   5
   1  -5   2 7907.21 426.682  11
  -1  -5  -2 9048.39 697.237   2
   1  -5   2 8226.08 508.943   4
  -1  -5  -3 29621.2 880.060  10
   1  -5   3 27267.9 932.785   5
  -1  -5  -3 28838.8 1321.98   2
   1  -5   3 27314.5 866.139  11
   1  -5   3 27751.9 962.950   8
   1  -5   3 27784.0 933.423   2
   1  -5   3 27345.5 930.854   1
   1  -5   4 2394.09 514.437   4
   1  -5   4 2561.77 315.201   8
   1  -5   4 2655.77 203.152  11
   1  -5   4 2278.22 289.762   1
   1  -5   4 2380.22 228.161   2
  -1  -5  -4 2294.07 493.037   2
   1  -5   5 9220.76 566.788   1
   1  -5   5 8294.09 376.211   2
   1  -5   5 8632.50 359.981  11
   1  -5   5 8330.26 578.451   8
   1  -5   6 2850.20 457.665   8
   1  -5   6 2211.85 183.385   2
   1  -5   6 2262.77 391.379   1
  -1  -5  -6 2574.68 559.436   2
   1  -5   6 2008.90 165.140  11
   1  -5   7 24585.8 1160.87   1
  -1  -5  -7 24357.9 1492.73   2
  -1  -5  -7 23594.3 1274.03   4
   1  -5   7 22825.2 1181.16   8
  -1  -5  -8 6112.53 775.104   4
   1  -5   8 5458.07 656.439   1
  -1  -5  -8 6248.59 866.784   2
   1  -5   8 5790.53 713.557   8
  -1  -5  -9 11899.5 1110.44   4
   1  -5   9 10919.7 975.492   8
  -1  -5  -9 11193.7 945.185   2
   1  -5   9 9802.68 882.681   1
  -1  -5 -10-249.989 554.402   4
   1  -5  10-678.834 610.136   8
   1  -5  10 542.307 478.085   1
  -1  -5 -10 485.172 340.492   2
  -1  -5 -11 13609.3 1188.88   4
   1  -5  11 16880.1 1304.41   1
   1  -5  11 16851.2 1384.67   8
  -1  -5 -11 15759.9 1004.29   2
  -1  -5 -11 14525.5 1173.85  10
  -1  -5 -12 11178.1 814.634   2
  -1  -5 -12 10301.1 1021.94   4
   1  -5  12 12071.8 1220.69   1
  -1  -5 -12 9599.91 961.418  10
   1  -5  12 11447.3 1166.93   8
   1  -5  13 5483.61 896.419   1
   1  -5  13 6448.18 942.006   8
  -1  -5 -13 5916.85 799.699   4
  -1  -5 -13 6614.17 841.648  10
  -1  -5 -14 613.697 463.114  10
  -1  -5 -14 213.614 465.075   4
   1  -5  14-357.453 627.903   8
   1  -5  14 413.535 548.462   1
  -1  -5 -15 9492.60 1003.86  10
   1  -5  15 8717.18 1022.58   1
   1  -5  15 7833.69 1002.50   8
   1  -5  16 7948.29 1006.25   8
   1  -5  16 8420.16 1001.82   1
  -1  -5 -16 8066.52 961.185  10
  -1  -4  17-523.668 443.075   1
   1  -4 -16 6191.12 822.568   4
  -1  -4  16 7206.29 791.060   1
   1  -4 -16 7557.07 995.371  10
  -1  -4  16 6297.73 876.697   8
  -1  -4  15 1252.30 469.223   1
   1  -4 -15 1206.91 506.920   4
  -1  -4  15 673.119 479.388   8
   1  -4 -15 520.322 537.001  10
  -1  -4  14 2751.08 566.847   1
   1  -4 -14 1890.43 602.720   4
  -1  -4  14 2030.66 562.599   8
   1  -4 -14 2581.51 472.073   2
   1  -4 -14 1366.25 620.033  10
   1  -4 -13 43.1540 618.876  10
   1  -4 -13 398.492 351.334   2
  -1  -4  13 8.19140 506.564   8
  -1  -4  13-57.5081 360.714   1
   1  -4 -13 230.449 472.125   4
   1  -4 -12 38503.4 1857.47   4
  -1  -4  12 35873.7 1922.77   8
   1  -4 -12 37345.6 1639.74   2
  -1  -4  12 38883.4 1717.04   1
   1  -4 -11 2504.84 596.431   4
  -1  -4  11 1123.68 575.345   8
   1  -4 -11 1625.37 400.072   2
  -1  -4  11 2013.36 478.974   1
   1  -4 -10 9878.33 810.591   2
  -1  -4  10 8043.53 854.539   8
   1  -4 -10 10244.7 942.238   4
   1  -4 -10 9663.96 704.626   3
  -1  -4  10 9225.76 821.236   1
   1  -4  -9 2197.42 480.426   2
   1  -4  -9 2224.95 379.142   3
  -1  -4   9 1907.99 484.249   1
   1  -4  -9 2555.25 566.990   4
  -1  -4   9 1498.79 450.198   8
   1  -4  -8 113313. 3795.53   4
  -1  -4   8 124911. 3600.64   1
   1  -4  -8 120736. 3605.95   2
  -1  -4   8 118759. 3452.61   8
   1  -4  -8 118903. 3255.42   3
  -1  -4   7 9386.81 670.132   8
   1  -4  -7 7492.79 552.146   9
   1  -4  -7 7803.83 575.646   3
  -1  -4   7 8286.98 675.282   1
   1  -4  -7 8277.23 785.115   2
   1  -4  -7 7979.58 878.218   4
   1  -4  -6 40799.2 1540.14   9
   1  -4  -6 42087.2 2124.58   4
   1  -4  -6 46918.9 1917.58   2
   1  -4  -6 41088.0 1453.08   3
  -1  -4   6 42296.9 1495.89   1
  -1  -4   6 42873.7 1455.03   8
   1  -4  -5 15496.8 828.158   3
  -1  -4   5 15358.1 704.529   8
   1  -4  -5 15538.2 1153.41   2
   1  -4  -5 14825.3 1030.68   4
  -1  -4   5 15521.2 696.730   1
   1  -4  -5 15495.4 886.349   9
  -1  -4   4 271914. 5992.56   1
  -1  -4   4 279295. 6126.17   4
  -1  -4   4 258324. 6136.46   2
  -1  -4   4 264761. 5826.38  11
   1  -4  -4 268211. 5919.80   6
  -1  -4   4 268359. 6049.03   8
   1  -4  -4 266021. 6420.67   4
   1  -4  -4 277986. 6696.83   9
   1  -4  -4 294488. 7112.25   2
   1  -4  -4 269231. 6047.86   8
   1  -4  -4 255089. 6003.97   3
   1  -4  -3 37746.2 955.811   3
   1  -4  -3 38646.1 1228.13   4
   1  -4  -3 39054.4 1690.11   9
   1  -4  -3 38728.0 1685.22   2
  -1  -4   3 40175.1 1218.90  10
  -1  -4   3 39902.5 1108.15   4
   1  -4  -3 40198.1 1025.28   6
  -1  -4   3 41543.0 1250.88   2
   1  -4  -3 38388.5 1092.30   8
  -1  -4   3 38614.6 1039.68   1
  -1  -4   2 95203.9 2468.36   2
  -1  -4   2 98943.0 2230.07   4
   1  -4  -2 100735. 2924.45   5
  -1  -4   2 101530. 2429.81   3
   1  -4  -2 97385.3 2302.55   7
   1  -4  -2 101664. 2948.98   2
   1  -4  -2 95163.1 2208.62   6
   1  -4  -2 102717. 3270.67   9
   1  -4  -2 97230.8 2325.26  10
   1  -4  -2 95584.4 2270.62   4
  -1  -4   2 98367.4 2324.10  10
   1  -4  -2 91951.6 2085.25   3
   1  -4  -1 70013.8 2247.22   2
  -1  -4   1 75850.5 1830.64   3
   1  -4  -1 74694.1 1801.08   7
   1  -4  -1 70073.2 2236.43   5
   1  -4  -1 73953.2 1768.59   6
  -1  -4   1 75265.9 1761.42  10
   1  -4  -1 75114.4 1824.81  10
  -1  -4   1 72647.8 2010.37   2
   1  -4  -1 74947.1 2856.88   9
   1  -4  -1 73060.3 1683.67   4
  -1  -4   1 73379.1 1695.47   4
  -1  -4   0 384741. 7794.13   3
   1  -4   0 363212. 7820.79   7
  -1  -4   0 388193. 7831.96   1
  -1  -4   0 349786. 7647.64   7
   1  -4   0 314071. 8193.44   2
   1  -4   0 438575. 9739.41   9
  -1  -4   0 328990. 8088.83   2
   1  -4   0 367495. 7673.75   4
   1  -4   0 320218. 8001.99   3
   1  -4   0 369610. 7845.76  10
   1  -4   0 353969. 7861.79   6
  -1  -4   0 370485. 7747.51  10
   1  -4   0 321000. 8190.18   5
  -1  -4  -1 69815.5 1546.15   7
   1  -4   1 64629.7 2069.88   3
  -1  -4  -1 70128.5 1773.86   1
   1  -4   1 67785.3 1951.69   5
  -1  -4  -1 69447.7 2017.01   2
  -1  -4  -1 70521.6 1583.98   6
   1  -4   1 70397.3 1850.56  11
   1  -4   1 66119.9 1942.72   2
   1  -4   1 71618.6 1680.28   4
   1  -4   1 71415.9 1740.86  10
  -1  -4  -1 68506.0 1622.47   3
  -1  -4  -1 69711.0 1633.42  10
   1  -4   1 71084.0 1733.05   7
   1  -4   1 72323.1 2672.30   9
  -1  -4  -2 125487. 3043.51   8
  -1  -4  -2 131936. 2924.27  10
   1  -4   2 128030. 3023.41   7
   1  -4   2 137984. 3893.70   9
   1  -4   2 124208. 3110.25   4
   1  -4   2 129674. 3037.01   8
   1  -4   2 128201. 3019.09   1
   1  -4   2 125567. 3640.23   3
  -1  -4  -2 132071. 3404.20   2
   1  -4   2 126312. 3125.26   5
   1  -4   2 122984. 3111.13   2
   1  -4   2 130321. 3025.92  11
   1  -4   2 125987. 3017.37  10
  -1  -4  -2 130641. 3139.03   1
  -1  -4  -2 131197. 3413.20   5
   1  -4   3 62280.4 1959.40   4
   1  -4   3 61520.1 1614.88   2
  -1  -4  -3 67776.5 2102.28   2
   1  -4   3 62528.9 1625.21   5
   1  -4   3 63866.2 1733.97   8
   1  -4   3 60336.0 2347.16   3
   1  -4   3 65411.2 2208.09   9
   1  -4   3 61657.9 1573.97  11
   1  -4   3 63416.0 1691.63   1
   1  -4   4 279440. 6276.84   2
   1  -4   4 292440. 6298.85  11
  -1  -4  -4 296236. 7075.89   2
   1  -4   4 283889. 6547.83   1
   1  -4   4 272355. 7116.93   4
   1  -4   4 302109. 7017.11   9
   1  -4   4 297874. 6647.26   8
  -1  -4  -5 40811.0 1463.58   4
   1  -4   5 39850.8 1431.03   8
   1  -4   5 38673.8 1471.80   9
  -1  -4  -5 39572.6 1669.40   2
   1  -4   5 41497.1 1064.67  11
   1  -4   5 39457.8 1013.25   2
   1  -4   5 40093.3 1363.24   1
   1  -4   6 73583.6 2235.00   1
  -1  -4  -6 72996.1 2405.60   4
   1  -4   6 76286.5 2341.59   8
   1  -4   6 73942.6 2176.72   9
  -1  -4  -6 74052.1 2579.42   2
   1  -4   6 70093.3 1741.85  11
   1  -4   7 32805.1 1492.18   8
   1  -4   7 33465.5 1436.07   1
  -1  -4  -7 35739.8 1711.67   2
  -1  -4  -7 33977.7 1635.54   4
  -1  -4  -8 155464. 4711.21   4
  -1  -4  -8 167358. 4759.39   2
   1  -4   8 155527. 4367.58   1
  -1  -4  -9 7307.57 839.586  10
  -1  -4  -9 10184.4 1099.17   4
   1  -4   9 7843.29 899.168   8
  -1  -4  -9 9721.62 822.755   2
   1  -4   9 7930.87 850.397   1
   1  -4  10 24122.0 1489.98   1
   1  -4  10 23452.9 1572.04   8
  -1  -4 -10 23266.5 1205.89   2
  -1  -4 -10 20662.5 1332.56  10
  -1  -4 -10 24884.1 1576.65   4
  -1  -4 -11 8812.93 894.847  10
  -1  -4 -11 8162.60 936.333   4
   1  -4  11 7591.27 925.287   8
   1  -4  11 9232.78 1030.43   1
  -1  -4 -11 9120.90 715.741   2
  -1  -4 -12 42505.9 2071.20   4
   1  -4  12 43774.5 2167.77   8
  -1  -4 -12 46415.1 1709.21   2
   1  -4  12 47366.7 2274.54   1
  -1  -4 -12 39806.5 1958.31  10
  -1  -4 -13 2036.74 619.687   4
  -1  -4 -13 2260.88 619.433  10
   1  -4  13 1453.41 620.046   8
   1  -4  13 2393.52 655.226   1
  -1  -4 -14 8125.73 900.894  10
  -1  -4 -14 7250.27 872.256   4
   1  -4  14 7037.17 888.495   1
   1  -4  14 7254.77 942.957   8
   1  -4  15 5334.95 848.837   1
  -1  -4 -15 4077.60 745.753  10
   1  -4  15 4483.57 794.505   8
  -1  -4 -15 3415.90 701.379   4
   1  -4  16 7677.16 915.404   1
   1  -4  16 7800.70 973.078   8
  -1  -3  17 573.222 434.958   1
  -1  -3  17 2174.66 634.068   8
  -1  -3  16 20357.1 1303.32   1
   1  -3 -16 20848.8 1446.03   4
   1  -3 -16 22197.3 1541.19  10
  -1  -3  16 24533.6 1507.32   8
  -1  -3  15 642.884 457.142   1
   1  -3 -15 1038.78 604.296  10
  -1  -3  15 1382.96 546.581   8
   1  -3 -15 729.054 505.996   4
  -1  -3  14 8260.51 809.387   1
   1  -3 -14 9235.42 741.099   2
   1  -3 -14 9040.94 954.328   4
  -1  -3  14 8295.13 918.023   8
   1  -3 -14 6847.79 904.636  10
  -1  -3  13 6448.84 724.926   1
   1  -3 -13 6474.67 645.902   2
   1  -3 -13 7579.78 877.322   4
  -1  -3  13 5974.07 796.949   8
   1  -3 -13 6404.16 896.100  10
   1  -3 -12 36527.3 1563.96   2
   1  -3 -12 35341.4 1923.43  10
   1  -3 -12 36228.6 1828.97   4
  -1  -3  12 35743.0 1806.40   8
   1  -3 -12 36910.1 1590.76   3
  -1  -3  12 39008.3 1684.09   1
  -1  -3  11 6520.32 685.607   1
   1  -3 -11 6871.87 660.638   3
   1  -3 -11 6729.62 640.093   2
   1  -3 -11 6234.25 776.684   4
  -1  -3  11 6931.07 829.687   8
   1  -3 -10 14932.4 1152.52   4
  -1  -3  10 16470.0 1021.32   1
  -1  -3  10 15913.5 1208.89   8
   1  -3 -10 14391.8 925.264   3
   1  -3 -10 15325.6 953.673   2
   1  -3  -9 33252.9 1460.46   2
   1  -3  -9 32534.0 1405.59   3
   1  -3  -9 30163.6 1673.13   4
  -1  -3   9 32200.6 1604.64   8
  -1  -3   9 33525.0 1485.62   1
  -1  -3   8 37704.9 1564.95   1
   1  -3  -8 32130.3 1405.34   3
  -1  -3   8 34903.6 1546.09   8
   1  -3  -8 35137.5 1517.45   2
   1  -3  -8 33130.2 1785.16   4
   1  -3  -7 38961.3 1603.74   2
  -1  -3   7 37967.6 1499.35   8
   1  -3  -7 35539.9 1504.00   3
  -1  -3   7 41225.5 1670.76   1
   1  -3  -7 39353.3 2113.38   4
   1  -3  -6 23378.0 1208.83   2
   1  -3  -6 21409.1 1155.09   3
  -1  -3   6 24445.5 1033.29   8
   1  -3  -6 22872.3 1400.66   4
  -1  -3   6 23610.0 1093.37   1
   1  -3  -5 88204.2 2374.34   8
  -1  -3   5 88803.8 2320.02   8
   1  -3  -5 85848.2 2458.36   9
  -1  -3   5 85248.6 2382.09   1
   1  -3  -5 79785.9 2388.13   3
   1  -3  -5 84065.7 2708.31   4
   1  -3  -5 91290.9 2818.36   2
  -1  -3   4 41243.0 1223.19   1
   1  -3  -4 41578.3 1235.15   8
  -1  -3   4 40717.6 986.015  11
   1  -3  -4 42385.0 1514.98   9
   1  -3  -4 45895.7 1854.63   2
   1  -3  -4 40918.9 1208.82   3
   1  -3  -4 38737.4 1405.89   4
  -1  -3   4 41732.0 1306.14   4
  -1  -3   4 41803.4 1448.58  10
  -1  -3   4 42218.3 1226.71   8
   1  -3  -3 72624.1 1941.53   4
   1  -3  -3 76614.8 2519.99   5
   1  -3  -3 76713.7 1877.66   1
   1  -3  -3 74754.9 1902.57  10
   1  -3  -3 73010.7 1776.40   6
  -1  -3   3 74513.7 1834.77   8
   1  -3  -3 74581.1 1832.12   8
   1  -3  -3 72031.4 1730.41   3
  -1  -3   3 74828.5 1871.36   4
   1  -3  -3 72438.4 2323.50   9
  -1  -3   3 74274.5 1786.26   1
  -1  -3   3 73706.8 1753.92  11
  -1  -3   3 74180.0 2015.08  10
  -1  -3   3 74613.9 1961.26   2
  -1  -3   3 75136.3 2056.39   3
   1  -3  -3 75856.6 2540.00   2
  -1  -3   2 49780.9 1361.78   3
   1  -3  -2 50820.4 1278.88   1
   1  -3  -2 47791.4 1214.48   8
  -1  -3   2 49476.4 1313.13  10
   1  -3  -2 49367.8 1854.13   9
   1  -3  -2 48246.2 1247.36   4
   1  -3  -2 50136.9 1800.32   2
  -1  -3   2 49021.7 1232.65   4
   1  -3  -2 50304.6 1782.90   5
   1  -3  -2 50483.4 1291.88  10
  -1  -3   2 48766.9 1401.53   2
  -1  -3   2 47891.8 1161.12   1
   1  -3  -2 48456.2 1206.79   6
   1  -3  -2 49255.8 1123.93   3
  -1  -3   1 99237.9 2209.49   4
   1  -3  -1 92646.7 2713.99   5
   1  -3  -1 98991.6 2289.28  10
   1  -3  -1 98606.2 3116.16   9
  -1  -3   1 97928.6 2452.99   2
  -1  -3   1 98463.6 2303.73   3
   1  -3  -1 99070.9 2281.37   7
   1  -3  -1 97751.2 2252.69   6
   1  -3  -1 96829.1 2192.77   4
  -1  -3   1 99752.0 2237.02  10
   1  -3  -1 94572.3 2728.41   2
  -1  -3   0 32978.5 791.956  10
  -1  -3   0 32970.9 1055.81   2
   1  -3   0 33261.5 882.466  10
   1  -3   0 30594.1 1144.84   2
  -1  -3   0 32768.3 855.945   1
   1  -3   0 31556.4 867.911   7
   1  -3   0 32494.9 1016.00  11
   1  -3   0 31493.8 1144.20   5
   1  -3   0 33500.2 902.284   6
  -1  -3   0 32550.5 847.235   3
  -1  -3   0 32045.9 862.236   6
  -1  -3  -1 16003.2 562.452   1
  -1  -3  -1 14811.8 447.880   3
  -1  -3  -1 15331.3 519.145   8
   1  -3   1 15818.4 514.290  10
   1  -3   1 15977.3 573.997  11
  -1  -3  -1 14960.3 427.358  10
  -1  -3  -1 15284.4 681.903   2
   1  -3   1 14387.8 646.286   2
   1  -3   1 14200.2 635.964   5
   1  -3   1 14393.5 506.465   7
  -1  -3  -1 15584.2 403.996   6
  -1  -3  -2 42739.2 1189.26   8
   1  -3   2 42866.6 1224.80   4
   1  -3   2 43338.2 1177.14   7
  -1  -3  -2 42852.4 1380.49   2
  -1  -3  -2 41944.6 1286.02   1
   1  -3   2 43224.9 1166.17  10
   1  -3   2 41893.6 1189.81   5
   1  -3   2 42796.0 1137.24  11
   1  -3   2 43667.9 1194.58   8
   1  -3   2 44430.5 1643.49   9
  -1  -3  -2 43422.6 1389.21   5
   1  -3   2 42757.9 1186.63   2
   1  -3   2 43711.7 1175.40   1
   1  -3   2 40599.4 1476.00   3
   1  -3   3 50426.5 1618.09   4
   1  -3   3 51209.0 1303.45  11
  -1  -3  -3 52605.6 1475.73   8
  -1  -3  -3 55085.1 1701.12   5
   1  -3   3 52170.0 1283.20   2
   1  -3   3 51884.6 1760.81   9
   1  -3   3 51398.8 1430.73  10
   1  -3   3 50670.6 1484.62   8
  -1  -3  -3 50910.1 1617.15   1
   1  -3   3 50304.4 1876.04   3
   1  -3   3 50536.4 1431.30   1
   1  -3   3 52574.2 1453.98   7
  -1  -3  -3 51678.7 1672.28   2
   1  -3   3 52257.8 1288.91   5
   1  -3   4 14385.1 416.309   2
   1  -3   4 15644.4 695.549   1
   1  -3   4 14929.7 773.944   9
  -1  -3  -4 14696.1 849.286   2
  -1  -3  -4 16492.6 883.401   5
   1  -3   4 14732.6 495.955  11
   1  -3   4 13422.5 712.266   8
   1  -3   4 14326.4 884.107   4
  -1  -3  -5 18360.0 1015.14   2
   1  -3   5 18632.9 873.687   1
   1  -3   5 18420.7 597.891  11
  -1  -3  -5 19489.2 987.791   4
  -1  -3  -5 19506.9 1051.36   5
   1  -3   5 19513.3 948.786   8
   1  -3   5 17273.5 816.399   9
  -1  -3  -6 19991.4 1110.47   5
  -1  -3  -6 17356.2 1069.30   4
  -1  -3  -6 18433.4 1079.78   2
   1  -3   6 17250.2 934.077   1
   1  -3   6 17490.9 1002.88   8
  -1  -3  -7 30559.3 1512.18   2
  -1  -3  -7 30824.8 1622.00   4
   1  -3   7 31915.2 1440.85   1
   1  -3   7 30127.9 1474.22   8
  -1  -3  -8 4382.80 647.335  10
  -1  -3  -8 3797.37 749.891   4
   1  -3   8 3326.23 629.059   8
   1  -3   8 4027.10 631.966   1
  -1  -3  -8 3938.17 608.948   2
   1  -3   9 24308.1 1457.66   1
  -1  -3  -9 25621.8 1676.37   4
  -1  -3  -9 26724.0 1284.16   2
  -1  -3  -9 24588.6 1366.21  10
   1  -3   9 26768.0 1588.56   8
   1  -3  10 2542.82 644.201   8
  -1  -3 -10 2235.26 551.203  10
  -1  -3 -10 2480.25 406.229   2
  -1  -3 -10 1852.39 562.329   4
   1  -3  10 2242.36 648.625   1
  -1  -3 -11 22178.3 1341.67  10
  -1  -3 -11 24940.7 1543.93   4
  -1  -3 -11 26498.4 1174.32   2
   1  -3  11 25409.4 1584.03   1
   1  -3  11 25575.8 1524.64   8
   1  -3  12 9266.88 971.679   1
  -1  -3 -12 9105.83 883.791  10
  -1  -3 -12 7754.44 891.263   4
   1  -3  12 7858.88 908.476   8
  -1  -3 -12 9142.44 648.951   2
  -1  -3 -13 11354.0 1050.53   4
   1  -3  13 10423.2 1031.93   8
   1  -3  13 11378.6 1055.58   1
  -1  -3 -13 10780.6 980.784  10
  -1  -3 -14 330.378 497.688   4
   1  -3  14 662.558 499.994   1
  -1  -3 -14 715.994 512.862  10
   1  -3  14-102.721 494.536   8
  -1  -3 -15 10433.5 1027.08  10
   1  -3  15 14142.8 1190.51   8
   1  -3  15 10529.7 1042.81   1
  -1  -3 -15 12088.3 1097.34   4
   1  -3  16 8441.07 979.705   8
   1  -3  16 8516.40 959.699   1
  -1  -3 -16 6968.67 899.054   4
  -1  -3 -16 7748.26 937.606  10
  -1  -2  17 582.012 520.995   8
  -1  -2  17 705.855 495.631   1
   1  -2 -16 13342.3 1188.28   4
  -1  -2  16 15634.8 1174.69   8
  -1  -2  16 13040.1 1037.55   1
   1  -2 -16 14381.0 1243.71  10
   1  -2 -15 712.019 505.635  10
   1  -2 -15 278.035 490.080   4
  -1  -2  15 648.454 429.448   8
  -1  -2  15 1304.72 508.904   1
  -1  -2  14 6695.63 746.914   1
   1  -2 -14 8816.71 964.311   4
   1  -2 -14 7547.65 654.381   2
   1  -2 -14 6499.72 877.683  10
  -1  -2  14 6761.31 829.142   8
   1  -2 -13 1113.36 345.541   2
   1  -2 -13 121.789 531.506  10
  -1  -2  13 921.551 441.503   1
   1  -2 -13 1565.02 581.842   4
  -1  -2  13 570.199 394.680   8
   1  -2 -13 1063.24 467.152   3
   1  -2 -12 63596.9 2592.78   4
  -1  -2  12 65717.8 2350.64   1
   1  -2 -12 66855.7 2371.71   3
  -1  -2  12 63282.0 2450.24   8
   1  -2 -12 61184.0 2584.65  10
   1  -2 -12 66048.7 2217.12   2
   1  -2 -11 1513.11 432.309   3
  -1  -2  11 1392.41 445.668   1
   1  -2 -11 1217.28 569.195  10
  -1  -2  11 1036.74 441.229   8
   1  -2 -11 1047.25 474.212   4
   1  -2 -11 1201.97 353.871   2
  -1  -2  10 19789.2 1251.78   8
  -1  -2  10 21380.9 1146.42   1
   1  -2 -10 22367.2 1122.86   2
   1  -2 -10 20796.8 1385.82   4
   1  -2 -10 19987.3 1392.41  10
   1  -2 -10 21583.6 1193.03   3
  -1  -2   9-26.3257 453.995   8
  -1  -2   9 1092.37 372.691   1
   1  -2  -9 1187.63 353.740   2
   1  -2  -9 423.861 472.845   4
   1  -2  -9 780.636 361.268   3
  -1  -2   8 167176. 4631.24   8
  -1  -2   8 155162. 4236.41   1
   1  -2  -8 159944. 4253.67   2
   1  -2  -8 162234. 5018.28   4
   1  -2  -8 154654. 4417.24   3
   1  -2  -7 4991.59 547.951   2
  -1  -2   7 5145.76 548.287   1
  -1  -2   7 5016.53 572.632   8
   1  -2  -7 4819.75 824.574   4
   1  -2  -7 4542.04 619.850   3
  -1  -2   6 13032.7 807.389   1
   1  -2  -6 11486.5 807.907   3
  -1  -2   6 11650.0 738.874   8
   1  -2  -6 11813.6 982.932   4
   1  -2  -6 10953.1 768.515   2
   1  -2  -5 2226.77 342.767   3
  -1  -2   5 2014.07 400.560   1
   1  -2  -5 2718.69 438.856   2
   1  -2  -5 1791.28 383.574   4
  -1  -2   5 2402.67 322.298   8
   1  -2  -5 2257.35 322.883   8
   1  -2  -4 185929. 4618.76   2
   1  -2  -4 174265. 4207.47   8
   1  -2  -4 188790. 4629.60   5
   1  -2  -4 181748. 4147.65   1
  -1  -2   4 179773. 4250.69   4
  -1  -2   4 182559. 4419.24   3
  -1  -2   4 173850. 4123.61   8
   1  -2  -4 172746. 4121.49   3
  -1  -2   4 174067. 3842.82  11
   1  -2  -4 175472. 4323.27   4
  -1  -2   4 173166. 4264.85   1
  -1  -2   3 24702.9 1043.03  10
  -1  -2   3 25610.0 784.843   8
  -1  -2   3 25488.2 834.850   4
   1  -2  -3 26036.7 806.906   8
  -1  -2   3 25689.5 821.121   1
   1  -2  -3 26197.7 801.904   1
   1  -2  -3 26055.1 768.843   6
   1  -2  -3 25984.1 868.018   4
  -1  -2   3 26302.6 680.132  11
  -1  -2   3 26439.7 930.562   3
   1  -2  -3 25823.0 745.097   3
   1  -2  -3 26407.5 1221.31   5
   1  -2  -3 27286.6 1249.39   2
   1  -2  -2 32973.6 808.951   3
  -1  -2   2 31468.5 1019.79  10
  -1  -2   2 34269.9 982.538   3
  -1  -2   2 33453.5 895.003   4
   1  -2  -2 39558.8 1553.40   2
   1  -2  -2 32408.4 885.080   1
  -1  -2   2 32825.3 1019.66   2
   1  -2  -2 32209.4 865.973   6
   1  -2  -2 36988.0 1352.36   9
  -1  -2   2 33908.1 814.843   1
   1  -2  -2 30747.5 841.284   8
   1  -2  -2 32565.8 897.763   4
   1  -2  -2 33286.8 919.857  10
  -1  -2   2 33073.4 882.405  11
   1  -2  -2 41930.9 1556.01   5
  -1  -2   1 16666.9 500.333  10
  -1  -2   1 15938.3 521.154   3
   1  -2  -1 16298.5 508.549   7
   1  -2  -1 16592.8 439.916   3
  -1  -2   1 16654.8 475.169   4
   1  -2  -1 17196.3 874.880   5
   1  -2  -1 17051.6 950.250   9
   1  -2  -1 16611.5 496.626   6
  -1  -2   1 16691.7 587.093  11
   1  -2  -1 16985.3 509.490  10
  -1  -2   1 16898.8 623.441   2
   1  -2  -1 16462.4 626.623  11
   1  -2  -1 17962.9 892.525   2
   1  -2  -1 16563.1 466.315   4
   1  -2   0 148294. 3304.42  10
  -1  -2   0 152374. 3297.70   6
   1  -2   0 146006. 3339.05   6
   1  -2   0 143635. 3655.71   5
  -1  -2   0 141554. 3459.07   2
  -1  -2   0 151345. 3296.35   1
  -1  -2   0 153210. 3303.37   3
   1  -2   0 148495. 3311.75   7
   1  -2   0 144764. 3655.75   2
   1  -2   0 153936. 3439.71  11
   1  -2   0 162888. 4126.49   9
  -1  -2  -1 15762.4 600.167   2
  -1  -2  -1 14840.5 569.551   1
   1  -2   1 15123.7 517.268  11
   1  -2   1 16709.0 873.457   9
   1  -2   1 15641.2 498.191   8
   1  -2   1 15724.2 500.535   1
   1  -2   1 15858.7 612.165   2
   1  -2   1 15293.9 492.315   7
   1  -2   1 15319.0 608.124   5
   1  -2   1 15856.7 549.680   6
  -1  -2  -1 15749.3 501.381   8
  -1  -2  -1 14954.4 406.174   6
   1  -2   1 15486.5 480.722  10
  -1  -2  -2 61508.6 1677.32   2
   1  -2   2 61618.4 1620.03   8
   1  -2   2 63931.9 1560.63  10
   1  -2   2 68582.4 1956.73   9
  -1  -2  -2 62081.3 1781.50   1
  -1  -2  -2 62936.8 1615.26   8
   1  -2   2 58695.0 1512.42   5
   1  -2   2 61556.5 1518.22  11
   1  -2   2 63831.5 1613.33   4
   1  -2   2 63312.2 1570.83   7
   1  -2   2 60567.5 1516.97   2
   1  -2   2 65528.0 1595.19   1
   1  -2   3 47703.9 1478.80   4
  -1  -2  -3 48940.9 1445.39   5
   1  -2   3 46449.2 1206.93  11
  -1  -2  -3 46326.7 1625.37   1
  -1  -2  -3 46505.7 1399.07   8
   1  -2   3 46809.0 1431.25   8
   1  -2   3 47272.8 1637.14   3
   1  -2   3 47080.5 1345.85   7
   1  -2   3 49196.3 1340.46  10
  -1  -2  -3 47566.2 1427.06   2
   1  -2   3 47651.3 1365.37   1
   1  -2   4 108773. 2799.00   1
  -1  -2  -4 110313. 3211.51   1
   1  -2   4 104777. 2489.03  11
  -1  -2  -4 105721. 2862.81   4
   1  -2   4 108900. 2759.30  10
   1  -2   4 104362. 2882.77   8
   1  -2   4 103412. 3037.82   4
  -1  -2  -4 105572. 2822.78   2
  -1  -2  -4 109945. 2859.06   5
   1  -2   5 9158.10 722.870   8
  -1  -2  -5 9770.42 661.876   5
   1  -2   5 10771.3 685.858   1
  -1  -2  -5 9308.19 715.695   4
  -1  -2  -5 9847.97 677.652   2
   1  -2   6 10816.5 869.984   8
  -1  -2  -6 11200.8 851.309  10
   1  -2   6 10243.5 773.621   1
  -1  -2  -6 11917.7 947.813   4
  -1  -2  -6 12729.6 822.292   5
  -1  -2  -6 12035.1 804.834   2
   1  -2   7 15982.0 1171.06   8
   1  -2   7 14194.9 989.629   1
  -1  -2  -7 14298.9 941.808  10
  -1  -2  -7 14538.0 952.234   2
  -1  -2  -7 12278.8 1079.57   4
  -1  -2  -7 15537.4 983.224   5
  -1  -2  -8 86307.3 2814.00   5
  -1  -2  -8 79001.7 2722.99  10
  -1  -2  -8 90248.6 3428.00   4
   1  -2   8 88030.4 3002.51   1
   1  -2   8 80152.6 2901.83   8
  -1  -2  -8 85608.8 2787.46   2
  -1  -2  -9 1764.83 624.165   4
  -1  -2  -9 1662.48 482.926  10
  -1  -2  -9 2125.78 411.076   2
   1  -2   9 1993.87 535.078   8
   1  -2   9 2312.12 627.480   1
   1  -2  10 15799.6 1165.08   1
  -1  -2 -10 14460.6 1058.08  10
  -1  -2 -10 14830.5 842.758   2
   1  -2  10 14966.3 1122.98   8
  -1  -2 -10 14191.3 1186.66   4
   1  -2  11 4113.22 692.740   8
  -1  -2 -11 5004.55 472.271   2
  -1  -2 -11 4833.44 677.883  10
  -1  -2 -11 3992.32 711.663   4
   1  -2  11 4472.71 730.792   1
  -1  -2 -12 42917.4 1445.83   2
   1  -2  12 39761.4 1914.94   8
  -1  -2 -12 40584.1 1865.65  10
  -1  -2 -12 39538.7 1967.91   4
   1  -2  12 39265.0 1910.23   1
   1  -2  13 1763.34 513.779   8
  -1  -2 -13 1791.43 615.734   4
  -1  -2 -13 1162.64 431.587  10
   1  -2  13 2673.88 637.804   1
  -1  -2 -14 9023.44 957.746   4
   1  -2  14 9451.34 945.063   8
  -1  -2 -14 9265.81 946.067  10
   1  -2  14 8744.57 913.561   1
  -1  -2 -15 1927.03 600.066  10
   1  -2  15 1488.31 549.786   1
  -1  -2 -15 1551.89 593.559   4
   1  -2  15 1645.95 562.038   8
   1  -2  16 12267.5 1102.94   1
  -1  -2 -16 10452.0 1058.83   4
  -1  -2 -16 12135.6 1101.38  10
   1  -2  16 14367.0 1155.98   8
   1  -2  17 1473.48 589.879   1
  -1  -1  17-137.296 420.068   8
  -1  -1  17 179.444 431.855   1
   1  -1 -16 27676.2 1683.11   4
  -1  -1  16 25943.4 1518.58   8
   1  -1 -16 29244.1 1698.24  10
  -1  -1  16 24562.2 1444.44   1
  -1  -1  15-394.985 412.657   1
  -1  -1  15 994.507 458.116   8
   1  -1 -15 331.414 490.156  10
   1  -1 -15 400.752 516.114   4
   1  -1 -14 10029.4 1043.25   4
   1  -1 -14 9696.69 977.330  10
   1  -1 -14 9966.76 889.975   3
  -1  -1  14 9635.67 906.457   8
  -1  -1  14 9567.03 862.869   1
   1  -1 -13 159.149 290.124   2
   1  -1 -13 609.051 546.420   4
   1  -1 -13 439.817 447.363  10
   1  -1 -13 228.056 359.953   3
  -1  -1  13 185.465 409.378   1
  -1  -1  13 256.671 415.782   8
  -1  -1  12 45091.4 1847.11   1
   1  -1 -12 45346.3 1909.18   3
   1  -1 -12 43414.2 2086.63   4
  -1  -1  12 42167.7 1854.64   8
   1  -1 -12 41783.0 1992.89  10
   1  -1 -12 44342.4 1666.69   2
   1  -1 -11 2121.95 491.044   3
   1  -1 -11 2346.57 402.505   2
   1  -1 -11 2233.07 585.194  10
  -1  -1  11 2296.29 509.821   8
  -1  -1  11 2112.41 487.822   1
   1  -1 -11 1232.32 559.676   4
   1  -1 -10 9902.58 702.947   2
   1  -1 -10 8961.69 903.249  10
  -1  -1  10 8917.34 796.302   8
   1  -1 -10 7739.42 753.942   3
   1  -1 -10 8452.22 952.798   4
  -1  -1  10 8850.66 747.708   1
  -1  -1   9 1032.62 377.629   1
   1  -1  -9 751.611 489.483  10
   1  -1  -9 758.366 418.728   3
   1  -1  -9 1204.47 348.237   2
   1  -1  -9 1192.74 549.623   4
  -1  -1   9 758.489 372.574   8
  -1  -1   8 40955.5 1684.12   8
  -1  -1   8 38033.8 1552.34   1
   1  -1  -8 41403.3 2215.86   4
   1  -1  -8 41292.5 1535.12   2
   1  -1  -8 39522.2 1829.60   3
   1  -1  -7 6454.03 909.774   4
  -1  -1   7 6192.64 665.941   8
   1  -1  -7 5492.60 706.683   3
  -1  -1   7 5670.87 559.145   1
   1  -1  -7 5753.97 540.252   2
   1  -1  -6 6485.42 626.824   3
   1  -1  -6 6468.39 562.792   2
  -1  -1   6 5639.34 631.571   8
  -1  -1   6 6183.09 546.936   1
   1  -1  -6 6082.87 698.285   4
  -1  -1   5 3207.77 422.742   1
   1  -1  -5 3414.86 386.253   1
  -1  -1   5 2521.57 375.474   8
   1  -1  -5 3791.96 480.896   4
   1  -1  -5 4193.60 448.695   5
   1  -1  -5 3803.69 437.416   3
   1  -1  -5 2993.79 444.641   8
   1  -1  -5 3619.61 457.658   2
   1  -1  -4 10461.7 541.132   3
   1  -1  -4 10118.9 675.450   8
  -1  -1   4 9780.84 553.826   4
  -1  -1   4 10497.3 604.200   3
   1  -1  -4 9965.74 588.277   4
   1  -1  -4 10095.4 680.833   5
  -1  -1   4 10250.8 616.574   1
   1  -1  -4 10107.4 520.772   1
  -1  -1   4 10649.2 565.096   8
  -1  -1   3 21763.3 745.815   4
   1  -1  -3 20892.7 771.611  11
  -1  -1   3 20949.4 592.519  11
   1  -1  -3 22658.2 1040.45   5
   1  -1  -3 21024.8 675.654   3
  -1  -1   3 22288.9 871.398   1
  -1  -1   3 20769.0 765.220   3
   1  -1  -3 20834.9 685.314   1
  -1  -1   3 21388.1 710.270   8
   1  -1  -3 20987.1 750.936   4
   1  -1  -3 21414.4 817.829   8
  -1  -1   2 4937.61 276.485   3
  -1  -1   2 6097.34 283.488   4
   1  -1  -2 5516.66 270.322   8
   1  -1  -2 5299.23 513.577   5
   1  -1  -2 5322.50 265.787   6
   1  -1  -2 5131.76 230.080   3
   1  -1  -2 5539.26 240.657   1
   1  -1  -2 5594.28 336.159  11
  -1  -1   2 5448.89 236.474   8
   1  -1  -2 5270.20 267.115   4
  -1  -1   2 6556.56 338.101   1
  -1  -1   2 5275.66 234.386  11
   1  -1  -1 6577.01 265.189   6
  -1  -1   1 6898.06 294.307   6
  -1  -1   1 6650.19 292.817  11
   1  -1  -1 7177.14 535.540   5
  -1  -1   1 6854.54 276.021   3
   1  -1  -1 6701.99 323.603  11
   1  -1  -1 6350.93 246.693  10
   1  -1  -1 6435.75 256.109   7
   1  -1  -1 6472.92 242.850   4
   1  -1  -1 6709.30 232.572   3
  -1  -1   1 6492.01 248.705   4
  -1  -1   0 6744.97 245.764   6
   1  -1   0 6623.54 300.288  11
  -1  -1   0 7089.25 229.538   8
  -1  -1   0 6333.27 336.522  11
   1  -1   0 6232.88 226.965  10
   1  -1   0 6931.77 271.977   6
   1  -1   0 6661.68 220.428   8
  -1  -1   0 6647.02 362.377   1
  -1  -1   0 7148.17 342.311   2
   1  -1   0 6599.73 243.547   7
  -1  -1   0 6715.67 250.420   3
  -1  -1   0 6841.43 187.910   7
   1  -1   0 8134.91 523.200   5
  -1  -1  -1 16983.7 561.469   2
  -1  -1  -1 14963.4 501.530  10
   1  -1   1 16576.8 530.444  11
   1  -1   1 17330.8 535.841   6
   1  -1   1 16751.5 480.165  10
  -1  -1  -1 16917.4 455.299   6
  -1  -1  -1 16691.1 530.352   8
   1  -1   1 16612.1 523.314   1
   1  -1   1 16397.5 560.940   8
  -1  -1  -1 17628.1 460.698   7
   1  -1   1 16694.4 498.655   7
   1  -1   1 18564.6 725.487   5
  -1  -1  -1 17103.1 652.524  11
   1  -1   2 21534.2 670.991  10
   1  -1   2 21392.5 679.186   7
  -1  -1  -2 21761.8 778.306   8
  -1  -1  -2 24304.8 938.332  10
  -1  -1  -2 21497.3 678.689   2
   1  -1   2 22102.0 662.971  11
   1  -1   2 22952.6 716.892   4
   1  -1   2 20910.7 828.158   8
   1  -1   2 21192.2 723.624   1
  -1  -1  -2 24701.4 1109.25   1
  -1  -1  -3 23198.1 954.313   8
   1  -1   3 23507.1 828.470  10
  -1  -1  -3 22995.5 755.753   2
  -1  -1  -3 25776.3 1188.48   1
   1  -1   3 23703.6 732.761  11
   1  -1   3 22502.5 1044.62   8
   1  -1   3 23336.1 897.320   1
   1  -1   3 24524.8 902.285   4
  -1  -1  -3 27085.0 1139.59  10
  -1  -1  -4 3002.33 285.876   2
   1  -1   4 2551.41 372.444   1
   1  -1   4 3409.11 358.153  10
  -1  -1  -4 3593.35 438.165   4
  -1  -1  -4 3334.39 289.906   5
   1  -1   4 2407.12 500.080   8
   1  -1   4 3125.85 409.552   3
  -1  -1  -4 3371.32 493.678   1
  -1  -1  -4 3181.03 484.963  10
  -1  -1  -4 2746.34 401.352   8
   1  -1   4 3662.14 453.459   4
  -1  -1  -5 37076.3 1240.17   2
   1  -1   5 36264.9 1504.02   1
  -1  -1  -5 39445.9 1278.27   5
  -1  -1  -5 36504.6 1559.93   4
  -1  -1  -5 37802.3 1530.59  10
   1  -1   5 38844.8 1669.00   8
   1  -1   6 26195.5 1341.85   8
   1  -1   6 26851.9 1362.30   1
  -1  -1  -6 23621.6 1405.68   4
  -1  -1  -6 28396.5 1111.18   2
  -1  -1  -6 25847.9 1258.20  10
  -1  -1  -6 27754.0 1114.50   5
  -1  -1  -7 52572.3 1824.05   5
   1  -1   7 52697.1 2173.85   1
  -1  -1  -7 48300.9 1898.01  10
  -1  -1  -7 52686.8 1815.69   2
  -1  -1  -7 46780.5 2257.24   4
   1  -1   7 47460.9 1957.04   8
  -1  -1  -8 3223.22 450.333   2
   1  -1   8 2079.90 517.322   8
  -1  -1  -8 2016.06 148.591   9
   1  -1   8 2234.60 538.952   1
  -1  -1  -8 3196.30 572.870  10
  -1  -1  -8 3755.82 470.442   5
  -1  -1  -8 3417.51 789.892   4
  -1  -1  -9 32103.6 1267.02   5
  -1  -1  -9 33524.2 1267.76   2
  -1  -1  -9 31145.2 1516.87  10
   1  -1   9 31815.9 1565.52   8
   1  -1   9 32577.8 1624.04   1
  -1  -1  -9 33466.6 1852.72   4
  -1  -1 -10 6908.02 895.913   4
   1  -1  10 8147.38 823.947   1
  -1  -1 -10 7746.94 539.191   5
  -1  -1 -10 7525.37 523.815   2
   1  -1  10 7847.77 791.212   8
  -1  -1 -10 7353.83 765.443  10
  -1  -1 -11 32593.0 1757.21   4
  -1  -1 -11 31118.6 1583.32  10
   1  -1  11 31887.5 1625.68   8
   1  -1  11 33144.8 1665.41   1
  -1  -1 -11 33693.3 1168.68   2
   1  -1  12 8043.48 862.913   1
  -1  -1 -12 7923.52 596.575  11
  -1  -1 -12 8869.12 848.110  10
   1  -1  12 8465.85 860.026   8
  -1  -1 -12 8005.77 910.141   4
   1  -1  13 15791.7 1158.93   8
  -1  -1 -13 13875.9 1155.41   4
  -1  -1 -13 13289.0 1069.71  10
   1  -1  13 13676.9 1093.87   1
  -1  -1 -14 230.640 464.880  10
   1  -1  14 909.556 539.335   8
  -1  -1 -14 851.218 500.499   4
   1  -1  14 34.6228 440.420   1
  -1  -1 -15 13133.3 1117.36  10
   1  -1  15 14224.0 1159.44   1
   1  -1  15 13874.2 1147.90   8
  -1  -1 -15 14288.2 1183.50   4
   1  -1  16 9167.49 981.057   1
  -1  -1 -16 9973.32 1029.27   4
  -1  -1 -16 8376.35 952.938  10
   1  -1  16 8199.07 900.480   8
  -1  -1 -16 9934.78 1006.44   7
   1  -1  17 3891.57 756.838   1
  -1   0  17 539.988 471.253   6
  -1   0  17 987.806 563.060   8
  -1   0  17 351.661 465.047   1
  -1   0  16 11194.7 1008.09   8
   1   0 -16 12851.1 1146.21   4
   1   0 -16 13668.7 1181.43  10
  -1   0  16 11430.2 1009.28   1
   1   0 -15 1095.93 569.679  10
   1   0 -15 182.424 488.611   4
  -1   0  15 1087.95 494.749   1
  -1   0  15 1157.20 480.343   8
   1   0 -14 4291.35 743.814   4
   1   0 -14 4220.72 744.603  10
  -1   0  14 3892.89 671.275   8
  -1   0  14 4016.67 622.905   1
   1   0 -14 4302.96 675.964   3
   1   0 -13 491.522 411.042   3
  -1   0  13 81.2800 377.318   1
   1   0 -13 442.975 465.835  10
   1   0 -13 1437.22 545.651   4
  -1   0  13 1160.73 421.156   8
   1   0 -13 246.121 271.168   2
   1   0 -12 68444.7 2732.14   4
  -1   0  12 65931.8 2409.69   1
  -1   0  12 64334.9 2412.71   8
   1   0 -12 67798.0 2558.55   3
   1   0 -12 65340.3 2561.33  10
   1   0 -12 69841.5 2197.11   2
   1   0 -11 2466.96 597.271  10
   1   0 -11 2579.59 400.313   2
  -1   0  11 1883.58 463.656   1
   1   0 -11 2755.18 713.638   4
   1   0 -11 1988.12 552.170   3
  -1   0  11 2814.52 544.546   8
  -1   0  10 16782.2 915.662   5
   1   0 -10 17702.6 1181.69   3
   1   0 -10 15782.9 1129.34  10
   1   0 -10 16988.3 1299.80   4
  -1   0  10 17050.8 1050.89   1
   1   0 -10 17324.7 921.078   2
  -1   0  10 16505.9 1042.98   8
  -1   0   9 1155.57 416.430   1
  -1   0   9 735.674 284.352   5
   1   0  -9-148.816 451.030   3
  -1   0   9 871.522 406.303   8
   1   0  -9 827.732 211.982  11
   1   0  -9 596.757 454.857  10
   1   0  -9 786.153 301.040   2
   1   0  -9 714.959 546.213   4
   1   0  -8 206366. 4951.21  11
   1   0  -8 228462. 6544.49   4
  -1   0   8 205929. 5361.26   1
  -1   0   8 201595. 5303.38   8
   1   0  -8 222232. 6060.97   3
   1   0  -8 199466. 5481.70  10
   1   0  -8 208005. 5149.14   2
  -1   0   8 194422. 5079.80   5
   1   0  -7 56.3045 469.491   3
   1   0  -7 695.638 550.981   4
  -1   0   7 1740.79 433.630   1
   1   0  -7 1376.56 265.936  11
  -1   0   7 1491.70 331.797   5
  -1   0   7 1873.05 431.340   8
   1   0  -7 1232.84 450.763  10
   1   0  -6 55681.6 2005.99   3
  -1   0   6 51116.7 1768.29   5
  -1   0   6 52146.2 1853.87   8
  -1   0   6 50506.8 1362.18   9
   1   0  -6 58894.2 1880.99   5
   1   0  -6 51770.6 2086.64   4
  -1   0   6 60318.3 2044.33   1
   1   0  -6 53338.7 1602.98  11
   1   0  -5 417.513 219.080   5
  -1   0   5 525.557 272.728   3
   1   0  -5 268.048 297.421   1
  -1   0   5 498.536 279.553   1
   1   0  -5 497.323 278.213   8
   1   0  -5 821.826 331.172   3
  -1   0   5 206.212 290.958   8
   1   0  -5 293.806 309.441   4
  -1   0   5 318.298 307.599   5
   1   0  -5 309.536 147.960  11
  -1   0   4 439697. 9440.78   5
   1   0  -4 395592. 9076.33   4
  -1   0   4 413543. 9106.63   4
   1   0  -4 394602. 9150.60   1
  -1   0   4 395168. 9003.48   1
   1   0  -4 406907. 8849.13  11
   1   0  -4 433913. 9317.29   8
  -1   0   4 394830. 9000.40   3
   1   0  -4 392112. 9036.33   3
   1   0  -4 399905. 9128.45   5
  -1   0   4 398868. 9232.10   8
  -1   0   3 85.8798 127.204   1
   1   0  -3 143.699 115.472  11
  -1   0   3 113.055 138.457   3
   1   0  -3-70.9871 169.204   3
  -1   0   3 413.600 287.217   5
  -1   0   3 103.923 291.411   8
   1   0  -3 259.963 198.742   4
   1   0  -3 115.052 186.841   8
   1   0  -3 135.105 162.387   1
  -1   0   3 164.570 147.309   4
   1   0  -3 284.524 206.408   5
   1   0  -2 110795. 2592.09  11
   1   0  -2 111135. 2560.52   3
  -1   0   2 113614. 2618.58   6
  -1   0   2 115370. 2585.01   4
  -1   0   2 114768. 2571.99  11
   1   0  -2 112028. 2782.12   5
  -1   0   2 109362. 2824.11   5
   1   0  -2 114802. 2558.84   8
   1   0  -2 112762. 2580.19   4
   1   0  -2 109566. 2528.07   1
  -1   0   2 110021. 2563.14   3
  -1   0   2 110237. 2490.02   1
  -1   0   1 5653.40 255.154  11
   1   0  -1 5291.87 219.724   3
  -1   0   1 5934.32 228.116   3
   1   0  -1 5049.20 252.917  11
  -1   0   1 5536.50 223.250   4
   1   0  -1 5470.50 341.340   5
   1   0  -1 5116.73 240.441   6
  -1   0   1 5385.65 240.740   6
  -1   0   1 5322.15 340.502   5
   1   0  -1 5317.87 215.923   4
  -1   0   0 273116. 4936.81  11
   1   0   0 157355. 4783.72   6
   1   0   0 302509. 4971.01  11
  -1   0   0 292424. 4855.59   6
  -1   0   0 293580. 4802.02   7
  -1   0   0 295407. 4793.56   1
   1   0   0 192107. 4768.76   1
   1   0   0 276454. 5020.92   5
   1   0   0 141692. 4719.38  10
  -1   0   0 284743. 4752.50  10
   1   0   0 293425. 4849.54   3
   1   0   0 294785. 4805.45   7
  -1   0  -1 4603.72 252.043   1
   1   0   1 4272.33 277.598   1
  -1   0  -1 4569.66 177.102  10
   1   0   1 4364.98 262.561  11
  -1   0  -1 4286.39 201.217   6
  -1   0  -1 4644.32 195.139   7
   1   0   1 4390.14 208.799   6
   1   0   1 4546.14 322.926   8
   1   0   1 4418.48 195.041   7
  -1   0  -1 4315.98 270.797  11
  -1   0  -1 4588.30 400.398   8
   1   0   1 4200.18 184.751  10
  -1   0  -2 121026. 2956.79   1
  -1   0  -2 118867. 2756.47  10
   1   0   2 120568. 2777.86   4
   1   0   2 112664. 2979.39   1
   1   0   2 118341. 2616.84   2
  -1   0  -2 116532. 2655.34   2
   1   0   2 114789. 2794.47  10
  -1   0  -2 121533. 2829.64  11
  -1   0  -2 116303. 2742.38   7
   1   0   3 1780.21 249.851   4
  -1   0  -3 1586.15 253.874   7
  -1   0  -3 1814.97 135.079   2
  -1   0  -3 1573.88 329.223   1
   1   0   3 2152.79 145.079   5
   1   0   3 2210.18 568.266   8
   1   0   3 2196.03 148.181   2
  -1   0  -3 2387.61 319.454   4
  -1   0  -3 1639.19 453.936   8
   1   0   3 1557.88 381.902   1
   1   0   3 1975.78 302.382  10
  -1   0  -3 1936.64 284.023  10
  -1   0  -3 1580.08 255.644  11
  -1   0  -4 415128. 9015.07   1
   1   0   4 357119. 8039.92   5
  -1   0  -4 365772. 8610.41   4
   1   0   4 414728. 9016.97   1
   1   0   4 363986. 8551.81   3
  -1   0  -4 398041. 8650.07  10
   1   0   4 365290. 8051.63   2
   1   0   4 378900. 8645.26   4
   1   0   4 388578. 8941.79   8
  -1   0  -4 381796. 8404.52  11
  -1   0  -4 371545. 8903.36   8
   1   0   4 400896. 8763.93  10
  -1   0  -4 369119. 8041.62   2
  -1   0  -5 687.193 146.837   5
   1   0   5 477.698 120.180   2
   1   0   5 594.802 138.045   5
  -1   0  -5 997.061 456.821  10
  -1   0  -5 787.406 452.889   4
   1   0   5 534.646 417.205   8
  -1   0  -5 645.310 144.895   2
   1   0   5 577.430 483.780   1
   1   0   6 48645.6 1336.41   5
   1   0   6 58423.9 2095.93   1
   1   0   6 45414.4 1859.27   8
  -1   0  -6 45955.1 1375.69   2
  -1   0  -6 47656.3 2121.27   4
  -1   0  -6 55226.1 2102.39  10
  -1   0  -6 48386.6 1395.48   5
  -1   0  -7 386.932 202.237   2
  -1   0  -7 172.152 185.149   5
   1   0   7 37.8448 113.297   5
   1   0   7 138.565 408.262   1
  -1   0  -7 225.282 97.4014   9
  -1   0  -7-312.943 637.643   4
   1   0   7 48.2085 359.868   8
  -1   0  -7 438.487 430.957  10
  -1   0  -8 204051. 4760.38   5
   1   0   8 185563. 4428.44   5
  -1   0  -8 210640. 4758.02   2
   1   0   8 185345. 5187.73   8
  -1   0  -8 201586. 6106.34   4
   1   0   8 190459. 5228.28   1
  -1   0  -8 188846. 5236.78  10
  -1   0  -9 5774.19 892.169   4
  -1   0  -9 5853.37 694.075  10
   1   0   9 4789.46 652.692   8
  -1   0  -9 6152.56 420.979   2
   1   0   9 5342.95 335.799   5
  -1   0  -9 5937.63 418.498   5
   1   0   9 5299.72 678.274   1
  -1   0  -9 5648.42 474.654  11
   1   0  10 29549.2 937.177   5
  -1   0 -10 29353.5 1002.37   5
  -1   0 -10 31553.3 1010.23   2
  -1   0 -10 27599.0 1118.51  11
   1   0  10 30044.3 1521.09   1
   1   0  10 29908.7 1513.93   8
  -1   0 -10 27974.3 1486.10  10
  -1   0 -10 28217.9 1659.31   4
   1   0  11 4281.77 658.972   8
   1   0  11 5115.44 698.318   1
  -1   0 -11 3621.38 722.935   4
  -1   0 -11 4194.20 413.698  11
  -1   0 -11 4030.26 307.927   2
  -1   0 -11 4235.12 669.442  10
   1   0  12 68007.6 2559.16   1
  -1   0 -12 66833.1 1987.90  11
  -1   0 -12 65888.3 2537.68  10
   1   0  12 67645.2 2542.54   8
  -1   0 -12 68011.5 2696.07   4
   1   0  13 5580.39 722.100   1
   1   0  13 5888.29 767.860   8
  -1   0 -13 5542.78 790.356   4
  -1   0 -13 5640.37 740.597  10
  -1   0 -14 8860.80 914.878  10
   1   0  14 9233.05 933.178   8
  -1   0 -14 9800.21 1008.55   4
   1   0  14 8032.27 889.419   1
  -1   0 -15 4532.50 776.943   4
  -1   0 -15 2975.97 659.952  10
   1   0  15 3730.20 655.477   8
  -1   0 -15 4272.13 724.781   7
   1   0  15 3137.18 680.632   1
   1   0  16 16191.6 1258.25   1
   1   0  16 18548.1 1315.69   8
  -1   0 -16 15340.0 1264.27   4
  -1   0 -16 14528.6 1198.45  10
  -1   0 -16 16236.6 1263.10   7
   1   0  17 3324.10 679.329   1
  -1   1  17-173.890 445.170   8
  -1   1  17-74.1556 392.754   6
  -1   1  17 426.647 467.633   1
   1   1 -16 29467.4 1727.67   4
  -1   1  16 25915.2 1461.94   6
   1   1 -16 27941.1 1640.64  10
  -1   1  16 25736.1 1514.38   1
  -1   1  16 27277.8 1528.04   8
  -1   1  15 91.7256 416.340   8
   1   1 -15 1428.32 576.074   3
   1   1 -15 130.532 498.546   4
   1   1 -15 117.440 519.579  10
  -1   1  15 98.0884 437.187   1
  -1   1  15 786.487 462.561   6
   1   1 -14 9314.49 1001.50   4
   1   1 -14 9312.27 931.584   3
  -1   1  14 9356.39 904.545   8
  -1   1  14 9322.12 902.040   1
   1   1 -14 8755.91 947.867  10
   1   1 -13 156.093 276.186   2
   1   1 -13 380.235 440.179  10
   1   1 -13 1161.83 598.325   4
   1   1 -13 461.543 479.364   3
  -1   1  13 399.621 434.290   8
  -1   1  13 50.2956 388.556   1
   1   1 -12 44834.7 2147.56   4
   1   1 -12 44388.9 2036.67   3
  -1   1  12 40904.4 1866.13   1
  -1   1  12 45929.0 1921.49   8
  -1   1  12 46394.8 1688.56   5
   1   1 -12 43647.6 1991.42  10
   1   1 -12 45482.3 1625.98   2
  -1   1  11 2281.96 417.302   5
   1   1 -11 1908.72 539.600   3
   1   1 -11 1945.23 551.370  10
   1   1 -11 1993.80 375.163   2
   1   1 -11 1599.89 599.364   4
  -1   1  11 2239.71 511.396   8
  -1   1  11 1688.79 476.886   1
   1   1 -10 8741.75 641.693   2
   1   1 -10 9924.25 894.451  10
   1   1 -10 8835.42 466.790  11
  -1   1  10 9805.97 829.442   8
   1   1 -10 8958.32 909.621   3
  -1   1  10 8435.52 816.728   1
  -1   1  10 10408.9 725.340   5
   1   1 -10 8632.97 999.484   4
   1   1  -9 816.737 477.503   3
   1   1  -9 1244.12 204.879  11
   1   1  -9 196.233 549.226   4
  -1   1   9 768.753 410.842   8
  -1   1   9 1233.37 345.246   5
   1   1  -9 1122.02 446.344  10
  -1   1   9 458.845 407.660   1
   1   1  -8 36315.0 1665.65  10
  -1   1   8 36136.7 1456.93   5
   1   1  -8 39625.2 2056.68   3
   1   1  -8 41560.1 2312.14   4
  -1   1   8 39400.3 1669.17   8
   1   1  -8 40528.3 1257.99  11
  -1   1   7 5745.97 541.527   5
   1   1  -7 7571.56 843.156   3
   1   1  -7 6906.46 399.003  11
   1   1  -7 6472.62 660.481  10
  -1   1   7 6789.75 694.449   1
   1   1  -7 7901.73 927.930   4
  -1   1   7 6686.11 692.538   8
   1   1  -6 5208.02 626.928   3
   1   1  -6 4924.61 307.741  11
  -1   1   6 5518.96 676.802   8
   1   1  -6 5230.32 437.365   5
   1   1  -6 5437.93 626.132  10
  -1   1   6 5517.04 540.028   1
   1   1  -6 5203.24 658.328   4
   1   1  -6 5636.98 550.905   1
  -1   1   6 5028.82 508.083   5
  -1   1   5 4329.87 487.960   5
   1   1  -5 4899.44 397.015   5
   1   1  -5 5381.51 606.319  10
   1   1  -5 4704.27 528.906   3
   1   1  -5 4943.57 420.062   8
   1   1  -5 4883.21 552.694   4
  -1   1   5 4569.57 334.648   9
  -1   1   5 4786.05 411.073   3
   1   1  -5 4691.74 271.791  11
  -1   1   5 5403.83 439.124   1
  -1   1   5 6143.72 580.720   8
   1   1  -5 6939.73 593.911   1
   1   1  -4 10498.2 543.825   5
  -1   1   4 10661.5 530.824   6
  -1   1   4 10901.1 522.765   1
  -1   1   4 10152.8 496.532   3
   1   1  -4 10358.3 520.991   8
   1   1  -4 11264.3 636.562   3
  -1   1   4 12179.3 640.776   8
   1   1  -4 10964.5 775.098  10
  -1   1   4 11203.9 533.089   9
   1   1  -4 11013.5 636.173   4
  -1   1   4 11431.5 617.463   4
  -1   1   4 9708.36 682.454   5
   1   1  -4 10523.1 400.015  11
  -1   1   3 25621.6 824.811   8
  -1   1   3 25546.8 777.212   1
  -1   1   3 25310.7 763.875   3
   1   1  -3 25828.5 726.706  11
  -1   1   3 25558.2 1120.26   5
  -1   1   3 26068.7 849.446   4
   1   1  -3 25781.7 874.925   3
   1   1  -3 27799.8 1185.32  10
   1   1  -3 27683.6 976.505   1
  -1   1   3 26068.6 939.308   9
   1   1  -3 25593.8 777.688   8
  -1   1   3 24671.9 799.711   6
   1   1  -3 25959.3 888.341   5
   1   1  -3 27857.8 880.149   4
   1   1  -2 7378.60 343.724   3
   1   1  -2 7130.90 305.655  11
  -1   1   2 7350.49 315.464   6
  -1   1   2 7008.39 264.779   8
   1   1  -2 7214.13 323.264   4
   1   1  -2 7159.55 294.603   1
  -1   1   2 6902.27 273.666   3
  -1   1   2 7361.01 312.314   4
   1   1  -2 8811.30 675.455  10
  -1   1   1 8118.26 298.116   6
   1   1  -1 7413.11 270.469   4
  -1   1   1 7764.31 554.756   5
   1   1  -1 8097.08 404.448  10
  -1   1   1 7578.80 344.525  11
  -1   1   1 7446.33 256.337   3
   1   1  -1 7876.42 299.563   3
   1   1  -1 7797.31 375.972   2
   1   1  -1 7137.97 334.872  11
  -1   1   1 7268.33 262.201   4
  -1   1   0 5805.48 284.275  11
   1   1   0 5100.42 210.371   3
   1   1   0 4206.07 198.952   6
   1   1   0 5867.49 294.343   2
  -1   1   0 5225.87 190.684  10
  -1   1   0 6045.94 387.183   5
   1   1   0 4841.91 216.581   1
   1   1   0 5574.73 313.843  11
  -1   1   0 5202.87 206.023   7
   1   1   0 3982.26 137.014   7
  -1   1   0 5675.80 232.057   6
   1   1   1 17825.2 482.252   6
  -1   1  -1 18076.7 552.553   8
  -1   1  -1 17152.9 553.677   5
   1   1   1 18048.7 537.145   8
  -1   1  -1 17568.7 562.259  11
   1   1   1 17870.0 562.069   2
  -1   1  -1 17590.6 495.562  10
   1   1   1 19169.4 791.669   1
   1   1   1 16811.7 491.547   7
  -1   1  -1 17556.3 528.705   1
  -1   1  -1 17373.3 513.202   7
   1   1   2 24179.7 722.977   2
  -1   1  -2 24621.2 744.371  11
   1   1   2 25226.4 679.695   6
  -1   1  -2 24580.7 869.487   8
   1   1   2 25084.8 831.911   8
  -1   1  -2 25018.5 790.028   1
  -1   1  -2 24013.8 741.860   7
  -1   1  -2 25242.2 732.404  10
   1   1   2 25700.8 727.276   5
  -1   1  -3 28429.1 946.819   7
   1   1   3 29405.5 866.981   2
   1   1   3 28541.5 1078.25   8
  -1   1  -3 29409.2 1148.08   8
  -1   1  -3 31259.1 1043.26   4
   1   1   3 30576.0 1015.97   4
  -1   1  -3 29530.1 1048.01   9
  -1   1  -3 27137.8 868.549  11
  -1   1  -3 28303.5 933.423  10
   1   1   3 30092.7 874.697   5
  -1   1  -3 29558.4 1021.42   1
   1   1   3 30528.6 1347.96   1
  -1   1  -4 3959.75 398.666   1
   1   1   4 4275.78 435.288   4
  -1   1  -4 3494.22 384.903   7
   1   1   4 3542.93 265.139   2
   1   1   4 3629.56 495.021   8
  -1   1  -4 3664.24 379.875  10
  -1   1  -4 4089.08 350.289   9
   1   1   4 3944.61 281.145   5
   1   1   4 3166.03 536.355   1
  -1   1  -4 3678.15 301.714  11
  -1   1  -4 4531.83 529.549   4
  -1   1  -4 3488.23 497.603   8
   1   1   5 38796.6 1615.01   8
   1   1   5 35890.7 1398.32   3
  -1   1  -5 35012.5 1107.88   9
  -1   1  -5 34903.5 1368.11  10
   1   1   5 36487.3 1104.62   2
   1   1   5 34664.1 1087.24   5
  -1   1  -5 37183.7 1635.65   4
   1   1   5 35700.6 1543.21   1
  -1   1  -5 34750.1 1131.62  11
  -1   1  -5 35434.1 1379.22   7
  -1   1  -6 28005.6 1016.59  11
  -1   1  -6 25021.6 1267.12  10
   1   1   6 26503.1 940.191   5
   1   1   6 29684.9 1557.90   8
  -1   1  -6 28740.5 1614.70   4
   1   1   6 26648.3 943.677   2
   1   1   6 27081.1 1341.56   1
  -1   1  -7 50190.4 2451.30   4
   1   1   7 50460.8 2038.65   8
  -1   1  -7 45757.3 1190.26   2
  -1   1  -7 50173.0 2047.37  10
  -1   1  -7 53660.8 1611.24  11
   1   1   7 51391.8 1494.92   5
   1   1   7 49946.9 1923.32   1
  -1   1  -7 44820.2 1197.58   5
  -1   1  -8 2273.78 324.586  11
  -1   1  -8 2895.07 822.785   4
   1   1   8 2656.86 323.684   5
   1   1   8 2119.97 546.845   8
  -1   1  -8 1789.47 588.153  10
   1   1   8 2399.60 516.355   1
  -1   1  -8 2388.58 209.377   5
  -1   1  -8 2254.65 208.094   2
  -1   1  -9 28844.7 1752.15   4
  -1   1  -9 28794.4 859.677   5
   1   1   9 29390.4 1052.92   5
   1   1   9 31537.8 1545.73   8
  -1   1  -9 29751.5 859.188   2
  -1   1  -9 30288.0 1579.81  10
   1   1   9 30648.5 1507.31   1
  -1   1  -9 28986.2 1080.48  11
  -1   1 -10 6923.76 316.519   5
   1   1  10 7076.65 467.166   5
  -1   1 -10 7389.30 794.433  10
  -1   1 -10 8014.81 914.952   4
  -1   1 -10 7494.98 318.326   2
   1   1  10 8116.47 819.286   1
  -1   1 -10 7210.66 484.813  11
   1   1  10 7298.79 766.889   8
   1   1  11 32753.3 1113.39   5
  -1   1 -11 34393.3 1817.58   4
   1   1  11 32865.7 1637.45   8
   1   1  11 33356.4 1639.77   1
  -1   1 -11 31123.8 1108.39  11
  -1   1 -11 31323.4 1627.85  10
   1   1  12 7905.36 851.440   1
  -1   1 -12 7005.26 809.974  10
   1   1  12 8817.44 883.054   8
  -1   1 -12 7324.55 868.832   4
  -1   1 -13 13320.2 1143.50   4
  -1   1 -13 14129.3 1115.66  10
   1   1  13 13111.0 1036.62   8
  -1   1 -13 13312.2 1121.56   7
   1   1  13 13051.0 1071.12   1
  -1   1 -14 1252.78 570.353   7
  -1   1 -14 651.940 507.055  10
   1   1  14 713.698 479.010   1
  -1   1 -14 267.337 465.869   4
   1   1  14 182.624 415.260   8
  -1   1 -15 14760.6 1209.85   7
  -1   1 -15 14952.4 1203.45   4
   1   1  15 13400.0 1121.24   1
   1   1  15 13321.4 1098.81   8
  -1   1 -15 11934.0 1085.24  10
  -1   1 -16 9854.41 1016.11   7
  -1   1 -16 8587.55 946.645  10
   1   1  16 9310.35 955.518   8
   1   1  16 9316.20 961.519   1
  -1   1 -16 8853.81 993.470   4
  -1   2  17 322.927 420.415   8
  -1   2  17 740.757 506.967   1
  -1   2  16 14896.0 1068.25   6
   1   2 -16 14626.0 1234.83   4
   1   2 -16 13771.6 1188.09  10
  -1   2  16 13453.7 1113.25   1
  -1   2  16 13569.5 1097.07   8
   1   2 -15 531.803 508.109   4
   1   2 -15 1520.25 596.780   3
  -1   2  15 653.415 485.539   1
   1   2 -15 722.841 503.996  10
  -1   2  15 29.3435 405.042   8
  -1   2  15 397.498 435.988   6
   1   2 -14 7869.27 929.904   3
  -1   2  14 7735.61 842.638   8
  -1   2  14 7102.08 765.218   6
   1   2 -14 7724.88 969.957   4
  -1   2  14 7501.51 865.878   1
   1   2 -14 6868.26 847.561  10
  -1   2  13 590.540 455.497   8
  -1   2  13 660.577 389.950   6
  -1   2  13 708.767 431.505   1
  -1   2  13 1068.89 350.281   5
   1   2 -13 795.832 481.926  10
   1   2 -13 983.919 556.120   4
   1   2 -13 1596.14 579.737   3
  -1   2  12 63216.9 2507.94   1
  -1   2  12 67250.9 2252.14   5
   1   2 -12 70777.1 2151.71   2
  -1   2  12 64110.2 2453.93   8
   1   2 -12 68758.7 2705.10   3
   1   2 -12 63889.7 2677.67   4
   1   2 -12 65353.8 2551.10  10
  -1   2  11 845.258 337.515   5
   1   2 -11 857.934 498.811   3
  -1   2  11 1752.75 522.514   8
   1   2 -11 1180.59 303.465   2
   1   2 -11 1204.53 537.728   4
   1   2 -11 1576.04 584.994  10
  -1   2  11 1253.02 472.667   1
   1   2 -10 19600.6 1407.83   4
   1   2 -10 19959.5 1267.13  10
  -1   2  10 19475.0 1250.00   8
   1   2 -10 21996.5 1443.28   3
  -1   2  10 20667.1 1101.19   5
  -1   2  10 23679.7 1408.15   1
   1   2  -9 1495.30 505.235  10
   1   2  -9 1159.31 136.740  11
   1   2  -9 425.738 528.216   4
  -1   2   9 1786.49 405.520   5
  -1   2   9 1453.91 519.456   8
   1   2  -9 1171.98 543.022   3
  -1   2   9 1016.05 470.117   1
  -1   2   8 160253. 4242.06   5
   1   2  -8 163369. 4554.98  10
   1   2  -8 180541. 5509.04   4
  -1   2   8 186914. 4754.42   8
   1   2  -8 175366. 5196.41   3
  -1   2   8 174274. 4529.09   1
   1   2  -8 148035. 3579.86  11
  -1   2   7 6847.23 675.723   8
  -1   2   7 6207.00 553.547   6
   1   2  -7 6183.61 289.195  11
   1   2  -7 6755.10 613.766   2
   1   2  -7 5821.47 779.063   3
   1   2  -7 6780.36 751.470  10
  -1   2   7 7666.57 658.474   1
  -1   2   7 6468.42 603.985   5
   1   2  -7 7449.04 937.519   4
  -1   2   6 9699.55 726.522   5
  -1   2   6 9556.40 628.662   1
   1   2  -6 9157.17 656.913   1
   1   2  -6 9347.31 659.476   2
  -1   2   6 9818.28 614.480   3
   1   2  -6 10828.8 887.137   4
  -1   2   6 9239.19 663.646   8
   1   2  -6 10148.1 563.485   5
   1   2  -6 8457.58 343.846  11
   1   2  -6 9890.02 911.712  10
   1   2  -6 10249.4 881.476   3
  -1   2   6 9227.65 582.198   6
   1   2  -5 2428.22 173.260  11
  -1   2   5 2405.70 271.630   3
   1   2  -5 2637.71 515.540  10
  -1   2   5 2965.90 335.566   1
  -1   2   5 2613.44 458.935   5
   1   2  -5 2724.66 292.830   8
   1   2  -5 2967.81 298.985   5
   1   2  -5 2536.41 473.608   3
   1   2  -5 3053.22 365.183   2
   1   2  -5 2719.65 436.657   4
  -1   2   5 2168.28 282.021   6
   1   2  -5 3027.07 333.495   1
  -1   2   5 2354.19 329.654   8
  -1   2   4 173772. 4039.35   6
   1   2  -4 178383. 4263.35   2
  -1   2   4 171896. 3990.45   3
   1   2  -4 173686. 4292.38   4
   1   2  -4 182902. 4154.03   5
   1   2  -4 176524. 4063.85   8
   1   2  -4 183245. 4477.06  10
   1   2  -4 171410. 3909.49  11
  -1   2   4 173994. 4094.25   1
   1   2  -4 180765. 4389.51   3
   1   2  -4 172515. 4053.43   1
  -1   2   4 184276. 4649.25   5
  -1   2   4 178396. 4235.47   4
  -1   2   4 174494. 4081.91   8
  -1   2   3 30916.2 818.104   3
  -1   2   3 30264.3 901.594   1
  -1   2   3 33118.1 1421.71   5
  -1   2   3 31294.0 942.961   4
  -1   2   3 30719.1 878.464   6
   1   2  -3 29741.7 872.878  11
  -1   2   3 31210.5 1163.97   9
  -1   2   3 30868.3 867.889   8
   1   2  -3 31523.0 1051.48   2
   1   2  -3 31996.5 990.079   4
   1   2  -3 30464.6 1071.19  10
   1   2  -3 30863.1 1040.55   3
   1   2  -3 29829.1 823.824   1
  -1   2   2 16616.1 462.742   3
  -1   2   2 19957.1 1058.93   5
   1   2  -2 16765.2 583.533  10
  -1   2   2 19130.2 913.781   9
   1   2  -2 17006.7 667.141   2
   1   2  -2 16522.6 558.158   4
   1   2  -2 17286.6 629.766   3
  -1   2   2 16457.0 527.383   6
  -1   2   2 16347.8 517.505   4
   1   2  -1 18310.7 480.353  10
  -1   2   1 19121.4 983.357   9
  -1   2   1 18425.4 954.434   5
   1   2  -1 17555.2 504.980   4
   1   2  -1 16896.2 553.572   3
  -1   2   1 16998.2 480.463   4
   1   2  -1 18634.3 664.598   2
  -1   2   1 18100.3 531.844  10
  -1   2   1 18138.6 533.863   6
   1   2   0 152106. 3359.76   3
  -1   2   0 155048. 3924.55   5
   1   2   0 153782. 3309.46   1
  -1   2   0 149526. 3358.60   7
  -1   2   0 151702. 3353.97  10
   1   2   0 150424. 3511.05   2
  -1   2   0 149915. 3501.23  11
  -1   2   0 151031. 3401.05   6
  -1   2  -1 22094.9 1059.49   9
  -1   2  -1 18880.5 572.220   7
  -1   2  -1 22347.4 914.007   5
   1   2   1 19538.5 669.997   5
  -1   2  -1 22197.0 920.791   2
   1   2   1 18504.1 607.498   1
  -1   2  -1 18521.5 631.221  11
   1   2   1 19315.6 662.468   2
  -1   2  -1 19277.5 563.055  10
   1   2   1 18888.2 538.575   3
   1   2   1 19018.9 503.593   6
   1   2   2 40681.0 1270.69   1
   1   2   2 44418.9 1150.24   4
   1   2   2 40485.0 1191.60   5
  -1   2  -2 42665.0 1146.20   1
   1   2   2 41143.0 1159.64   8
  -1   2  -2 42215.7 1135.95   7
  -1   2  -2 44145.4 1192.95   5
  -1   2  -2 42780.2 1119.06  10
  -1   2  -2 41319.3 1120.59  11
  -1   2  -2 41970.0 1161.93   8
   1   2   2 40755.2 1184.00   2
  -1   2  -2 42763.8 1531.60   9
   1   2   2 41292.4 988.150   6
  -1   2  -3 46699.0 1578.28   9
  -1   2  -3 45833.3 1395.71   8
   1   2   3 49420.3 1377.72   5
  -1   2  -3 47340.6 1432.74   4
  -1   2  -3 47595.6 1358.09   1
   1   2   3 49739.8 1437.34   4
  -1   2  -3 44403.9 1230.32  11
   1   2   3 48499.3 1374.72   2
   1   2   3 48769.4 1591.46   1
   1   2   3 46715.1 1402.73   8
  -1   2  -3 47706.0 1345.69   7
  -1   2  -3 48371.5 1331.35  10
  -1   2  -4 101941. 2805.69   4
  -1   2  -4 100161. 2547.89  10
  -1   2  -4 93090.9 2321.17  11
   1   2   4 95288.1 2478.84   5
   1   2   4 99157.9 2754.43   4
   1   2   4 98123.2 2494.25   2
  -1   2  -4 97746.0 2672.97   8
   1   2   4 104874. 2984.49   1
   1   2   4 96069.1 2644.36   8
  -1   2  -4 96542.6 2560.33   7
   1   2   5 9738.66 539.088   5
  -1   2  -5 10075.7 830.786   4
   1   2   5 9696.48 704.039   8
   1   2   5 10539.0 646.349   3
   1   2   5 11176.7 947.507   1
   1   2   5 9397.19 528.578   2
  -1   2  -5 9505.20 642.226  10
  -1   2  -5 9489.13 640.192   7
  -1   2  -5 9118.92 433.730  11
  -1   2  -6 4299.57 317.284  11
  -1   2  -6 3819.51 495.673  10
   1   2   6 4039.41 380.322   5
   1   2   6 5360.17 706.423   1
   1   2   6 3892.59 569.997   8
   1   2   6 4950.52 408.785   2
  -1   2  -6 3785.80 668.190   4
  -1   2  -6 3531.58 503.622   7
  -1   2  -7 13706.2 944.444  10
  -1   2  -7 13060.1 606.877  11
   1   2   7 13572.2 1012.03   1
   1   2   7 14479.2 1064.66   8
  -1   2  -7 11616.2 1148.29   4
  -1   2  -7 13017.8 950.963   7
   1   2   7 12800.7 689.568   2
   1   2   7 13482.4 705.522   5
  -1   2  -8 86587.2 2292.60  11
  -1   2  -8 81253.5 2898.30  10
  -1   2  -8 88262.1 3494.86   4
   1   2   8 80640.5 2391.67   5
   1   2   8 90982.2 3177.09   8
   1   2   8 79255.1 2812.32   1
   1   2   8 82001.6 2413.59   2
  -1   2  -8 81895.6 2956.29   7
   1   2   9 2102.69 508.498   1
  -1   2  -9 1607.72 627.378   4
   1   2   9 1750.65 334.149   5
  -1   2  -9 1663.90 595.911   7
   1   2   9 1463.05 518.646   8
  -1   2  -9 1700.41 601.855  10
  -1   2  -9 1858.98 271.369  11
  -1   2 -10 11594.3 1060.03  10
   1   2  10 13021.5 734.381   5
  -1   2 -10 13332.1 1146.98   4
   1   2  10 12601.2 1013.96   1
  -1   2 -10 12422.8 579.815  11
   1   2  10 11522.3 1001.67   8
  -1   2 -10 11200.1 1075.39   7
   1   2  11 4381.91 707.800   8
  -1   2 -11 3796.66 701.098  10
   1   2  11 3526.00 399.175   5
  -1   2 -11 4128.68 709.051   4
   1   2  11 3466.04 603.279   1
  -1   2 -11 3876.15 714.205   7
   1   2  12 39110.1 1878.19   8
   1   2  12 41927.9 1923.16   1
  -1   2 -12 40095.3 1943.33  10
  -1   2 -12 41931.4 2024.68   4
  -1   2 -12 41254.9 1994.08   7
  -1   2 -13 1986.38 604.107  10
  -1   2 -13 1155.75 571.577   4
  -1   2 -13 3067.31 655.572   7
   1   2  13 2228.58 559.757   1
   1   2  13 2648.60 630.738   8
   1   2  14 7818.73 891.110   1
  -1   2 -14 8189.81 921.427  10
   1   2  14 10078.4 986.913   8
  -1   2 -14 10359.8 1036.09   4
  -1   2 -14 9632.48 991.976   7
  -1   2 -15 1680.48 574.014  10
  -1   2 -15 1891.18 617.812   4
  -1   2 -15 1776.39 644.236   7
   1   2  15 1129.08 511.088   8
   1   2  15 1326.41 523.227   1
   1   2  16 12282.3 1095.19   8
  -1   2 -16 11539.5 1095.00   4
   1   2  16 13379.1 1135.33   1
  -1   2 -16 13453.4 1153.21  10
  -1   2 -16 13415.4 1181.33   7
  -1   3  17 1344.90 537.525   8
  -1   3  17 651.990 478.115   1
   1   3 -16 22745.6 1541.07   4
  -1   3  16 21261.5 1417.78   1
  -1   3  16 21716.2 1410.51   8
   1   3 -16 21141.8 1454.71  10
  -1   3  15 1177.17 437.389   6
   1   3 -15 1173.86 587.092   3
   1   3 -15 1204.72 565.017  10
  -1   3  15 232.400 409.288   8
  -1   3  15 738.190 482.794   1
   1   3 -15-94.4185 497.547   4
  -1   3  14 8080.13 776.620   6
  -1   3  14 8171.79 899.768   8
   1   3 -14 11250.8 1085.34   4
  -1   3  14 7486.04 891.605   1
   1   3 -14 7157.93 847.319  10
  -1   3  14 8346.00 738.586   5
   1   3 -14 8331.30 937.021   3
  -1   3  13 6727.88 731.268   6
   1   3 -13 6526.32 854.948   3
  -1   3  13 7265.06 869.454   1
   1   3 -13 6424.18 845.215  10
   1   3 -13 7081.86 863.614   4
  -1   3  13 6236.39 650.231   5
  -1   3  13 7109.39 817.658   8
  -1   3  12 36428.6 1847.77   1
   1   3 -12 35611.8 1888.47   4
  -1   3  12 35877.2 1666.08   6
   1   3 -12 36612.7 1938.89   3
  -1   3  12 35465.7 1777.71   8
  -1   3  12 37461.4 1596.29   5
   1   3 -12 35808.0 1808.46  10
   1   3 -12 38756.8 1444.42   2
  -1   3  11 6949.38 881.745   1
  -1   3  11 9049.87 832.319   6
  -1   3  11 8585.99 907.881   8
  -1   3  11 8940.09 741.892   5
   1   3 -11 7716.67 839.359  10
   1   3 -11 8627.91 996.577   3
   1   3 -11 6541.89 861.894   4
   1   3 -10 13385.7 1186.40   3
  -1   3  10 13093.8 893.777   5
   1   3 -10 13806.5 1104.93  10
  -1   3  10 14080.9 996.975   6
  -1   3  10 14946.4 1184.80   1
   1   3 -10 13654.2 1153.73   4
  -1   3  10 15936.3 1204.51   8
  -1   3   9 34537.0 1485.99   6
   1   3  -9 33698.8 1967.04   3
  -1   3   9 36575.6 1711.67   8
  -1   3   9 35100.6 1672.82   1
  -1   3   9 35185.8 1528.21   5
   1   3  -9 29691.6 1779.81   4
   1   3  -9 34423.3 1749.81  10
   1   3  -8 31934.6 1955.44   4
  -1   3   8 32284.1 1465.88   5
  -1   3   8 32063.1 1477.54   1
   1   3  -8 33021.6 1957.87   3
  -1   3   8 32179.1 1317.22   6
   1   3  -8 36477.8 1844.98  10
  -1   3   8 33796.5 1497.02   8
  -1   3   7 35243.8 1342.14   3
  -1   3   7 36291.8 1295.73   6
  -1   3   7 35571.3 1410.89   8
   1   3  -7 35797.5 1888.57   4
  -1   3   7 34880.4 1552.06   5
   1   3  -7 37519.3 1731.85  10
   1   3  -7 34265.6 1844.51   3
  -1   3   7 35987.5 1438.16   1
  -1   3   6 17939.5 764.212   6
   1   3  -6 18690.9 788.050   5
   1   3  -6 16454.9 1088.28   4
   1   3  -6 17906.8 799.176   1
  -1   3   6 18320.3 857.951   8
  -1   3   6 19217.3 902.306   1
  -1   3   6 18206.3 1099.41   5
   1   3  -6 19069.4 1081.06  10
   1   3  -6 18556.9 1198.40   3
   1   3  -6 19205.3 922.963   2
  -1   3   6 18872.5 786.243   3
  -1   3   5 84201.7 2166.50   3
  -1   3   5 86605.9 2206.35   6
  -1   3   5 86955.8 2302.50   8
  -1   3   5 94394.1 2891.14   5
   1   3  -5 92036.1 2487.16   2
  -1   3   5 86905.8 2353.08   1
   1   3  -5 87018.8 2235.08   1
   1   3  -5 87914.5 2666.89   4
   1   3  -5 88214.1 2564.22  10
   1   3  -5 87414.9 2762.91   3
   1   3  -4 36123.0 1236.60  10
   1   3  -4 37205.8 1294.41   4
  -1   3   4 36454.3 1188.92   4
   1   3  -4 36735.9 1412.50   3
   1   3  -4 36576.6 1020.67   1
   1   3  -4 38007.7 1266.52   2
  -1   3   4 35291.1 1030.47   6
  -1   3   4 36439.2 1142.74   1
  -1   3   4 37564.0 1584.20   5
  -1   3   4 37040.1 1083.75   8
  -1   3   4 36353.6 966.186   3
  -1   3   3 68528.7 1679.32   6
  -1   3   3 67807.5 1740.43   4
   1   3  -3 70728.2 1937.10   2
  -1   3   3 72875.3 2338.82   2
  -1   3   3 70155.4 2297.15   5
   1   3  -3 69100.6 1830.60   4
   1   3  -3 70122.5 1806.12  10
  -1   3   3 68485.1 1577.56   3
   1   3  -3 67716.7 1960.42   3
   1   3  -2 43279.4 1120.15  10
   1   3  -2 42288.1 1253.97   3
  -1   3   2 42567.8 1077.66   4
   1   3  -2 42435.6 1137.54   4
  -1   3   2 43574.3 1623.02   5
  -1   3   2 46259.0 1672.58   2
  -1   3   2 42892.9 1100.94   6
   1   3  -2 44905.4 1324.65   2
  -1   3   1 92770.6 2141.63   6
   1   3  -1 90092.7 2327.98   2
  -1   3   1 88449.8 2130.82  10
   1   3  -1 91498.7 2055.14  10
   1   3  -1 91172.2 2080.54   4
  -1   3   1 90646.7 2034.27   4
   1   3  -1 91216.2 2190.09   3
   1   3  -1 93148.0 2025.61   7
  -1   3   1 91709.0 2684.97   2
  -1   3   1 91299.9 2658.76   5
   1   3   0 26611.7 736.791   3
   1   3   0 26991.3 907.726   2
  -1   3   0 26148.9 732.860   7
   1   3   0 26358.5 647.950  10
  -1   3   0 26754.3 742.631  10
  -1   3   0 25245.6 1101.63   5
  -1   3   0 27204.8 1123.35   2
   1   3   0 25430.1 665.249   4
   1   3   1 11687.6 392.686   3
   1   3   1 12080.6 574.242   5
  -1   3  -1 12263.2 709.475   5
   1   3   1 12373.8 569.689   2
  -1   3  -1 12838.8 704.626   2
   1   3   1 12156.2 451.168   1
  -1   3  -1 11729.3 435.487   7
  -1   3  -1 12310.2 442.655  10
  -1   3  -2 43515.9 1239.11  11
   1   3   2 46520.0 1199.75   4
  -1   3  -2 42168.1 1404.24   2
   1   3   2 43300.3 999.971   6
   1   3   2 43197.1 1250.78   1
   1   3   2 44302.2 1346.35   2
   1   3   2 44721.7 1354.04   5
  -1   3  -2 44180.7 1184.23  10
  -1   3  -2 43683.5 1404.57   5
  -1   3  -2 43926.5 1187.61   7
   1   3   2 45411.3 1211.09   8
   1   3   2 43039.1 1087.07   3
  -1   3  -3 48716.6 1349.16  11
  -1   3  -3 49613.7 1391.42  10
   1   3   3 49183.7 1430.15   8
   1   3   3 51409.6 1499.53   4
  -1   3  -3 50534.2 1484.46   5
  -1   3  -3 51255.6 1432.79   8
  -1   3  -3 51766.4 1504.10   2
   1   3   3 51231.3 1535.93   1
   1   3   3 52558.6 1545.96   2
  -1   3  -3 50314.3 1400.24   1
   1   3   3 49801.4 1156.13   6
  -1   3  -3 50965.6 1410.59   7
   1   3   3 51113.2 1537.51   5
   1   3   4 15068.5 792.243   4
  -1   3  -4 7872.24 434.267   2
  -1   3  -4 15045.4 780.373   4
   1   3   4 14597.3 691.792   8
   1   3   4 15423.4 802.238   1
   1   3   4 15935.8 716.615   2
   1   3   4 15019.6 701.399   5
  -1   3  -4 15425.2 673.593   7
  -1   3  -4 13822.0 513.184  11
  -1   3  -4 8637.14 442.281   5
  -1   3  -4 14343.7 639.811  10
   1   3   5 23147.2 971.833   5
   1   3   5 25359.1 1084.84   8
  -1   3  -5 22953.6 1189.57   4
   1   3   5 23154.7 974.570   2
  -1   3  -5 22263.3 998.392   7
  -1   3  -5 22263.9 748.362  11
   1   3   5 23342.3 1164.71   1
   1   3   5 24194.4 982.346   3
  -1   3  -5 23739.1 983.783  10
   1   3   6 18621.2 892.102   5
  -1   3  -6 18657.5 667.517  11
  -1   3  -6 19646.3 1254.81   4
  -1   3  -6 19228.1 986.150  10
   1   3   6 19190.5 1023.51   8
   1   3   6 20746.4 1037.37   3
   1   3   6 20972.1 1234.08   1
  -1   3  -6 19285.9 1012.15   7
   1   3   6 20854.4 936.505   2
  -1   3  -7 36306.4 1916.83   4
   1   3   7 34402.6 1312.80   5
   1   3   7 33982.8 1549.61   8
  -1   3  -7 33241.2 1014.49  11
  -1   3  -7 31751.6 1453.58  10
  -1   3  -7 34477.1 1526.23   7
  -1   3  -8 4686.80 321.993  11
   1   3   8 4607.44 720.695   8
  -1   3  -8 3962.93 655.716  10
  -1   3  -8 4544.51 932.077   4
  -1   3  -8 3406.53 632.273   7
   1   3   8 4678.06 733.214   1
   1   3   8 3922.84 449.326   5
   1   3   9 30982.7 1325.12   5
  -1   3  -9 31183.3 1785.84   4
   1   3   9 31726.6 1665.35   1
  -1   3  -9 31665.6 1684.10  10
   1   3   9 33262.8 1798.47   8
  -1   3  -9 30339.9 1706.80   7
  -1   3  -9 32164.3 959.392  11
  -1   3 -10 3884.12 730.214  10
  -1   3 -10 3550.79 230.656  11
  -1   3 -10 3642.84 797.125   7
   1   3  10 3733.86 472.616   5
   1   3  10 4338.39 735.701   8
  -1   3 -10 3062.04 677.117   4
   1   3  10 2820.10 595.498   1
   1   3  11 26566.2 1499.72   1
   1   3  11 26711.3 1199.63   5
  -1   3 -11 26567.3 1636.63  10
   1   3  11 24706.2 1536.97   8
  -1   3 -11 27805.3 1699.22   7
  -1   3 -11 23018.0 1492.69   4
  -1   3 -12 7729.23 960.134  10
   1   3  12 9107.10 961.577   8
   1   3  12 9465.26 677.618   5
   1   3  12 7369.50 857.396   1
  -1   3 -12 8684.70 958.701   7
  -1   3 -12 7566.32 885.531   4
  -1   3 -13 13610.4 1140.19   4
   1   3  13 12525.9 1104.68   8
  -1   3 -13 14547.5 1204.87  10
   1   3  13 13367.2 1095.90   1
  -1   3 -13 13303.3 1171.40   7
  -1   3 -14 441.590 535.364  10
  -1   3 -14 22.7717 464.848   4
   1   3  14-270.490 485.793   8
  -1   3 -14-205.190 494.503   7
   1   3  14-608.792 522.928   1
  -1   3 -15 11531.7 1110.93  10
   1   3  15 11512.6 1062.63   1
  -1   3 -15 11768.4 1083.38   4
   1   3  15 10423.8 1017.01   8
  -1   3 -15 12456.5 1139.95   7
   1   3  16 8457.93 947.757   8
  -1   3 -16 8958.31 1008.65   7
  -1   3 -16 7971.25 936.783  10
  -1   3 -16 8460.55 993.533   4
   1   3  16 7690.97 925.970   1
  -1   4  17 90.5976 473.046   8
  -1   4  16 6581.99 867.440   1
  -1   4  16 6641.53 828.321   8
   1   4 -16 7058.35 861.698   4
   1   4 -16 7537.12 900.349  10
   1   4 -16 8399.12 929.410   7
   1   4 -15 1860.29 648.434   3
  -1   4  15 1205.20 551.132   1
   1   4 -15 1428.81 531.474   4
   1   4 -15 976.717 607.791  10
  -1   4  15-239.318 511.109   8
  -1   4  14 1718.15 608.627   8
   1   4 -14 3495.42 763.302   3
   1   4 -14 2150.86 587.702   4
  -1   4  14 1650.21 467.013   6
  -1   4  14 1958.97 602.957   1
  -1   4  14 1929.37 463.674   5
   1   4 -14 1688.59 587.628  10
  -1   4  13 63.6312 351.834   6
   1   4 -13-344.673 460.852  10
   1   4 -13 37.2914 423.487   4
   1   4 -13 52.4413 499.553   3
  -1   4  13-148.205 525.160   8
  -1   4  13 503.373 364.841   5
  -1   4  13 94.9557 504.921   1
  -1   4  12 37155.9 2005.03   1
   1   4 -12 36499.2 1921.04  10
  -1   4  12 39039.8 1721.01   5
   1   4 -12 37460.8 1918.44   4
  -1   4  12 39753.8 2013.03   8
  -1   4  12 40502.1 1781.81   6
   1   4 -12 38704.6 2020.34   3
  -1   4  11 2467.80 498.715   5
   1   4 -11 1639.55 637.007   3
   1   4 -11 2476.36 663.283  10
  -1   4  11 1980.02 604.838   8
  -1   4  11 1984.75 494.150   6
  -1   4  11 2225.11 588.050   1
   1   4 -11 2148.44 602.399   4
  -1   4  10 9618.66 946.065   1
  -1   4  10 10119.1 853.148   5
   1   4 -10 9991.32 1067.67   3
   1   4 -10 10020.1 1039.14  10
   1   4 -10 9735.94 1002.07   4
  -1   4  10 10466.8 795.810   6
  -1   4  10 10325.1 963.844   8
  -1   4   9 2213.11 413.130   6
   1   4  -9 1966.03 690.018   3
  -1   4   9 2455.47 513.492   5
  -1   4   9 2553.29 527.777   8
  -1   4   9 1601.22 476.542   1
   1   4  -9 1937.92 596.504   4
   1   4  -9 1502.00 559.836  10
   1   4  -8 135318. 4504.74   3
  -1   4   8 122979. 3582.40   1
  -1   4   8 126445. 3802.37   5
   1   4  -8 122563. 3820.17  10
  -1   4   8 122289. 3255.62   6
  -1   4   8 122167. 3495.00   8
   1   4  -8 121564. 4210.97   4
  -1   4   7 9270.48 704.620   1
  -1   4   7 9347.47 548.481   3
  -1   4   7 8731.33 531.377   6
   1   4  -7 9022.95 965.598   3
  -1   4   7 10708.2 922.015   5
   1   4  -7 8744.08 966.235   4
   1   4  -7 8816.78 786.441  10
  -1   4   7 9481.33 660.872   8
  -1   4   6 48048.0 1924.85   5
   1   4  -6 45100.1 1984.01   3
  -1   4   6 45620.5 1518.92   1
  -1   4   6 39641.4 1222.79   3
   1   4  -6 42680.8 1600.62  10
  -1   4   6 42633.8 1424.26   8
  -1   4   6 42100.2 1277.50   6
   1   4  -6 44407.8 1939.69   4
   1   4  -5 19038.7 876.135  10
  -1   4   5 17853.5 661.618   6
   1   4  -5 16883.0 990.141   4
  -1   4   5 19469.6 769.701   8
   1   4  -5 20669.6 915.954   2
  -1   4   5 19036.3 832.995   1
  -1   4   5 21620.9 1210.70   5
  -1   4   5 18479.6 597.440   3
   1   4  -5 18070.7 1101.44   3
   1   4  -5 19076.2 693.793   1
   1   4  -4 279306. 6179.23  10
  -1   4   4 269741. 5950.34   6
   1   4  -4 274515. 6379.51   4
  -1   4   4 260255. 5808.81   3
  -1   4   4 287045. 6860.77   5
   1   4  -4 275909. 6342.06   2
  -1   4   4 273215. 6137.00   4
   1   4  -4 277495. 6647.08   3
   1   4  -3 37883.5 1197.19   4
  -1   4   3 41209.0 1642.70   5
   1   4  -3 38233.1 1116.29  10
  -1   4   3 38133.7 1057.99   4
   1   4  -3 39534.0 1315.18   2
   1   4  -3 37362.6 1148.12   7
  -1   4   3 37968.3 1026.83   6
   1   4  -3 40068.8 1400.50   3
  -1   4   2 95377.1 2837.57   5
  -1   4   2 88415.5 2062.33   4
   1   4  -2 90366.1 2432.06   2
  -1   4   2 90832.6 2142.17   6
  -1   4   2 88991.7 2196.32  10
   1   4  -2 90088.5 2175.75   4
   1   4  -2 89709.2 2142.11  10
  -1   4   2 93145.0 2827.00   2
   1   4  -2 91594.4 2114.00   7
   1   4  -2 94732.9 2401.22   3
  -1   4   1 81530.7 1948.54   6
   1   4  -1 78872.4 2184.87   5
   1   4  -1 79075.5 1843.11  10
   1   4  -1 77634.7 1842.88   4
  -1   4   1 80993.9 2519.85   2
  -1   4   1 77847.4 1932.71  10
   1   4  -1 81617.8 2190.52   2
   1   4  -1 80898.6 1767.90   7
  -1   4   1 77169.0 2486.54   5
   1   4  -1 79740.4 2014.33   3
   1   4   0 344071. 7990.76   5
  -1   4   0 333732. 8268.08   5
  -1   4   0 352610. 7691.74  10
   1   4   0 357985. 7583.94  10
   1   4   0 358184. 7694.97   3
  -1   4   0 349746. 7667.02   7
   1   4   0 343808. 7969.48   2
   1   4   0 356983. 7557.70   4
  -1   4   0 336700. 8300.78   2
   1   4   1 75312.9 1782.30  10
  -1   4  -1 74972.4 1857.45   7
  -1   4  -1 77072.5 1880.81  10
   1   4   1 80326.4 2157.24   2
   1   4   1 78798.1 1808.30   3
  -1   4  -1 70264.3 2292.69   5
  -1   4  -1 73906.3 2336.25   2
   1   4   1 79898.9 2167.87   5
  -1   4  -2 114409. 3318.52   5
   1   4   2 124159. 2823.12   3
  -1   4  -2 117521. 3359.41   2
   1   4   2 133023. 3282.78   5
   1   4   2 131082. 3277.26   2
   1   4   2 126211. 2951.59   4
  -1   4  -2 125704. 2965.80  10
   1   4   2 129438. 3013.69   1
  -1   4  -2 127756. 2955.99   7
   1   4   3 64711.9 1569.45   3
   1   4   3 66865.4 1839.97   1
  -1   4  -3 60418.8 1963.44   5
   1   4   3 67352.0 1857.51   4
   1   4   3 66631.3 1973.37   5
  -1   4  -3 62648.4 1987.32   2
  -1   4  -3 65474.4 1748.41  10
  -1   4  -3 66693.4 1753.09   7
   1   4   4 304189. 6784.17   5
   1   4   4 300540. 6687.00   1
  -1   4  -4 285493. 6656.87   5
  -1   4  -4 301174. 6536.56   7
   1   4   4 308229. 6866.62   4
  -1   4  -4 303076. 6533.84  10
   1   4   4 295261. 6568.64   8
  -1   4  -4 291520. 6680.70   4
  -1   4  -4 285800. 6678.97   2
   1   4   4 271436. 6073.56   6
  -1   4  -5 43430.4 1472.89  10
  -1   4  -5 45174.2 1502.32   7
  -1   4  -5 45643.1 1441.40   5
  -1   4  -5 46177.9 1463.36   2
  -1   4  -5 44996.1 1718.95   4
   1   4   5 45442.9 1588.63   5
   1   4   5 44395.7 1642.08   1
   1   4   5 44056.2 1524.09   8
  -1   4  -6 70338.8 1638.21  10
   1   4   6 75633.4 1748.79   3
   1   4   6 71803.8 1908.65   1
   1   4   6 71934.1 1731.85   8
  -1   4  -6 67204.4 2059.40   4
   1   4   6 69329.1 1651.54   5
  -1   4  -6 69265.7 1669.24   7
  -1   4  -7 34595.7 1844.06   4
  -1   4  -7 35958.0 1496.40  10
   1   4   7 37353.5 1719.32   1
   1   4   7 35309.6 1421.60   5
  -1   4  -7 34130.0 1512.45   7
   1   4   7 34516.1 1520.61   8
  -1   4  -8 155755. 4448.38  10
  -1   4  -8 171558. 5279.65   4
   1   4   8 172792. 4929.84   1
   1   4   8 158598. 4554.51   8
   1   4   8 153334. 4238.78   5
  -1   4  -8 161833. 4573.62   7
   1   4   9 10099.9 766.914   5
  -1   4  -9 9680.33 979.505   7
  -1   4  -9 9706.28 904.004  10
  -1   4  -9 10281.4 1042.06   4
   1   4   9 10373.7 972.105   8
   1   4   9 11387.6 1100.85   1
   1   4  10 21437.7 1434.93   1
  -1   4 -10 20534.5 1411.42   4
  -1   4 -10 20219.8 1411.88  10
  -1   4 -10 22710.4 1535.42   7
   1   4  10 25179.3 1591.97   8
   1   4  10 24370.5 1215.52   5
   1   4  11 8579.21 922.995   1
   1   4  11 9497.77 792.200   5
   1   4  11 9567.47 1080.62   8
  -1   4 -11 8372.06 1027.99  10
  -1   4 -11 8160.41 906.253   4
  -1   4 -11 9508.57 1135.26   7
  -1   4 -12 46113.7 2159.94   4
  -1   4 -12 46001.9 2290.07  10
   1   4  12 50477.9 1869.02   5
   1   4  12 48009.8 2280.11   8
   1   4  12 45596.9 2141.16   1
  -1   4 -12 48845.2 2377.24   7
  -1   4 -13 3737.02 701.173   4
  -1   4 -13 2213.82 690.979  10
   1   4  13 2787.26 637.107   8
  -1   4 -13 4886.34 838.269   7
   1   4  13 3145.15 651.726   1
  -1   4 -14 7765.52 906.834   4
   1   4  14 6487.22 861.458   8
  -1   4 -14 6570.95 867.553  10
   1   4  14 6509.85 865.270   1
  -1   4 -14 6999.08 955.063   7
   1   4  15 4593.61 734.538   1
   1   4  15 2982.42 685.815   8
  -1   4 -15 3597.00 708.610  10
  -1   4 -15 4930.90 763.904   4
  -1   4 -15 5038.04 846.546   7
   1   4  16 8944.64 1007.01   8
  -1   4 -16 10258.5 1071.84   7
  -1   4 -16 7840.29 943.906  10
  -1   4 -16 9201.49 981.550   4
   1   4  16 9354.40 1001.35   1
   1   5 -16 15473.5 1248.36   4
  -1   5  16 13593.5 1199.12   8
   1   5 -16 13221.4 1204.05  10
  -1   5  16 15254.2 1279.98   1
   1   5 -16 15432.1 1234.93   7
   1   5 -16 15577.9 1307.83   3
  -1   5  15 1250.41 586.115   1
   1   5 -15 2941.15 736.159   3
   1   5 -15 1374.57 581.189   7
  -1   5  15 1763.79 583.032   8
   1   5 -15 1022.32 492.647   4
   1   5 -15 1263.09 582.886  10
  -1   5  14 6324.12 887.533   8
  -1   5  14 5242.49 647.675   5
  -1   5  14 6381.10 902.137   1
   1   5 -14 7710.13 978.764   3
   1   5 -14 6624.12 844.956   4
   1   5 -14 6301.31 929.028  10
   1   5 -14 7030.03 870.626   7
  -1   5  13 3234.64 740.488   1
   1   5 -13 4036.58 801.216   3
   1   5 -13 3419.09 739.854  10
   1   5 -13 3370.34 650.041   4
  -1   5  13 4248.28 810.403   8
  -1   5  13 3449.67 583.207   5
   1   5 -13 4575.91 758.234   7
  -1   5  12 26756.7 1387.38   6
   1   5 -12 24550.4 1504.94   4
  -1   5  12 26750.6 1440.96   5
  -1   5  12 28470.8 1740.12   8
   1   5 -12 25618.1 1655.80   3
  -1   5  12 28013.8 1826.60   1
   1   5 -12 24356.1 1598.63  10
  -1   5  11 417.165 326.763   6
   1   5 -11 395.984 591.663  10
  -1   5  11 355.198 485.590   1
   1   5 -11 1437.56 594.728   3
  -1   5  11 1202.64 521.992   8
   1   5 -11 1183.88 514.029   4
  -1   5  11 832.963 443.628   5
  -1   5  10 12678.1 1056.94   1
  -1   5  10 13199.6 803.684   6
  -1   5  10 10998.6 950.056   5
   1   5 -10 11374.1 1107.84  10
  -1   5  10 12183.4 986.504   8
   1   5 -10 10708.0 1118.95   3
   1   5 -10 11631.9 1043.35   4
  -1   5   9 7259.12 769.550   1
  -1   5   9 8704.62 886.822   5
   1   5  -9 7709.55 880.106   4
  -1   5   9 9081.54 772.566   8
   1   5  -9 8530.28 917.756  10
   1   5  -9 8322.42 1008.90   3
  -1   5   9 7360.63 558.435   6
  -1   5   8 32978.1 1169.65   3
  -1   5   8 34091.7 1187.55   6
  -1   5   8 36300.8 1772.00   5
   1   5  -8 33423.8 2073.10   3
   1   5  -8 34412.6 1846.81   4
  -1   5   8 32843.0 1473.35   1
   1   5  -8 32776.9 1574.11  10
  -1   5   8 31907.8 1372.82   8
  -1   5   7 700.702 202.287   6
   1   5  -7-270.955 638.513   3
  -1   5   7 335.930 143.604   3
  -1   5   7 1243.76 379.827   1
   1   5  -7 971.966 411.664  10
  -1   5   7 822.887 511.028   5
  -1   5   7 716.454 302.869   8
   1   5  -7-274.714 640.463   4
  -1   5   6 24950.9 836.942   6
   1   5  -6 25614.1 1110.21  10
  -1   5   6 24781.5 984.375   8
  -1   5   6 24852.1 1078.54   1
  -1   5   6 23961.7 733.056   3
  -1   5   6 24289.7 1385.90   5
   1   5  -6 24073.0 1164.52   7
   1   5  -6 23632.0 1460.41   3
   1   5  -6 23729.5 1443.27   4
  -1   5   5 21251.8 591.439   3
   1   5  -5 23610.0 1213.31   4
  -1   5   5 22107.8 1293.16   5
  -1   5   5 23026.9 735.813   6
   1   5  -5 21982.7 929.926  10
   1   5  -5 22558.1 985.360   7
   1   5  -5 22136.1 1285.22   3
  -1   5   4 33427.5 1044.62   4
   1   5  -4 32299.8 1478.55   3
   1   5  -4 33363.4 1100.35  10
  -1   5   4 32716.9 1569.90   5
   1   5  -4 33077.7 1298.07   4
   1   5  -4 33251.9 1123.20   7
  -1   5   4 33529.8 956.041   6
   1   5  -3 3337.22 273.649  10
  -1   5   3 3354.39 577.342   5
  -1   5   3 3124.85 220.732   4
   1   5  -3 2805.84 242.629   7
   1   5  -3 3861.49 351.869   4
  -1   5   3 3502.58 241.896   6
   1   5  -2 19958.1 916.434   5
  -1   5   2 19868.5 1146.97   5
  -1   5   2 19905.2 706.899  10
   1   5  -2 19763.0 674.690   4
   1   5  -2 19553.6 642.852  10
  -1   5   2 19433.5 543.637   4
   1   5  -2 19224.1 585.273   7
  -1   5   2 20558.1 670.825   6
   1   5  -2 19280.1 872.706   3
   1   5  -1 25914.4 1064.63   5
   1   5  -1 24068.1 618.934   7
  -1   5   1 24531.2 793.182  10
  -1   5   1 25696.4 1296.75   5
   1   5  -1 23569.3 876.329   3
   1   5  -1 25433.1 691.963   4
   1   5  -1 24396.8 712.032  10
   1   5   0 15966.2 517.404  10
   1   5   0 16349.1 471.971   4
  -1   5   0 16834.9 1020.03   5
  -1   5   0 17065.1 610.688  10
   1   5   0 17418.1 625.337   3
   1   5   0 17372.9 860.060   5
  -1   5   0 16757.8 577.669   7
  -1   5   0 16800.2 1004.88   2
   1   5   1 12306.7 462.522   3
   1   5   1 13832.6 770.225   5
  -1   5  -1 13102.4 500.143   7
  -1   5  -1 13113.1 898.932   5
   1   5   1 12651.9 448.929  10
  -1   5  -1 12673.7 525.287  10
  -1   5  -1 13619.9 890.666   2
   1   5   2 9811.74 367.557   3
  -1   5  -2 10043.5 477.941  10
  -1   5  -2 9685.01 450.491   7
  -1   5  -2 10166.0 767.307   5
   1   5   2 9986.19 680.756   5
  -1   5  -2 9148.43 717.984   2
   1   5   2 9952.13 447.747   4
   1   5   3 24241.7 695.668   3
   1   5   3 26012.3 1137.08   5
  -1   5  -3 25653.9 870.444   7
  -1   5  -3 24887.6 887.848  10
   1   5   3 25231.2 929.148   1
   1   5   3 25176.1 966.790   4
  -1   5  -3 23850.4 1190.59   5
  -1   5  -3 24345.1 1203.86   2
  -1   5  -4 1697.36 274.779   7
  -1   5  -4 1817.37 382.257   5
  -1   5  -4 2947.08 362.461   4
   1   5   4 1808.06 321.974   1
  -1   5  -4 1996.51 299.777  10
   1   5   4 2625.38 396.090   4
   1   5   4 2277.42 180.229   3
   1   5   4 1913.63 392.405   5
  -1   5  -4 2372.33 413.110   2
   1   5   5 11790.1 799.500   5
  -1   5  -5 11472.4 653.395  10
  -1   5  -5 12335.1 823.195   5
  -1   5  -5 12847.6 803.912   4
  -1   5  -5 11643.2 677.106   7
   1   5   5 11339.7 726.403   1
  -1   5  -5 11581.1 799.222   2
   1   5   5 12963.0 720.385   8
  -1   5  -6 2846.55 425.504  10
   1   5   6 3286.36 391.680   3
  -1   5  -6 3337.34 348.327   5
   1   5   6 2847.94 468.938   1
  -1   5  -6 2511.84 513.353   4
   1   5   6 3398.44 480.886   8
   1   5   6 3241.52 486.105   5
  -1   5  -6 2551.26 314.338   2
  -1   5  -6 3229.72 453.187   7
   1   5   6 2699.30 164.544   6
   1   5   7 24528.7 1200.95   5
  -1   5  -7 22989.1 1149.96  10
  -1   5  -7 22295.4 761.120   5
   1   5   7 23931.5 1286.12   1
   1   5   7 23271.7 1188.58   8
  -1   5  -7 21434.2 763.181   2
  -1   5  -7 23629.7 1177.50   7
  -1   5  -7 23331.5 1434.75   4
   1   5   8 5713.08 628.479   5
  -1   5  -8 4461.25 637.188   7
   1   5   8 4728.85 718.802   1
   1   5   8 6261.67 715.197   8
  -1   5  -8 4052.61 563.066  10
  -1   5  -8 5584.84 878.519   4
  -1   5  -8 4429.91 203.060   5
  -1   5  -9 11155.9 957.346  10
  -1   5  -9 13032.9 1049.49   7
   1   5   9 12211.0 887.802   5
   1   5   9 12824.3 1048.32   8
   1   5   9 11920.7 1119.17   1
  -1   5  -9 12008.1 1153.28   4
  -1   5 -10 65.5197 458.473  10
   1   5  10 179.749 339.065   5
   1   5  10-780.610 698.773   1
  -1   5 -10-101.267 453.536   4
  -1   5 -10 293.066 471.417   7
   1   5  10 536.032 550.207   8
   1   5  11 16510.7 1072.98   5
   1   5  11 16055.7 1325.56   1
  -1   5 -11 14474.7 1279.65  10
  -1   5 -11 16534.5 1394.98   7
   1   5  11 15185.4 1305.95   8
  -1   5 -11 14906.7 1197.59   4
   1   5  12 10895.5 915.495   5
   1   5  12 11555.8 1141.74   1
  -1   5 -12 10021.5 1177.70  10
   1   5  12 10479.0 1185.93   8
  -1   5 -12 9560.86 962.886   4
  -1   5 -12 9875.54 1148.27   7
  -1   5 -13 7457.85 1009.79   7
  -1   5 -13 6815.68 982.670  10
   1   5  13 7749.03 946.859   1
  -1   5 -13 7630.31 879.732   4
   1   5  13 6747.78 948.919   8
  -1   5 -14-551.372 652.542  10
  -1   5 -14 194.699 469.150   4
   1   5  14 153.220 558.874   8
   1   5  14 843.461 573.281   1
  -1   5 -14 493.199 517.232   7
   1   5  15 9142.69 1024.61   8
   1   5  15 9658.88 1045.32   1
  -1   5 -15 8351.59 1010.27   7
  -1   5 -15 9965.99 1016.89   4
  -1   5 -15 10567.1 1153.64  10
   1   5  16 8079.45 994.885   8
  -1   5 -16 7505.48 941.717   7
  -1   5 -16 8130.66 924.758   4
   1   5  16 6900.69 900.809   1
   1   6 -16 6199.10 861.880   4
  -1   6  16 6532.72 924.431   8
  -1   6  16 6247.54 933.504   1
   1   6 -16 7811.59 958.104   7
  -1   6  15 735.794 593.304   1
   1   6 -15 2983.22 739.425   3
  -1   6  15 1671.92 646.610   8
   1   6 -15 2386.32 636.255   4
   1   6 -15 2458.33 679.596   7
   1   6 -15 2622.17 749.525  10
   1   6 -14 2530.37 651.696   7
  -1   6  14 2604.63 565.813   5
  -1   6  14 2357.02 692.457   1
   1   6 -14 1938.46 669.210  10
   1   6 -14 4355.95 840.552   3
  -1   6  14 1957.29 638.685   8
   1   6 -14 1963.42 580.115   4
  -1   6  13 1368.98 491.163   5
  -1   6  13 1272.51 740.698   8
  -1   6  13 739.497 610.021   1
   1   6 -13 1691.90 594.477   4
   1   6 -13 1935.87 627.753   7
   1   6 -13 824.418 536.561  10
   1   6 -13 1486.54 641.244   3
   1   6 -12 28721.6 1850.89  10
   1   6 -12 26349.1 1545.20   4
  -1   6  12 24547.0 1719.82   1
  -1   6  12 26502.0 1660.02   8
   1   6 -12 27357.5 1729.97   3
  -1   6  12 26773.6 1522.49   5
   1   6 -12 28004.0 1642.25   7
  -1   6  11 6156.16 579.206   6
   1   6 -11 5523.51 856.715  10
  -1   6  11 5126.87 743.341   5
  -1   6  11 5265.08 719.571   8
   1   6 -11 6485.76 794.314   4
   1   6 -11 6975.09 948.731   3
   1   6 -11 5936.66 833.151   7
  -1   6  11 7139.80 901.179   1
   1   6 -10 8752.50 1023.12   7
  -1   6  10 7759.47 578.994   6
  -1   6  10 8655.40 828.152   8
   1   6 -10 7981.92 949.446  10
  -1   6  10 7392.86 867.988   5
   1   6 -10 8150.70 1002.63   3
   1   6 -10 7553.52 850.500   4
  -1   6  10 8418.26 898.813   1
  -1   6   9 4067.76 693.281   5
  -1   6   9 5827.43 729.710   1
   1   6  -9 3259.92 723.362   3
  -1   6   9 4725.70 604.664   8
   1   6  -9 4185.14 710.966   7
   1   6  -9 4573.97 692.292  10
  -1   6   9 4581.19 417.919   6
   1   6  -9 3535.25 648.492   4
  -1   6   8 55790.9 1626.39   6
  -1   6   8 56344.6 2397.89   5
  -1   6   8 52765.4 1503.61   3
  -1   6   8 57720.2 2074.51   1
   1   6  -8 57895.9 2119.66  10
   1   6  -8 53130.7 2314.86   4
   1   6  -8 55754.3 2182.99   7
   1   6  -8 62775.9 2850.67   3
   1   6  -7 17286.4 979.773  10
  -1   6   7 17592.3 701.982   6
   1   6  -7 18010.2 1310.16   4
  -1   6   7 17764.5 582.327   3
  -1   6   7 18137.8 1247.16   5
   1   6  -7 19804.9 1087.23   7
   1   6  -7 17912.2 1428.31   3
   1   6  -6 9096.72 614.244  10
   1   6  -6 9738.64 1029.08   4
   1   6  -6 9198.49 991.491   3
  -1   6   6 9477.77 912.497   5
   1   6  -6 8626.92 629.760   7
  -1   6   6 9215.49 417.384   6
   1   6  -5 26230.5 1405.11   4
   1   6  -5 26294.0 1021.52  10
   1   6  -5 25285.6 1475.67   3
  -1   6   5 24776.4 954.145   4
  -1   6   5 27363.7 837.324   6
  -1   6   5 25402.3 1456.11   5
   1   6  -5 25927.7 1025.60   7
   1   6  -4 71242.9 2309.83   4
   1   6  -4 76198.8 2343.73   5
  -1   6   4 76991.9 2713.98   5
   1   6  -4 71275.7 1961.58  10
  -1   6   4 70975.5 1849.24   4
   1   6  -4 70087.5 2549.80   3
  -1   6   4 73357.1 1829.97   6
   1   6  -4 72574.9 1941.15   7
   1   6  -3 44117.4 1644.86   5
  -1   6   3 43561.6 1919.70   5
   1   6  -3 45327.0 1749.45   3
   1   6  -3 44313.1 1449.80   4
   1   6  -3 43312.4 1267.50  10
  -1   6   3 42589.3 1126.93   4
   1   6  -3 45616.0 1214.02   7
  -1   6   3 45835.6 1237.00   6
   1   6  -2 11665.8 773.900   5
  -1   6   2 12131.4 965.959   5
  -1   6   2 10680.7 333.833   4
   1   6  -2 11116.0 467.975  10
   1   6  -2 10600.4 498.482   4
  -1   6   2 10664.9 519.863  10
   1   6  -2 11126.5 396.600   7
   1   6  -1 67086.5 2112.08   5
   1   6  -1 63564.2 1597.22  10
   1   6  -1 61625.9 1547.28   4
  -1   6   1 64374.1 1697.34  10
   1   6  -1 63719.0 1476.60   7
  -1   6   1 65053.1 2397.49   5
   1   6  -1 64230.2 1890.88   3
  -1   6   0 74208.4 1896.95  10
   1   6   0 75553.4 2333.85   5
   1   6   0 73268.0 1787.73  10
   1   6   0 72415.2 1680.58   4
  -1   6   0 71467.1 1837.01   7
  -1   6   0 75611.1 2619.18   5
   1   6   0 74495.4 1960.79   3
  -1   6  -1 68139.3 1791.23  10
   1   6   1 73429.3 2263.25   5
  -1   6  -1 67197.4 2457.84   5
  -1   6  -1 67003.5 1739.39   7
   1   6   1 68396.0 1691.72  10
   1   6   1 65640.2 1732.26   3
   1   6   2 28060.4 823.864   3
   1   6   2 30591.5 1316.26   5
  -1   6  -2 28857.7 969.013  10
   1   6   2 29976.0 940.182   4
  -1   6  -2 29008.1 930.229   7
  -1   6  -2 29801.6 1500.27   5
   1   6   3 89732.3 2140.07   3
  -1   6  -3 93766.0 3066.76   5
   1   6   3 94580.9 2547.43   4
  -1   6  -3 91423.5 3071.15   2
  -1   6  -3 93820.6 2394.77  10
  -1   6  -3 91418.3 2345.47   7
   1   6   3 93147.9 2790.95   5
  -1   6  -4 72748.8 2023.46  10
   1   6   4 70795.4 1700.95   3
  -1   6  -4 70493.2 1984.94   7
   1   6   4 69333.4 2340.32   5
  -1   6  -4 73253.2 2612.92   5
   1   6   4 70329.9 2081.11   1
   1   6   4 69847.2 2317.40   4
  -1   6  -4 71401.6 2592.92   2
  -1   6  -5 34009.8 1248.21  10
   1   6   5 35109.0 1512.47   5
  -1   6  -5 34941.9 1660.91   5
   1   6   5 32531.2 937.028   3
  -1   6  -5 34501.7 1346.95   4
  -1   6  -5 37988.4 1721.46   2
   1   6   5 35279.1 1349.01   1
  -1   6  -5 34343.4 1246.22   7
  -1   6  -6 21197.6 1042.90   5
   1   6   6 20729.4 1150.02   5
  -1   6  -6 19533.9 964.228   7
  -1   6  -6 18482.0 952.811  10
  -1   6  -6 19424.5 1103.06   4
   1   6   6 19534.5 1054.01   1
  -1   6  -6 19082.5 1003.61   2
   1   6   6 19003.3 884.111   3
  -1   6  -7 50992.8 1565.75   5
   1   6   7 50911.5 1969.40   5
  -1   6  -7 50651.7 1851.33   7
   1   6   7 50544.4 1826.65   3
   1   6   7 50635.2 1864.41   8
  -1   6  -7 50740.9 1572.17   2
  -1   6  -7 46752.9 1802.44  10
   1   6   7 52945.3 2011.42   1
  -1   6  -7 50196.6 2120.80   4
   1   6   8 40739.8 1112.34   6
  -1   6  -8 41486.8 1116.56   5
   1   6   8 44290.4 1835.64   5
  -1   6  -8 45490.5 1803.22  10
   1   6   8 44076.3 1815.80   8
  -1   6  -8 42012.5 1224.61   2
  -1   6  -8 40549.5 1743.19   7
   1   6   8 43351.1 1918.96   1
  -1   6  -8 41952.7 1213.89   5
   1   6   9 10671.9 508.602   6
   1   6   9 10095.1 872.178   5
  -1   6  -9 9067.01 1063.47   4
  -1   6  -9 8920.87 865.876  10
   1   6   9 11232.1 960.141   8
   1   6   9 11124.1 1025.50   1
  -1   6  -9 9597.68 913.281   7
  -1   6 -10 11421.1 1046.99   7
   1   6  10 11395.1 922.042   5
  -1   6 -10 9923.03 987.491  10
  -1   6 -10 10943.5 1085.13   4
   1   6  10 12131.8 1066.00   8
   1   6  10 11174.2 1155.98   1
   1   6  11 15869.6 1109.60   5
   1   6  11 17115.2 1456.27   1
  -1   6 -11 13705.9 1230.89  10
  -1   6 -11 15457.1 1233.89   4
   1   6  11 17027.9 1351.76   8
  -1   6 -11 15667.5 1310.70   7
   1   6  12 19833.3 1258.49   5
   1   6  12 19857.4 1599.98   8
  -1   6 -12 16518.6 1448.34  10
  -1   6 -12 19072.6 1360.19   4
   1   6  12 19812.6 1502.21   1
  -1   6 -12 18214.0 1527.94   7
  -1   6 -13 2358.07 752.588  10
   1   6  13 1637.04 749.849   8
   1   6  13 2322.33 638.708   1
  -1   6 -13 1212.93 612.034   7
  -1   6 -13 1301.00 555.362   4
  -1   6 -14 2699.76 602.591   4
  -1   6 -14 3537.69 853.627  10
   1   6  14 3668.55 790.029   8
   1   6  14 3238.70 743.284   1
  -1   6 -14 2594.41 693.104   7
  -1   6 -15 3770.25 823.741  10
   1   6  15 3901.83 802.216   1
   1   6  15 3033.93 790.583   8
  -1   6 -15 3897.48 721.238   4
  -1   6 -15 3524.92 795.407   7
  -1   6 -16 4521.60 760.165   4
  -1   7  16 6946.21 958.516   8
   1   7 -15 4445.77 783.383   7
   1   7 -15 3326.02 654.226   4
   1   7 -15 5153.68 957.069  10
   1   7 -15 5493.59 901.901   3
  -1   7  15 2898.65 760.149   8
  -1   7  15 3904.71 816.118   1
   1   7 -14 4742.74 859.855   3
   1   7 -14 4799.42 879.670  10
  -1   7  14 4110.27 668.645   5
  -1   7  14 4454.16 913.854   1
  -1   7  14 4030.22 832.922   8
   1   7 -14 4494.33 758.526   4
   1   7 -14 4555.18 796.270   7
  -1   7  13 11520.2 1061.81   5
  -1   7  13 13927.3 1406.53   1
   1   7 -13 14350.9 1406.58  10
   1   7 -13 13510.1 1125.46   4
  -1   7  13 12490.0 1216.22   8
   1   7 -13 12097.8 1138.70   7
   1   7 -13 14801.2 1306.30   3
   1   7 -12 16745.8 1364.94   7
  -1   7  12 13389.0 1165.97   5
  -1   7  12 15947.3 1379.58   1
   1   7 -12 14734.8 1361.13  10
  -1   7  12 13713.5 1152.75   8
   1   7 -12 15125.1 1184.55   4
   1   7 -12 16345.5 1354.00   3
  -1   7  11 11043.6 1080.62   1
   1   7 -11 10977.2 765.757   5
  -1   7  11 10867.5 1058.30   5
   1   7 -11 9670.71 947.049   4
   1   7 -11 11484.8 1173.59   7
   1   7 -11 11001.8 1114.66   3
   1   7 -11 8893.05 991.749  10
   1   7 -10 9680.80 939.770   4
   1   7 -10 9834.67 778.766   5
   1   7 -10 7792.58 870.428  10
   1   7 -10 8918.53 1056.70   3
  -1   7  10 10162.0 1045.76   5
   1   7 -10 10638.9 1041.06   7
   1   7  -9 50266.1 1987.76   5
   1   7  -9 41739.6 1887.36  10
  -1   7   9 47803.7 2246.11   5
   1   7  -9 44483.9 2008.67   4
  -1   7   9 44330.9 1418.12   6
   1   7  -9 44823.1 1991.43   7
   1   7  -9 46608.8 2328.37   3
   1   7  -8 26196.8 1306.06  10
   1   7  -8 27854.6 1449.59   5
  -1   7   8 27948.6 1647.13   5
   1   7  -8 25949.3 1468.35   4
   1   7  -8 25751.9 1742.93   3
  -1   7   8 26370.7 936.049   6
   1   7  -8 25637.4 1336.71   7
   1   7  -7 33002.6 1714.92   4
   1   7  -7 34751.5 1433.03  10
  -1   7   7 36676.2 1891.56   5
   1   7  -7 37565.5 1681.02   5
   1   7  -7 37764.7 2202.04   3
   1   7  -7 36611.0 1486.83   7
  -1   7   7 36914.1 1121.64   6
   1   7  -6 18949.9 1126.18   5
  -1   7   6 17936.2 1292.90   5
   1   7  -6 21086.7 1351.02   4
   1   7  -6 18345.2 905.321  10
   1   7  -6 20346.3 948.698   7
   1   7  -6 17582.9 1430.40   3
  -1   7   6 19631.8 704.673   6
  -1   7   5 97076.5 3342.27   5
  -1   7   5 91876.7 2436.68   4
  -1   7   5 97557.4 2354.14   6
   1   7  -5 100403. 3045.44   5
   1   7  -5 93008.8 2572.59  10
   1   7  -5 100819. 3384.99   4
   1   7  -5 92044.4 3399.27   3
   1   7  -5 96276.4 2541.28   7
   1   7  -4 35830.2 1182.58  10
   1   7  -4 36107.0 1569.81   5
   1   7  -4 36322.0 1590.56   4
   1   7  -4 36944.2 1126.60   7
  -1   7   4 36563.8 1852.06   5
  -1   7   4 35604.3 1022.64   4
   1   7  -4 35274.7 1760.57   3
  -1   7   3 49101.5 2157.27   5
  -1   7   3 46604.7 1165.83   4
   1   7  -3 48078.5 1852.52   5
   1   7  -3 46292.9 1624.22   4
   1   7  -3 47707.6 1378.02  10
   1   7  -3 48903.8 1278.99   7
   1   7  -3 45336.1 1901.74   3
  -1   7   2 33994.7 1123.49  10
   1   7  -2 36340.1 1536.30   5
  -1   7   2 35222.7 1791.01   5
   1   7  -2 33272.6 1040.49  10
   1   7  -2 35472.5 1133.40   4
   1   7  -2 34704.2 930.788   7
   1   7  -2 36387.3 1524.31   3
   1   7  -1 88368.8 2773.75   5
  -1   7   1 88791.1 3117.95   5
  -1   7   1 86320.8 2242.99  10
   1   7  -1 88168.5 2094.65   4
   1   7  -1 85571.6 2001.98   7
   1   7  -1 90291.3 2590.89   3
   1   7  -1 87249.5 2147.52  10
   1   7   0 36790.8 1562.70   5
   1   7   0 34372.8 1225.00   3
  -1   7   0 37600.0 1824.32   5
   1   7   0 33170.1 997.374  10
  -1   7   0 34984.7 1100.74  10
   1   7   0 34674.3 874.887   4
  -1   7   0 33840.8 1037.36   7
   1   7   1 12296.8 886.935   5
  -1   7  -1 12453.8 1073.41   5
   1   7   1 10349.4 534.678   3
   1   7   1 11831.9 437.167   4
  -1   7  -1 11030.1 555.558  10
   1   7   1 11469.6 483.870  10
   1   7   1 11179.3 353.571   4
  -1   7  -1 11396.1 510.217   7
   1   7   2 30197.1 1395.49   5
   1   7   2 27862.0 964.586   4
  -1   7  -2 28096.6 992.349  10
  -1   7  -2 27177.7 930.114   7
   1   7   2 28769.6 890.968   3
   1   7   3 23485.7 711.741   3
  -1   7  -3 23732.5 910.486  10
  -1   7  -3 23011.9 1410.40   5
   1   7   3 21928.7 1007.27   4
  -1   7  -3 23332.0 867.571   7
   1   7   3 25447.0 1266.60   5
   1   7   4 16903.6 549.909   3
   1   7   4 18509.8 1089.28   5
  -1   7  -4 17189.5 1197.50   5
   1   7   4 17382.5 1040.36   4
  -1   7  -4 17278.8 765.866   7
  -1   7  -4 17888.4 809.475  10
  -1   7  -5 7278.54 816.952   5
  -1   7  -5 6027.48 527.990  10
   1   7   5 6578.66 731.933   5
   1   7   5 7635.28 616.548   1
   1   7   5 6265.10 299.408   3
  -1   7  -5 6289.59 501.803   7
   1   7   5 6797.76 400.187   3
   1   7   6 10426.1 424.878   3
   1   7   6 11161.1 913.029   5
   1   7   6 10979.5 802.914   1
  -1   7  -6 11761.5 762.597  10
  -1   7  -6 11823.0 802.610   4
  -1   7  -6 11667.2 815.422   5
  -1   7  -6 10519.9 784.735   2
  -1   7  -6 10865.2 706.304   7
   1   7   6 9831.42 588.251   3
   1   7   7 8311.07 825.200   5
   1   7   7 6730.99 375.083   3
  -1   7  -7 6902.92 657.662  10
  -1   7  -7 7582.85 779.760   4
   1   7   7 7029.50 727.132   1
  -1   7  -7 6581.90 621.064   7
  -1   7  -7 7043.59 550.046   2
  -1   7  -7 7718.80 569.090   5
   1   7   7 8077.64 624.962   3
   1   7   8 14326.6 1071.18   1
  -1   7  -8 15624.8 708.208   5
   1   7   8 15487.5 1089.52   5
  -1   7  -8 15433.2 1184.35   4
  -1   7  -8 15739.6 1018.46   7
  -1   7  -8 14041.0 991.388  10
   1   7   9 9448.82 942.516   1
  -1   7  -9 10566.4 1103.77   4
  -1   7  -9 7712.95 813.131  10
   1   7   9 9499.86 897.512   5
  -1   7  -9 8602.75 858.309   7
   1   7   9 8861.41 888.460   8
  -1   7 -10 2472.80 608.967   7
   1   7  10 1935.74 508.241   5
  -1   7 -10 2158.46 572.731  10
   1   7  10 3113.82 717.730   1
  -1   7 -10 3051.73 699.289   4
   1   7  10 3292.41 660.828   8
  -1   7 -11 9083.57 1019.99   7
  -1   7 -11 6732.92 900.384  10
  -1   7 -11 8604.04 963.208   4
   1   7  11 9297.32 1007.57   8
   1   7  11 8298.71 1101.37   1
   1   7  11 8780.44 882.091   5
   1   7  12 9683.14 1185.03   1
   1   7  12 9845.84 950.330   5
  -1   7 -12 9031.87 988.200   4
  -1   7 -12 9382.21 1126.59   7
   1   7  12 9684.67 1157.82   8
  -1   7 -12 7671.62 1008.05  10
   1   7  13 5082.40 729.850   5
   1   7  13 5385.38 927.274   1
  -1   7 -13 5951.51 1022.53  10
  -1   7 -13 6487.91 887.534   4
   1   7  13 4988.97 975.528   8
  -1   7 -13 5887.04 978.528   7
  -1   7 -14 2666.26 792.225  10
   1   7  14 1297.75 659.672   8
  -1   7 -14 566.511 609.149   7
   1   7  14 2927.16 787.352   1
  -1   7 -14 1350.92 532.630   4
   1   7  15 4970.95 887.641   1
  -1   7 -15 5075.40 924.480  10
  -1   7 -15 3958.87 805.457   7
  -1   7 -15 5980.19 825.444   4
   1   7  15 4481.62 901.620   8
   1   8 -15 2715.24 670.083   4
   1   8 -15 3043.76 874.640  10
   1   8 -15 3084.96 723.519   7
  -1   8  14 984.449 493.563   5
   1   8 -14 1122.62 621.106   3
   1   8 -14 1462.69 759.912  10
   1   8 -14 459.427 437.973   4
   1   8 -14 200.546 537.704   7
  -1   8  13 4073.66 758.498   5
   1   8 -13 2415.61 840.072  10
   1   8 -13 3656.67 653.886   4
   1   8 -13 3900.27 816.483   7
   1   8 -13 4042.47 822.961   3
   1   8 -12 7613.27 985.547   3
   1   8 -12 6729.27 806.713   4
   1   8 -12 6650.04 976.625  10
   1   8 -12 6124.86 951.940   7
  -1   8  12 7890.91 962.444   5
   1   8 -11 10858.0 1134.66   3
   1   8 -11 9068.22 984.708  10
  -1   8  11 10170.4 1084.90   5
   1   8 -11 9916.09 946.079   4
   1   8 -11 11446.4 1133.35   7
   1   8 -10 3031.36 500.759   5
   1   8 -10 3455.16 620.728   4
   1   8 -10 2639.04 599.898   7
  -1   8  10 3766.84 759.434   5
   1   8 -10 3471.77 764.795   3
   1   8 -10 2152.03 599.982  10
  -1   8   9 14227.0 1249.93   5
   1   8  -9 14754.8 1074.95   4
   1   8  -9 12337.8 962.619  10
   1   8  -9 14793.8 1077.82   5
   1   8  -9 13769.3 1036.03   7
   1   8  -9 12298.9 1201.83   3
  -1   8   8 33301.3 1898.03   5
   1   8  -8 30962.5 1453.46  10
   1   8  -8 33113.7 1639.69   4
   1   8  -8 36916.9 1797.32   5
   1   8  -8 32716.8 1488.31   7
   1   8  -8 31322.2 1938.67   3
  -1   8   8 33520.4 1068.71   6
  -1   8   7 26583.1 1664.05   5
   1   8  -7 25653.5 1209.51  10
   1   8  -7 26686.2 1443.61   4
   1   8  -7 29199.7 1250.26   7
   1   8  -7 30824.7 1590.19   5
   1   8  -7 28597.9 1879.68   3
  -1   8   7 28197.4 918.737   6
  -1   8   6 15552.2 1301.19   5
   1   8  -6 17806.5 851.863   7
   1   8  -6 16766.4 866.775  10
   1   8  -6 17275.7 1485.11   3
   1   8  -6 16644.7 1150.20   5
   1   8  -6 16818.1 1127.82   4
  -1   8   6 17069.9 659.279   6
   1   8  -5 34845.6 1675.45   4
   1   8  -5 34622.3 1182.61   7
  -1   8   5 36763.3 1942.20   5
   1   8  -5 35775.5 1268.65  10
  -1   8   5 35616.9 1086.51   4
   1   8  -5 36885.8 1713.30   5
   1   8  -5 35725.7 2006.77   3
   1   8  -4 96821.7 3163.58   5
  -1   8   4 98249.1 3512.81   5
  -1   8   4 93986.7 2254.50   4
   1   8  -4 94702.7 2520.71  10
   1   8  -4 97076.6 2421.02   7
   1   8  -4 96204.8 3464.18   3
   1   8  -3 62932.0 2308.46   5
  -1   8   3 59138.8 2552.16   5
   1   8  -3 60610.7 2122.98   4
   1   8  -3 56769.5 1638.42  10
   1   8  -3 57749.1 1509.75   7
   1   8  -3 56563.3 2341.91   3
   1   8  -2 75909.2 2604.95   5
  -1   8   2 71292.9 2008.27  10
   1   8  -2 71134.7 2098.44   4
  -1   8   2 75685.2 2935.75   5
   1   8  -2 71620.5 1910.01  10
   1   8  -2 71577.5 1751.76   7
   1   8  -2 71592.1 2564.73   3
  -1   8   1 70041.0 1967.21  10
   1   8  -1 76588.6 2609.73   5
  -1   8   1 77149.1 2985.97   5
   1   8  -1 71103.6 1874.91  10
   1   8  -1 71232.9 1716.65   7
   1   8  -1 71762.0 1850.55   4
   1   8  -1 77394.4 2463.92   3
  -1   8   0 165006. 3988.12  10
   1   8   0 179911. 4756.23   5
  -1   8   0 176081. 5198.50   5
   1   8   0 163532. 3865.62  10
   1   8   0 177498. 4373.11   3
   1   8   0 162149. 3673.66   4
  -1   8   0 168267. 3905.35   7
  -1   8  -1 66980.1 1762.51   7
   1   8   1 68456.2 1969.17   3
  -1   8  -1 65518.5 1831.11  10
  -1   8  -1 65000.0 2677.51   5
   1   8   1 65296.5 1731.37  10
   1   8   1 63748.5 1649.67   4
   1   8   1 63689.6 1487.40   4
   1   8   1 64718.8 2370.10   5
  -1   8  -2 90220.2 2383.03  10
   1   8   2 91485.4 2951.59   5
   1   8   2 85904.9 2381.02   4
   1   8   2 85913.5 2296.87   3
  -1   8  -2 89237.5 2292.14   7
  -1   8  -2 88293.0 3230.83   5
  -1   8  -3 76420.1 2882.61   5
  -1   8  -3 70922.8 2056.76  10
   1   8   3 72020.6 2327.00   4
  -1   8  -3 72336.2 1989.74   7
   1   8   3 72929.4 1851.81   3
   1   8   3 70326.2 2544.76   5
   1   8   4 149321. 3366.30   3
   1   8   4 140963. 4265.14   5
  -1   8  -4 146706. 4573.59   5
   1   8   4 158401. 4362.36   4
  -1   8  -4 143425. 3731.38  10
  -1   8  -4 146229. 3663.46   7
  -1   8  -5 41037.6 1412.57   7
  -1   8  -5 45497.0 2124.18   5
   1   8   5 39858.7 1056.25   3
   1   8   5 40227.7 1834.66   5
  -1   8  -5 41257.5 1475.98  10
   1   8   5 41077.6 1191.34   3
  -1   8  -6 55933.5 2051.91   5
   1   8   6 51382.5 2152.53   5
  -1   8  -6 49042.4 1769.54  10
  -1   8  -6 51413.0 1750.40   7
   1   8   6 50918.8 1292.09   3
   1   8   6 51504.6 1572.06   3
   1   8   7 37823.1 1048.16   3
  -1   8  -7 39488.4 1502.77   5
   1   8   7 42050.8 1916.91   5
  -1   8  -7 38823.6 1583.79  10
   1   8   7 39545.9 1687.31   1
  -1   8  -7 37349.6 1533.96   7
   1   8   8 61085.8 1608.40   3
  -1   8  -8 61068.0 1899.49   5
   1   8   8 64073.4 2518.70   5
   1   8   8 62656.0 2387.71   1
  -1   8  -8 58291.0 2205.87  10
  -1   8  -8 60581.1 2209.05   7
  -1   8  -8 68423.6 2516.81   4
  -1   8  -9 10102.7 923.291  10
  -1   8  -9 10521.5 1034.76   4
  -1   8  -9 9244.42 844.079   7
   1   8   9 10554.3 1014.04   1
   1   8   9 11114.7 1026.09   5
   1   8  10 12663.7 1086.56   5
   1   8  10 15057.7 1256.38   1
  -1   8 -10 13534.8 1144.32  10
  -1   8 -10 14212.6 1308.50   4
  -1   8 -10 11955.4 1063.85   7
   1   8  11 17105.4 1251.47   5
  -1   8 -11 14277.8 1246.48   4
  -1   8 -11 15115.1 1243.54   7
   1   8  11 15892.8 1401.25   1
  -1   8 -11 13983.8 1212.99  10
   1   8  12 17372.7 1558.20   1
  -1   8 -12 13333.8 1169.64   4
  -1   8 -12 13036.8 1268.56  10
   1   8  12 14568.4 1197.91   5
  -1   8 -12 14592.2 1337.05   7
  -1   8 -13 43.9171 660.417   7
   1   8  13 2132.43 615.218   5
  -1   8 -13 935.701 563.737   4
  -1   8 -13 1547.23 680.865  10
   1   8  13 1709.92 709.268   1
  -1   8 -14 2145.18 877.455  10
   1   8  14 2209.67 787.161   1
  -1   8 -14 1353.09 683.467   7
  -1   9  15 3605.47 719.931   5
   1   9 -15 4287.14 815.377   7
   1   9 -15 4279.87 688.005   4
   1   9 -14 1817.17 561.985   4
   1   9 -14 3865.17 828.275   3
   1   9 -14 1324.74 842.271  10
  -1   9  14 1611.79 599.040   5
   1   9 -14 3023.27 764.921   7
   1   9 -13 6356.55 1049.00  10
  -1   9  13 6526.42 910.226   5
   1   9 -13 7854.30 1014.82   3
   1   9 -13 7184.23 835.357   4
   1   9 -13 6277.96 1034.68   7
   1   9 -12 7759.67 1012.50   3
   1   9 -12 6067.60 922.036  10
   1   9 -12 6900.99 826.909   4
  -1   9  12 6884.38 970.647   5
   1   9 -12 7210.28 991.284   7
   1   9 -11 3873.70 806.199   3
   1   9 -11 4032.48 722.948   7
  -1   9  11 3261.87 774.783   5
   1   9 -11 3495.28 698.038  10
   1   9 -11 3501.36 650.664   4
   1   9 -10 5007.19 884.793   3
   1   9 -10 5780.36 719.550   4
   1   9 -10 5715.77 746.746   7
   1   9 -10 4919.97 717.041  10
  -1   9  10 5860.39 913.488   5
   1   9 -10 5274.45 634.758   5
   1   9  -9 8158.70 801.125   4
   1   9  -9 7773.13 767.254  10
   1   9  -9 7436.63 978.391   3
   1   9  -9 7650.65 811.732   5
  -1   9   9 8954.24 1110.22   5
   1   9  -9 7724.00 764.868   7
   1   9  -8 11707.6 823.729   7
   1   9  -8 10218.9 822.316  10
   1   9  -8 11315.6 1163.43   3
   1   9  -8 11448.4 944.745   4
  -1   9   8 11750.2 1187.32   5
   1   9  -8 13581.1 1184.26   5
  -1   9   7 1456.98 658.072   5
   1   9  -7 277.143 498.006   5
   1   9  -7-112.283 289.521   4
   1   9  -7 487.206 336.853  10
   1   9  -7 381.205 581.661   3
   1   9  -7 238.051 260.822   7
  -1   9   6 12237.7 1197.97   5
   1   9  -6 13728.3 1124.17   5
   1   9  -6 12364.2 1311.34   3
   1   9  -6 12329.0 685.152   7
   1   9  -6 13649.7 933.805   4
   1   9  -6 11976.3 743.286  10
   1   9  -5 9177.85 765.610   4
  -1   9   5 9584.59 1072.62   5
   1   9  -5 9372.46 608.076  10
   1   9  -5 9654.61 1179.95   3
   1   9  -5 8699.28 514.240   7
  -1   9   5 9120.84 415.438   4
   1   9  -5 9891.18 977.009   5
   1   9  -4 12033.6 1029.87   5
  -1   9   4 14319.7 1294.13   5
   1   9  -4 12579.6 846.387   4
   1   9  -4 11464.2 631.377  10
  -1   9   4 12272.1 410.839   4
   1   9  -4 12727.0 559.597   7
   1   9  -4 12084.5 1166.14   3
  -1   9   3-79.4426 623.446   5
   1   9  -3 583.955 154.806   7
   1   9  -3 515.361 486.129   3
   1   9  -3 249.214 312.393   4
   1   9  -3 325.767 480.211   5
   1   9  -3 714.601 238.783  10
   1   9  -2 11929.9 1031.77   5
   1   9  -2 9952.65 939.583   3
   1   9  -2 11240.4 708.205   4
  -1   9   2 9808.23 593.120  10
   1   9  -2 10459.8 547.334  10
   1   9  -2 10336.6 428.662   7
  -1   9   2 12225.1 1205.55   5
   1   9  -1 12871.1 596.875  10
   1   9  -1 13326.1 1073.33   5
  -1   9   1 12071.7 1194.66   5
   1   9  -1 14723.3 738.943   4
  -1   9   1 12659.0 662.084  10
   1   9  -1 13908.2 486.940   7
   1   9  -1 13023.7 1000.95   3
   1   9   0 6353.71 404.943  10
  -1   9   0 7234.23 971.850   5
   1   9   0 7414.17 705.771   3
  -1   9   0 7098.94 483.360  10
  -1   9   0 6884.52 421.759   7
   1   9   0 7676.79 846.136   5
  -1   9  -1 1695.49 673.145   5
   1   9   1 1033.52 215.276  10
   1   9   1 1484.56 557.609   5
  -1   9  -1 965.124 261.381  10
   1   9   1 1259.29 343.122   3
  -1   9  -1 1366.68 234.543   7
  -1   9  -2 2091.45 277.302   7
   1   9   2 1791.96 331.938   3
  -1   9  -2 2146.48 691.921   5
   1   9   2 1347.56 101.311   4
  -1   9  -2 1413.06 291.392  10
   1   9   2 1602.86 238.341   4
   1   9   2 955.389 496.020   5
  -1   9  -3 8661.96 994.373   5
  -1   9  -3 9076.95 602.011  10
   1   9   3 8456.55 587.269   4
   1   9   3 10843.6 577.696   3
  -1   9  -3 9484.05 550.999   7
   1   9   3 10013.4 934.359   5
  -1   9  -4 6592.82 485.827   7
   1   9   4 5153.71 505.140   4
   1   9   4 6674.53 782.595   5
  -1   9  -4 6903.54 895.110   5
  -1   9  -4 6686.82 538.536  10
   1   9   4 7426.37 392.393   3
   1   9   5 605.635 488.126   5
  -1   9  -5 311.679 497.600   5
  -1   9  -5 295.740 253.933   7
  -1   9  -5 274.667 273.494  10
   1   9   5 225.559 68.0942   3
  -1   9  -6 3621.94 488.325  10
  -1   9  -6 4431.68 628.223   5
  -1   9  -6 4041.62 465.246   7
   1   9   6 4374.19 690.911   5
   1   9   7 7183.40 862.427   5
  -1   9  -7 6977.22 640.205   7
  -1   9  -7 7691.24 711.967  10
  -1   9  -7 6337.73 601.435   5
  -1   9  -8 10667.1 687.375   5
  -1   9  -8 10717.9 874.925  10
   1   9   8 10505.5 1022.58   5
  -1   9  -8 10121.1 816.543   7
   1   9   9 1642.57 624.313   5
  -1   9  -9 1182.15 447.597   7
   1   9   9 2907.69 677.192   1
  -1   9  -9 2310.79 540.047  10
  -1   9 -10 4470.14 691.148   7
   1   9  10 5975.02 841.631   5
   1   9  10 6174.55 885.360   1
  -1   9 -10 4948.11 751.225  10
   1   9  11 5074.02 799.781   5
  -1   9 -11 4881.23 819.217  10
   1   9  11 4804.67 893.673   1
  -1   9 -11 3132.57 698.697   7
   1   9  12 9010.89 1029.23   5
  -1   9 -12 10981.3 1147.61  10
   1   9  12 10581.7 1247.77   1
  -1   9 -12 8692.09 1049.80   7
  -1   9 -13 1230.10 755.912  10
  -1   9 -13 2172.84 724.553   7
   1   9  13 1361.44 803.557   1
   1   9  13 2240.99 665.863   5
   1   9  14 1767.16 729.861   1
  -1   9 -14 2780.19 847.293   7
  -1   9 -14 2152.39 729.586  10
   1  10 -14 792.167 698.594  10
  -1  10  14 1518.83 581.690   5
   1  10 -14 1291.45 477.348   4
   1  10 -14 218.539 620.607   7
  -1  10  13 3763.13 767.901   5
   1  10 -13 3205.42 798.079  10
   1  10 -13 4085.62 675.583   4
   1  10 -13 5150.91 827.616   3
   1  10 -13 4282.58 886.581   7
   1  10 -12 5553.09 768.091   4
   1  10 -12 6619.36 944.288   3
   1  10 -12 4262.73 804.241  10
   1  10 -12 4784.99 815.169   7
  -1  10  12 5343.97 950.655   5
   1  10 -11 11927.9 995.843   4
   1  10 -11 13243.7 1244.80   3
  -1  10  11 14032.7 1398.26   5
   1  10 -11 13897.8 1150.07   7
   1  10 -11 11575.1 1075.49  10
   1  10 -10 3408.16 790.839   3
   1  10 -10 1924.43 580.945  10
   1  10 -10 1801.93 510.597   7
   1  10 -10 2946.38 560.804   4
  -1  10  10 4162.17 895.840   5
  -1  10   9 16441.2 1456.72   5
   1  10  -9 16789.8 1188.22   5
   1  10  -9 15359.0 1298.03   3
   1  10  -9 15823.7 1076.95  10
   1  10  -9 16247.4 1037.11   7
   1  10  -9 17269.1 1131.55   4
   1  10  -8 10140.4 1067.06   5
   1  10  -8 7676.70 660.325   7
   1  10  -8 9623.51 790.283  10
  -1  10   8 9812.89 1188.36   5
   1  10  -8 8507.32 810.649   4
   1  10  -8 8020.43 1014.45   3
   1  10  -7 30424.8 1840.53   5
  -1  10   7 27839.1 1847.77   5
   1  10  -7 26989.8 1753.42   3
   1  10  -7 28111.3 1404.38   4
   1  10  -7 24765.0 1205.85  10
   1  10  -7 25377.0 1124.84   7
   1  10  -6 4548.56 841.969   3
   1  10  -6 3327.15 456.000  10
  -1  10   6 4323.04 873.675   5
   1  10  -6 4745.45 584.608   4
   1  10  -6 3731.21 393.479   7
   1  10  -6 4084.83 765.041   5
   1  10  -5 25843.9 1103.12  10
  -1  10   5 29201.0 1908.32   5
   1  10  -5 29709.7 1408.35   4
   1  10  -5 29233.8 1734.22   5
   1  10  -5 26887.7 1811.20   3
   1  10  -5 26667.3 980.687   7
   1  10  -4 11263.0 664.441  10
   1  10  -4 14780.2 980.612   4
   1  10  -4 12566.9 572.440   7
   1  10  -4 13527.0 1190.53   5
  -1  10   4 12013.2 1284.26   5
   1  10  -4 13292.3 1349.47   3
   1  10  -3 33331.7 1856.47   5
  -1  10   3 35721.4 2096.76   5
   1  10  -3 32242.7 1177.34  10
   1  10  -3 32382.0 2001.52   3
   1  10  -3 35892.3 1314.68   4
   1  10  -3 33239.0 1018.95   7
   1  10  -2 3702.58 698.550   3
   1  10  -2 3037.21 717.721   5
  -1  10   2 2835.57 387.673  10
   1  10  -2 3097.49 344.886  10
  -1  10   2 3361.79 781.474   5
   1  10  -2 3382.80 254.797   7
   1  10  -2 2908.58 227.268   4
   1  10  -1 39196.0 1943.23   5
  -1  10   1 38849.0 2157.24   5
  -1  10   1 35248.2 1290.94  10
   1  10  -1 38046.1 1233.44  10
   1  10  -1 38083.3 1965.96   3
   1  10   0 16723.7 1240.45   5
  -1  10   0 15975.8 1386.96   5
   1  10   0 14823.5 686.087  10
   1  10   0 13916.8 1112.31   3
  -1  10   0 15059.3 766.807  10
   1  10   1 28306.3 1616.60   5
  -1  10  -1 26959.6 1780.05   5
  -1  10  -1 28559.2 1102.58  10
   1  10   1 27301.7 1002.07  10
  -1  10  -1 27289.1 1001.50   7
   1  10   2 4615.60 525.321   3
   1  10   2 3499.73 658.651   5
  -1  10  -2 4929.33 406.824   7
  -1  10  -2 6462.61 526.077  10
  -1  10  -2 5866.34 936.646   5
   1  10   3 38557.2 942.653   4
   1  10   3 36848.2 1233.19   3
  -1  10  -3 40688.9 1326.29   7
  -1  10  -3 39707.4 1419.93  10
   1  10   3 41285.0 1971.92   5
  -1  10  -3 40804.1 2205.14   5
  -1  10  -4 15725.1 776.958   7
  -1  10  -4 15313.6 846.250  10
   1  10   4 15517.8 1219.40   5
  -1  10  -4 14790.4 1322.34   5
  -1  10  -5 22308.7 1557.79   5
  -1  10  -5 21865.1 986.363   7
   1  10   5 22592.3 1450.58   5
  -1  10  -5 20141.7 1034.58  10
   1  10   6 4286.11 730.497   5
  -1  10  -6 4958.40 569.563  10
  -1  10  -6 6079.12 552.353   7
  -1  10  -6 3928.42 628.584   5
  -1  10  -7 30927.0 1424.64   5
   1  10   7 31465.7 1778.20   5
  -1  10  -7 29129.3 1383.54  10
  -1  10  -7 27222.2 1279.46   7
   1  10   8 9260.31 1032.42   5
  -1  10  -8 9162.99 793.635   7
  -1  10  -8 9918.06 865.999  10
   1  10   9 13037.9 1219.35   5
  -1  10  -9 13052.9 1032.69  10
  -1  10  -9 13103.7 1004.42   7
   1  10  10 4802.01 855.809   5
  -1  10 -10 5295.31 801.154  10
  -1  10 -10 4090.02 717.608   7
  -1  10 -11 14107.5 1246.04  10
   1  10  11 15848.2 1347.95   5
  -1  10 -11 14116.0 1178.16   7
   1  10  12 4544.02 826.733   5
  -1  10 -12 4424.13 851.634  10
  -1  10 -12 4149.14 814.040   7
  -1  10 -13 5838.15 959.929  10
   1  10  13 5287.50 907.412   5
  -1  10 -13 4234.14 849.321   7
  -1  10 -14-31.3436 753.021   7
   1  11 -13 10283.6 1140.33   3
   1  11 -13 9434.86 1094.76   7
   1  11 -13 10535.3 1215.61  10
  -1  11  13 9930.28 1183.35   5
   1  11 -12 3157.84 787.047   3
   1  11 -12 3607.64 769.363  10
   1  11 -12 2300.56 583.748   7
  -1  11  12 2957.90 876.278   5
   1  11 -11 9542.57 1079.32   3
  -1  11  11 8876.75 1215.15   5
   1  11 -11 8670.37 972.112  10
   1  11 -11 9071.17 942.902   7
  -1  11  10 1095.49 651.083   5
   1  11 -10 2603.67 663.662   3
   1  11 -10 2597.67 625.192  10
   1  11 -10 1919.59 474.958   7
   1  11  -9 22629.6 1417.24   5
  -1  11   9 20818.8 1705.24   5
   1  11  -9 18077.0 1183.28  10
   1  11  -9 19019.7 1108.25   7
   1  11  -9 20055.7 1534.87   3
   1  11  -8 4862.16 824.993   5
   1  11  -8 3393.46 783.723   3
  -1  11   8 3851.37 878.063   5
   1  11  -8 2956.78 520.334  10
   1  11  -8 3580.88 476.881   7
   1  11  -7 13112.6 758.935   7
  -1  11   7 12786.1 1372.20   5
   1  11  -7 11700.0 830.381  10
   1  11  -7 12555.9 1212.93   3
   1  11  -6 2630.10 430.497  10
   1  11  -6 1498.07 608.448   3
   1  11  -6 3712.13 856.149   5
  -1  11   6 2593.51 788.661   5
   1  11  -6 3214.93 359.507   7
   1  11  -5 36470.7 2059.95   5
  -1  11   5 33246.5 2165.99   5
   1  11  -5 32683.9 1123.70   7
   1  11  -5 30817.9 1273.77  10
   1  11  -5 32510.9 1928.05   3
   1  11  -4 4953.36 858.298   3
   1  11  -4 5797.03 945.566   5
  -1  11   4 5376.11 967.759   5
   1  11  -4 4696.82 473.530  10
   1  11  -4 5901.53 391.356   7
   1  11  -3 10552.0 1131.02   3
   1  11  -3 9613.43 607.808  10
   1  11  -3 9126.18 1062.08   5
   1  11  -3 9452.52 470.501   7
  -1  11   3 10330.0 1224.68   5
   1  11  -2 5566.04 868.391   3
  -1  11   2 5182.40 945.057   5
   1  11  -2 5309.22 901.121   5
   1  11  -2 5682.95 450.579  10
  -1  11   2 4619.88 475.567  10
   1  11  -2 4814.21 319.421   7
   1  11  -1 23500.8 1583.67   5
  -1  11   1 26064.5 1827.52   5
   1  11  -1 25916.4 996.771  10
  -1  11   1 23254.4 1036.52  10
   1  11   0 8305.90 1018.55   5
   1  11   0 10985.9 1131.29   3
  -1  11   0 10410.0 1219.31   5
  -1  11   0 9244.72 622.918  10
   1  11   0 9199.70 561.647  10
   1  11   1 1818.33 631.971   5
   1  11   1 987.206 381.232   3
  -1  11  -1 1511.08 707.298   5
  -1  11  -1 2161.41 385.971  10
   1  11   1 1861.62 307.117  10
  -1  11  -1 2024.81 298.159   7
  -1  11  -2 11565.0 1253.32   5
   1  11   2 12023.5 1151.28   5
  -1  11  -2 11404.9 709.635  10
   1  11   2 11839.9 733.912   3
  -1  11  -2 11330.5 631.277   7
  -1  11  -3 8596.43 562.068   7
  -1  11  -3 8298.77 1079.35   5
   1  11   3 7780.96 906.730   5
  -1  11  -3 7451.03 609.800  10
  -1  11  -4 15544.2 1412.48   5
   1  11   4 13489.3 1216.37   5
  -1  11  -4 14199.9 845.558  10
  -1  11  -4 14225.7 759.698   7
  -1  11  -5 530.072 276.843   7
  -1  11  -5 1297.29 409.899  10
  -1  11  -5 652.714 551.893   5
   1  11   5 1748.47 691.602   5
   1  11   6 14300.2 1260.83   5
  -1  11  -6 11996.2 855.280  10
  -1  11  -6 13365.9 1058.89   5
  -1  11  -6 12617.1 799.959   7
   1  11   7 1401.08 655.825   5
  -1  11  -7 719.361 338.149   5
  -1  11  -7 2186.66 434.630   7
  -1  11  -7 1490.76 487.130  10
   1  11   8 13914.4 1288.89   5
  -1  11  -8 14843.9 1056.49  10
  -1  11  -8 13983.4 961.747   7
   1  11   9 1299.24 621.890   5
  -1  11  -9 794.176 477.671   7
  -1  11  -9 533.140 450.545  10
   1  11  10 10168.7 1155.10   5
  -1  11 -10 7228.61 893.714  10
  -1  11 -10 7761.81 871.461   7
  -1  11 -11 1190.48 540.859   7
   1  11  11 1286.21 605.555   5
  -1  11 -11 2151.59 709.477  10
   1  11  12 6707.23 975.245   5
  -1  11 -12 9789.64 1150.54  10
  -1  11 -12 7925.32 998.330   7
   1  11  13 1791.38 648.665   5
  -1  11 -13 1261.23 683.228   7
   1  12 -12 3208.57 780.681   3
   1  12 -12 1717.23 656.964  10
  -1  12  12 859.375 687.909   5
  -1  12  11 13059.2 1415.21   5
   1  12 -11 12144.4 1231.81   3
   1  12 -11 9847.05 1036.39  10
   1  12 -10 232.954 424.104  10
   1  12 -10 1739.59 655.268   3
  -1  12  10 374.992 727.554   5
  -1  12   9 19454.2 1721.39   5
   1  12  -9 14491.0 1053.90  10
   1  12  -9 16634.7 1010.08   7
   1  12  -9 17833.6 1438.23   3
   1  12  -8 4541.01 877.349   3
   1  12  -8 5366.47 640.028  10
   1  12  -8 4048.56 780.829   5
   1  12  -8 5573.18 551.671   7
  -1  12   8 4758.83 972.755   5
  -1  12   7 27405.5 2001.99   5
   1  12  -7 25236.0 1089.40   7
   1  12  -7 25936.9 1714.63   3
   1  12  -7 23064.5 1207.36  10
  -1  12   6 4984.87 948.321   5
   1  12  -6 5743.12 605.005  10
   1  12  -6 6744.81 1059.02   5
   1  12  -6 6482.36 496.377   7
   1  12  -6 6288.16 922.376   3
  -1  12   5 33963.9 2188.83   5
   1  12  -5 33663.0 1954.79   3
   1  12  -5 34193.6 1381.06  10
   1  12  -5 35333.6 2147.45   5
   1  12  -5 34352.5 1184.82   7
   1  12  -4 19148.0 771.770   7
   1  12  -4 20205.9 1588.08   5
   1  12  -4 18924.6 949.557  10
   1  12  -4 19171.2 1455.10   3
  -1  12   4 18440.0 1636.98   5
   1  12  -3 32532.4 1293.85  10
  -1  12   3 35012.7 2216.50   5
   1  12  -3 36782.9 1116.91   7
   1  12  -3 36483.0 2025.56   3
   1  12  -3 34231.1 2068.69   5
   1  12  -2 23984.5 1714.12   5
  -1  12   2 22077.4 1758.59   5
   1  12  -2 21099.5 966.259  10
  -1  12   2 23132.2 1079.59  10
  -1  12   1 32283.5 1323.06  10
   1  12  -1 33570.5 1253.45  10
   1  12  -1 35437.1 2049.14   5
   1  12   0 40363.6 2170.38   5
  -1  12   0 36729.6 1437.78  10
  -1  12   0 37709.8 2318.12   5
   1  12   0 40256.6 1379.85  10
   1  12   0 40381.1 1851.26   3
   1  12   1 31748.3 1906.84   5
  -1  12  -1 29665.8 1244.13  10
  -1  12  -1 29051.0 2017.85   5
   1  12   1 29888.1 1156.78  10
   1  12   2 28691.3 1812.41   5
  -1  12  -2 27552.9 1219.08  10
  -1  12  -2 27584.7 1956.31   5
  -1  12  -2 29111.8 1115.06   7
  -1  12  -3 29097.8 2001.36   5
  -1  12  -3 28114.5 1241.73  10
   1  12   3 26844.3 1752.11   5
  -1  12  -3 27738.5 1114.64   7
   1  12   4 30706.0 1880.85   5
  -1  12  -4 33660.3 2193.36   5
  -1  12  -4 30862.3 1236.58   7
  -1  12  -4 31144.1 1360.06  10
   1  12   5 19685.8 1520.60   5
  -1  12  -5 18652.7 1470.83   5
  -1  12  -5 18240.0 1052.56  10
  -1  12  -5 18687.5 948.000   7
   1  12   6 14056.2 1330.14   5
  -1  12  -6 14832.6 1150.92   5
  -1  12  -6 13641.7 943.601  10
  -1  12  -6 14450.3 869.925   7
   1  12   7 19116.3 1530.56   5
  -1  12  -7 16974.5 1004.22   7
  -1  12  -7 15708.4 1061.64  10
   1  12   8 10774.6 1224.87   5
  -1  12  -8 10856.2 932.535  10
  -1  12  -8 10725.0 855.773   7
   1  12   9 9759.94 1179.35   5
  -1  12  -9 11151.4 933.976   7
  -1  12  -9 7875.96 880.130  10
   1  12  10 3084.72 812.099   5
  -1  12 -10 1673.48 607.291  10
  -1  12 -10 2847.86 621.465   7
   1  12  11 8285.49 1098.83   5
  -1  12 -11 8056.79 1001.41  10
  -1  12 -11 8903.46 957.992   7
   1  12  12 2474.41 753.156   5
  -1  12 -12 3123.20 736.951   7
   1  12  13 3619.62 863.130   5
   1  13 -11 3676.74 727.754  10
   1  13 -11 6585.31 968.915   3
  -1  13  11 5605.83 1066.80   5
  -1  13  10 1340.63 899.477   5
   1  13 -10 473.088 555.363   3
   1  13 -10 451.925 441.952  10
   1  13  -9 3513.53 750.950   3
  -1  13   9 4118.12 1041.32   5
   1  13  -9 3439.05 628.465  10
  -1  13   8 394.667 767.001   5
   1  13  -8 930.851 645.368   3
   1  13  -8 944.739 441.576  10
   1  13  -8 366.903 457.210   5
   1  13  -7 3187.00 866.768   5
   1  13  -7 4336.54 833.033   3
  -1  13   7 2759.71 855.500   5
   1  13  -7 4280.29 585.497  10
   1  13  -6 1240.62 597.116   3
  -1  13   6 1035.63 798.219   5
   1  13  -6 424.891 641.944   5
   1  13  -6 926.610 390.904  10
   1  13  -5 1363.36 376.867  10
   1  13  -5 961.780 532.814   3
  -1  13   5 480.609 655.130   5
   1  13  -5 781.902 668.499   5
   1  13  -4 843.453 548.335   3
   1  13  -4 584.520 668.232   5
   1  13  -4 880.944 357.077  10
  -1  13   4-533.192 766.034   5
   1  13  -3 1873.41 660.384   3
   1  13  -3 2849.06 793.378   5
  -1  13   3 2130.96 765.621   5
   1  13  -3 2685.03 415.933  10
   1  13  -2-605.496 507.559   3
   1  13  -2 798.636 690.974   5
  -1  13   2 34.0865 625.055   5
   1  13  -2 377.406 284.493  10
   1  13  -1 22.3058 246.860  10
  -1  13   1 462.654 322.564  10
  -1  13   1 76.9253 638.722   5
   1  13  -1-166.492 610.057   5
  -1  13   0 1255.95 775.842   5
  -1  13   0 439.707 298.871  10
   1  13   0 475.783 266.516  10
   1  13   0 352.578 618.879   5
  -1  13  -1 1662.35 733.261   5
  -1  13  -1 507.510 347.169  10
   1  13   1 353.080 632.888   5
   1  13   2 2761.46 754.134   5
  -1  13  -2 2590.64 878.558   5
  -1  13  -2 2173.95 338.683   7
  -1  13  -2 2323.54 438.140  10
   1  13   3 1283.13 639.218   5
  -1  13  -3 1620.14 766.901   5
  -1  13  -3 1475.04 328.423   7
  -1  13  -3 923.888 343.083  10
  -1  13  -4 5538.06 619.707  10
   1  13   4 5826.85 972.551   5
  -1  13  -4 5534.14 523.064   7
  -1  13  -4 5191.10 1037.08   5
   1  13   5 338.544 565.384   5
  -1  13  -5 195.090 378.466  10
  -1  13  -5 212.813 483.808   5
  -1  13  -5 369.283 303.089   7
  -1  13  -6 7062.67 868.084   5
  -1  13  -6 7239.86 747.445  10
   1  13   6 4994.94 930.718   5
  -1  13  -6 6684.27 624.378   7
  -1  13  -7 2407.15 471.955   7
  -1  13  -7 2744.09 570.025  10
   1  13   7 3415.63 850.518   5
  -1  13  -8 8211.28 841.215  10
  -1  13  -8 8091.00 775.288   7
   1  13   8 8424.48 1158.98   5
   1  13   9 296.818 652.265   5
  -1  13  -9 1365.47 467.764   7
  -1  13  -9 527.414 469.806  10
   1  13  10 8022.87 1142.64   5
  -1  13 -10 5489.75 796.468  10
  -1  13 -10 6034.46 781.162   7
   1  13  11 1543.71 721.041   5
  -1  13 -11 2512.84 650.781   7
  -1  13 -12 5747.58 890.359   7
   1  14 -10 1923.44 627.295   3
   1  14 -10 1333.04 565.042  10
   1  14  -9 9877.53 1153.13   3
  -1  14   9 11863.5 1496.25   5
   1  14  -9 8609.36 891.383  10
   1  14  -8 1634.13 627.560   3
  -1  14   8 1439.54 839.020   5
   1  14  -8 1369.34 441.743  10
  -1  14   7 17377.4 1691.13   5
   1  14  -7 14295.1 1021.60  10
   1  14  -7 16579.8 1515.90   5
   1  14  -7 18449.8 1482.87   3
  -1  14   6 557.507 703.208   5
   1  14  -6 999.405 588.971   3
   1  14  -6 69.3789 741.973   5
   1  14  -6 500.281 346.337  10
  -1  14   5 17107.5 1687.52   5
   1  14  -5 15067.6 1564.87   5
   1  14  -5 17293.2 1008.83  10
   1  14  -5 17641.0 1464.20   3
   1  14  -4 413.602 735.280   5
   1  14  -4 102.599 300.518  10
  -1  14   4 147.735 762.248   5
   1  14  -3 17459.4 962.918  10
   1  14  -3 16192.3 1602.59   5
  -1  14   3 18754.8 1764.42   5
  -1  14   2-924.518 899.400   5
   1  14  -2-65.6910 280.706  10
   1  14  -2 817.518 702.661   5
  -1  14   1 17418.1 1003.90  10
   1  14  -1 19136.3 1665.25   5
  -1  14   1 17538.6 1679.17   5
   1  14  -1 16648.1 918.114  10
   1  14   0-460.196 654.972   5
  -1  14   0 205.480 328.079  10
  -1  14   0-39.7328 712.413   5
   1  14   0 121.143 276.958  10
   1  14   1 15190.9 1500.02   5
  -1  14  -1 16176.0 1673.37   5
  -1  14  -1 14604.4 928.457  10
   1  14   2-177.521 633.192   5
  -1  14  -2 1607.67 894.308   5
  -1  14  -2 979.005 416.638  10
  -1  14  -3 15989.8 1003.26  10
   1  14   3 16213.4 1544.09   5
  -1  14  -3 15680.5 1631.51   5
  -1  14  -3 17829.1 906.832   7
   1  14   4 538.885 679.878   5
  -1  14  -4-194.189 683.687   5
  -1  14  -4 173.250 335.949  10
  -1  14  -4 541.222 303.790   7
  -1  14  -5 14493.3 1015.41  10
   1  14   5 13366.4 1404.00   5
  -1  14  -5 16161.5 1434.43   5
  -1  14  -5 15354.7 905.278   7
   1  14   6-429.440 626.931   5
  -1  14  -6 740.846 476.436  10
  -1  14  -6 905.680 360.768   7
   1  14   7 16056.2 1545.02   5
  -1  14  -7 16301.7 1147.14  10
  -1  14  -7 15543.4 1009.33   7
   1  14   8 618.969 674.417   5
  -1  14  -8 689.210 487.894  10
  -1  14  -8-249.831 412.472   7
  -1  14  -9 9433.80 996.654  10
   1  14   9 9801.56 1287.28   5
  -1  14  -9 10381.2 902.926   7
  -1  14 -10 453.232 471.075   7
   1  15  -9 6851.05 814.100  10
   1  15  -8 637.202 589.634   3
   1  15  -8 4.52859 398.903  10
   1  15  -7 6030.68 1008.64   5
  -1  15   7 3598.99 987.439   5
   1  15  -7 5874.80 687.135  10
   1  15  -6 575.257 395.458  10
  -1  15   6 1036.59 846.032   5
   1  15  -6-686.264 825.326   5
  -1  15   5 7728.12 1238.66   5
   1  15  -5 4542.42 552.182  10
   1  15  -5 7515.56 1273.18   5
   1  15  -4 668.105 393.111  10
  -1  15   4-165.764 730.946   5
   1  15  -4 875.972 721.119   5
   1  15  -3 1651.41 819.774   5
  -1  15   3 2876.95 882.313   5
   1  15  -3 2387.10 437.956  10
  -1  15   2 958.512 679.978   5
   1  15  -2 330.044 299.879  10
   1  15  -2 212.441 688.649   5
   1  15  -1 4391.24 1005.34   5
  -1  15   1 3792.84 582.273  10
  -1  15   1 4050.20 1070.03   5
   1  15  -1 3582.17 489.903  10
  -1  15   0 3668.36 1043.67   5
  -1  15   0 1822.21 467.806  10
   1  15   0 2362.59 433.604  10
   1  15   0 2457.36 879.689   5
  -1  15  -1 439.420 387.672  10
   1  15   1 906.774 798.032   5
  -1  15  -1 1365.19 831.140   5
  -1  15  -2 3552.18 565.145  10
  -1  15  -2 4224.00 1129.57   5
   1  15   2 3917.44 954.851   5
   1  15   3 1499.93 751.830   5
  -1  15  -3 762.048 735.736   5
  -1  15  -3 319.199 373.198  10
  -1  15  -4 5830.12 1110.93   5
   1  15   4 6788.95 1121.86   5
  -1  15  -4 4864.78 634.105  10
  -1  15  -5-28.9503 384.284  10
   1  15   5 492.288 635.426   5
  -1  15  -5 764.542 594.317   5
   1  15   6 8330.79 1196.50   5
  -1  15  -6 7779.38 836.956  10
   1  15   7 892.123 732.271   5
  -1  15  -7 1426.79 570.846  10
  -1  15  -8 5872.76 833.549  10
   1  16  -7 11255.8 956.807  10
   1  16  -6 80.1839 771.404   5
   1  16  -6 1266.99 437.547  10
  -1  16   5 10576.2 1482.29   5
   1  16  -5 12947.1 1583.58   5
   1  16  -5 14530.2 1004.75  10
   1  16  -4 3441.73 545.890  10
   1  16  -4 3525.96 951.369   5
  -1  16   4 4777.52 1161.36   5
   1  16  -3 18455.0 1811.25   5
  -1  16   3 18662.9 1882.42   5
   1  16  -3 17027.4 1035.77  10
  -1  16   2 4465.05 1074.59   5
   1  16  -2 4633.41 586.906  10
   1  16  -2 6625.81 1251.91   5
   1  16  -1 18583.4 1799.54   5
  -1  16   1 18474.0 1869.40   5
   1  16  -1 17504.6 1034.79  10
   1  16   0 7384.11 1247.64   5
  -1  16   0 6257.41 698.734  10
  -1  16   0 6090.69 1221.49   5
   1  16   1 19018.2 1802.36   5
  -1  16  -1 18417.0 1148.73  10
  -1  16  -1 18383.3 1878.07   5
  -1  16  -2 6384.99 1199.91   5
  -1  16  -2 5654.84 681.832  10
   1  16   2 6674.08 1185.69   5
  -1  16  -3 17870.8 1911.80   5
  -1  16  -3 14352.6 1039.34  10
   1  16   3 14528.0 1590.41   5
  -1  16  -4 4699.20 663.146  10
  -1  16  -4 3582.09 973.247   5
   1  16   4 4399.94 1013.09   5
  -1  16  -5 11716.5 983.067  10
  -1  16  -6 2115.62 607.714  10
   1  17  -5 1632.01 832.817   5
   1  17  -4-701.258 993.759   5
   1  17  -3 1336.42 772.296   5
   1  17  -2 496.469 884.620   5
   1  17  -1 1477.78 939.719   5
  -1  17   1 1695.11 993.048   5
  -1  17   0 1535.10 479.919  10
   1  17   0 2402.69 971.284   5
  -1  17  -1 788.290 882.913   5
  -1  17  -1 1571.07 515.554  10
  -1  17  -2 871.737 770.213   5
  -1  17  -2 1642.89 508.797  10
  -1  17  -3 205.930 412.830  10
  -1  17  -3 199.477 752.014   5
   2 -17   0 1089.58 587.121   2
   2 -17   1 499.076 598.906   2
   2 -17   2 4265.95 810.947   2
  -2 -16   6 1441.14 592.178   2
  -2 -16   5 9823.44 1057.54   2
   2 -16  -4 3742.93 1047.51   2
  -2 -16   4 4773.90 700.879   8
  -2 -16   4 4761.03 872.635   2
   2 -16  -3 12631.5 1462.85   2
  -2 -16   3 12187.0 1223.72   2
  -2 -16   2 5061.99 875.611   2
   2 -16  -2 7006.85 1081.91   2
  -2 -16   1 15234.1 1415.89   2
   2 -16  -1 17480.8 1554.48   2
   2 -16   0 7547.32 1047.88   2
  -2 -16   0 7355.36 1078.96   2
   2 -16   1 13737.6 1018.45   1
   2 -16   1 14511.6 1055.57   8
  -2 -16  -1 13731.9 1448.56   2
   2 -16   2 6488.21 872.063   2
   2 -16   2 7062.03 792.907   1
  -2 -16  -2 7806.18 1218.35   2
   2 -16   2 7168.91 797.913   8
   2 -16   3 12003.1 973.342   1
   2 -16   3 11263.1 1052.37   2
   2 -16   3 12427.9 1034.98   8
  -2 -16  -3 12259.4 1490.36   2
   2 -16   4 5643.09 786.886   8
   2 -16   4 4716.13 682.710   1
  -2 -15   7 9079.41 887.588   8
  -2 -15   7 8082.95 940.671   2
   2 -15  -6 1272.77 740.084   2
  -2 -15   6 3447.72 611.634   8
  -2 -15   6 2639.58 639.730   2
   2 -15  -5 13739.7 1553.95   2
  -2 -15   5 13142.1 992.874   8
  -2 -15   5 11919.5 1146.86   2
   2 -15  -4 4686.51 1021.42   2
  -2 -15   4 4132.34 758.663   2
   2 -15  -3 10984.0 1369.41   2
  -2 -15   3 9110.26 1044.48   2
   2 -15  -2 9520.08 1229.40   2
  -2 -15   2 9096.69 1089.77   2
   2 -15  -1 12217.2 1271.28   2
  -2 -15   1 12620.3 1271.20   2
   2 -15   0 11083.5 1166.42   2
  -2 -15   0 11322.7 1259.64   2
  -2 -15  -1 6020.78 973.867   2
   2 -15   1 6334.40 876.067   2
   2 -15   2 9589.75 845.127   1
   2 -15   2 11140.8 1042.48   2
   2 -15   2 9729.06 869.582   8
  -2 -15  -2 9931.78 1235.13   2
  -2 -15  -3 6058.28 1076.36   2
   2 -15   3 6046.70 755.002   2
   2 -15   3 6054.79 694.206   1
   2 -15   3 5573.19 699.863   8
  -2 -15  -4 10481.7 1365.75   2
   2 -15   4 9612.64 847.658   1
   2 -15   4 9992.65 932.019   8
   2 -15   5 448.218 401.387   1
   2 -15   5 896.107 463.307   8
  -2 -15  -6 7532.16 1354.57   2
   2 -15   6 8134.92 842.695   1
   2 -15   6 8699.14 953.109   8
   2 -15   7 438.517 510.301   8
   2 -15   7 993.214 479.285   1
  -2 -14   9 2419.82 652.335   8
   2 -14  -8 8009.28 1494.45   2
  -2 -14   8 6575.77 806.370   8
   2 -14  -7 3568.48 1069.23   2
  -2 -14   7 3547.00 624.590   8
  -2 -14   7 2552.16 610.195   2
   2 -14  -6 5869.35 1153.93   2
  -2 -14   6 4893.79 644.648   8
  -2 -14   6 4591.54 738.575   2
   2 -14  -5 7278.01 1265.14   2
  -2 -14   5 5533.81 665.245   8
  -2 -14   5 6089.98 810.365   2
  -2 -14   4 6544.22 866.739   2
   2 -14  -4 6720.98 1096.04   2
  -2 -14   4 6486.38 564.193   1
   2 -14  -3 4831.53 994.479   2
  -2 -14   3 6276.51 549.873   1
  -2 -14   3 5827.49 842.444   2
   2 -14  -2 2086.83 766.485   2
  -2 -14   2 3409.74 770.631   2
  -2 -14   1 9418.40 1050.76   2
   2 -14  -1 8964.57 1065.99   2
   2 -14   0 3673.71 737.064   2
  -2 -14   0 3713.74 821.355   2
   2 -14   1 8709.37 947.532   2
  -2 -14  -1 12255.6 1303.14   2
   2 -14   2 2408.14 599.590   2
  -2 -14  -2 3194.97 859.946   2
   2 -14   2 3121.25 553.489   1
   2 -14   2 3182.90 552.223   8
  -2 -14  -3 10575.9 1292.09   2
   2 -14   3 11785.9 920.478   8
   2 -14   3 12248.0 1001.45   2
   2 -14   3 12451.5 906.181   1
   2 -14   4 2309.59 523.075   2
   2 -14   4 2462.91 508.024   1
  -2 -14  -4 3347.22 952.405   2
   2 -14   4 2637.93 567.348   8
  -2 -14  -5 10657.4 1404.98   2
   2 -14   5 11957.0 998.160   8
   2 -14   5 11318.3 914.651   1
  -2 -14  -6 1619.17 867.341   2
   2 -14   6 1543.74 508.304   1
   2 -14   6 1210.30 536.043   8
   2 -14   7 9889.33 934.404   1
  -2 -14  -7 10471.1 1482.43   2
   2 -14   7 8477.37 926.735   8
  -2 -14  -8 1828.31 983.464   2
   2 -14   8 2855.92 637.115   1
   2 -14   8 2634.71 716.413   8
  -2 -14  -9 7194.46 1274.57   2
   2 -14   9 6799.16 864.842   1
   2 -13 -10 1625.53 782.844   2
  -2 -13  10 1577.44 567.041   8
   2 -13  -9 10381.4 1384.86   2
  -2 -13   9 6119.61 767.506   8
   2 -13  -8 4021.38 1200.07   2
  -2 -13   8 3432.34 630.827   8
  -2 -13   7 9144.09 823.283   8
  -2 -13   7 8471.38 874.815   2
   2 -13  -6 2905.53 877.317   2
  -2 -13   6 3616.12 569.965   8
  -2 -13   6 4246.71 691.189   2
  -2 -13   5 10046.6 960.120   2
   2 -13  -5 10290.8 1372.53   2
  -2 -13   5 8950.00 645.243   1
  -2 -13   5 10437.4 805.973   8
   2 -13  -4 6371.06 1095.17   2
  -2 -13   4 6684.54 538.631   1
  -2 -13   4 6043.59 801.432   2
   2 -13  -3 9613.94 1236.09   2
  -2 -13   3 9808.06 635.205   1
  -2 -13   3 10476.5 1017.10   2
   2 -13  -2 6418.07 996.878   2
  -2 -13   2 7303.81 882.391   2
   2 -13  -1 7053.96 941.758   2
  -2 -13   1 7138.96 931.456   2
   2 -13   0 9724.00 1019.17   2
  -2 -13   0 9864.29 1059.27   2
   2 -13   1 3311.30 654.047   2
  -2 -13  -1 2793.36 714.782   2
   2 -13   2 10381.4 812.682   8
  -2 -13  -2 10111.6 1169.64   2
   2 -13   2 10281.0 932.310   2
   2 -13   2 11291.4 821.706   1
   2 -13   3 4636.14 636.949   2
   2 -13   3 3891.64 536.737   1
   2 -13   3 4554.90 610.409   8
  -2 -13  -3 4486.68 908.588   2
   2 -13   4 10187.0 833.792   2
   2 -13   4 10751.6 826.108   1
  -2 -13  -4 11872.9 1314.60   2
   2 -13   4 10418.9 868.867   8
   2 -13   5 1112.04 386.282   2
   2 -13   5 516.025 358.077   1
  -2 -13  -5 1121.68 786.145   2
   2 -13   5 599.132 430.112   8
  -2 -13  -6 8724.25 1289.89   2
   2 -13   6 8635.16 870.347   8
   2 -13   6 8956.97 813.145   1
  -2 -13  -7 3983.84 994.190   2
   2 -13   7 4402.14 636.010   1
   2 -13   7 3717.92 648.360   8
   2 -13   8 8457.03 887.433   1
   2 -13   8 9182.22 981.701   8
  -2 -13  -8 9938.99 1519.47   2
  -2 -13  -9 2042.62 925.382   2
   2 -13   9 2526.20 679.763   8
   2 -13   9 901.596 515.178   1
  -2 -13 -10 5142.93 982.065   2
   2 -13  10 5492.96 814.332   1
   2 -13  10 6022.32 908.945   8
  -2 -13 -11 2998.33 807.532   2
  -2 -12  12 1863.42 646.368   8
   2 -12 -11 3864.14 919.390   2
  -2 -12  11 2994.88 658.380   8
   2 -12 -10 4278.74 985.710   2
  -2 -12  10 3802.87 650.982   8
   2 -12  -9 5922.41 1051.80   2
  -2 -12   9 5206.38 707.755   8
   2 -12  -8 10105.3 1470.14   2
  -2 -12   8 8855.08 815.981   8
   2 -12  -7 9824.08 1491.84   2
  -2 -12   7 9018.40 848.138   2
  -2 -12   7 8683.99 768.172   8
   2 -12  -6 11462.8 1466.60   2
  -2 -12   6 10005.2 689.833   1
  -2 -12   6 10553.7 925.319   2
  -2 -12   6 11022.5 822.465   8
  -2 -12   5 18693.5 1020.31  11
  -2 -12   5 19125.8 903.053   1
  -2 -12   5 18141.1 1210.65   2
   2 -12  -5 20482.5 1800.69   2
  -2 -12   5 18590.0 1032.22   8
   2 -12  -4 22800.1 1817.20   2
  -2 -12   4 23398.7 1390.83   2
  -2 -12   4 21353.3 944.627   1
  -2 -12   3 27106.0 1546.76   2
  -2 -12   3 26803.5 1048.31   1
   2 -12  -3 26164.4 1877.93   2
   2 -12  -2 16750.8 1441.70   2
  -2 -12   2 18151.1 1302.00   2
  -2 -12   1 40365.3 1384.35   6
   2 -12  -1 37720.4 2039.83   2
  -2 -12   1 40250.9 1989.84   2
  -2 -12   0 28039.8 1676.31   2
   2 -12   0 26944.3 1599.44   2
  -2 -12  -1 34501.7 1934.30   2
   2 -12   1 35027.0 1746.86   2
  -2 -12  -2 14628.3 1316.57   2
   2 -12   2 13114.6 1013.96   2
   2 -12   2 12213.1 822.781   1
   2 -12   2 13962.0 876.497   8
   2 -12   3 36888.0 1517.77   1
  -2 -12  -3 39386.9 2202.36   2
   2 -12   3 38534.2 1577.58   8
   2 -12   3 38145.1 1682.01   2
   2 -12   4 16944.2 996.549   1
   2 -12   4 17519.2 1023.41   2
   2 -12   4 17200.7 1049.79   8
  -2 -12  -4 16630.9 1517.35   2
   2 -12   5 24323.8 1239.41   1
  -2 -12  -5 23801.5 1827.63   2
   2 -12   5 24200.8 1167.60   2
   2 -12   5 24512.6 1298.91   8
   2 -12   6 5569.68 700.140   8
  -2 -12  -6 5331.81 1048.25   2
   2 -12   6 5477.92 657.421   1
  -2 -12  -7 18087.8 1724.10   2
   2 -12   7 17213.0 1122.37   1
   2 -12   7 17523.4 1191.01   8
  -2 -12  -8 5755.80 1179.68   2
   2 -12   8 7013.35 844.396   8
   2 -12   8 5952.92 737.624   1
   2 -12   9 6244.53 796.700   1
  -2 -12  -9 6363.62 1158.77   2
   2 -12   9 6837.37 913.211   8
  -2 -12 -10 1997.29 767.641   2
   2 -12  10 1611.89 593.175   1
   2 -12  10 2541.30 685.569   8
   2 -12  11 4929.30 932.431   8
   2 -12  11 6244.48 900.195   1
  -2 -12 -11 5422.55 904.725   2
  -2 -12 -12 2704.66 759.165   2
   2 -11 -13 8587.73 1059.13   2
  -2 -11  13 9242.93 1093.00   8
   2 -11 -12 5179.04 869.062   2
  -2 -11  12 4451.12 791.498   8
   2 -11 -11 9969.50 1174.06   2
  -2 -11  11 9058.53 960.781   8
   2 -11 -10 5595.75 993.499   2
  -2 -11  10 3608.63 663.537   8
   2 -11  -9 20776.0 1692.99   2
  -2 -11   9 20721.3 1238.28   8
  -2 -11   8 6762.34 646.422   1
   2 -11  -8 6389.39 1200.18   2
  -2 -11   8 7018.92 722.922   8
  -2 -11   7 19886.2 991.390   1
  -2 -11   7 17569.8 1116.88   2
  -2 -11   7 17889.8 1050.39   8
   2 -11  -7 20173.9 1911.74   2
   2 -11  -6 8830.35 1291.02   2
  -2 -11   6 8393.31 799.358   2
  -2 -11   6 8289.76 695.902   8
  -2 -11   6 8209.38 575.130   1
  -2 -11   5 43615.2 1454.97   1
  -2 -11   5 41584.7 1832.48   2
  -2 -11   5 42931.0 1609.52   8
   2 -11  -5 44895.9 2575.04   2
  -2 -11   5 42263.9 1586.03  11
   2 -11  -4 17631.9 1545.81   2
  -2 -11   4 17358.9 789.307   1
  -2 -11   4 17856.9 1159.69   2
  -2 -11   3 32840.3 1630.21   2
   2 -11  -3 27627.4 1874.97   2
   2 -11  -2 22257.3 1580.20   2
  -2 -11   2 21442.9 1345.46   2
  -2 -11   1 43026.8 1443.60   6
  -2 -11   1 41581.9 1977.53   2
   2 -11  -1 42844.7 2139.59   2
  -2 -11   0 31007.4 1020.82   6
   2 -11   0 28507.1 1633.44   2
  -2 -11   0 31957.3 1731.97   2
   2 -11   1 21606.4 1305.13   2
  -2 -11  -1 19943.6 1416.68   2
  -2 -11  -2 25478.4 1663.02   2
   2 -11   2 29055.3 1442.75   2
   2 -11   2 29361.3 1251.33   8
   2 -11   3 23940.2 1123.41   1
  -2 -11  -3 24870.2 1674.51   2
   2 -11   3 24583.9 1242.04   2
   2 -11   3 23856.0 1152.15   8
  -2 -11  -4 30619.7 1940.61   2
   2 -11   4 30907.7 1344.02   2
   2 -11   4 28918.0 1293.75   1
   2 -11   4 30508.2 1366.24   8
  -2 -11  -5 7176.47 1111.77   2
   2 -11   5 8284.17 651.261   2
   2 -11   5 8086.04 682.888   1
   2 -11   5 8627.92 765.815   8
  -2 -11  -6 19920.9 1689.40   2
   2 -11   6 17800.0 1046.89   1
   2 -11   6 18652.4 1136.22   8
   2 -11   6 18055.9 888.470   2
  -2 -11  -7 12789.9 1423.10   2
   2 -11   7 10607.6 854.037   1
   2 -11   7 10925.9 919.813   8
  -2 -11  -8 16676.5 1701.63   2
   2 -11   8 16447.9 1135.60   1
   2 -11   8 18375.6 1252.98   8
  -2 -11  -9 6513.04 1182.31   2
   2 -11   9 5372.25 755.925   1
   2 -11   9 5909.10 839.408   8
   2 -11  10 9001.88 1014.88   8
  -2 -11 -10 7922.24 1080.30   2
   2 -11  10 8679.21 929.689   1
  -2 -11 -11 9262.44 1094.77   2
   2 -11  11 7152.18 1027.89   8
   2 -11  11 7427.47 941.408   1
   2 -11  12 5836.17 906.056   1
  -2 -11 -12 6450.17 912.647  10
  -2 -11 -12 6648.50 893.718   2
   2 -11  12 7577.44 1079.75   8
   2 -10 -14 3012.89 747.331   2
   2 -10 -13 1280.27 587.246   2
  -2 -10  13 1308.97 628.649   8
   2 -10 -12 11146.2 1162.49   2
  -2 -10  12 9971.05 1055.33   8
   2 -10 -11 2079.74 676.143   2
  -2 -10  11 1586.36 535.297   8
   2 -10 -10 10821.7 1177.11   2
  -2 -10  10 11890.0 997.520   8
  -2 -10   9 2471.34 470.055   1
   2 -10  -9 3309.38 858.163   2
  -2 -10   9 3171.50 569.554   8
  -2 -10   8 31740.3 1381.90   1
   2 -10  -8 29588.6 2022.09   2
  -2 -10   8 29907.4 1413.09   8
  -2 -10   7 3030.97 477.636   8
  -2 -10   7 3873.30 458.126   1
   2 -10  -7 4427.02 1043.35   2
  -2 -10   7 2861.97 508.251   2
  -2 -10   6 19496.7 1003.75   8
  -2 -10   6 19317.1 887.309   1
   2 -10  -6 20075.9 1778.71   2
  -2 -10   6 19655.4 1135.39   2
  -2 -10   6 19026.7 821.962  11
   2 -10  -5 10934.0 1316.52   2
  -2 -10   5 9121.72 549.782   1
  -2 -10   5 10592.0 833.589   2
  -2 -10   5 8380.99 641.242   8
  -2 -10   5 8725.17 612.417  11
  -2 -10   4 35719.4 1190.56   1
  -2 -10   4 35853.6 1628.36   2
   2 -10  -4 35228.0 2149.21   2
   2 -10  -3 8854.57 1077.82   2
  -2 -10   3 8623.94 809.873   2
   2 -10  -2 16254.3 1355.65   2
  -2 -10   2 17381.3 1151.71   2
  -2 -10   1 19957.1 879.681   6
  -2 -10   1 19279.3 1251.47   2
   2 -10  -1 19016.6 1336.71   2
  -2 -10   0 18549.2 726.625   6
   2 -10   0 16859.2 1212.27   2
  -2 -10   0 18900.0 1262.52   2
   2 -10   1 23139.0 1343.31   2
  -2 -10  -1 25886.1 775.234   6
  -2 -10  -1 26494.0 1552.43   2
   2 -10   2 8522.45 614.065   8
  -2 -10  -2 8301.62 922.949   2
  -2 -10  -2 6866.66 232.091   6
   2 -10   2 7201.22 278.686   4
   2 -10   2 7813.36 725.334   2
  -2 -10  -3 28732.6 1760.35   2
   2 -10   3 29406.9 1219.82   1
   2 -10   3 30151.1 1346.24   2
   2 -10   3 30534.8 1261.28   8
  -2 -10  -4 7666.16 1032.37   2
   2 -10   4 7780.74 619.075   1
   2 -10   4 7477.62 618.532   2
   2 -10   4 7230.26 636.316   8
   2 -10   5 20945.2 1058.56   1
  -2 -10  -5 21201.0 1623.88   2
   2 -10   5 22361.6 1003.96   2
   2 -10   5 21155.2 1138.87   8
  -2 -10  -6 3613.09 863.865   2
   2 -10   6 3893.37 393.918   2
   2 -10   6 3584.62 513.384   8
   2 -10   6 3318.16 497.449   1
   2 -10   7 23081.5 1237.83   1
   2 -10   7 22589.7 1303.70   8
  -2 -10  -7 23365.1 1844.65   2
   2 -10   8 4752.72 718.477   8
  -2 -10  -8 3649.86 1002.79   2
   2 -10   8 4709.79 650.951   1
  -2 -10  -9 14287.0 1501.90   2
   2 -10   9 12763.6 1108.04   8
   2 -10   9 11168.2 966.119   1
  -2 -10 -10 3215.95 828.049   2
   2 -10  10 1467.58 597.573   8
   2 -10  10 1467.75 540.256   1
   2 -10  11 8724.83 1069.34   8
  -2 -10 -11 10369.5 1099.39   2
   2 -10  11 8027.59 985.962   1
  -2 -10 -12 2992.76 669.941   2
   2 -10  12 2528.57 680.562   1
   2 -10  12 2201.36 763.614   8
  -2 -10 -12 2239.25 675.047  10
  -2 -10 -13 1663.99 564.101  10
   2 -10  13 1923.72 659.278   1
  -2 -10 -14 368.500 485.544  10
   2  -9 -15 4097.23 750.026   2
  -2  -9  14 4689.45 897.621   8
   2  -9 -14 6333.89 866.687   2
   2  -9 -13 7349.78 899.558   2
  -2  -9  13 7073.34 972.662   8
   2  -9 -12 11395.4 1091.40   2
   2  -9 -12 11821.2 982.761   4
  -2  -9  12 10176.1 1055.94   8
   2  -9 -11 5010.06 879.060   2
   2  -9 -11 7149.49 800.186   4
  -2  -9  11 6203.55 800.771   8
   2  -9 -10 12623.8 979.391   4
  -2  -9  10 11712.3 984.887   8
   2  -9 -10 11590.3 1164.52   2
  -2  -9  10 11788.3 949.078   1
   2  -9  -9 11308.6 1166.80   2
  -2  -9   9 11224.0 852.094   1
  -2  -9   9 10015.2 844.168   8
   2  -9  -9 11595.5 915.100   4
  -2  -9   8 15354.3 916.136   1
   2  -9  -8 15693.8 1065.80   4
  -2  -9   8 14341.3 935.631   8
   2  -9  -8 14368.0 1373.03   2
  -2  -9   7 8862.75 622.965   1
   2  -9  -7 8529.84 1169.74   2
   2  -9  -7 9824.57 832.703   4
  -2  -9   7 7918.96 664.029   8
  -2  -9   6 10466.8 612.476   1
   2  -9  -6 10059.5 842.513   4
  -2  -9   6 9990.07 785.557   2
  -2  -9   6 9548.20 675.179   8
   2  -9  -6 9552.33 1261.46   2
  -2  -9   6 10429.5 535.718  11
  -2  -9   5 9938.16 770.457   2
   2  -9  -5 9519.85 827.258   4
  -2  -9   5 9581.05 640.128   8
   2  -9  -5 10732.4 1270.11   2
  -2  -9   5 9738.75 543.603   1
  -2  -9   5 9278.79 578.664  11
   2  -9  -4 12004.3 967.486   4
   2  -9  -4 11779.0 1264.70   2
  -2  -9   4 11616.7 855.545   2
  -2  -9   4 10955.0 547.046   1
   2  -9  -3 8749.03 653.638   4
  -2  -9   3 8514.26 752.201   2
   2  -9  -3 9417.14 1045.16   2
   2  -9  -2 6512.04 242.134   3
   2  -9  -2 5275.44 378.712   4
   2  -9  -2 6451.51 830.323   2
   2  -9  -2 5119.18 370.228   3
  -2  -9   2 7081.20 710.074   2
   2  -9  -1 5706.66 568.596   3
   2  -9  -1 6265.93 310.996   4
   2  -9  -1 7045.07 850.919   2
  -2  -9   1 7455.46 764.032   2
  -2  -9   0 12348.1 985.911   2
  -2  -9   0 11670.2 540.298   6
   2  -9   0 11178.4 385.393   4
   2  -9   0 13063.5 1019.22   2
   2  -9   0 11148.7 481.033   4
   2  -9   0 10535.3 962.353   3
  -2  -9  -1 566.018 501.507   2
  -2  -9  -1 677.138 137.558   6
   2  -9   1 797.604 417.101   2
   2  -9   1 610.316 215.988   4
   2  -9   1 413.077 85.4665   4
  -2  -9  -2 7382.39 893.312   2
  -2  -9  -2 6877.47 240.697   6
   2  -9   2 6917.88 577.111   4
   2  -9   2 7745.01 689.495   2
   2  -9   2 6793.36 537.835   8
  -2  -9  -2 6411.32 228.219   7
   2  -9   3 17009.1 852.698   1
   2  -9   3 16924.6 936.010   2
   2  -9   3 17228.3 878.129   8
  -2  -9  -3 18034.7 1330.82   2
   2  -9   4 17701.5 883.988   2
  -2  -9  -4 16760.4 1352.72   2
   2  -9   4 16443.3 868.730   1
   2  -9   4 17216.1 925.232   8
   2  -9   5 5901.87 561.980   1
   2  -9   5 5953.68 471.614   2
  -2  -9  -5 4129.62 794.706   2
   2  -9   5 6065.91 597.442   8
   2  -9   6 6804.91 467.376   2
  -2  -9  -6 5098.31 913.271   2
   2  -9   6 5999.02 635.525   8
   2  -9   6 6570.37 623.773   1
   2  -9   7 28285.7 1360.96   1
  -2  -9  -7 27626.8 1939.53   2
   2  -9   7 30485.0 1487.94   8
   2  -9   8 12288.8 950.211   1
  -2  -9  -8 14770.8 1496.39   2
   2  -9   8 14072.7 1064.88   8
  -2  -9  -9 12714.8 1377.10   2
   2  -9   9 13689.1 1051.98   1
   2  -9   9 13454.7 1133.74   8
  -2  -9 -10 6380.94 931.068   2
   2  -9  10 4466.53 741.730   1
   2  -9  10 5472.28 837.868   8
  -2  -9 -11 17693.7 1384.47  10
  -2  -9 -11 18406.9 1357.68   2
   2  -9  11 17750.7 1461.60   8
   2  -9  11 16495.0 1333.16   1
   2  -9  12 6562.19 966.268   1
  -2  -9 -12 6646.64 893.400  10
   2  -9  12 9555.96 1173.22   8
  -2  -9 -12 9572.25 978.985   2
   2  -9  13 7394.01 1099.09   8
   2  -9  13 5265.83 924.952   1
  -2  -9 -13 5794.88 816.854  10
  -2  -9 -14 1794.97 581.984  10
   2  -9  14 772.891 716.750   1
   2  -8 -15 738.651 511.945   2
   2  -8 -15 960.964 499.265   4
  -2  -8  15 24.7559 727.924   8
   2  -8 -14 1051.57 550.210   2
   2  -8 -14 838.202 504.649   4
  -2  -8  14-377.267 706.998   8
   2  -8 -13 3042.64 706.716   2
   2  -8 -13 1873.13 555.750   4
  -2  -8  13 1596.66 672.003   8
   2  -8 -12 10985.2 987.965   4
   2  -8 -12 9730.24 1009.26   2
  -2  -8  12 9242.93 1006.74   8
   2  -8 -11 4413.26 767.095   2
  -2  -8  11 4251.30 637.221   1
   2  -8 -11 4748.37 709.255   4
  -2  -8  11 4591.68 730.406   8
   2  -8 -10 5683.17 847.808   2
  -2  -8  10 6530.24 738.955   1
  -2  -8  10 6905.45 766.603   8
   2  -8 -10 6624.53 776.148   4
  -2  -8   9 13402.6 922.982   1
   2  -8  -9 11599.7 987.703   4
   2  -8  -9 12899.3 1175.34   2
  -2  -8   9 11859.0 892.656   8
   2  -8  -8 38167.9 2074.07   2
   2  -8  -8 35124.8 1765.71   4
  -2  -8   8 37631.6 1528.04   8
  -2  -8   8 34943.5 1481.46   1
  -2  -8   7 16353.9 549.970  11
  -2  -8   7 16773.6 858.348   1
   2  -8  -7 15129.4 1157.96   4
   2  -8  -7 16486.3 1421.02   2
  -2  -8   7 16556.5 897.299   8
  -2  -8   6 30585.3 986.041  11
  -2  -8   6 29797.2 1125.46   1
  -2  -8   6 29253.5 1335.57   2
   2  -8  -6 31364.9 1825.15   4
  -2  -8   6 31089.8 1227.46   8
   2  -8  -6 31755.9 2146.15   2
  -2  -8   5 43698.0 1326.68   1
   2  -8  -5 41683.9 1833.35   4
  -2  -8   5 42225.6 1656.24   2
  -2  -8   5 42473.0 1451.63   8
   2  -8  -5 41259.1 2299.90   2
  -2  -8   5 44102.9 1374.29  11
   2  -8  -4 88572.0 2659.14   4
  -2  -8   4 85323.6 2489.94  11
  -2  -8   4 89030.1 2241.86   1
  -2  -8   4 90704.7 2742.92   2
   2  -8  -4 87165.4 3473.50   2
   2  -8  -3 43736.9 1033.19   3
   2  -8  -3 42250.5 2118.33   2
  -2  -8   3 47769.2 1756.12   2
   2  -8  -3 45154.0 1429.07   4
   2  -8  -3 43814.7 1392.70   3
   2  -8  -2 43792.2 2081.98   2
   2  -8  -2 42836.4 1077.29   3
   2  -8  -2 45899.2 1276.11   4
   2  -8  -2 44484.4 1632.56   3
  -2  -8   1 86306.4 2335.38   6
  -2  -8   1 89148.3 2790.09   2
   2  -8  -1 86896.7 2057.65   4
   2  -8  -1 85433.7 2992.44   2
   2  -8  -1 80772.6 2975.37   3
  -2  -8   0 113648. 2741.21   6
   2  -8   0 114654. 2550.45   4
  -2  -8   0 116124. 3445.17   2
   2  -8   0 110309. 3459.63   2
   2  -8   0 103114. 3719.47   3
   2  -8   0 107255. 2623.27   4
  -2  -8  -1 58855.0 1445.37   6
  -2  -8  -1 59463.6 2253.96   2
   2  -8   1 57554.3 1394.69   4
   2  -8   1 52601.5 1580.93   4
   2  -8   1 59858.8 2130.33   2
   2  -8   2 41587.3 1445.49   4
   2  -8   2 45432.8 1684.13   2
   2  -8   2 43932.3 1425.05   8
  -2  -8  -2 40551.8 971.888   7
  -2  -8  -2 43312.5 1014.94   6
   2  -8   3 61741.7 2149.44   4
   2  -8   3 64268.4 1930.01   1
   2  -8   3 64576.0 2037.48   2
   2  -8   3 64334.6 1957.70   8
  -2  -8  -3 64263.7 1514.60   7
  -2  -8  -3 66257.9 2613.90   2
  -2  -8  -4 66726.5 2734.59   2
   2  -8   4 65657.3 1972.76   1
   2  -8   4 63905.6 1910.26   2
   2  -8   4 64023.1 2004.14   8
  -2  -8  -4 60450.1 1566.27   7
   2  -8   5 34414.2 1357.89   1
   2  -8   5 34684.5 1431.45   8
  -2  -8  -5 35372.9 1985.22   2
   2  -8   5 36120.1 1211.08   2
   2  -8   6 16667.2 690.696   2
   2  -8   6 15855.9 983.123   8
   2  -8   6 16418.5 938.861   1
   2  -8   7 21308.3 1141.01   1
  -2  -8  -7 21347.0 1644.20   2
   2  -8   7 22138.4 755.958   2
   2  -8   7 21339.6 1233.03   8
   2  -8   8 25902.6 1349.76   1
   2  -8   8 25289.3 1432.77   8
  -2  -8  -8 27751.6 1955.84   2
  -2  -8  -9 7999.78 1091.03   2
   2  -8   9 6072.17 738.976   1
   2  -8   9 6500.91 819.744   8
   2  -8  10 5307.27 766.927   1
   2  -8  10 5969.87 866.581   8
  -2  -8 -10 4870.14 801.060   2
   2  -8  11 4364.84 815.481   8
  -2  -8 -11 6563.14 838.227   2
   2  -8  11 4601.61 800.443   1
  -2  -8 -11 4775.24 759.154  10
  -2  -8 -12 8104.60 856.057   2
  -2  -8 -12 6057.01 837.091  10
   2  -8  12 7323.93 1068.19   8
   2  -8  12 6650.59 953.574   1
  -2  -8 -13 1025.00 518.478  10
   2  -8  13 74.8256 808.859   8
   2  -8  13 591.092 553.126   1
   2  -8  14 2091.27 691.933   8
   2  -8  14 927.971 708.618   1
  -2  -8 -14 1486.13 580.878  10
  -2  -8 -15 2979.57 674.737  10
   2  -7 -16 9589.09 1001.75   4
   2  -7 -15 4222.99 672.242   2
  -2  -7  15 3117.23 757.345   8
   2  -7 -15 3345.95 697.664   4
   2  -7 -14 10917.2 1034.12   4
  -2  -7  14 8982.68 1127.44   8
   2  -7 -14 11001.6 1017.05   2
   2  -7 -13 14851.5 1179.65   4
  -2  -7  13 13264.8 1267.05   8
   2  -7 -13 15198.6 1192.79   2
  -2  -7  12 22262.9 1230.22   1
   2  -7 -12 20961.8 1403.47   4
  -2  -7  12 21100.2 1486.75   8
   2  -7 -12 21633.6 1419.29   2
   2  -7 -11 10136.2 964.413   4
  -2  -7  11 10110.1 964.365   8
  -2  -7  11 10076.4 853.632   1
   2  -7 -11 10090.6 991.781   2
  -2  -7  10 17478.6 1149.66   8
   2  -7 -10 17790.5 1271.55   4
   2  -7 -10 16483.2 1251.67   2
  -2  -7  10 21196.3 1265.54   1
   2  -7  -9 35686.7 1868.84   2
  -2  -7   9 35741.7 1565.44   8
  -2  -7   9 36153.3 1597.36   1
   2  -7  -9 33935.4 1828.36   4
  -2  -7   8 24797.1 1182.98   1
   2  -7  -8 22768.6 1528.94   4
  -2  -7   8 22812.1 1130.09   8
   2  -7  -8 23195.7 1532.84   2
   2  -7  -8 22867.8 847.241   3
  -2  -7   7 16535.2 887.339   8
  -2  -7   7 16395.6 858.684   1
  -2  -7   7 16441.1 521.585  11
   2  -7  -7 16066.7 1283.56   4
   2  -7  -7 18585.2 1403.46   2
   2  -7  -7 16497.4 647.922   3
   2  -7  -6 17019.6 1158.18   4
  -2  -7   6 18144.2 633.169  11
  -2  -7   6 17236.3 836.289   8
   2  -7  -6 19051.4 1517.55   2
  -2  -7   6 17597.2 797.172   1
   2  -7  -6 16575.4 641.495   3
  -2  -7   5 64926.7 2076.57   2
  -2  -7   5 63595.3 1710.32   1
  -2  -7   5 64264.2 1718.75  11
   2  -7  -5 61143.7 2833.33   2
  -2  -7   5 64010.5 1832.22   8
   2  -7  -5 60222.5 2100.11   4
  -2  -7   4 18263.5 655.749   1
   2  -7  -4 17514.1 1383.94   2
   2  -7  -4 17060.5 837.623   4
  -2  -7   4 18162.6 964.182   2
  -2  -7   4 18645.1 802.151  11
   2  -7  -4 16792.5 506.622   3
   2  -7  -3 19222.0 533.717   3
  -2  -7   3 20339.4 1029.92   2
  -2  -7   3 18835.1 649.110   1
   2  -7  -3 19703.4 776.174   4
   2  -7  -3 19977.3 1401.85   2
   2  -7  -2 13914.4 439.734   3
  -2  -7   2 14548.0 887.623   2
  -2  -7   2 14622.5 582.324   1
   2  -7  -2 14522.9 549.977   4
   2  -7  -2 14684.7 1102.36   2
   2  -7  -2 12390.2 648.370   3
  -2  -7   2 14728.1 627.281  10
  -2  -7   1 63504.4 1820.63   6
  -2  -7   1 65790.0 2181.35   2
   2  -7  -1 65259.0 1587.14   4
  -2  -7   1 67217.6 1707.96  10
   2  -7  -1 60625.9 2376.32   2
   2  -7  -1 58555.2 1990.12   3
  -2  -7   0 24824.4 1229.50   2
   2  -7   0 24897.6 1291.32   2
  -2  -7   0 24496.7 812.763   6
  -2  -7   0 25340.5 788.987  10
   2  -7   0 24217.2 693.898   4
   2  -7   0 23070.5 1177.99   3
  -2  -7  -1 21868.8 705.291  10
   2  -7   1 22143.8 766.147   4
  -2  -7  -1 22088.1 667.766   6
  -2  -7  -1 22190.4 1209.69   2
   2  -7   1 23636.0 1161.37   2
  -2  -7  -2 19535.8 505.797   7
  -2  -7  -2 21415.5 690.497  10
   2  -7   2 23753.0 895.542   1
  -2  -7  -2 21136.2 563.142   6
  -2  -7  -2 22240.4 1253.31   2
   2  -7   2 23376.0 885.720   8
   2  -7   2 23335.8 1067.22   2
   2  -7   2 21886.1 858.550   4
   2  -7   3 61755.2 1841.18   1
  -2  -7  -3 66032.7 2438.05   2
   2  -7   3 64500.7 1951.26   2
   2  -7   3 62080.3 1871.09   8
   2  -7   3 57146.6 1947.45   4
  -2  -7  -3 62074.6 1471.53   7
   2  -7   4 42508.5 1379.86   2
  -2  -7  -4 43353.6 2038.95   2
   2  -7   4 43464.9 1512.11   8
   2  -7   4 42083.0 1450.83   1
   2  -7   5 28182.0 967.030   5
   2  -7   5 27072.9 1152.29   1
  -2  -7  -5 28709.7 1701.64   2
   2  -7   5 28741.8 974.577   2
   2  -7   5 27405.1 1222.21   8
   2  -7   6 25717.4 1160.25   1
   2  -7   6 24122.6 800.888   2
  -2  -7  -6 24410.8 1646.22   2
   2  -7   6 23171.3 1197.88   8
   2  -7   7 50044.6 1889.47   1
   2  -7   7 51093.4 1313.06   2
  -2  -7  -7 52974.7 2598.51   2
   2  -7   7 51450.2 2013.93   8
   2  -7   8 32016.6 1525.65   1
  -2  -7  -8 33949.8 2139.15   2
   2  -7   8 33133.4 1652.46   8
   2  -7   9 20833.8 1292.89   1
   2  -7   9 20805.9 1386.16   8
  -2  -7  -9 22649.7 1665.93   2
  -2  -7 -10 12092.8 1057.33  10
  -2  -7 -10 15138.9 1226.43   2
   2  -7  10 11599.5 1087.07   8
   2  -7  10 11675.6 1047.71   1
  -2  -7 -11 25268.8 1552.70  10
   2  -7  11 28365.1 1711.08   1
   2  -7  11 26814.3 1776.31   8
  -2  -7 -12 15160.2 1185.08  10
  -2  -7 -12 18233.7 1168.49   2
   2  -7  12 14811.2 1449.23   8
   2  -7  12 14934.5 1313.77   1
   2  -7  13 10361.4 1194.51   8
  -2  -7 -13 11328.6 1055.77  10
   2  -7  13 9746.81 1180.69   1
  -2  -7 -14 4557.07 756.379  10
   2  -7  14 4113.32 881.781   8
   2  -7  14 3275.44 861.268   1
  -2  -7 -15 11632.9 1079.56  10
   2  -7  15 10206.8 1252.11   1
  -2  -6  16 4547.60 790.426   8
   2  -6 -16 3603.19 682.331   4
   2  -6 -15 1196.93 476.581   2
   2  -6 -15 1087.84 610.441  10
   2  -6 -15 810.281 537.050   4
  -2  -6  15 139.342 526.775   8
   2  -6 -14 2423.00 646.067   4
  -2  -6  14 1737.15 626.618   8
   2  -6 -14 2879.62 598.238   2
  -2  -6  13 2609.17 503.901   1
   2  -6 -13 2527.90 643.897   4
   2  -6 -13 1953.83 568.465   2
  -2  -6  13 3178.72 821.818   8
  -2  -6  12 26558.3 1654.46   8
   2  -6 -12 24480.2 1557.08   4
   2  -6 -12 26489.9 1510.51   2
  -2  -6  12 26146.7 1315.93   1
   2  -6 -11 4807.61 699.352   2
  -2  -6  11 5131.37 611.730   1
  -2  -6  11 4277.80 691.459   8
   2  -6 -11 4416.86 756.653   4
   2  -6 -10 14660.5 1231.26   4
  -2  -6  10 15170.0 1078.33   8
   2  -6 -10 14595.1 1136.06   2
  -2  -6  10 14599.3 972.887   1
   2  -6 -10 14880.6 812.370   3
   2  -6  -9 9527.94 938.615   2
  -2  -6   9 10594.1 820.415   8
   2  -6  -9 10152.5 659.760   3
  -2  -6   9 10014.4 861.113   1
   2  -6  -9 9150.44 1043.85   4
   2  -6  -8 75585.1 2910.91   2
  -2  -6   8 76629.0 2454.64   8
   2  -6  -8 78836.8 3230.08   4
   2  -6  -8 78766.0 2324.79   3
  -2  -6   8 82501.1 2563.76   1
   2  -6  -7 13595.7 815.529   3
  -2  -6   7 12545.4 416.971  11
   2  -6  -7 14282.7 1166.20   2
  -2  -6   7 12618.7 747.283   8
  -2  -6   7 12481.2 757.818   1
   2  -6  -7 13295.2 1077.46   4
   2  -6  -6 29454.4 1441.51   4
  -2  -6   6 32516.8 1175.27   1
   2  -6  -6 33701.7 1875.67   2
  -2  -6   6 31694.1 1182.09   8
  -2  -6   6 31029.1 899.551  11
   2  -6  -6 31655.6 1118.32   3
  -2  -6   5 16482.9 895.087   2
   2  -6  -5 17841.5 1488.91   2
   2  -6  -5 16932.7 912.800   4
  -2  -6   5 17579.1 702.460   1
  -2  -6   5 18359.1 667.012  11
  -2  -6   5 16233.6 749.110   8
   2  -6  -5 17244.0 629.371   3
  -2  -6   4 122000. 3298.11   2
   2  -6  -4 129340. 4229.48   2
   2  -6  -4 121470. 3101.67   4
  -2  -6   4 119489. 2835.34   1
  -2  -6   4 122274. 2997.00  11
   2  -6  -4 117621. 2723.76   3
  -2  -6   3 22457.9 1034.81   2
   2  -6  -3 21251.9 600.126   3
  -2  -6   3 21279.7 906.059  11
  -2  -6   3 21358.3 869.428  10
   2  -6  -3 21321.5 781.623   4
   2  -6  -3 20465.7 1394.93   2
  -2  -6   3 21245.9 658.878   1
  -2  -6   2 35786.5 1099.62  10
   2  -6  -2 34402.1 904.433   3
  -2  -6   2 37550.7 1416.44   2
  -2  -6   2 36371.4 1014.29   1
   2  -6  -2 34601.8 1006.84   4
   2  -6  -2 36934.6 1791.11   2
  -2  -6   1 27808.7 967.594   6
  -2  -6   1 29233.9 864.910  10
  -2  -6   1 29585.5 1253.71   2
   2  -6  -1 28421.9 807.815   4
   2  -6  -1 25795.6 1398.74   2
  -2  -6   1 28530.2 898.070   1
  -2  -6   0 100653. 2408.95   6
  -2  -6   0 102058. 2342.06  10
   2  -6   0 98519.7 2298.42   4
  -2  -6   0 97741.8 2506.05   1
   2  -6   0 92325.8 3003.22   2
  -2  -6   0 103953. 2946.64   2
  -2  -6  -1 23017.6 675.193   6
   2  -6   1 22454.0 1098.19   2
  -2  -6  -1 23367.9 682.187  10
  -2  -6  -1 23845.4 1168.51   2
  -2  -6  -2 10146.4 295.854   7
   2  -6   2 11723.5 555.663   4
   2  -6   2 12439.4 598.684   1
  -2  -6  -2 11661.5 857.191   2
   2  -6   2 11636.5 580.232   8
   2  -6   2 12861.7 734.948   2
  -2  -6  -2 11347.8 419.869  10
  -2  -6  -2 10455.3 357.858   7
  -2  -6  -2 11227.7 351.962   6
   2  -6   3 32390.4 1187.31   5
   2  -6   3 32060.8 1199.16   4
  -2  -6  -3 34250.2 1554.47   2
   2  -6   3 32006.7 1168.83   8
   2  -6   3 33618.9 1200.13   2
   2  -6   3 33298.0 1156.54   1
  -2  -6  -3 32829.8 958.213  10
   2  -6   4 51022.5 1538.73   5
  -2  -6  -4 55070.6 2165.58   2
   2  -6   4 54029.6 1675.91   1
   2  -6   4 50941.4 1527.37   2
   2  -6   4 55324.9 1744.59   8
   2  -6   5 15285.4 599.320   5
   2  -6   5 14238.0 802.652   1
   2  -6   5 16177.6 612.019   2
   2  -6   5 15972.7 898.616   8
  -2  -6  -5 15553.8 1161.40   2
   2  -6   6 4300.64 517.883   1
   2  -6   6 3881.14 236.309   2
  -2  -6  -6 2976.02 678.962   2
   2  -6   6 4154.65 565.757   8
   2  -6   7 19612.0 1151.02   8
   2  -6   7 20974.1 1108.17   1
  -2  -6  -7 22705.3 1527.34   2
   2  -6   8 23644.9 1287.79   1
   2  -6   8 22169.3 1345.50   8
  -2  -6  -8 24621.9 1713.90   2
  -2  -6  -9 4520.24 674.390  10
   2  -6   9 3639.78 606.900   1
   2  -6   9 4525.92 740.078   8
   2  -6  10 1740.62 562.542   1
  -2  -6 -10 1899.84 532.306  10
   2  -6  10 629.481 582.414   8
  -2  -6 -11 9449.70 859.775   2
  -2  -6 -11 7340.24 830.524  10
   2  -6  11 7250.53 1059.01   8
   2  -6  11 7314.85 946.257   1
  -2  -6 -12 9752.97 836.619   2
  -2  -6 -12 8863.65 902.320  10
   2  -6  12 9702.52 1162.35   8
   2  -6  12 8474.29 1046.45   1
  -2  -6 -13 884.088 534.829  10
   2  -6  13 316.864 640.480   8
   2  -6  13 1045.90 695.849   1
  -2  -6 -14 2152.96 594.580  10
   2  -6  14 2272.36 757.429   1
   2  -6  14 875.799 557.543   8
   2  -6  15 4281.46 878.447   1
  -2  -6 -15 4119.34 681.277  10
   2  -6  15 3501.49 839.784   8
  -2  -6 -16 2779.63 628.327  10
  -2  -6 -16 2652.12 640.070   7
   2  -5 -16 13185.4 1165.49   4
  -2  -5  16 15244.5 1250.42   8
   2  -5 -15 3345.40 600.090   2
   2  -5 -15 798.772 670.179  10
   2  -5 -15 4631.63 795.309   4
  -2  -5  15 1846.81 583.387   8
  -2  -5  14 13998.7 1212.04   8
   2  -5 -14 14732.2 1231.70   4
   2  -5 -14 11107.3 1268.08  10
   2  -5 -14 13229.6 1054.79   2
   2  -5 -13 8544.36 869.047   2
  -2  -5  13 8378.36 965.657   8
  -2  -5  13 8665.35 746.448   1
   2  -5 -13 7130.10 897.520   4
   2  -5 -12 33393.9 1876.00   4
  -2  -5  12 39652.1 2065.54   8
   2  -5 -12 34231.4 1464.70   3
  -2  -5  12 35846.3 1544.73   1
   2  -5 -12 33499.9 1694.84   2
   2  -5 -11 2019.39 412.508   3
  -2  -5  11 1828.10 402.486   1
   2  -5 -11 896.142 587.408   4
  -2  -5  11 826.386 458.782   8
   2  -5 -11 1176.76 486.262   2
   2  -5 -10 27802.0 1508.05   2
  -2  -5  10 28945.8 1493.60   8
   2  -5 -10 26738.9 1758.27   4
  -2  -5  10 30133.1 1338.46   1
   2  -5 -10 27524.2 1280.22   3
   2  -5  -9 5551.21 591.390   3
  -2  -5   9 6103.25 600.788   1
   2  -5  -9 6183.40 978.343   4
  -2  -5   9 5474.51 621.503   8
   2  -5  -9 5946.47 741.167   2
  -2  -5   8 47253.6 1736.34   8
   2  -5  -8 46594.1 2051.38   2
   2  -5  -8 47386.9 2232.00   4
  -2  -5   8 49433.1 1830.24   1
   2  -5  -8 44580.9 1847.83   3
  -2  -5   7 1028.88 114.604  11
   2  -5  -7 904.898 298.230   3
  -2  -5   7 1213.85 349.881   1
   2  -5  -7 713.192 439.476   2
   2  -5  -7 800.276 421.682   4
  -2  -5   7 1521.88 334.501   8
  -2  -5   6 39563.1 1055.70  11
   2  -5  -6 38389.2 1579.36   4
  -2  -5   6 42036.9 1378.09   8
   2  -5  -6 39811.9 1916.22   2
   2  -5  -6 38499.0 1284.05   3
  -2  -5   6 40134.9 1382.09   1
  -2  -5   5 2141.82 208.643  11
   2  -5  -5 2035.57 356.081   4
   2  -5  -5 2646.24 237.811   3
  -2  -5   5 2307.29 287.063   8
   2  -5  -5 2171.15 577.235   2
  -2  -5   5 2605.06 285.797   1
  -2  -5   4 32642.2 944.728   1
   2  -5  -4 32195.1 1108.83   4
   2  -5  -4 30872.5 882.154   3
  -2  -5   4 32690.2 1027.08  11
   2  -5  -4 34339.1 1933.48   2
  -2  -5   4 33403.9 1274.74   2
  -2  -5   4 32228.7 1034.60   8
   2  -5  -3 15938.5 500.513   3
  -2  -5   3 15898.2 700.161  11
  -2  -5   3 16623.2 514.481   1
  -2  -5   3 16086.0 745.506  10
  -2  -5   3 17136.9 858.602   2
   2  -5  -3 15387.9 621.946   4
   2  -5  -3 15872.7 582.626   8
   2  -5  -3 16003.6 1252.15   2
  -2  -5   2 25314.5 839.014  10
  -2  -5   2 22981.3 921.423   6
   2  -5  -2 22845.6 661.947   3
  -2  -5   2 25692.1 1065.53   2
  -2  -5   2 23687.4 696.887   1
  -2  -5   2 23919.2 971.937  11
   2  -5  -2 24302.9 745.867   4
   2  -5  -2 24616.1 1400.23   2
  -2  -5   1 22656.4 811.990   6
  -2  -5   1 24040.3 1053.82   2
   2  -5  -1 24065.2 1285.79   2
  -2  -5   1 23240.0 723.697   1
   2  -5  -1 22564.8 681.150   4
  -2  -5   1 23250.4 705.877  10
   2  -5   0 2667.84 469.191   2
  -2  -5   0 2970.04 227.988   6
  -2  -5   0 3446.98 275.837   1
  -2  -5   0 2765.28 170.871  10
  -2  -5   0 2840.88 420.876   2
   2  -5   0 2947.06 191.204   4
  -2  -5  -1 24514.3 656.139  10
  -2  -5  -1 23450.2 750.469   3
  -2  -5  -1 24740.9 700.455   6
   2  -5   1 25159.1 832.074   8
  -2  -5  -1 25889.6 1134.13   2
  -2  -5  -1 22877.3 898.404   1
   2  -5   1 21735.8 1062.96   2
   2  -5   2 7804.21 418.559   4
   2  -5   2 7198.10 517.482   5
   2  -5   2 7269.52 541.281   2
  -2  -5  -2 7462.22 299.818  10
   2  -5   2 7764.24 449.145   1
  -2  -5  -2 7010.93 626.590   2
  -2  -5  -2 6947.22 269.931   6
   2  -5   2 6946.87 432.196   8
  -2  -5  -2 6792.18 268.141   7
  -2  -5  -3 71386.7 1730.61  10
   2  -5   3 67176.8 1942.72   5
  -2  -5  -3 70881.1 2316.33   2
   2  -5   3 70267.1 1949.46   1
   2  -5   3 68781.9 1981.83   8
   2  -5   3 68685.7 1944.77   2
   2  -5   4 4746.12 427.911   1
   2  -5   4 4567.26 318.920   5
  -2  -5  -4 5034.92 614.037   2
   2  -5   4 4535.09 327.928   2
   2  -5   4 4339.28 431.826   8
   2  -5   5 36199.0 1016.72   5
   2  -5   5 37663.6 1377.69   1
  -2  -5  -5 37214.6 1677.67   2
   2  -5   5 38071.8 1024.13   2
   2  -5   5 36673.5 1448.39   8
   2  -5   6 1514.76 209.812  11
   2  -5   6 1482.54 110.228   2
   2  -5   6 2498.62 477.906   8
   2  -5   6 1656.98 381.570   1
  -2  -5  -6 1296.79 480.907   2
   2  -5   7 75706.0 2432.57   1
   2  -5   7 69922.6 1908.86  11
  -2  -5  -7 79066.6 2870.28   2
   2  -5   7 69641.9 2512.62   8
   2  -5   8 15168.2 1045.07   1
  -2  -5  -8 15105.4 1066.47  10
   2  -5   8 16577.2 1186.94   8
  -2  -5  -9 31511.4 1563.36  10
  -2  -5  -9 35136.3 1823.28   2
   2  -5   9 32559.9 1793.78   8
   2  -5   9 31138.0 1630.46   1
  -2  -5 -10 2821.44 569.980  10
  -2  -5 -10 3660.86 588.331   2
   2  -5  10 2451.97 688.637   8
   2  -5  10 3741.41 705.288   1
  -2  -5 -11 41623.4 1887.24  10
  -2  -5 -11 46517.1 1830.54   2
   2  -5  11 45487.7 2275.66   8
   2  -5  11 38625.5 2114.86   1
  -2  -5 -12 11804.7 1004.83  10
   2  -5  12 11021.3 1173.01   1
   2  -5  12 13330.5 1230.55   8
  -2  -5 -13 16522.5 1193.47  10
   2  -5  13 14956.4 1286.57   8
   2  -5  13 16291.9 1471.50   1
  -2  -5 -14 2346.03 591.344  10
   2  -5  14 2729.82 734.388   1
   2  -5  14 2019.16 682.089   8
   2  -5  15 14634.1 1291.53   8
   2  -5  15 17465.4 1457.67   1
  -2  -5 -15 16110.0 1221.05  10
  -2  -5 -16 5202.51 797.424  10
  -2  -5 -16 6306.04 826.503   7
  -2  -4  17 2177.22 643.999   8
   2  -4 -16 4013.97 860.122  10
  -2  -4  16 3294.84 674.054   8
   2  -4 -16 5776.56 869.149   4
   2  -4 -15 1108.82 482.872   2
   2  -4 -15 1792.72 653.178  10
   2  -4 -15 2655.82 684.775   4
  -2  -4  15 1959.77 602.861   8
  -2  -4  14 809.351 400.818   1
   2  -4 -14 893.356 421.678   2
   2  -4 -14 889.349 585.985  10
  -2  -4  14 710.054 546.841   8
   2  -4 -14 647.872 519.122   4
   2  -4 -13 4816.20 650.737   2
  -2  -4  13 4485.64 588.555   1
   2  -4 -13 5667.89 632.565   3
   2  -4 -13 6187.95 908.151   4
  -2  -4  13 5735.64 784.730   8
   2  -4 -12 14982.3 1312.81   4
  -2  -4  12 16347.2 1240.56   8
  -2  -4  12 17274.9 1012.84   1
   2  -4 -12 17889.3 1177.08   2
   2  -4 -12 16736.0 1054.17   3
   2  -4 -11 10997.1 933.557   2
   2  -4 -11 9464.22 1079.38   4
  -2  -4  11 11334.0 823.804   1
  -2  -4  11 10797.5 1058.32   8
   2  -4 -11 10748.7 841.484   3
   2  -4 -10 5699.79 659.776   3
   2  -4 -10 5897.52 1003.59   4
   2  -4 -10 5482.63 707.567   2
  -2  -4  10 4573.29 718.057   8
  -2  -4  10 6088.67 581.489   1
  -2  -4   9 31378.9 1304.81   1
   2  -4  -9 29638.1 1870.62   4
  -2  -4   9 30464.8 1453.35   8
   2  -4  -9 30727.4 1546.35   2
   2  -4  -9 29198.2 1567.42   3
  -2  -4   8 69448.9 2329.48   8
   2  -4  -8 73997.1 2618.27   2
  -2  -4   8 71049.9 2224.59   1
   2  -4  -8 69239.4 2732.33   4
   2  -4  -8 69967.9 2402.96   3
   2  -4  -7 34461.9 1620.54   4
  -2  -4   7 38638.6 1417.33   8
   2  -4  -7 38915.6 1756.99   2
  -2  -4   7 38439.2 1438.53   1
   2  -4  -7 36896.0 1406.63   3
   2  -4  -6 29257.2 1276.39   4
  -2  -4   6 27223.0 1069.51   8
   2  -4  -6 29725.2 1076.40   3
   2  -4  -6 30415.3 1570.82   2
  -2  -4   6 30479.0 1253.39   1
  -2  -4   6 27238.2 805.001  11
  -2  -4   5 109187. 2825.86   1
   2  -4  -5 110505. 2820.25   8
   2  -4  -5 109944. 3536.07   2
  -2  -4   5 110527. 2586.62  11
  -2  -4   5 108360. 2767.96   8
   2  -4  -5 109737. 2670.74   3
   2  -4  -5 109587. 2944.00   4
  -2  -4   4 199969. 4624.25   1
   2  -4  -4 204442. 4564.74   3
  -2  -4   4 217565. 5287.85  10
   2  -4  -4 204404. 4783.92   4
  -2  -4   4 205466. 4640.24  11
   2  -4  -4 200907. 4666.62   8
  -2  -4   4 201872. 4680.78   8
   2  -4  -4 223536. 5857.49   2
   2  -4  -3 59803.6 1467.24   3
  -2  -4   3 62268.5 1667.20  11
  -2  -4   3 60254.1 1438.98   1
   2  -4  -3 59166.4 1596.36   4
   2  -4  -3 59780.6 1523.11   8
  -2  -4   3 59366.9 1856.27  10
  -2  -4   3 61290.8 1880.30   2
   2  -4  -3 64104.8 2620.43   2
  -2  -4   2 101420. 2562.86   6
   2  -4  -2 100418. 2340.42   4
   2  -4  -2 95108.0 2256.30   3
  -2  -4   2 100900. 2711.79   2
  -2  -4   2 96848.9 2214.87   1
  -2  -4   2 100334. 2567.53  11
  -2  -4   2 100264. 2352.63   4
  -2  -4   2 95774.9 2479.43  10
  -2  -4   1 122137. 2899.34   1
  -2  -4   1 126551. 3033.25   6
   2  -4  -1 126486. 2893.58   3
  -2  -4   1 132875. 3334.21   2
  -2  -4   1 126778. 3272.63  11
  -2  -4   1 127451. 2913.53  10
   2  -4  -1 132441. 2906.00   4
   2  -4  -1 123272. 3706.94   2
  -2  -4   0 337183. 7211.28   6
   2  -4   0 316410. 7845.17   5
  -2  -4   0 325313. 7055.65  10
  -2  -4   0 320752. 7614.00   2
  -2  -4   0 342842. 7245.68   3
  -2  -4   0 326176. 7313.18   1
   2  -4   0 327651. 7901.19   2
  -2  -4  -1 63553.9 1544.01   6
  -2  -4  -1 64486.1 1976.32   2
  -2  -4  -1 63079.3 1608.09   3
   2  -4   1 61909.3 1996.81   5
  -2  -4  -1 65030.2 1451.52  10
   2  -4   1 65574.9 1667.14   8
  -2  -4  -1 61585.3 1824.40   1
   2  -4   1 62490.0 2014.76   2
   2  -4   2 122274. 2929.54   1
  -2  -4  -2 115311. 3186.69   1
   2  -4   2 116457. 3077.62   5
  -2  -4  -2 121047. 3227.91   2
  -2  -4  -2 122504. 2670.50  10
  -2  -4  -2 120210. 2674.46   7
   2  -4   2 121126. 2943.14   8
   2  -4   2 118727. 3095.56   2
  -2  -4  -2 114402. 2673.28   6
   2  -4   3 52720.2 1549.67   5
  -2  -4  -3 54396.8 1835.09   2
   2  -4   3 55275.7 1536.11  11
   2  -4   3 54565.3 1554.82   2
   2  -4   3 56592.9 1610.21   1
   2  -4   3 55095.6 1658.77   8
  -2  -4  -3 52488.7 1485.00   7
   2  -4   4 253747. 5820.56   5
   2  -4   4 271125. 5948.49  11
  -2  -4  -4 267274. 6434.98   2
   2  -4   4 262756. 6257.03   8
   2  -4   4 274189. 6152.19   1
   2  -4   4 256697. 5823.51   2
  -2  -4  -5 16847.5 985.209   2
   2  -4   5 14876.9 450.717   5
   2  -4   5 16879.3 847.238   1
   2  -4   5 14902.9 896.769   8
   2  -4   5 15904.0 641.066  11
   2  -4   5 14596.2 449.325   2
   2  -4   6 72667.6 2252.75   1
   2  -4   6 66750.8 1830.85  11
  -2  -4  -6 67440.2 2332.71  10
   2  -4   6 67420.4 2350.69   8
  -2  -4  -6 68947.5 2392.50   2
   2  -4   7 7858.24 719.481   1
  -2  -4  -7 7917.40 715.205  10
  -2  -4  -7 9555.81 845.100   2
   2  -4   7 7117.50 790.298   8
  -2  -4  -8 88796.8 2923.23  10
   2  -4   8 89489.2 3227.76   8
   2  -4   8 89802.8 3027.98   1
   2  -4   9 1355.34 496.647   1
   2  -4   9 192.101 653.860   8
  -2  -4  -9 1052.53 476.329   2
  -2  -4  -9 639.046 401.794  10
  -2  -4 -10 16315.2 1104.07  10
  -2  -4 -10 20229.0 1115.82   2
   2  -4  10 16364.9 1301.10   8
   2  -4  10 16105.0 1262.16   1
  -2  -4 -11 2532.46 436.419   2
  -2  -4 -11 2575.71 558.811  10
   2  -4  11 2837.25 752.212   1
   2  -4  11 3541.78 725.451   8
   2  -4  12 22870.0 1525.01   8
  -2  -4 -12 20251.8 1269.23  10
   2  -4  12 23412.7 1728.00   1
  -2  -4 -13 474.616 360.589  11
  -2  -4 -13 487.283 427.478  10
   2  -4  13 383.898 559.287   1
   2  -4  13 829.760 526.200   8
   2  -4  14 3306.18 683.433   8
  -2  -4 -14 2882.88 484.244  11
  -2  -4 -14 3575.61 639.862  10
   2  -4  14 4385.57 814.559   1
  -2  -4 -15 1729.93 554.578  10
   2  -4  15 2420.20 709.935   8
   2  -4  15 3760.96 782.349   1
  -2  -4 -15 3385.98 704.290   7
  -2  -4 -16 5296.38 804.870   7
   2  -4  16 4441.57 795.080   1
  -2  -3  17 2180.35 594.769   8
  -2  -3  16 23291.2 1500.89   6
   2  -3 -16 19382.6 1505.57  10
   2  -3 -16 20870.0 1510.21   4
  -2  -3  16 18084.3 1278.92   8
   2  -3 -15 2089.11 472.770   2
   2  -3 -15 3515.45 762.221   4
   2  -3 -15 1424.57 604.111  10
  -2  -3  15 2851.72 645.602   8
  -2  -3  15 1455.79 444.582   1
   2  -3 -14 14470.3 1297.18  10
   2  -3 -14 13447.0 1226.49   4
  -2  -3  14 12948.6 1088.18   8
  -2  -3  14 14590.6 982.219   1
   2  -3 -14 13335.0 992.255   2
   2  -3 -14 13393.0 995.973   3
   2  -3 -13 6599.36 929.963   4
   2  -3 -13 5871.63 909.680  10
  -2  -3  13 7479.97 706.836   1
  -2  -3  13 7268.01 819.301   8
   2  -3 -13 7879.33 778.877   2
   2  -3 -13 8229.91 787.777   3
   2  -3 -12 39139.8 2188.84   4
  -2  -3  12 43349.1 1955.55   8
  -2  -3  12 44551.5 1747.81   1
   2  -3 -12 42478.8 1851.52   2
   2  -3 -12 42774.4 1880.76   3
  -2  -3  11 5605.61 588.611   1
   2  -3 -11 4849.57 657.470   3
   2  -3 -11 5904.26 706.455   2
  -2  -3  11 5480.93 719.548   8
   2  -3 -11 4200.33 817.409   4
   2  -3 -10 31967.2 2094.50   4
  -2  -3  10 31439.6 1655.30   8
  -2  -3  10 30961.7 1345.02   1
   2  -3 -10 29903.6 1495.44   2
   2  -3 -10 32272.0 1681.55   3
   2  -3  -9 25676.2 1664.14   4
  -2  -3   9 27238.7 1200.79   1
  -2  -3   9 25399.4 1390.10   8
   2  -3  -9 27324.1 1468.69   3
   2  -3  -9 26066.7 1365.04   2
  -2  -3   8 79617.5 2351.53   1
   2  -3  -8 75940.4 2806.91   4
  -2  -3   8 74469.9 2494.16   8
   2  -3  -8 78394.2 2665.51   2
   2  -3  -8 75541.0 2524.93   3
  -2  -3   7 15528.6 861.051   8
   2  -3  -7 16626.7 1071.14   2
   2  -3  -7 17640.6 901.159   3
  -2  -3   7 16530.4 833.454   1
   2  -3  -7 15309.6 1003.74   4
   2  -3  -6 60560.3 2237.58   2
   2  -3  -6 60723.2 1761.75   3
  -2  -3   6 57838.8 1477.72  11
   2  -3  -6 60371.6 1968.68   4
  -2  -3   6 60528.3 1810.61   8
  -2  -3   6 55944.6 1778.64   1
   2  -3  -5 56816.1 1745.72   8
  -2  -3   5 59718.1 1500.28  11
   2  -3  -5 60176.4 1800.47   4
   2  -3  -5 58687.9 2227.83   2
  -2  -3   5 58956.9 1671.64   8
   2  -3  -5 59421.2 1612.44   3
  -2  -3   5 56258.2 1700.80   1
   2  -3  -4 71465.1 1803.67   3
  -2  -3   4 71798.9 1812.83  11
  -2  -3   4 74686.3 1949.29   1
  -2  -3   4 74494.0 1866.15   8
   2  -3  -4 71325.1 1888.29   8
   2  -3  -4 70366.1 2551.39   2
   2  -3  -4 71887.7 1950.97   4
   2  -3  -3 51095.7 1365.33   6
  -2  -3   3 49772.6 1371.49  11
   2  -3  -3 49799.7 2075.87   2
   2  -3  -3 50418.6 1340.69   1
   2  -3  -3 49256.4 1357.76   4
   2  -3  -3 51737.4 1279.27   8
  -2  -3   3 46469.4 1249.48   1
   2  -3  -3 49339.1 1261.41   3
  -2  -3   3 50085.5 1556.41   6
   2  -3  -2 75323.3 1845.71   6
   2  -3  -2 69706.6 1724.80   3
   2  -3  -2 72221.7 1787.82   4
  -2  -3   2 75099.3 2122.96   2
  -2  -3   2 75397.3 1950.01  11
   2  -3  -2 71624.0 1687.51   8
  -2  -3   2 71937.0 1939.57   6
   2  -3  -2 79031.0 2859.02   2
  -2  -3   2 74247.1 1805.49   4
   2  -3  -2 74156.0 1836.51  10
   2  -3  -1 121275. 2890.30   6
  -2  -3   1 123744. 2905.80   6
  -2  -3   1 127321. 2899.78   3
   2  -3  -1 129815. 3765.62   5
  -2  -3   1 118975. 3071.54  11
  -2  -3   1 127397. 3171.82   2
   2  -3  -1 121463. 2794.47   3
   2  -3  -1 125950. 2859.22  10
   2  -3  -1 128901. 3798.01   2
  -2  -3   1 116343. 2796.68   1
   2  -3  -1 122095. 2800.69   4
  -2  -3   0 46263.2 1211.50   6
   2  -3   0 47119.2 1218.90  10
   2  -3   0 47364.1 1784.10   2
  -2  -3   0 47320.9 1488.27   2
  -2  -3   0 45662.4 1228.58   3
   2  -3   0 48287.8 1781.97   5
   2  -3   0 45562.0 1174.92   8
  -2  -3   0 46340.1 1517.27  11
  -2  -3   0 45972.2 1209.27   8
  -2  -3   0 42331.1 1356.51   1
   2  -3   0 48344.6 1404.87  11
   2  -3   0 47416.0 1294.50   6
   2  -3   1 110803. 2634.98   8
   2  -3   1 115417. 2652.63   1
   2  -3   1 110578. 3040.89   5
   2  -3   1 113279. 2598.75  10
  -2  -3  -1 113679. 2910.42   2
  -2  -3  -1 111582. 3029.68  11
  -2  -3  -1 114007. 2645.46   8
   2  -3   1 113930. 2754.70  11
  -2  -3  -1 111071. 2401.93   7
  -2  -3  -1 110243. 2993.68   1
  -2  -3  -1 107071. 2374.28  10
   2  -3   1 109956. 3040.75   2
  -2  -3  -1 109542. 2519.46   6
  -2  -3  -2 39871.0 1015.91   7
   2  -3   2 38768.4 1311.36   5
  -2  -3  -2 42096.7 1379.74   2
  -2  -3  -2 40377.9 1211.63   8
   2  -3   2 42237.5 1220.49  11
   2  -3   2 41385.8 1248.01   8
   2  -3   2 40745.0 1198.51   1
   2  -3   2 39365.3 1319.60   2
  -2  -3  -2 40092.3 1599.29   1
  -2  -3  -2 38074.8 1015.87   6
  -2  -3  -3 112230. 2968.45  10
   2  -3   3 111288. 2814.69   1
   2  -3   3 108378. 2712.67   5
  -2  -3  -3 110200. 2959.04   2
   2  -3   3 108904. 2724.99   2
   2  -3   3 108746. 2910.66   8
   2  -3   3 116215. 2743.54  11
  -2  -3  -3 107316. 2668.19   7
   2  -3   4 25140.8 1016.16   1
   2  -3   4 23943.6 717.786   5
   2  -3   4 25849.6 868.026  11
   2  -3   4 23765.6 716.645   2
  -2  -3  -4 24934.6 1063.79   2
  -2  -3  -4 24708.8 1089.19  10
   2  -3   4 22656.5 1071.52   8
  -2  -3  -4 23827.7 952.398   7
  -2  -3  -5 84963.5 2511.76   2
   2  -3   5 85256.5 2490.98   1
  -2  -3  -5 83260.7 2565.07  10
   2  -3   5 86734.1 2206.22  11
   2  -3   5 80426.4 2644.44   8
   2  -3   6 23671.1 869.681  11
   2  -3   6 23967.3 1165.40   1
  -2  -3  -6 22739.4 1114.93   2
  -2  -3  -6 23517.6 1155.58  10
   2  -3   6 23546.9 1302.47   8
   2  -3   7 90109.0 3223.16   8
   2  -3   7 92294.1 2967.62   1
  -2  -3  -7 92771.2 2887.74  10
  -2  -3  -7 97041.0 2898.01   2
   2  -3   8 31101.6 1695.98   8
  -2  -3  -8 30094.0 1440.80  10
  -2  -3  -8 32262.6 1478.75   2
   2  -3   8 29504.9 1552.00   1
  -2  -3  -9 40180.9 1720.50  10
  -2  -3  -9 42844.4 1709.58   2
   2  -3   9 40366.9 1956.71   8
   2  -3   9 38606.0 1922.64   1
  -2  -3 -10 8504.86 798.403  10
  -2  -3 -10 9459.07 698.326   2
   2  -3  10 9460.47 1036.74   1
   2  -3  10 10277.4 1002.51   8
   2  -3  11 41430.5 2015.77   8
  -2  -3 -11 38894.1 1808.72  10
  -2  -3 -11 44643.0 1540.72   2
   2  -3  11 46657.7 2357.19   1
  -2  -3 -12 16975.4 1157.78  10
   2  -3  12 19098.5 1443.37   1
  -2  -3 -12 16744.4 1037.35  11
   2  -3  12 18866.1 1332.22   8
   2  -3  13 16037.7 1244.27   8
  -2  -3 -13 17116.8 1021.70  11
  -2  -3 -13 14770.4 1119.72  10
   2  -3  13 15441.7 1304.01   1
   2  -3  14 3262.35 717.369   1
   2  -3  14 2304.31 653.655   8
  -2  -3 -14 2408.25 608.630  10
  -2  -3 -14 2120.25 586.184   7
  -2  -3 -15 16325.7 1220.88  10
   2  -3  15 20466.3 1425.59   8
   2  -3  15 20242.8 1468.27   1
  -2  -3 -15 17689.9 1289.59   7
   2  -3  16 6773.29 934.664   1
  -2  -3 -16 5549.73 816.454  10
   2  -3  16 8370.41 960.992   8
  -2  -3 -16 6409.00 840.736   7
  -2  -2  17 806.534 548.983   6
  -2  -2  17 1022.90 496.848   8
  -2  -2  16 9087.46 988.185   6
   2  -2 -16 7441.92 968.227  10
   2  -2 -16 8886.88 1080.13   4
  -2  -2  16 7236.17 827.269   8
  -2  -2  15 1052.45 551.653   6
   2  -2 -15 1656.86 523.300   3
   2  -2 -15 885.943 546.081   4
   2  -2 -15 1122.45 581.227  10
  -2  -2  15 949.511 436.746   1
  -2  -2  15 950.659 471.324   8
   2  -2 -14 789.751 462.725   3
   2  -2 -14 601.795 584.637  10
   2  -2 -14 1799.95 688.750   4
  -2  -2  14 1270.60 516.541   8
   2  -2 -14 441.351 351.534   2
  -2  -2  14 1561.79 497.646   1
   2  -2 -13 4791.53 708.139   3
   2  -2 -13 4735.62 784.010  10
   2  -2 -13 4755.75 622.359   2
   2  -2 -13 4846.63 835.187   4
  -2  -2  13 5838.17 722.093   8
  -2  -2  13 5721.92 624.386   1
  -2  -2  12 34479.4 1544.91   1
   2  -2 -12 37495.2 1660.15   2
  -2  -2  12 34260.2 1648.69   8
   2  -2 -12 36949.1 2121.07   4
   2  -2 -12 35529.7 1775.12   3
   2  -2 -12 36159.9 1947.90  10
   2  -2 -11 7002.09 706.806   2
   2  -2 -11 6867.21 834.426   3
  -2  -2  11 6563.10 658.251   1
   2  -2 -11 6342.12 883.508  10
   2  -2 -11 6308.08 1035.33   4
  -2  -2  11 6406.97 721.181   8
  -2  -2  10 5748.11 600.425   1
   2  -2 -10 5340.97 804.893   3
   2  -2 -10 7336.34 1104.81   4
   2  -2 -10 6253.10 683.042   2
  -2  -2  10 5543.11 675.939   8
   2  -2  -9 21222.3 1308.61   3
  -2  -2   9 23757.5 1301.50   8
   2  -2  -9 23659.5 1541.62   4
  -2  -2   9 23189.9 1154.75   1
   2  -2  -9 24700.1 1292.11   2
  -2  -2   8 107468. 3142.56   1
  -2  -2   8 115939. 3495.11   8
   2  -2  -8 116173. 3447.40   2
   2  -2  -8 113455. 3608.34   4
   2  -2  -8 108812. 3308.22   3
  -2  -2   7 20007.4 1070.97   8
   2  -2  -7 23109.2 1234.89   2
   2  -2  -7 20572.3 1149.22   4
   2  -2  -7 22856.0 1067.03   3
  -2  -2   7 21884.6 1052.32   1
   2  -2  -6 22413.9 1264.30   2
   2  -2  -6 22282.4 1036.09   4
   2  -2  -6 21084.9 1086.90   8
  -2  -2   6 20442.9 696.189  11
  -2  -2   6 20158.3 954.246   8
  -2  -2   6 24472.8 1097.44   1
   2  -2  -6 20102.2 909.830   3
   2  -2  -5 38367.2 1190.02   3
  -2  -2   5 39730.0 1292.64   1
   2  -2  -5 35095.9 1386.81   8
   2  -2  -5 38841.6 1314.43   4
  -2  -2   5 37357.6 1236.56   8
  -2  -2   5 38659.5 1073.30  11
   2  -2  -4 206633. 4735.77   3
  -2  -2   4 207655. 5084.58   6
   2  -2  -4 211310. 4767.67   1
  -2  -2   4 217245. 4723.19  11
   2  -2  -4 207469. 4854.19   4
   2  -2  -4 199212. 4887.44   8
  -2  -2   4 213953. 4771.57   8
  -2  -2   4 208211. 4699.62   1
   2  -2  -3 34042.3 1016.40   6
   2  -2  -3 35668.2 1023.30  10
   2  -2  -3 34018.9 947.769   1
   2  -2  -3 32483.7 997.585   4
  -2  -2   3 33309.7 918.373   8
  -2  -2   3 32093.4 1122.42   6
  -2  -2   3 33798.1 995.291  11
   2  -2  -3 32770.0 934.191   3
   2  -2  -3 33325.2 947.575   8
   2  -2  -2 36737.4 1045.38   6
  -2  -2   2 36815.8 1110.03   6
  -2  -2   2 36764.0 1068.87   3
   2  -2  -2 35223.2 995.339   4
  -2  -2   2 35980.5 1087.33  11
  -2  -2   2 36258.8 1012.12   4
   2  -2  -2 36611.1 1204.39  11
   2  -2  -2 37370.4 1011.10  10
   2  -2  -2 34779.4 871.865   8
   2  -2  -2 40414.0 1784.21   5
   2  -2  -2 36183.0 965.739   3
   2  -2  -2 36732.7 1029.64   7
   2  -2  -1 33060.5 959.662   6
  -2  -2   1 32253.7 952.809   6
   2  -2  -1 32676.4 887.029  10
  -2  -2   1 32808.6 1067.98  11
  -2  -2   1 33441.0 950.131   3
   2  -2  -1 35071.7 1647.60   5
   2  -2  -1 33361.9 1081.58  11
   2  -2  -1 31691.2 883.621   3
   2  -2  -1 31424.0 885.678   4
   2  -2  -1 32767.7 922.072   7
  -2  -2   0 263836. 5681.93   3
  -2  -2   0 253299. 5926.81  11
  -2  -2   0 257791. 5656.62   6
   2  -2   0 283063. 6860.09   5
   2  -2   0 264823. 5850.13  11
  -2  -2   0 252478. 5939.47   2
  -2  -2   0 256571. 5622.38   8
   2  -2   0 247863. 5615.71   8
   2  -2   0 260185. 5667.38   7
   2  -2   0 262802. 5624.43  10
  -2  -2   0 239013. 5751.45   1
   2  -2   0 258718. 5726.66   6
   2  -2   1 7064.50 308.663  10
  -2  -2  -1 6523.75 461.814   2
   2  -2   1 7526.32 668.228   5
   2  -2   1 6502.15 350.230   1
   2  -2   1 6771.26 396.034  11
  -2  -2  -1 6062.05 487.752  11
  -2  -2  -1 6262.37 339.591   8
   2  -2   1 6547.77 387.505   8
  -2  -2  -1 7072.87 572.984   1
  -2  -2  -1 6819.30 242.994   7
   2  -2   1 6464.71 323.221   7
   2  -2   1 6536.92 365.063   6
  -2  -2  -1 6598.10 297.017   6
   2  -2   2 50349.4 1325.21  10
   2  -2   2 53244.0 1690.00   5
   2  -2   2 52289.4 1431.24   1
   2  -2   2 49068.1 1543.08   8
  -2  -2  -2 50800.7 1535.26   2
  -2  -2  -2 48544.2 1442.81   8
  -2  -2  -2 50394.2 1306.24  10
  -2  -2  -2 51599.6 1262.55   7
   2  -2   2 49966.7 1358.88   7
  -2  -2  -2 49841.6 1691.13  11
  -2  -2  -2 47316.1 1257.18   6
   2  -2   2 51242.5 1431.38  11
   2  -2   3 19096.8 722.153  11
  -2  -2  -3 17320.4 965.566  11
   2  -2   3 18980.1 796.635   1
   2  -2   3 18212.6 725.376   5
   2  -2   3 19354.3 694.270  10
  -2  -2  -3 18039.9 663.251   7
  -2  -2  -3 17509.8 773.955  10
  -2  -2  -3 17985.8 786.765   2
  -2  -2  -3 17727.8 815.292   8
   2  -2   3 17417.7 918.618   8
  -2  -2  -3 19890.0 1145.74   1
   2  -2   4 195277. 4669.75   1
   2  -2   4 188403. 4217.02   5
   2  -2   4 181789. 4117.25   2
  -2  -2  -4 190847. 4564.44   2
   2  -2   4 195699. 4440.81  11
   2  -2   4 189491. 4997.33   8
   2  -2   4 189945. 4220.48   2
  -2  -2  -4 205969. 5046.82  11
  -2  -2  -4 193294. 4534.54   7
  -2  -2  -4 207483. 4893.25  10
   2  -2   5 1762.46 233.771  11
  -2  -2  -5 1727.98 438.374  10
   2  -2   5 1676.65 388.147   1
  -2  -2  -5 1367.92 305.630   7
  -2  -2  -5 2075.90 325.380   2
   2  -2   5 1157.39 497.588   8
  -2  -2  -6 23517.3 1011.54   2
   2  -2   6 23520.9 1378.08   8
  -2  -2  -6 25976.4 1270.06  10
   2  -2   6 22818.6 1206.61   1
   2  -2   7 4973.92 702.541   8
  -2  -2  -7 6364.56 644.759  10
  -2  -2  -7 6161.95 525.580   2
   2  -2   7 5501.92 686.616   1
  -2  -2  -8 87102.2 2874.72  10
   2  -2   8 87050.8 3032.84   8
   2  -2   8 83073.5 3058.44   1
  -2  -2  -9 185.566 256.038   2
  -2  -2  -9 627.568 354.055  11
  -2  -2  -9 367.229 402.448  10
   2  -2   9-249.076 549.802   1
   2  -2   9-368.701 490.873   8
   2  -2  10 7380.74 960.807   1
  -2  -2 -10 6965.63 656.973  11
  -2  -2 -10 7030.68 747.130  10
  -2  -2 -10 8195.38 542.713   2
   2  -2  10 6900.75 828.922   8
  -2  -2 -11 1816.87 418.971  11
  -2  -2 -11 1521.66 510.931  10
   2  -2  11 1901.89 591.995   1
   2  -2  11 1481.05 517.366   8
  -2  -2 -12 21438.7 1130.64  11
  -2  -2 -12 20490.6 1275.08  10
   2  -2  12 22455.6 1404.28   8
   2  -2  12 24476.2 1533.17   1
  -2  -2 -12 22284.5 1400.38   7
  -2  -2 -13 389.004 412.464  10
   2  -2  13 1481.87 640.065   1
   2  -2  13 548.381 543.530   8
  -2  -2 -13 977.481 362.510  11
  -2  -2 -13 892.948 526.197   7
   2  -2  14 3435.75 706.058   1
  -2  -2 -14 2796.57 590.801  10
   2  -2  14 2197.76 649.987   8
  -2  -2 -14 4138.60 711.351   7
   2  -2  15 392.125 541.371   1
  -2  -2 -15 1151.72 544.172  10
   2  -2  15 1439.54 587.631   8
  -2  -2 -15 1245.77 491.675   7
  -2  -2 -16 4215.16 721.441  10
   2  -2  16 3050.74 712.978   1
   2  -2  16 3173.70 711.081   8
  -2  -2 -16 3617.92 723.019   7
  -2  -1  17 903.555 541.826   6
  -2  -1  17 219.531 402.272   8
  -2  -1  16 22245.9 1441.08   6
   2  -1 -16 25804.7 1706.96   4
   2  -1 -16 22829.8 1532.97  10
  -2  -1  16 21511.2 1301.96   1
  -2  -1  16 20686.4 1325.89   8
   2  -1 -16 23361.7 1452.12   3
  -2  -1  15 1051.10 519.259   6
   2  -1 -15 215.754 440.378   3
  -2  -1  15 709.919 443.601   8
   2  -1 -15 350.796 467.241   4
  -2  -1  15 96.3111 371.693   1
   2  -1 -15 475.511 550.026  10
  -2  -1  14 12119.8 1078.57   6
   2  -1 -14 11243.1 1097.47  10
   2  -1 -14 10794.2 1179.43   4
  -2  -1  14 12532.3 955.715   1
   2  -1 -14 12921.9 938.405   2
  -2  -1  14 11454.7 949.254   8
   2  -1 -14 11336.3 1016.84   3
  -2  -1  13 1284.32 474.324   8
  -2  -1  13 1513.99 575.419   6
   2  -1 -13 829.343 481.249   3
   2  -1 -13 1048.38 393.973   2
   2  -1 -13 1266.86 566.811  10
   2  -1 -13 75.9155 584.043   4
  -2  -1  13 959.668 419.990   1
  -2  -1  12 48260.0 1938.12   8
   2  -1 -12 43636.3 2114.78  10
   2  -1 -12 47699.5 2494.25   4
   2  -1 -12 50112.4 1949.59   2
  -2  -1  12 47700.6 1902.70   1
   2  -1 -12 45299.9 2153.98   3
   2  -1 -11-926.663 655.049   3
   2  -1 -11 784.338 544.556  10
   2  -1 -11 27.7128 344.756   2
   2  -1 -11 8.39910 787.553   4
  -2  -1  11 843.670 410.660   8
  -2  -1  11-50.7593 357.295   1
   2  -1 -10 35541.2 1863.37  10
   2  -1 -10 43605.0 2352.60   4
  -2  -1  10 39110.0 1663.79   8
  -2  -1  10 40838.4 1676.70   1
  -2  -1  10 39423.6 1134.30   9
   2  -1 -10 39620.1 1698.21   2
   2  -1 -10 39617.1 2009.88   3
   2  -1  -9 2060.54 499.070   3
   2  -1  -9 2026.76 618.199   4
  -2  -1   9 1914.81 452.903   8
   2  -1  -9 2034.58 457.801   2
  -2  -1   9 1310.75 400.927   1
   2  -1  -8 82072.1 2940.32   4
  -2  -1   8 85032.7 2723.07   8
   2  -1  -8 88475.0 2866.36   2
   2  -1  -8 81592.4 2777.19   3
   2  -1  -7 14410.0 949.988   4
  -2  -1   7 16764.4 906.570   1
  -2  -1   7 17476.8 987.252   8
   2  -1  -7 17572.0 938.323   3
  -2  -1   6 93935.1 2891.30   6
   2  -1  -6 97043.5 2672.29   3
   2  -1  -6 96567.8 2785.65   4
  -2  -1   6 100326. 2649.51   1
   2  -1  -6 95413.9 2762.94   8
  -2  -1   5 40486.5 1150.09  11
   2  -1  -5 40160.5 1263.56   3
   2  -1  -5 38675.7 1257.23   1
  -2  -1   5 39982.7 1445.88   6
   2  -1  -5 41792.4 1389.59  11
  -2  -1   5 39969.1 1186.13   1
  -2  -1   5 38831.4 1399.55   8
   2  -1  -5 38207.0 1374.42   8
   2  -1  -5 39767.4 1340.12   4
  -2  -1   4 121222. 2783.86  11
  -2  -1   4 114809. 3006.90   6
   2  -1  -4 117773. 2810.19   3
   2  -1  -4 115645. 2882.02   4
  -2  -1   4 114035. 2661.17   1
   2  -1  -4 116453. 2780.69   1
   2  -1  -4 117145. 2981.94   8
  -2  -1   4 111545. 2849.06   8
   2  -1  -4 120228. 3005.76  11
  -2  -1   3 80829.9 2219.41   6
   2  -1  -3 88469.2 2169.23   6
  -2  -1   3 87791.1 2164.81   3
  -2  -1   3 85574.6 2117.08  11
   2  -1  -3 86111.8 2079.74   3
   2  -1  -3 83408.9 2016.47   1
   2  -1  -3 86233.3 2129.27   4
  -2  -1   3 84129.1 2032.09   8
   2  -1  -3 86025.4 2270.21  11
   2  -1  -3 88694.7 2201.00   8
  -2  -1   2 125070. 3099.77   6
   2  -1  -2 132540. 3079.01   6
  -2  -1   2 129788. 3099.32  11
   2  -1  -2 127248. 2993.80   3
  -2  -1   2 129960. 3058.28   3
  -2  -1   2 134512. 3034.43   4
   2  -1  -2 130655. 3195.45  11
   2  -1  -2 127008. 3544.59   5
   2  -1  -2 131619. 2992.14  10
  -2  -1   2 132768. 2875.08   8
   2  -1  -2 133274. 3025.25   7
   2  -1  -2 130258. 3018.39   4
  -2  -1   1 128409. 3029.80   6
   2  -1  -1 131425. 2923.40  10
  -2  -1   1 130494. 2854.45   8
   2  -1  -1 127976. 2972.36   3
  -2  -1   1 131124. 3015.79   3
   2  -1  -1 122460. 3460.41   5
   2  -1  -1 133322. 3170.31  11
  -2  -1   1 130698. 3126.34  11
   2  -1  -1 129058. 2972.86   4
   2  -1  -1 131899. 2975.97   7
   2  -1  -1 134877. 3050.22   6
  -2  -1   0 46381.3 1202.64   6
   2  -1   0 46358.3 1172.74   1
   2  -1   0 45544.7 1200.58   3
  -2  -1   0 46171.9 1212.38   3
   2  -1   0 45820.0 1121.29  10
  -2  -1   0 45868.9 1151.66   8
   2  -1   0 41342.5 1541.13   5
  -2  -1   0 46084.1 1126.09   1
   2  -1   0 46048.4 1330.41  11
   2  -1   0 46990.7 1247.91   6
  -2  -1   0 45387.0 1371.03  11
   2  -1   0 50277.3 1490.79   8
  -2  -1   0 45899.3 1104.47   7
   2  -1   0 46358.9 1175.56   7
  -2  -1  -1 125887. 2826.71  10
  -2  -1  -1 129184. 3104.86   1
   2  -1   1 135516. 3064.76   1
   2  -1   1 123939. 3374.70   5
  -2  -1  -1 137982. 3286.88  11
  -2  -1  -1 133788. 2918.77   7
   2  -1   1 130309. 3511.14   8
   2  -1   1 134050. 3166.88  11
   2  -1   1 132105. 2993.30   7
   2  -1   1 133940. 2940.86  10
  -2  -1  -1 126501. 3099.85   8
   2  -1   1 137231. 3082.93   6
  -2  -1  -1 131088. 2986.96   6
   2  -1   2 75334.1 1927.28   1
  -2  -1  -2 70401.4 2046.83   1
   2  -1   2 67814.9 2051.26   5
   2  -1   2 71363.7 1794.15   7
   2  -1   2 72367.8 1758.58  10
  -2  -1  -2 73174.7 2069.17  11
  -2  -1  -2 70203.9 1927.21   2
  -2  -1  -2 71368.8 1690.83  10
  -2  -1  -2 68454.0 1993.48   8
   2  -1   2 71026.2 2291.04   8
  -2  -1  -2 69892.7 1747.30   6
   2  -1   2 72930.3 1911.82  11
  -2  -1  -2 72642.0 1738.45   7
   2  -1   2 72662.0 1859.35   6
  -2  -1  -3 176979. 4571.84   1
   2  -1   3 169657. 4637.99   8
   2  -1   3 181712. 4123.00  10
   2  -1   3 181117. 4184.82  11
   2  -1   3 192685. 4350.59   5
  -2  -1  -3 176582. 4093.97  10
   2  -1   3 175826. 4311.37   1
   2  -1   3 173924. 3936.93   2
  -2  -1  -3 179717. 4175.04   2
  -2  -1  -3 162353. 4426.99   8
  -2  -1  -3 174261. 4074.60   7
  -2  -1  -3 172120. 4420.16  11
   2  -1   3 177260. 4119.74   7
   2  -1   3 180409. 4178.45   6
   2  -1   4 1929.64 210.876   5
   2  -1   4 1851.71 253.667  10
   2  -1   4 1092.54 323.355   1
   2  -1   4 1191.49 195.938  11
   2  -1   4 1435.27 113.122   2
  -2  -1  -4 1565.72 280.824  10
  -2  -1  -4 1664.35 359.237  11
   2  -1   4 1906.63 473.475   8
  -2  -1  -4 1968.07 257.538   2
  -2  -1  -4 1565.73 268.594   7
   2  -1   5 82178.6 1833.07   5
   2  -1   5 76909.9 1873.79   5
  -2  -1  -5 89240.6 2644.32  11
  -2  -1  -5 91197.9 2198.65   2
  -2  -1  -5 89580.6 2542.44  10
   2  -1   5 86941.8 2731.71   8
   2  -1   5 78885.3 1829.29   2
   2  -1   5 83596.9 2617.98   1
  -2  -1  -5 88627.5 2421.21   7
   2  -1   6 10939.8 873.458   8
  -2  -1  -6 12097.5 588.918   2
  -2  -1  -6 11215.3 855.474  11
  -2  -1  -6 12267.0 899.582  10
  -2  -1  -6 11047.7 782.464   7
   2  -1   6 10375.6 871.638   1
   2  -1   7 96698.7 3195.00   8
  -2  -1  -7 106535. 3266.01  11
   2  -1   7 99493.3 3370.43   1
  -2  -1  -7 97341.8 3191.56   7
  -2  -1  -7 101736. 2645.17   2
  -2  -1  -8 13093.8 899.876  11
  -2  -1  -8 12316.7 993.500  10
  -2  -1  -8 15835.2 721.134   2
   2  -1   8 12380.4 983.694   8
   2  -1   8 15311.7 1245.23   1
  -2  -1  -8 14549.6 1096.28   7
  -2  -1  -9 43666.3 1899.74  10
  -2  -1  -9 47751.4 1401.83   2
   2  -1   9 39362.9 1847.46   8
  -2  -1  -9 41810.4 1671.32  11
   2  -1   9 41694.6 2053.45   1
  -2  -1  -9 46751.1 2266.63   7
  -2  -1 -10 399.640 141.608   9
   2  -1  10 769.495 560.076   1
  -2  -1 -10 495.220 425.877  10
  -2  -1 -10 546.369 159.408   2
  -2  -1 -10-129.953 521.652   7
   2  -1  10 710.006 478.436   8
  -2  -1 -10 712.852 312.666  11
  -2  -1 -11 45101.9 1693.28  11
   2  -1  11 46913.0 2044.64   8
   2  -1  11 48685.3 2179.72   1
  -2  -1 -11 46890.5 2161.55   7
  -2  -1 -11 44931.5 1973.58  10
  -2  -1 -12 12094.6 787.095  11
  -2  -1 -12 13964.5 1068.77  10
   2  -1  12 13342.9 1068.25   8
   2  -1  12 12767.9 1103.27   1
  -2  -1 -12 13369.7 1105.54   7
  -2  -1 -13 16172.5 1158.61  10
   2  -1  13 17118.4 1233.34   8
   2  -1  13 16393.2 1246.08   1
  -2  -1 -13 15500.2 1212.46   7
   2  -1  14 343.542 469.814   1
  -2  -1 -14 1062.93 551.064   7
   2  -1  14 456.371 507.138   8
  -2  -1 -14 348.070 424.536  10
   2  -1  15 18262.3 1358.59   1
   2  -1  15 19414.5 1356.92   8
  -2  -1 -15 17267.7 1244.69  10
  -2  -1 -15 17226.7 1303.33   7
   2  -1  16 5816.98 862.078   1
  -2  -1 -16 3394.63 668.435  10
  -2  -1 -16 6041.45 846.112   7
   2  -1  16 6194.09 824.834   8
  -2   0  17 546.429 484.774   6
   2   0 -17 1399.39 561.628   3
  -2   0  17 359.578 450.235   8
  -2   0  16 4436.22 718.872   6
   2   0 -16 6048.73 828.352   3
   2   0 -16 6253.69 845.734  10
   2   0 -16 6408.64 954.946   4
  -2   0  16 3511.74 633.201   8
  -2   0  16 4586.77 677.577   1
   2   0 -15 3389.70 803.087   4
   2   0 -15 1635.55 603.579  10
   2   0 -15 1572.25 591.211   3
  -2   0  15 2599.45 636.402   6
  -2   0  15 2033.41 562.398   1
  -2   0  15 1990.34 544.191   8
  -2   0  14 673.010 477.690   6
   2   0 -14 1839.58 570.392   3
   2   0 -14 1407.29 583.174  10
   2   0 -14 378.843 533.143   4
  -2   0  14 1601.06 478.358   8
  -2   0  14 1180.48 436.710   1
   2   0 -14 919.825 386.552   2
  -2   0  13 6557.74 813.026   6
   2   0 -13 7664.11 912.244   3
   2   0 -13 7635.10 1051.13   4
   2   0 -13 6998.39 843.509  10
  -2   0  13 7460.69 762.911   8
  -2   0  13 7920.75 786.213   1
   2   0 -13 8491.64 737.481   2
  -2   0  12 17896.9 1283.11   6
   2   0 -12 20890.7 1372.93  10
   2   0 -12 17741.2 1574.83   4
  -2   0  12 19138.0 1136.15   8
   2   0 -12 19991.4 1155.26   2
   2   0 -12 19060.2 1430.63   3
  -2   0  12 17886.0 1142.70   1
   2   0 -11 12592.4 921.463   2
  -2   0  11 14297.8 1169.47   6
   2   0 -11 12351.2 1055.56  10
  -2   0  11 14031.7 948.773   8
  -2   0  11 15095.5 1034.00   1
   2   0 -11 14265.0 1318.06   3
   2   0 -11 10820.1 1349.91   4
   2   0 -10 618.229 411.290   2
  -2   0  10-415.189 633.623   6
   2   0 -10 430.019 519.061   3
   2   0 -10 1092.04 505.870  10
  -2   0  10 786.182 383.455   8
   2   0 -10 1664.70 719.327   4
  -2   0  10-44.4618 394.584   1
  -2   0   9 45945.5 2062.47   6
   2   0  -9 40505.5 1903.37  10
  -2   0   9 44308.9 1323.29   9
  -2   0   9 45197.0 1775.08   5
   2   0  -9 44086.7 2137.43   4
   2   0  -9 42960.8 1985.54   3
  -2   0   9 42757.5 1702.33   8
  -2   0   8 73940.1 2598.99   6
  -2   0   8 73191.5 2031.98   9
  -2   0   8 70613.8 2359.96   8
   2   0  -8 79956.9 2750.21   4
  -2   0   8 75009.8 2403.43   1
   2   0  -8 75956.9 2761.45  10
   2   0  -8 72969.8 2588.75   3
  -2   0   8 70677.8 2453.92   5
  -2   0   7 58648.6 2089.53   6
  -2   0   7 58164.9 2147.50   5
  -2   0   7 58474.9 1995.63   8
   2   0  -7 60478.7 2054.08   3
  -2   0   7 59926.2 1898.79   1
   2   0  -7 63341.9 2150.72   4
   2   0  -7 59642.1 1860.28  11
  -2   0   6 12660.6 986.808   5
  -2   0   6 10379.9 761.047   6
   2   0  -6 12995.4 818.001   4
  -2   0   6 9409.62 581.319   1
   2   0  -6 11892.6 749.741   3
   2   0  -6 10894.9 706.203   8
   2   0  -6 10990.9 646.584  11
   2   0  -6 12906.4 838.511   1
  -2   0   6 10402.7 716.441   8
  -2   0   5 131653. 3398.41   6
  -2   0   5 130088. 3126.15   1
  -2   0   5 133025. 3464.87   8
   2   0  -5 131485. 3261.84   8
   2   0  -5 129372. 3276.15   3
   2   0  -5 135756. 3301.60  11
   2   0  -5 123315. 3315.26   1
   2   0  -5 132832. 3347.46   4
   2   0  -4 298802. 6714.37   3
  -2   0   4 310109. 6864.87   6
  -2   0   4 310924. 7378.26   5
  -2   0   4 305167. 6708.65  11
   2   0  -4 301708. 6802.19  11
  -2   0   4 290674. 6535.12   1
  -2   0   4 302326. 6950.52   8
   2   0  -4 301508. 6620.33   8
   2   0  -4 290318. 6680.53   1
   2   0  -4 302231. 6764.43   4
  -2   0   3 80414.3 2117.31   6
   2   0  -3 81547.1 2118.38   6
  -2   0   3 78609.6 2433.71   5
  -2   0   3 84452.9 2054.53   3
   2   0  -3 79851.2 2385.50   5
  -2   0   3 84860.7 2084.87  11
   2   0  -3 83386.6 2057.57   4
   2   0  -3 82961.9 2150.19  11
  -2   0   3 82196.6 2052.87   4
  -2   0   3 84360.8 2165.26   8
   2   0  -3 81383.3 1922.01   1
   2   0  -3 80275.1 1862.33   8
   2   0  -3 82235.4 2039.99   3
  -2   0   2 93157.8 2285.77  11
  -2   0   2 90024.4 2263.73   6
   2   0  -2 92621.6 2264.40   6
   2   0  -2 89197.2 2186.18   3
   2   0  -2 95333.6 2348.74  11
  -2   0   2 91376.6 2200.40   3
   2   0  -2 92882.3 2570.69   5
   2   0  -2 90104.3 2036.27   1
   2   0  -2 91526.0 2189.86   4
  -2   0   2 94344.4 2196.34   4
  -2   0   1 157962. 3631.43   6
   2   0  -1 159239. 3642.77   6
  -2   0   1 157959. 3719.91  11
   2   0  -1 157460. 3590.16   3
  -2   0   1 158946. 3601.47   3
   2   0  -1 158902. 3754.50  11
   2   0  -1 157013. 3477.79  10
   2   0  -1 161946. 3470.55   1
   2   0  -1 161363. 3580.17   4
   2   0  -1 158673. 3538.76   7
   2   0  -1 156078. 3937.31   5
  -2   0   0 534659. 11192.9  10
   2   0   0 543121. 11376.1   6
   2   0   0 525646. 11337.9   3
   2   0   0 512722. 11301.5   1
  -2   0   0 513835. 11494.2  11
   2   0   0 537919. 11528.7  11
   2   0   0 536385. 11189.3  10
   2   0   0 496166. 11633.9   5
   2   0   0 517156. 11204.6   8
  -2   0   0 580330. 11734.2   8
  -2   0   0 528044. 11263.0   7
   2   0   0 541246. 11266.5   7
  -2   0   0 516703. 11345.1   6
   2   0   1 45500.5 1296.21   1
   2   0   1 45352.7 1291.72   2
   2   0   1 46130.9 1360.54  11
   2   0   1 45929.8 1105.83  10
  -2   0  -1 46338.9 1211.96   1
  -2   0  -1 45208.0 1365.47  11
   2   0   1 44156.8 1251.30   8
  -2   0  -1 45730.6 1148.55   7
   2   0   1 43638.8 1386.61   5
   2   0   1 46459.5 1161.35   7
  -2   0  -1 44676.0 1201.63   6
   2   0   1 47705.3 1238.05   6
  -2   0  -1 43872.0 1077.67  10
  -2   0  -2 179174. 4378.16  11
  -2   0  -2 186209. 4289.26   1
   2   0   2 181148. 4120.92  10
   2   0   2 183350. 4150.48   2
   2   0   2 190011. 4345.59  11
   2   0   2 187187. 4178.81   6
   2   0   2 177985. 4400.00   8
  -2   0  -2 182693. 4053.96  10
  -2   0  -2 197387. 4994.60   8
  -2   0  -2 180515. 4142.26   6
  -2   0  -2 180361. 4111.40   7
   2   0   2 183857. 4134.55   7
   2   0   2 177322. 4392.66   1
  -2   0  -3 44254.6 1456.62   1
   2   0   3 43562.2 1366.79  11
  -2   0  -3 43112.3 1207.41  10
  -2   0  -3 43249.4 1433.07  11
   2   0   3 43057.7 1598.44   8
  -2   0  -3 45159.6 1808.85   8
   2   0   3 41574.4 1132.33   2
   2   0   3 41965.2 1548.28   1
  -2   0  -3 44296.4 1247.31   7
   2   0   3 44575.0 1276.20   7
   2   0   3 43356.7 1305.41  10
   2   0   3 43481.9 1265.21   6
  -2   0  -4 450031. 9964.61  11
   2   0   4 425854. 9448.68   5
   2   0   4 427474. 9445.59   2
   2   0   4 436437. 9916.53  10
  -2   0  -4 457243. 9759.77  10
  -2   0  -4 445958. 9763.46   7
   2   0   4 439805. 10280.1   1
   2   0   4 442555. 9741.90   6
  -2   0  -5 2689.69 368.548  10
   2   0   5 3348.24 217.606   5
  -2   0  -5 2462.44 411.849  11
  -2   0  -5 2668.69 383.191   7
   2   0   5 3129.36 210.723   2
   2   0   5 2761.85 566.468   1
   2   0   6 117807. 2757.15   5
  -2   0  -6 120669. 3365.63  11
  -2   0  -6 118321. 3356.75   7
  -2   0  -6 119266. 2827.49   2
  -2   0  -6 120573. 3390.77  10
   2   0   6 121571. 3654.33   8
   2   0   6 118946. 2762.51   2
  -2   0  -7 1321.59 442.003  10
   2   0   7 1376.48 475.207   8
   2   0   7 1354.62 154.522   5
   2   0   7 1157.61 144.695   2
  -2   0  -7 1053.63 422.589   7
  -2   0  -7 957.989 357.514  11
   2   0   7 1206.77 554.940   1
  -2   0  -7 1234.58 161.205   2
   2   0   8 158863. 3653.31   5
  -2   0  -8 167947. 4410.93  11
   2   0   8 175383. 4843.83   1
  -2   0  -8 165188. 3667.53   2
  -2   0  -8 159381. 3976.38   9
   2   0   8 163702. 4638.09   8
  -2   0  -8 162650. 4761.59   7
  -2   0  -9 1488.12 373.899  11
   2   0   9 1673.21 558.003   1
  -2   0  -9 471.585 456.303  10
  -2   0  -9 537.241 559.475   7
  -2   0  -9 787.592 188.432   9
   2   0   9 1256.92 495.429   8
  -2   0 -10 27120.6 1202.43  11
  -2   0 -10 28509.3 1570.01  10
   2   0  10 27521.6 1473.24   8
   2   0  10 30052.7 1587.31   1
  -2   0 -10 28681.0 1789.69   7
  -2   0 -11 210.810 544.813   7
  -2   0 -11 29.3191 247.207  11
  -2   0 -11 708.370 453.622  10
   2   0  11 1142.03 571.279   1
   2   0  11 417.906 483.505   8
   2   0  12 31458.6 1648.06   8
  -2   0 -12 29794.4 1618.32  10
  -2   0 -12 28423.3 1205.38  11
  -2   0 -12 32406.3 1782.94   7
   2   0  13 1851.32 600.108   8
   2   0  13 2285.90 649.105   1
  -2   0 -13 1850.67 584.492  10
  -2   0 -13 3308.03 697.805   7
  -2   0 -14 4525.32 740.715   7
   2   0  14 4231.04 743.026   1
  -2   0 -14 4058.79 647.413  10
   2   0  14 4618.21 750.975   8
   2   0  15 918.974 573.239   1
  -2   0 -15-578.036 517.429  10
   2   0  15 947.584 530.016   8
  -2   0 -15 559.969 524.281   7
  -2   0 -16 4137.60 750.450  10
   2   0  16 4506.32 743.428   8
  -2   0 -16 5582.40 818.445   7
   2   0  16 2783.06 650.023   1
  -2   1  17 13.7819 446.848   6
  -2   1  17 332.039 397.206   8
  -2   1  17 225.510 410.134   1
  -2   1  16 19972.8 1329.74   6
  -2   1  16 19380.8 1313.58   1
   2   1 -16 21954.4 1483.41  10
   2   1 -16 21167.2 1471.79   3
   2   1 -16 23404.4 1619.64   4
  -2   1  16 21604.8 1328.81   8
  -2   1  15 649.995 474.020   6
   2   1 -15 719.230 537.487   3
  -2   1  15 264.132 414.027   8
  -2   1  15 636.165 467.465   1
   2   1 -15 487.100 538.021  10
   2   1 -15 1233.68 706.909   4
  -2   1  14 11994.5 1040.74   6
   2   1 -14 12934.9 1260.03   4
   2   1 -14 10962.5 1023.47  10
  -2   1  14 10050.7 934.865   1
  -2   1  14 11375.9 939.759   8
   2   1 -14 12310.0 873.451   2
   2   1 -14 12052.9 1138.80   3
  -2   1  13 499.394 472.203   6
   2   1 -13 352.745 482.897   3
   2   1 -13 508.851 348.673   2
  -2   1  13 754.601 425.047   8
   2   1 -13-126.780 541.227   4
  -2   1  13 189.015 392.905   1
   2   1 -13 1242.85 539.911  10
   2   1 -12 50213.1 1943.93   2
   2   1 -12 47743.8 2106.60  10
   2   1 -12 48140.4 2586.99   4
  -2   1  12 49236.1 1904.23   5
  -2   1  12 49696.9 2107.69   1
  -2   1  12 46441.8 1933.51   8
  -2   1  12 46902.3 2155.64   6
   2   1 -12 47942.5 2398.89   3
   2   1 -11-31.2446 738.594   4
   2   1 -11 16.4385 695.526   3
  -2   1  11 451.774 359.608   5
   2   1 -11 538.515 347.922   2
   2   1 -11 217.161 441.128  10
  -2   1  11 286.575 326.597   8
  -2   1  11 278.156 447.204   1
  -2   1  11 29.7254 489.983   6
  -2   1  10 41188.3 1960.25   6
  -2   1  10 36155.2 1591.34   5
   2   1 -10 37391.2 1763.68  10
   2   1 -10 38443.0 2219.20   4
  -2   1  10 36064.3 1620.17   8
  -2   1  10 43986.3 1902.05   1
   2   1 -10 37293.7 2020.84   3
   2   1  -9 3684.64 669.228   3
   2   1  -9 2915.58 341.348  11
   2   1  -9 3047.22 596.267  10
  -2   1   9 3403.24 533.298   5
  -2   1   9 2941.42 520.146   6
  -2   1   9 2761.36 489.783   8
   2   1  -9 2653.20 703.963   4
  -2   1   9 2890.77 494.449   1
  -2   1   8 89567.3 2850.17   6
   2   1  -8 88803.7 2958.11  10
   2   1  -8 88202.2 2495.64  11
  -2   1   8 89478.9 2419.23   9
  -2   1   8 91061.9 2859.45   5
   2   1  -8 92512.8 3008.86   3
  -2   1   8 97576.2 2945.09   8
   2   1  -8 91917.6 3076.34   4
  -2   1   8 91283.7 2717.75   1
  -2   1   7 18938.1 898.196   1
  -2   1   7 18760.4 1089.56   5
   2   1  -7 22177.9 1127.91   3
   2   1  -7 18353.4 1132.93  10
  -2   1   7 21364.1 1174.77   8
   2   1  -7 20140.0 1107.75   4
  -2   1   7 19102.8 844.390   9
   2   1  -7 18833.9 817.995  11
  -2   1   7 18455.5 986.195   6
   2   1  -6 93084.3 2499.81  11
  -2   1   6 93760.2 2669.15   6
   2   1  -6 93908.5 2994.72  10
  -2   1   6 93932.2 2508.95   1
  -2   1   6 92643.6 2619.75   9
  -2   1   6 93430.8 2980.86   5
  -2   1   6 106545. 2841.06   8
   2   1  -6 94595.1 2548.11   8
   2   1  -6 95828.6 2730.29   3
   2   1  -6 101802. 2785.95   4
   2   1  -6 99262.9 2740.88   1
  -2   1   5 45162.5 1417.32   8
  -2   1   5 43460.5 1425.13   6
   2   1  -5 43864.1 1344.44  11
   2   1  -5 43667.9 1776.30  10
   2   1  -5 44180.3 1481.48   1
  -2   1   5 43489.4 1277.63   1
   2   1  -5 45154.2 1459.68   4
   2   1  -5 43533.5 1284.90   8
  -2   1   5 47312.1 1858.51   5
   2   1  -5 45744.8 1447.70   3
  -2   1   4 118480. 2988.58   6
  -2   1   4 123027. 2904.67   3
   2   1  -4 122508. 2981.28  11
   2   1  -4 120640. 2976.52   4
   2   1  -4 118328. 3035.32   1
  -2   1   4 116822. 2844.57   8
   2   1  -4 120046. 2989.38   3
  -2   1   3 92624.9 2340.14   6
   2   1  -3 94283.5 2325.96   3
  -2   1   3 92196.6 2257.57   3
   2   1  -3 95554.2 2593.38   5
  -2   1   3 92302.2 2372.82  11
   2   1  -3 94331.0 2306.57   4
  -2   1   3 90689.8 2103.14   8
   2   1  -3 95254.4 2393.06  11
   2   1  -3 98638.4 2351.15   1
  -2   1   3 91771.7 2891.55   5
  -2   1   3 95874.2 2298.47   4
   2   1  -2 134839. 3125.02   3
  -2   1   2 133240. 3082.91   4
  -2   1   2 133109. 3079.66   3
  -2   1   2 132630. 3145.71   6
   2   1  -2 133213. 3095.36   4
   2   1  -2 136579. 3268.37  11
   2   1  -2 134600. 3199.90   6
   2   1  -2 138122. 3423.86   5
  -2   1   2 130497. 3589.70   5
  -2   1   2 135269. 3228.91  11
   2   1  -1 143493. 3363.64   6
   2   1  -1 146184. 3322.17   3
  -2   1   1 144738. 3300.15   3
  -2   1   1 145050. 3243.91  10
   2   1  -1 145668. 3145.02  10
   2   1  -1 147625. 3577.06   2
   2   1  -1 143037. 3282.53   4
   2   1  -1 144204. 3206.14   7
   2   1  -1 146247. 3509.82  11
  -2   1   1 140262. 3655.97   5
  -2   1   1 148073. 3457.78  11
  -2   1   1 143883. 3339.88   6
   2   1   0 56503.9 1449.24   6
   2   1   0 56275.7 1435.24   3
   2   1   0 57104.4 1627.56  11
  -2   1   0 56836.0 1564.88  11
  -2   1   0 55840.8 1340.46  10
   2   1   0 58260.4 1616.89   2
  -2   1   0 56834.8 1302.76   8
  -2   1   0 56391.9 1396.94   7
   2   1   0 54826.9 1318.80   7
  -2   1   0 56216.6 1638.04   5
   2   1   0 56721.3 1613.30   1
  -2   1   0 57677.7 1461.07   6
   2   1   1 153393. 3449.03   6
   2   1   1 149382. 3459.12   3
   2   1   1 156504. 3571.93   2
   2   1   1 154963. 3421.40   8
   2   1   1 151078. 3947.16   1
  -2   1  -1 152171. 3433.07   1
  -2   1  -1 150464. 3350.36  10
   2   1   1 145560. 3331.92  10
   2   1   1 153199. 3360.36   7
   2   1   1 150440. 3687.40  11
  -2   1  -1 147579. 3470.86   8
  -2   1  -1 150749. 3411.13   7
  -2   1  -1 151267. 3475.07   6
  -2   1  -1 148974. 3601.15  11
   2   1   2 75709.4 1872.60   6
  -2   1  -2 76216.4 1951.50   1
  -2   1  -2 76347.7 1825.67  10
  -2   1  -2 75254.5 2039.50  11
   2   1   2 76643.5 1923.31   2
   2   1   2 69389.2 1956.17  10
   2   1   2 77535.4 1990.15   8
  -2   1  -2 73787.9 2106.90   8
  -2   1  -2 76536.7 1883.70   7
   2   1   2 76892.8 1869.28   7
  -2   1  -3 174819. 3983.41  10
   2   1   3 165666. 3950.28   2
  -2   1  -3 167419. 4157.31  11
  -2   1  -3 176115. 4509.23   8
   2   1   3 168643. 4226.07   8
   2   1   3 182720. 4391.20  10
  -2   1  -3 175213. 4166.72   1
  -2   1  -3 173486. 4031.40   7
   2   1   3 175104. 3978.23   6
   2   1   4 2695.45 231.590   5
  -2   1  -4 3362.97 329.332  10
   2   1   4 2777.49 228.969   2
  -2   1  -4 2609.87 338.210  11
   2   1   4 2515.96 395.727   8
  -2   1  -4 3211.59 356.877   7
   2   1   4 2934.07 594.659   1
   2   1   4 2814.60 263.360   6
  -2   1  -5 98198.3 2749.10  11
   2   1   5 104443. 2472.40   5
   2   1   5 101075. 3065.34   8
  -2   1  -5 97701.4 2687.52  10
   2   1   5 101492. 2464.21   2
   2   1   5 99459.2 3196.14   1
  -2   1  -5 96771.2 2717.82   7
   2   1   5 96646.3 2590.59   6
  -2   1  -6 12872.1 761.857  11
   2   1   6 14379.7 589.843   5
  -2   1  -6 13831.8 838.669  10
   2   1   6 13889.7 573.100   2
  -2   1  -6 13532.6 766.736   9
   2   1   6 16152.3 1073.44   1
   2   1   6 14578.0 1046.52   8
  -2   1  -6 13776.9 851.616   7
   2   1   7 96879.6 2357.19   5
  -2   1  -7 92741.2 2881.49  10
  -2   1  -7 89195.7 2548.28   9
   2   1   7 107319. 3367.80   8
   2   1   7 83404.9 2311.24   2
   2   1   7 97383.1 3106.72   1
  -2   1  -7 95723.9 2939.05   7
  -2   1  -7 95114.3 2756.04  11
  -2   1  -8 13071.0 1022.07   7
  -2   1  -8 11893.5 660.917   9
   2   1   8 14242.5 618.720   5
   2   1   8 12891.1 1050.97   8
  -2   1  -8 13662.1 872.593  11
   2   1   8 12027.2 981.545   1
  -2   1  -8 13598.9 1021.62  10
   2   1   8 13932.4 611.001   2
  -2   1  -9 45572.6 2081.70  10
   2   1   9 46286.1 1364.20   5
  -2   1  -9 40274.0 1563.74  11
   2   1   9 43390.5 1954.66   8
   2   1   9 43721.4 1942.28   1
  -2   1  -9 43244.3 2071.17   7
  -2   1 -10 1108.50 298.810  11
   2   1  10 591.161 162.808   5
   2   1  10 898.873 475.270   1
  -2   1 -10 1096.90 528.840  10
   2   1  10 1165.16 503.663   8
  -2   1 -10 101.633 536.944   7
  -2   1 -11 44044.0 2050.71  10
  -2   1 -11 41554.6 1486.84  11
   2   1  11 44212.8 1984.55   8
   2   1  11 43098.7 1976.04   1
  -2   1 -11 47125.7 2313.91   7
  -2   1 -12 12051.1 1049.67  10
   2   1  12 12647.4 1053.36   8
  -2   1 -12 13400.2 1205.83   7
   2   1  12 12359.3 1079.42   1
  -2   1 -13 15771.9 1198.72  10
   2   1  13 14920.3 1150.23   8
   2   1  13 16968.3 1245.21   1
  -2   1 -13 16761.4 1299.26   7
   2   1  14-23.5391 460.180   1
  -2   1 -14 97.3167 459.913  10
   2   1  14 502.067 527.637   8
  -2   1 -14 729.024 519.507   7
  -2   1 -15 18391.7 1345.63  10
   2   1  15 19917.8 1372.35   8
   2   1  15 20356.1 1409.54   1
  -2   1 -15 17857.7 1367.63   7
  -2   1 -16 5183.16 774.936  10
   2   1  16 6227.89 881.703   8
  -2   1 -16 7019.23 930.208   7
   2   1  16 6169.15 841.558   1
   2   2 -17 873.817 569.455   3
  -2   2  17 926.247 515.817   1
  -2   2  17 1186.70 494.501   8
  -2   2  16 6891.34 812.422   6
   2   2 -16 7033.42 976.433   3
   2   2 -16 7762.66 938.108  10
   2   2 -16 8231.62 1020.42   4
  -2   2  16 7225.86 808.188   8
  -2   2  16 7318.39 856.094   1
  -2   2  15 687.169 421.873   6
   2   2 -15 979.224 563.708   3
   2   2 -15 1504.45 631.426   4
   2   2 -15 1099.65 520.825  10
  -2   2  15 332.203 425.217   1
  -2   2  15 1531.69 538.877   8
  -2   2  14 819.920 465.885   6
   2   2 -14 1272.33 578.913   3
   2   2 -14 871.029 534.559  10
  -2   2  14 518.917 455.146   1
   2   2 -14 981.127 610.676   4
  -2   2  14 1057.68 487.269   8
  -2   2  14 1963.71 496.523   5
  -2   2  13 4350.33 588.489   5
  -2   2  13 4868.76 716.844   6
   2   2 -13 4545.31 561.152   2
  -2   2  13 4944.59 728.363   1
   2   2 -13 4984.54 824.024   3
  -2   2  13 4839.37 667.324   8
   2   2 -13 5375.41 894.433   4
   2   2 -13 5481.70 787.353  10
  -2   2  12 34715.3 1827.12   6
  -2   2  12 36058.7 1619.72   5
   2   2 -12 34445.3 1755.80  10
   2   2 -12 36352.4 2222.86   4
  -2   2  12 36201.4 1863.37   1
  -2   2  12 35842.7 1687.67   8
   2   2 -12 37377.6 2145.96   3
  -2   2  11 7278.94 871.989   6
   2   2 -11 7533.45 1098.75   3
   2   2 -11 6483.82 1100.89   4
  -2   2  11 9545.62 965.177   1
   2   2 -11 7549.50 842.187  10
  -2   2  11 7890.62 740.292   5
  -2   2  11 7128.41 749.808   8
  -2   2  10 3524.71 593.522   6
  -2   2  10 3832.05 632.960   8
   2   2 -10 3687.95 804.674   3
  -2   2  10 3955.15 582.570   5
   2   2 -10 4499.84 696.627  10
   2   2 -10 4954.79 940.908   4
  -2   2  10 3907.50 639.299   1
  -2   2   9 23936.8 1267.60   6
   2   2  -9 23160.4 1327.92  10
   2   2  -9 25241.3 928.676  11
   2   2  -9 24354.5 1545.57   4
  -2   2   9 24769.6 1261.88   1
  -2   2   9 23307.9 1260.19   5
   2   2  -9 21250.2 1433.52   3
  -2   2   8 109673. 3208.07   6
   2   2  -8 108272. 3425.19  10
  -2   2   8 107863. 3342.20   5
   2   2  -8 111904. 2883.80  11
  -2   2   8 107060. 3126.10   1
   2   2  -8 114032. 3585.04   4
  -2   2   8 116495. 3303.11   8
   2   2  -8 112333. 3555.33   3
   2   2  -7 22723.6 1092.39   1
  -2   2   7 19327.2 1119.38   5
  -2   2   7 20856.0 986.982   6
  -2   2   7 21451.1 980.901   8
   2   2  -7 20617.4 1121.45   4
  -2   2   7 20500.4 923.251   1
   2   2  -7 20719.0 1194.07  10
  -2   2   7 19500.9 900.415   9
   2   2  -7 21420.8 1154.15   3
  -2   2   6 18433.9 883.490   6
   2   2  -6 17557.3 843.349   1
  -2   2   6 19549.4 1145.29   5
  -2   2   6 19056.6 934.563   9
   2   2  -6 17421.8 1080.60  10
  -2   2   6 18659.8 806.781   1
   2   2  -6 19368.3 967.336   4
   2   2  -6 17165.5 752.863  11
  -2   2   6 17920.4 804.576   8
   2   2  -6 20443.1 1030.72   3
   2   2  -5 45175.3 1786.41  10
  -2   2   5 40573.1 1312.33   6
  -2   2   5 40322.3 1210.67   3
   2   2  -5 39118.3 1212.73   1
  -2   2   5 40379.8 1701.89   5
   2   2  -5 42423.2 1388.59   4
  -2   2   5 40613.0 1501.30   9
  -2   2   5 40518.5 1205.87   8
   2   2  -5 40168.9 1273.98  11
   2   2  -5 41655.3 1415.49   3
  -2   2   4 206837. 4640.42   3
   2   2  -4 201400. 4519.29   1
  -2   2   4 217820. 5526.96   5
   2   2  -4 197881. 4788.68  11
  -2   2   4 209908. 5200.04   9
  -2   2   4 201586. 4553.70   8
  -2   2   4 202947. 4763.61   6
   2   2  -4 200467. 4839.08   3
   2   2  -4 207256. 4796.06   4
  -2   2   3 31794.5 997.620   6
  -2   2   3 32112.2 910.187   3
  -2   2   3 30829.5 1547.44   5
   2   2  -3 31720.6 1029.18   3
  -2   2   3 32074.8 1397.01   9
   2   2  -3 31567.1 1078.86  11
   2   2  -3 30509.7 969.565   4
  -2   2   3 31980.9 952.849   4
   2   2  -3 31926.0 1272.19  10
   2   2  -2 34020.5 987.847   4
   2   2  -2 35189.3 1053.41   3
  -2   2   2 40248.7 1672.77   9
  -2   2   2 34686.4 958.717   3
  -2   2   2 38858.5 1671.76   5
   2   2  -2 35604.4 1179.61  11
   2   2  -2 34220.5 1077.96  10
  -2   2   2 34314.5 1030.53   6
   2   2  -2 36640.7 1264.76   2
  -2   2   2 34342.3 967.044   4
  -2   2   2 36320.2 1177.42  11
   2   2  -1 31354.4 965.409   6
  -2   2   1 33829.0 1070.92  11
   2   2  -1 31179.5 925.617   3
  -2   2   1 33082.9 1355.39   5
   2   2  -1 30862.1 1095.99  11
   2   2  -1 30161.1 768.200  10
   2   2  -1 32078.5 1111.49   2
   2   2  -1 31197.1 876.308   4
  -2   2   1 30704.8 863.042  10
  -2   2   1 32408.6 943.080   6
  -2   2   1 31057.1 890.421   7
   2   2  -1 31069.0 770.220   7
   2   2   0 255675. 5586.74   3
   2   2   0 253341. 5596.80   6
  -2   2   0 238704. 5945.91   5
  -2   2   0 248799. 5513.10  10
   2   2   0 265300. 5807.96   2
   2   2   0 244575. 5514.41   1
  -2   2   0 256505. 5768.11  11
  -2   2   0 253485. 5557.19   7
   2   2   0 250838. 5403.44   7
  -2   2   0 255290. 5626.86   6
  -2   2  -1 5569.11 353.864   6
   2   2   1 5539.91 291.051   8
   2   2   1 5690.36 310.793   3
  -2   2  -1 5333.97 406.723   5
  -2   2  -1 5298.05 276.821  10
   2   2   1 5026.90 388.650   1
   2   2   1 5818.01 379.179   2
  -2   2  -1 5235.38 385.377  11
  -2   2  -1 5637.21 279.180   8
  -2   2  -1 5592.39 309.598   7
   2   2   1 6106.20 303.580   6
   2   2   1 5652.33 244.712   7
   2   2   2 51979.5 1427.75   8
  -2   2  -2 52715.7 2036.77   9
   2   2   2 51964.6 1465.15   2
  -2   2  -2 51778.4 1416.21   5
   2   2   2 55378.9 1808.32   1
  -2   2  -2 51532.2 1413.70   1
   2   2   2 51958.5 1330.25   6
  -2   2  -2 51383.6 1431.23   8
  -2   2  -2 51396.1 1346.39  10
  -2   2  -2 50614.0 1508.65  11
  -2   2  -2 50690.0 1388.55   7
  -2   2  -3 14903.1 686.702  11
   2   2   3 15290.0 635.515   5
   2   2   3 16267.3 715.504   8
  -2   2  -3 14484.9 966.579   9
   2   2   3 16257.4 641.165   2
  -2   2  -3 14775.8 708.648   8
  -2   2  -3 15950.8 614.164  10
   2   2   3 18155.4 1128.38   1
  -2   2  -3 15666.1 647.217   7
   2   2   3 15767.4 556.593   6
  -2   2  -4 196300. 4777.87  11
  -2   2  -4 208234. 4718.09  10
   2   2   4 205387. 4933.16   8
   2   2   4 198251. 4662.26   5
   2   2   4 200576. 4574.12   6
  -2   2  -4 193960. 5133.41   9
   2   2   4 198364. 4657.98   2
  -2   2  -4 199278. 4745.35   7
   2   2   5 223.902 454.028   1
   2   2   5 770.485 171.572   6
   2   2   5 1084.82 220.128   5
   2   2   5 1015.55 193.436   2
  -2   2  -5 702.057 244.375  10
  -2   2  -5 630.899 346.296   9
   2   2   5 595.025 319.631   8
  -2   2  -5 760.010 249.275  11
  -2   2  -5 1462.65 335.436   7
  -2   2  -6 23168.3 1011.43  11
   2   2   6 25955.9 936.010   5
  -2   2  -6 24681.3 1098.88  10
  -2   2  -6 22772.2 1072.59   9
   2   2   6 22752.7 1238.96   8
   2   2   6 24359.4 915.276   2
   2   2   6 24216.8 1359.81   1
  -2   2  -6 26017.8 1156.24   7
   2   2   6 24732.6 950.646   6
  -2   2  -7 5474.81 616.538   7
   2   2   7 6007.04 433.467   5
   2   2   7 4608.49 646.146   1
   2   2   7 4994.56 672.724   8
  -2   2  -7 5312.48 494.678  11
  -2   2  -7 4566.83 468.362   9
  -2   2  -7 6094.93 619.441  10
   2   2   7 5164.15 403.409   2
   2   2   8 93867.1 2491.74   5
  -2   2  -8 94395.4 2759.34  11
  -2   2  -8 88688.9 2955.29  10
   2   2   8 97106.8 3337.74   8
   2   2   8 90867.2 3067.47   1
   2   2   8 88690.3 2480.63   2
  -2   2  -8 89559.6 3019.55   7
   2   2   9-50.1502 385.632   1
   2   2   9 57.1499 209.414   5
  -2   2  -9-92.6738 425.128  10
   2   2   9 409.338 516.095   8
  -2   2  -9 19.9276 250.164  11
  -2   2  -9 983.914 607.382   7
   2   2  10 7310.01 820.156   1
  -2   2 -10 8283.28 580.636  11
  -2   2 -10 7113.51 895.734  10
   2   2  10 8866.53 578.301   5
  -2   2 -10 9517.50 1044.55   7
   2   2  10 8451.81 917.666   8
   2   2  11 1755.00 526.346   1
   2   2  11 1281.71 515.836   8
  -2   2 -11 1721.22 304.069  11
  -2   2 -11 759.877 672.055   7
  -2   2 -11 1358.34 593.027  10
   2   2  12 20024.9 1357.84   8
   2   2  12 23157.3 1422.81   1
  -2   2 -12 22672.8 1615.47   7
  -2   2 -12 21149.1 1452.50  10
   2   2  13 356.169 512.291   1
  -2   2 -13-790.269 575.837  10
   2   2  13 133.167 491.610   8
  -2   2 -13 471.188 552.187   7
   2   2  14 1533.95 604.400   1
  -2   2 -14 1206.28 555.462  10
   2   2  14 1922.46 636.671   8
  -2   2 -14 2447.92 697.900   7
  -2   2 -15 2117.21 642.286   7
   2   2  15 1328.67 583.601   8
  -2   2 -15-6.96599 545.063  10
   2   2  15 1449.51 579.471   1
   2   2  16 4000.89 746.401   1
  -2   2 -16 2373.13 630.478  10
  -2   2 -16 3980.86 737.325   7
   2   2  16 3891.51 736.028   8
  -2   3  17 2130.65 601.372   1
  -2   3  17 1621.31 541.373   8
  -2   3  16 20353.5 1338.06   8
   2   3 -16 21146.0 1549.65   4
  -2   3  16 18534.1 1337.12   1
   2   3 -16 20434.1 1410.52  10
   2   3 -16 21074.1 1550.39   3
   2   3 -15 1962.28 583.970  10
  -2   3  15 1216.05 516.845   6
   2   3 -15 1500.65 615.609   3
  -2   3  15 1864.92 559.839   1
   2   3 -15 2565.20 694.917   4
  -2   3  15 2264.87 593.429   8
  -2   3  14 11880.7 1028.90   6
   2   3 -14 11113.8 1144.19   3
  -2   3  14 11164.8 992.705   8
   2   3 -14 12267.3 1062.19  10
  -2   3  14 12172.1 1126.72   1
  -2   3  14 13040.6 970.772   5
   2   3 -14 12086.6 1203.36   4
   2   3 -13 6665.16 943.171   3
  -2   3  13 6477.29 802.713   6
  -2   3  13 8605.63 868.611   8
  -2   3  13 7305.90 903.269   1
   2   3 -13 9270.19 1130.89   4
   2   3 -13 10099.1 991.512  10
   2   3 -13 7809.61 727.019   2
  -2   3  13 7342.80 756.652   5
  -2   3  12 49394.8 2242.32   6
  -2   3  12 41550.5 1828.79   5
  -2   3  12 48488.6 2309.94   1
   2   3 -12 42621.6 1995.26  10
  -2   3  12 43544.2 1999.96   8
   2   3 -12 47016.9 2496.96   3
   2   3 -12 41101.6 2353.33   4
  -2   3  11 4693.56 709.593   1
   2   3 -11 4784.53 719.080  10
  -2   3  11 4016.35 636.105   6
   2   3 -11 3014.12 870.783   3
   2   3 -11 3345.10 956.359   4
  -2   3  11 3931.52 574.935   5
  -2   3  11 5106.70 729.983   8
  -2   3  10 31845.2 1514.80   6
  -2   3  10 31412.7 1553.52   1
  -2   3  10 28804.7 1458.10   5
   2   3 -10 29756.8 1593.47  10
  -2   3  10 32308.2 1589.50   8
   2   3 -10 31841.1 2013.68   4
   2   3 -10 30239.4 1890.91   3
  -2   3   9 24866.5 1218.23   6
   2   3  -9 26014.4 1445.52  10
  -2   3   9 23542.0 1298.23   5
   2   3  -9 23459.0 754.810  11
  -2   3   9 25413.2 1264.86   1
   2   3  -9 23143.8 1553.60   4
  -2   3   9 26019.0 1270.18   8
   2   3  -9 23149.6 1529.44   3
  -2   3   8 79834.8 2456.06   6
   2   3  -8 81323.3 2921.96  10
   2   3  -8 81628.4 2113.33  11
  -2   3   8 77518.8 2704.47   5
  -2   3   8 81305.3 2490.39   1
   2   3  -8 83109.8 2897.51   4
  -2   3   8 82482.7 2478.04   8
   2   3  -8 82168.1 2913.73   3
  -2   3   7 17786.4 872.664   6
  -2   3   7 16817.5 1089.19   5
   2   3  -7 16319.8 767.956   1
   2   3  -7 20029.4 1321.31  10
  -2   3   7 16648.8 848.357   1
   2   3  -7 16133.1 1016.60   4
   2   3  -7 17623.1 784.395  11
  -2   3   7 17904.4 838.545   8
   2   3  -7 17763.8 1109.20   3
  -2   3   6 65864.5 2359.62   5
  -2   3   6 62587.6 1784.36   8
   2   3  -6 60488.9 1709.55   1
   2   3  -6 65822.9 2381.42  10
  -2   3   6 63994.6 1870.23   6
  -2   3   6 61196.1 2071.38   9
   2   3  -6 66379.2 2082.88   4
   2   3  -6 66308.5 1876.60  11
   2   3  -6 67148.7 2191.70   3
  -2   3   5 53728.7 1576.10   6
  -2   3   5 54001.0 1453.60   3
  -2   3   5 54997.2 2107.66   5
   2   3  -5 53898.6 1646.46  11
   2   3  -5 52906.4 1370.78   1
   2   3  -5 53342.9 1878.69  10
   2   3  -5 54119.2 1693.66   4
  -2   3   5 53778.8 1466.41   8
  -2   3   5 53988.0 1905.43   9
   2   3  -5 54492.4 1785.27   3
  -2   3   4 75899.1 1985.50   6
  -2   3   4 75496.6 1851.21   3
  -2   3   4 75166.1 2609.42   5
   2   3  -4 77930.3 2143.74   3
  -2   3   4 74575.2 2447.21   9
   2   3  -4 73737.7 2122.21  11
   2   3  -4 72593.3 2143.94  10
   2   3  -4 73728.0 2021.68   4
   2   3  -3 51342.9 1511.88   3
  -2   3   3 50618.1 1311.41   3
  -2   3   3 49197.8 2043.72   5
   2   3  -3 50753.4 1442.86  10
  -2   3   3 52030.7 1976.40   9
  -2   3   3 51547.9 1369.63   4
   2   3  -3 51289.9 1420.66   4
  -2   3   3 52920.2 1432.22   6
   2   3  -2 76005.6 1994.65   3
  -2   3   2 78695.3 2752.20   5
   2   3  -2 76964.5 1824.82  10
  -2   3   2 77137.4 1863.10   4
  -2   3   2 82649.3 2705.75   9
   2   3  -2 76096.6 1900.33   4
  -2   3   2 76465.8 1947.59   6
   2   3  -1 124356. 2870.77   3
  -2   3   1 129351. 3830.76   5
   2   3  -1 120175. 2772.98   4
   2   3  -1 120128. 2607.05  10
  -2   3   1 119104. 2796.45  10
  -2   3   1 121601. 2822.97   7
   2   3  -1 117863. 2608.13   7
  -2   3   1 115545. 3044.53  11
  -2   3   1 124012. 2873.03   6
  -2   3   1 122401. 3817.43   9
   2   3   0 48146.7 1327.73   6
   2   3   0 49059.1 1307.24   3
  -2   3   0 50462.7 1877.34   5
  -2   3   0 48001.9 1487.91  11
   2   3   0 48686.6 1187.16   1
  -2   3   0 47287.6 1266.04  10
   2   3   0 49576.0 1505.01   2
  -2   3   0 51003.7 2295.82   9
  -2   3   0 48269.2 1292.56   7
  -2   3   0 48458.9 1358.79   6
   2   3   1 112353. 2655.61   6
  -2   3  -1 114775. 2669.50  10
   2   3   1 113521. 2684.27   3
  -2   3  -1 111883. 3082.62   5
  -2   3  -1 118145. 3702.95   9
  -2   3  -1 112193. 2882.20  11
   2   3   1 112189. 2704.28   1
  -2   3  -1 115036. 2699.99   7
   2   3   1 115275. 2902.58   2
   2   3   2 39894.4 1069.88   6
   2   3   2 39751.1 1290.68   1
   2   3   2 41631.8 1299.38   5
   2   3   2 39817.7 1135.49   3
  -2   3  -2 39467.5 1300.93   5
   2   3   2 41010.7 1288.21   2
  -2   3  -2 41101.8 1162.12   8
   2   3   2 41154.8 1179.93   8
  -2   3  -2 42345.1 1816.21   9
  -2   3  -2 41992.5 1148.28  10
  -2   3  -2 38288.2 1156.30   7
  -2   3  -2 39702.5 1289.81  11
   2   3   3 109540. 2532.82   6
   2   3   3 111496. 2799.90   5
   2   3   3 109386. 2791.17   2
  -2   3  -3 108382. 2715.13   7
  -2   3  -3 109006. 2637.35   5
  -2   3  -3 107249. 2788.60  11
   2   3   3 109870. 2765.98   8
  -2   3  -3 105505. 3314.83   9
   2   3   3 106125. 2981.26   1
  -2   3  -3 109113. 2676.30  10
   2   3   4 21456.0 872.456   5
  -2   3  -4 20650.1 619.833   5
   2   3   4 23726.9 1194.20   1
  -2   3  -4 22363.6 847.086  10
  -2   3  -4 20497.2 1141.38   9
  -2   3  -4 21809.4 872.208  11
   2   3   4 22339.8 945.967   8
   2   3   4 21324.3 857.519   2
  -2   3  -4 21015.0 857.667   7
   2   3   4 20569.0 675.694   6
  -2   3  -5 82949.6 2350.18  10
   2   3   5 87471.2 2355.62   5
  -2   3  -5 79710.1 2303.93  11
  -2   3  -5 81575.3 2644.52   9
   2   3   5 87697.3 2542.64   8
  -2   3  -5 87405.0 2411.28   7
   2   3   5 83994.7 2109.84   6
   2   3   6 26223.3 1032.31   5
  -2   3  -6 24364.6 1084.94  10
   2   3   6 27626.5 1599.63   1
  -2   3  -6 24745.9 1124.71   7
  -2   3  -6 22815.2 1152.94   9
   2   3   6 27390.8 1278.35   8
  -2   3  -6 24759.2 1007.36  11
   2   3   6 24668.2 877.448   6
   2   3   7 94263.7 2567.91   5
  -2   3  -7 93171.5 2585.58  11
  -2   3  -7 87956.2 2745.90  10
   2   3   7 96889.5 3030.49   8
   2   3   7 94153.0 3242.88   1
  -2   3  -7 92353.5 2839.33   7
   2   3   7 86883.4 2453.63   6
   2   3   8 28287.8 1589.28   1
   2   3   8 30197.5 1192.35   5
  -2   3  -8 31358.3 1245.51  11
  -2   3  -8 31263.0 1469.03  10
   2   3   8 29791.8 1591.40   8
  -2   3  -8 28866.2 1481.95   7
  -2   3  -9 37896.9 1847.63   7
   2   3   9 37431.7 1407.08   5
   2   3   9 39501.4 1965.73   8
   2   3   9 38325.6 1850.78   1
  -2   3  -9 36131.1 1750.60  10
  -2   3  -9 38618.5 1379.82  11
   2   3  10 10666.7 698.732   5
  -2   3 -10 9630.62 592.384  11
  -2   3 -10 9546.85 985.835  10
   2   3  10 10913.4 984.924   1
   2   3  10 10651.0 1094.93   8
  -2   3 -10 10814.5 1078.67   7
  -2   3 -11 42837.5 2212.76  10
   2   3  11 43645.7 1593.46   5
   2   3  11 40119.9 2057.18   8
   2   3  11 42166.3 1986.62   1
  -2   3 -11 47408.1 2373.40   7
  -2   3 -12 18319.8 1549.16   7
  -2   3 -12 16776.2 1381.99  10
   2   3  12 16183.3 1279.01   8
   2   3  12 16454.9 1238.87   1
  -2   3 -13 15143.8 1254.97  10
   2   3  13 17886.3 1305.63   8
   2   3  13 15239.7 1195.70   1
  -2   3 -13 16391.3 1398.52   7
   2   3  14 3560.24 680.247   8
  -2   3 -14 2022.37 655.844  10
   2   3  14 3857.94 688.135   1
  -2   3 -14 1452.18 566.820   7
   2   3  15 19549.5 1386.42   8
  -2   3 -15 18881.1 1431.65   7
  -2   3 -15 17806.1 1368.64  10
   2   3  15 19808.2 1399.40   1
  -2   3 -16 6412.82 929.475   7
  -2   3 -16 5560.53 850.704  10
   2   3  16 7009.63 907.216   1
   2   3  16 6236.47 872.845   8
  -2   4  17-439.136 568.445   1
  -2   4  17 1126.26 579.952   8
   2   4 -16 3668.44 811.213   3
   2   4 -16 5160.09 814.836  10
  -2   4  16 3680.28 685.691   1
   2   4 -16 4148.38 810.336   4
  -2   4  16 2890.05 636.010   8
   2   4 -15 3245.93 798.615   3
   2   4 -15 1337.19 584.198  10
  -2   4  15 889.115 484.622   1
   2   4 -15 2245.36 708.323   4
  -2   4  15 1657.71 556.867   8
  -2   4  15 2253.44 496.002   5
  -2   4  14-73.4568 464.401   6
   2   4 -14 304.099 585.200   3
  -2   4  14 79.5918 422.919   5
   2   4 -14-25.4728 498.276  10
  -2   4  14 549.221 594.891   1
  -2   4  14-199.513 504.234   8
   2   4 -14 121.791 454.892   4
  -2   4  13 5108.51 730.800   6
   2   4 -13 5706.58 918.785   3
  -2   4  13 4778.35 668.502   5
   2   4 -13 4927.21 744.914  10
  -2   4  13 5336.94 905.350   1
  -2   4  13 4389.17 734.748   8
   2   4 -13 6393.74 958.874   4
  -2   4  12 16578.6 1189.02   6
  -2   4  12 18742.0 1340.28   8
  -2   4  12 16763.4 1129.04   5
   2   4 -12 16808.8 1485.86   4
   2   4 -12 14015.0 1152.77  10
  -2   4  12 16963.8 1333.55   1
   2   4 -12 14970.6 1443.31   3
  -2   4  11 12705.6 956.088   6
   2   4 -11 10617.4 1270.61   3
  -2   4  11 11696.3 957.775   5
  -2   4  11 12174.0 1048.89   1
   2   4 -11 12157.5 1070.15  10
  -2   4  11 12823.2 1020.24   8
   2   4 -11 9805.26 1241.08   4
  -2   4  10 2904.24 585.481   5
  -2   4  10 2853.86 491.404   6
   2   4 -10 2782.46 798.597   3
   2   4 -10 3547.01 717.606  10
  -2   4  10 4674.64 656.894   1
  -2   4  10 3454.88 557.222   8
   2   4 -10 2199.73 745.336   4
  -2   4   9 30420.6 1317.30   6
  -2   4   9 29132.5 1521.28   5
   2   4  -9 31676.5 1813.82   3
   2   4  -9 31001.5 1808.42   4
  -2   4   9 32953.7 1472.95   1
   2   4  -9 32758.3 1815.95  10
  -2   4   9 29799.1 1342.24   8
  -2   4   8 68357.1 2123.53   6
  -2   4   8 67109.1 2228.52   1
   2   4  -8 70047.1 2672.73  10
  -2   4   8 66731.1 2515.00   5
   2   4  -8 69811.5 2638.03   4
  -2   4   8 68932.8 2131.13   8
   2   4  -8 68768.6 2689.63   3
  -2   4   7 41201.1 1402.95   6
   2   4  -7 40267.6 1811.53   3
  -2   4   7 41232.1 1849.14   5
  -2   4   7 41837.9 1384.34   8
   2   4  -7 39193.6 1253.45   1
   2   4  -7 41534.8 1744.81  10
   2   4  -7 41245.7 1727.01   4
  -2   4   6 19841.3 878.748   6
  -2   4   6 20662.0 744.021   3
  -2   4   6 21699.2 1343.44   5
   2   4  -6 21339.0 1083.15  10
   2   4  -6 20379.0 715.795   1
   2   4  -6 24236.5 1133.08   4
  -2   4   6 21045.8 831.951   8
   2   4  -6 24143.9 1265.68   3
  -2   4   5 107633. 2722.74   6
  -2   4   5 106328. 2546.19   3
  -2   4   5 109134. 3492.42   5
   2   4  -5 106190. 2898.42  10
   2   4  -5 110483. 2909.72   4
   2   4  -5 106926. 3049.88   3
  -2   4   4 199909. 4502.32   3
  -2   4   4 214077. 5718.13   5
   2   4  -4 202977. 4742.80  10
   2   4  -4 198243. 4763.44   4
   2   4  -4 209040. 4956.13   3
  -2   4   4 200854. 4673.50   6
   2   4  -3 61151.3 1649.80   4
  -2   4   3 60329.3 1565.56   4
  -2   4   3 59951.1 2318.74   9
  -2   4   3 64413.4 2510.31   5
   2   4  -3 61575.0 1583.14  10
  -2   4   3 59931.0 1641.09   6
   2   4  -3 61300.6 1790.62   3
   2   4  -2 100759. 2543.91   3
   2   4  -2 98720.4 2291.10  10
  -2   4   2 98860.4 2451.93  10
   2   4  -2 99193.2 2405.30   4
  -2   4   2 98607.0 2469.76   6
   2   4  -1 124376. 2988.80   3
  -2   4   1 135772. 4221.40   5
   2   4  -1 123911. 2719.27  10
  -2   4   1 123286. 2927.38  10
  -2   4   1 122648. 2930.49   7
   2   4  -1 121604. 2860.75   4
  -2   4   1 123796. 4059.52   9
  -2   4   1 125776. 2996.73   6
   2   4   0 336720. 7361.44   3
  -2   4   0 322735. 7320.03  10
   2   4   0 332336. 7096.34  10
   2   4   0 324462. 7245.47   4
  -2   4   0 330645. 7336.19   7
  -2   4   0 343864. 7453.60   6
   2   4   1 61202.8 1600.99   3
  -2   4  -1 67393.4 2389.36   5
  -2   4  -1 60876.0 1614.28  10
   2   4   1 62726.9 1589.40   1
  -2   4  -1 63276.2 2608.93   9
  -2   4  -1 60157.3 1841.30  11
  -2   4  -1 62029.3 1632.28   7
   2   4   2 119739. 2844.80   6
   2   4   2 124184. 2918.09   3
   2   4   2 128438. 3214.06   5
  -2   4  -2 129579. 3461.65   5
  -2   4  -2 123992. 2966.46  10
  -2   4  -2 123340. 3187.26  11
  -2   4  -2 123919. 3956.79   9
   2   4   2 125037. 3037.72   1
  -2   4  -2 121498. 2978.85   7
   2   4   3 52401.2 1324.53   6
   2   4   3 53987.5 1453.14   3
   2   4   3 55391.7 1702.07   5
  -2   4  -3 53295.6 1653.09   5
  -2   4  -3 53673.2 1518.89  10
  -2   4  -3 51693.5 1638.90  11
  -2   4  -3 51947.3 2152.95   9
   2   4   3 54836.0 1571.18   8
   2   4   3 54759.1 1683.04   1
  -2   4  -3 53686.5 1543.61   7
   2   4   4 274107. 6065.72   6
   2   4   4 286323. 6550.94   5
  -2   4  -4 276340. 6221.86   5
   2   4   4 275963. 6467.82   8
  -2   4  -4 285931. 6379.70  10
   2   4   4 274948. 6659.48   1
  -2   4  -4 280804. 6408.57   7
  -2   4  -4 270653. 6445.03  11
   2   4   5 12575.2 743.120   8
   2   4   5 11930.8 676.370   5
  -2   4  -5 11029.5 610.922  11
   2   4   5 13225.7 875.254   1
  -2   4  -5 11886.2 646.622  10
  -2   4  -5 11720.3 658.462   7
   2   4   5 11117.4 407.582   6
   2   4   6 75512.9 2249.83   5
  -2   4  -6 72621.5 2134.31  11
  -2   4  -6 71026.4 2217.51  10
   2   4   6 76840.2 2402.92   8
   2   4   6 77148.9 2710.89   1
  -2   4  -6 73720.9 2274.69   7
   2   4   6 72180.7 1858.54   6
   2   4   7 8438.99 621.340   5
  -2   4  -7 8837.76 742.624   7
   2   4   7 8178.17 772.539   8
  -2   4  -7 7709.81 670.075  10
  -2   4  -7 7919.45 561.459  11
   2   4   7 10071.3 1043.91   1
   2   4   7 7585.46 438.866   6
   2   4   8 98759.8 2860.46   5
   2   4   8 106924. 3642.42   1
  -2   4  -8 103743. 2771.05  11
   2   4   8 97477.6 3252.71   8
  -2   4  -8 93932.8 3048.57  10
  -2   4  -8 92727.4 3091.46   7
   2   4   9 359.890 304.996   5
   2   4   9 538.468 498.075   8
  -2   4  -9 251.361 206.097  11
  -2   4  -9-82.5015 497.036  10
  -2   4  -9 427.490 433.317   7
   2   4   9-56.8672 478.866   1
  -2   4 -10 14489.4 1172.00  10
   2   4  10 18242.8 1305.65   1
   2   4  10 19681.6 1448.06   8
   2   4  10 18305.8 990.065   5
  -2   4 -10 19380.0 1372.53   7
  -2   4 -11 2535.89 681.601  10
   2   4  11 2595.56 837.668   8
   2   4  11 2981.94 655.891   1
   2   4  11 3342.35 474.787   5
  -2   4 -11 2871.81 718.256   7
  -2   4 -12 19759.4 1579.68  10
   2   4  12 22608.7 1571.04   8
   2   4  12 21375.0 1405.59   1
  -2   4 -12 25530.5 1813.41   7
   2   4  13 793.916 517.384   8
  -2   4 -13-28.2336 642.618  10
   2   4  13 1149.52 538.876   1
  -2   4 -13 473.742 584.457   7
   2   4  14 3252.24 695.673   1
  -2   4 -14 3274.12 723.423  10
   2   4  14 3294.06 733.878   8
  -2   4 -14 3344.37 809.950   7
   2   4  15 1715.01 577.430   8
  -2   4 -15 3586.78 782.088  10
   2   4  15 2082.44 625.199   1
  -2   4 -15 2446.96 721.323   7
   2   5 -16 14656.9 1267.77  10
  -2   5  16 13996.0 1245.16   1
   2   5 -16 15803.7 1334.39   4
  -2   5  16 13600.4 1165.52   8
   2   5 -16 16011.9 1418.74   3
   2   5 -16 16882.6 1265.49   7
   2   5 -15 2529.58 736.904   3
  -2   5  15 1849.76 629.130   1
   2   5 -15 2938.89 690.519  10
  -2   5  15 2204.45 527.857   5
  -2   5  15 1228.91 527.731   8
  -2   5  14 13162.1 1048.43   5
  -2   5  14 12866.3 1245.33   1
  -2   5  14 12627.8 1168.02   8
   2   5 -14 12900.2 1205.00   4
   2   5 -14 10557.5 1049.54  10
   2   5 -14 14158.2 1349.59   3
  -2   5  13 10083.7 945.294   6
   2   5 -13 8863.61 1130.56   3
   2   5 -13 8102.85 922.293  10
  -2   5  13 11425.2 1243.97   1
  -2   5  13 7744.43 839.773   5
  -2   5  13 9813.87 1068.79   8
   2   5 -13 7309.62 987.318   4
  -2   5  12 36225.6 1711.60   6
  -2   5  12 40277.8 2054.54   1
  -2   5  12 32165.5 1703.47   5
   2   5 -12 35491.9 2085.85   4
   2   5 -12 35779.5 1934.67  10
  -2   5  12 37774.5 1877.79   8
   2   5 -12 38334.9 2282.31   3
  -2   5  11 1426.33 441.824   6
   2   5 -11 890.706 777.203   3
  -2   5  11 1902.31 616.913   1
  -2   5  11 1159.66 501.155   5
  -2   5  11 1016.98 470.050   8
   2   5 -11 1189.34 645.750  10
   2   5 -11 823.765 599.021   4
  -2   5  10 28745.8 1296.71   6
  -2   5  10 28546.4 1376.15   8
  -2   5  10 26690.8 1512.59   5
  -2   5  10 28542.6 1490.99   1
   2   5 -10 28715.7 1976.59   4
   2   5 -10 29846.1 1792.74  10
   2   5 -10 25223.8 1831.77   3
  -2   5   9 4704.50 498.504   6
   2   5  -9 4158.41 804.062   3
   2   5  -9 4064.90 702.766  10
   2   5  -9 4842.48 835.570   4
  -2   5   9 4234.27 521.446   8
  -2   5   9 4406.20 673.606   5
  -2   5   8 45013.5 1547.73   6
  -2   5   8 44974.7 1579.68   8
  -2   5   8 48094.5 2097.81   5
   2   5  -8 44285.5 1882.22  10
   2   5  -8 45687.8 2091.26   4
   2   5  -8 47591.8 2183.33   3
  -2   5   7 1704.93 303.112   6
   2   5  -7 2438.24 591.240   3
  -2   5   7 1793.19 204.251   3
  -2   5   7 2592.00 643.729   5
   2   5  -7 2179.30 464.097  10
   2   5  -7 1624.52 449.871   4
  -2   5   6 41417.4 1331.88   6
  -2   5   6 41087.5 1151.54   3
  -2   5   6 44557.8 2060.74   5
   2   5  -6 42301.2 1521.44  10
   2   5  -6 40714.0 1604.01   4
   2   5  -6 43107.6 1806.29   3
  -2   5   5 4535.08 257.516   3
  -2   5   5 5887.68 862.535   5
   2   5  -5 5363.93 486.565   4
   2   5  -5 4486.93 418.134  10
   2   5  -5 5890.88 641.261   3
  -2   5   5 4924.85 373.200   6
   2   5  -4 36648.9 1145.60  10
   2   5  -4 36956.6 1240.53   4
   2   5  -4 36320.0 1396.75   3
  -2   5   4 35687.9 1146.63   6
  -2   5   3 23712.2 1516.24   5
   2   5  -3 22925.8 816.367   4
  -2   5   3 22270.1 716.941   4
   2   5  -3 22295.3 734.863  10
  -2   5   3 23293.8 825.925   6
   2   5  -3 22685.8 968.567   3
  -2   5   2 33792.7 1809.43   5
  -2   5   2 29713.4 989.317  10
   2   5  -2 32089.6 852.135  10
   2   5  -2 30701.4 933.880   4
   2   5  -2 29897.4 799.450   7
  -2   5   2 31786.0 1026.07   6
   2   5  -2 31515.8 1102.36   3
   2   5  -1 30079.8 1004.73   3
  -2   5   1 30985.4 1720.92   5
  -2   5   1 28233.9 942.208  10
   2   5  -1 28983.3 770.362  10
   2   5  -1 28776.6 859.169   4
  -2   5   1 30509.2 952.156   7
  -2   5   1 32058.3 1028.22   6
   2   5   0 3890.43 308.991   3
   2   5   0 5034.12 509.589   5
  -2   5   0 3377.09 723.159   5
  -2   5   0 3985.81 310.392  10
   2   5   0 4089.53 194.697  10
   2   5   0 4137.72 248.253   4
  -2   5   0 4377.72 318.416   7
   2   5   1 34649.7 1053.33   3
   2   5   1 34528.6 1328.28   5
  -2   5  -1 36415.4 1866.04   5
  -2   5  -1 35916.5 1086.23   7
  -2   5  -1 34487.1 1081.05  10
  -2   5  -2 10624.6 531.827   7
   2   5   2 11334.2 494.486   3
   2   5   2 11311.7 704.624   5
  -2   5  -2 12296.3 874.516   5
  -2   5  -2 11451.6 543.709  10
   2   5   2 10966.8 537.504   1
   2   5   3 74326.4 1929.97   3
   2   5   3 77363.2 2311.40   5
  -2   5  -3 76449.6 2351.49   5
  -2   5  -3 76502.1 2054.56  10
   2   5   3 76666.3 2132.68   1
  -2   5  -3 75978.1 2052.58   7
   2   5   4 2470.56 160.837   6
  -2   5  -4 2361.91 362.498  11
  -2   5  -4 2624.82 363.746   5
  -2   5  -4 2324.83 332.821  10
   2   5   4 2367.66 252.438   3
   2   5   4 2617.29 417.609   5
   2   5   4 1745.04 341.178   1
  -2   5  -4 1726.04 307.251   7
   2   5   5 37340.1 1017.46   6
   2   5   5 41305.8 1249.62   3
   2   5   5 42916.3 1554.09   5
  -2   5  -5 42468.8 1231.78   5
  -2   5  -5 41046.7 1455.89  11
   2   5   5 41782.0 1617.17   1
   2   5   5 42774.1 1499.35   8
  -2   5  -5 40660.4 1410.30  10
  -2   5  -5 42159.5 1434.95   7
  -2   5  -6 1479.07 349.505  10
   2   5   6 2161.90 399.862   5
  -2   5  -6 2283.63 357.641  11
   2   5   6 2114.93 172.671   6
   2   5   6 2596.24 464.357   8
   2   5   6 2222.43 523.404   1
  -2   5  -6 1839.44 353.695   7
   2   5   7 74048.1 2356.98   5
   2   5   7 73848.8 2475.90   8
   2   5   7 76034.7 2733.30   1
  -2   5  -7 68609.5 2306.21  10
  -2   5  -7 71186.2 2366.88   7
  -2   5  -7 78945.5 2262.50  11
   2   5   7 70362.7 1809.36   6
  -2   5  -8 14303.0 711.369  11
   2   5   8 13869.7 884.911   5
   2   5   8 13299.9 1019.73   8
   2   5   8 16002.6 1265.13   1
  -2   5  -8 15883.7 1041.18   7
  -2   5  -8 11757.3 883.043  10
   2   5   9 33246.5 1737.51   8
  -2   5  -9 34266.9 1139.33  11
   2   5   9 35611.5 1507.11   5
  -2   5  -9 30307.7 1575.85  10
   2   5   9 37079.9 2065.20   1
  -2   5  -9 34149.6 1698.25   7
  -2   5 -10 2725.49 636.410  10
   2   5  10 4373.44 558.130   5
   2   5  10 3667.80 733.163   8
   2   5  10 2358.24 647.712   1
  -2   5 -10 4231.14 732.551   7
  -2   5 -11 40736.0 2103.68  10
   2   5  11 41829.1 1734.98   5
   2   5  11 46280.6 2328.29   8
   2   5  11 43380.3 2149.07   1
  -2   5 -11 42869.4 2206.02   7
  -2   5 -12 10423.7 1134.90  10
   2   5  12 12290.2 1280.34   8
   2   5  12 13244.7 1179.20   1
  -2   5 -12 11724.4 1298.57   7
  -2   5 -13 15850.0 1479.63  10
   2   5  13 16213.7 1300.17   1
   2   5  13 14570.8 1342.42   8
  -2   5 -13 16984.1 1585.98   7
  -2   5 -14 3196.13 783.129  10
   2   5  14 2870.69 699.970   8
   2   5  14 3352.33 708.476   1
  -2   5 -14 1439.18 730.062   7
  -2   5 -15 14042.7 1316.16  10
   2   5  15 14839.7 1301.19   8
   2   5  15 16639.3 1312.18   1
  -2   5 -15 12665.1 1273.14   7
  -2   6  16 3040.70 680.350   8
   2   6 -16 3788.23 717.299   7
   2   6 -15 1351.07 647.887   3
  -2   6  15 1596.84 545.223   5
   2   6 -15 54.1410 567.257  10
  -2   6  15 543.809 513.252   8
   2   6 -15 3148.37 718.457   4
   2   6 -15 2026.77 601.426   7
   2   6 -14 1939.12 763.121   3
   2   6 -14 1322.73 587.587  10
  -2   6  14 2462.01 621.267   5
  -2   6  14 1348.36 649.136   8
   2   6 -14 3143.67 746.175   4
   2   6 -14 2834.65 655.192   7
   2   6 -13 2029.77 676.329   3
   2   6 -13 2128.63 678.502  10
  -2   6  13 1748.42 531.729   5
  -2   6  13 1757.80 611.608   8
   2   6 -13 3014.37 679.454   4
   2   6 -13 3441.65 705.085   7
  -2   6  12 25146.4 1340.34   6
  -2   6  12 26840.5 1517.71   8
  -2   6  12 25441.5 1522.74   5
   2   6 -12 25822.2 1759.81  10
   2   6 -12 23163.5 1655.46   4
   2   6 -12 26851.5 1911.31   3
  -2   6  11 6767.45 651.258   6
   2   6 -11 3765.08 919.068   3
  -2   6  11 6751.32 854.688   5
   2   6 -11 7119.62 978.611  10
  -2   6  11 5444.93 668.853   8
   2   6 -11 5595.47 904.904   4
  -2   6  10 12612.7 804.174   6
  -2   6  10 11952.0 1065.61   5
   2   6 -10 12743.9 1110.70  10
   2   6 -10 12596.1 1367.55   3
   2   6 -10 11529.3 1332.18   4
  -2   6   9 10432.9 684.678   6
   2   6  -9 11256.6 1190.34   3
  -2   6   9 12358.9 1096.53   5
   2   6  -9 11665.2 969.612  10
   2   6  -9 9608.89 1130.66   4
  -2   6   8 73073.7 2154.31   6
  -2   6   8 77424.7 2930.48   5
   2   6  -8 70914.9 2471.61  10
   2   6  -8 71612.2 2858.69   4
   2   6  -8 73818.3 2990.05   3
  -2   6   7 12800.7 502.003   3
  -2   6   7 13723.8 1197.35   5
   2   6  -7 14772.7 1172.04   3
  -2   6   7 14113.2 698.422   6
   2   6  -7 13265.3 848.925  10
   2   6  -7 13842.1 1022.05   4
  -2   6   6 27319.4 804.468   3
  -2   6   6 31862.4 1825.94   5
   2   6  -6 28622.6 1347.64   4
   2   6  -6 27915.6 1139.73  10
   2   6  -6 29335.8 1543.56   3
  -2   6   6 28132.5 1027.88   6
  -2   6   5 18555.3 1424.61   5
   2   6  -5 17465.3 903.599   4
   2   6  -5 17837.4 783.717  10
   2   6  -5 18131.2 853.992   7
   2   6  -5 16720.3 1065.60   3
  -2   6   5 17645.7 743.469   6
  -2   6   4 122083. 4145.24   5
   2   6  -4 120645. 2989.66  10
   2   6  -4 122698. 3160.06   4
   2   6  -4 127007. 3033.88   7
   2   6  -4 120858. 3443.28   3
  -2   6   4 120834. 3037.16   6
  -2   6   3 22519.1 1533.21   5
   2   6  -3 21870.6 822.278   4
   2   6  -3 20952.2 720.617  10
  -2   6   3 21005.3 681.550   4
   2   6  -3 22596.4 686.242   7
  -2   6   3 21398.4 826.984   6
   2   6  -3 21079.6 988.190   3
   2   6  -2 28283.7 896.492   4
  -2   6   2 30309.0 1766.05   5
   2   6  -2 26898.3 808.253  10
  -2   6   2 26548.4 972.747  10
   2   6  -2 27747.7 693.723   7
  -2   6   2 29677.3 1013.14   6
   2   6  -2 28784.1 1096.97   3
   2   6  -1 28061.1 1012.52   3
   2   6  -1 28944.3 1270.59   5
  -2   6   1 28164.1 1703.16   5
   2   6  -1 27583.3 830.451   4
  -2   6   1 27155.6 920.501   7
  -2   6   1 26501.6 935.175  10
   2   6  -1 26275.2 757.368  10
   2   6   0 105458. 2616.05   3
  -2   6   0 101306. 3660.45   5
   2   6   0 106595. 3014.37   5
  -2   6   0 101751. 2593.88  10
   2   6   0 101006. 2425.17   4
  -2   6   0 104329. 2572.97   7
   2   6   0 103244. 2373.05  10
   2   6   1 18660.7 701.729   3
   2   6   1 17805.2 976.080   5
  -2   6  -1 18141.4 729.834  10
  -2   6  -1 18668.3 1420.99   5
  -2   6  -1 17277.1 702.685   7
  -2   6  -2 11215.2 1006.02   5
   2   6   2 10871.3 504.870   3
   2   6   2 10487.0 766.463   5
  -2   6  -2 10359.3 563.532  10
  -2   6  -2 10442.6 544.451   7
   2   6   3 28166.1 920.044   3
   2   6   3 31761.7 1341.30   5
  -2   6  -3 29595.3 1382.96   5
  -2   6  -3 28926.4 1043.01  10
   2   6   3 29164.8 1071.63   1
  -2   6  -3 29140.3 1378.06   2
  -2   6  -3 28349.2 1031.24   7
   2   6   4 55029.8 1519.60   3
   2   6   4 56210.4 1971.36   5
  -2   6  -4 55396.1 1705.29  10
   2   6   4 55191.3 1785.07   1
  -2   6  -4 54503.2 1692.56   7
  -2   6  -4 56187.1 1882.95   2
  -2   6  -4 56145.5 1866.03   5
   2   6   5 12591.9 573.401   3
   2   6   5 12821.5 853.208   5
  -2   6  -5 12516.4 676.459   5
  -2   6  -5 14094.9 765.098  10
   2   6   5 11313.3 766.535   1
  -2   6  -5 13246.2 743.266   7
  -2   6  -6 2777.04 436.954   7
  -2   6  -6 3746.72 315.075   5
   2   6   6 3279.14 517.066   5
  -2   6  -6 3580.90 472.822  10
   2   6   6 3976.78 532.086   8
   2   6   6 3313.05 517.427   1
   2   6   6 3442.99 333.623   3
   2   6   7 14967.1 457.102   6
   2   6   7 16312.0 993.178   5
  -2   6  -7 16819.2 960.315  10
   2   6   7 15881.1 1101.07   1
   2   6   7 17301.7 1045.34   8
  -2   6  -7 16494.2 968.887   7
  -2   6  -8 23508.7 1257.80  10
   2   6   8 25182.3 1395.25   8
   2   6   8 25846.7 1522.21   1
  -2   6  -8 25439.9 1326.61   7
   2   6   8 26450.7 1337.61   5
  -2   6  -9 2425.55 577.024  10
   2   6   9 3819.87 566.135   5
   2   6   9 3322.13 671.962   8
   2   6   9 2739.73 649.390   1
  -2   6  -9 1867.08 514.386   7
   2   6  10 2296.59 484.993   5
  -2   6 -10 2399.23 652.309   7
  -2   6 -10 1845.71 553.431  10
   2   6  10 2537.74 674.135   8
   2   6  10 2142.40 678.180   1
   2   6  11 9077.15 1083.63   1
   2   6  11 8170.37 784.553   5
  -2   6 -11 6917.49 935.109  10
   2   6  11 10902.8 1169.88   8
  -2   6 -11 9313.61 1045.39   7
  -2   6 -12 10299.2 1119.71  10
   2   6  12 10600.4 1222.88   8
   2   6  12 8656.59 1068.68   1
  -2   6 -12 9739.17 1158.11   7
  -2   6 -13 1834.53 745.392  10
   2   6  13 78.1287 628.293   8
  -2   6 -13-283.548 754.745   7
   2   6  13 300.626 588.729   1
  -2   6 -14 1447.55 758.510  10
   2   6  14 1785.92 721.968   8
   2   6  14 1399.29 632.540   1
  -2   6 -14-273.309 745.481   7
   2   6  15 5100.30 847.853   1
  -2   6 -15 3420.10 842.780  10
   2   6  15 4012.72 812.462   8
  -2   6 -15 2951.89 791.429   7
   2   7 -15 3856.78 860.313   3
   2   7 -15 4510.06 853.055  10
  -2   7  15 3681.07 683.428   5
   2   7 -15 4935.86 811.493   4
   2   7 -15 4462.47 769.886   7
   2   7 -14 10410.8 1220.00   3
   2   7 -14 9206.30 1116.77  10
  -2   7  14 8169.42 912.821   5
   2   7 -14 8986.64 1016.00   4
   2   7 -14 9399.47 983.821   7
  -2   7  13 13284.9 1156.93   5
   2   7 -13 15332.2 1294.04   4
   2   7 -13 13678.2 1341.40  10
   2   7 -13 15350.3 1217.50   7
   2   7 -13 15955.2 1431.21   3
   2   7 -12 20425.4 1514.86   4
  -2   7  12 22372.3 1480.20   5
   2   7 -12 19871.2 1591.81  10
   2   7 -12 21507.3 1434.87   7
   2   7 -12 22781.6 1742.77   3
   2   7 -11 11185.9 1294.74   3
  -2   7  11 8808.40 975.874   5
   2   7 -11 8858.72 994.266  10
   2   7 -11 9788.44 1071.50   4
   2   7 -11 10233.9 1013.52   7
  -2   7  10 17961.8 1354.46   5
   2   7 -10 19999.5 1600.77   4
   2   7 -10 18394.4 1286.57  10
   2   7 -10 20055.6 1452.16   7
   2   7 -10 18586.6 1676.47   3
  -2   7  10 19026.4 972.722   6
  -2   7   9 40939.0 2070.70   5
   2   7  -9 33064.1 1629.51  10
   2   7  -9 35695.5 2186.35   4
   2   7  -9 39533.0 1869.03   7
   2   7  -9 38753.0 2274.90   3
  -2   7   9 37467.7 1381.64   6
  -2   7   8 25301.3 1650.20   5
   2   7  -8 23639.4 1235.55  10
   2   7  -8 25870.2 1662.70   4
   2   7  -8 26302.4 1371.90   7
   2   7  -8 26367.5 1750.30   3
  -2   7   8 25221.4 1033.53   6
  -2   7   7 17145.9 1417.34   5
   2   7  -7 13516.4 832.046  10
   2   7  -7 12539.0 1048.01   4
   2   7  -7 15408.6 1273.53   3
   2   7  -7 15632.5 936.616   7
  -2   7   7 14869.0 729.660   6
   2   7  -6 17852.8 1090.60   4
  -2   7   6 17284.9 1388.61   5
   2   7  -6 17197.5 844.453  10
   2   7  -6 17853.6 890.348   7
   2   7  -6 17645.8 1251.12   3
  -2   7   6 17196.6 775.829   6
  -2   7   5 62027.1 2727.97   5
   2   7  -5 59098.1 2019.75   4
   2   7  -5 62529.9 1791.42   7
   2   7  -5 62937.9 2365.10   3
  -2   7   5 60479.9 1771.37   6
   2   7  -5 60473.8 1777.58  10
  -2   7   4 17036.8 1382.74   5
  -2   7   4 18506.1 772.823   6
   2   7  -4 19769.6 1118.19   3
   2   7  -4 18142.5 851.207   4
  -2   7   4 16421.7 615.756   4
   2   7  -4 17575.4 655.602   7
   2   7  -4 17081.8 699.364  10
   2   7  -3 17325.9 1074.05   5
  -2   7   3 18896.3 1429.94   5
   2   7  -3 17647.1 663.006  10
   2   7  -3 17300.1 752.456   4
   2   7  -3 18616.3 572.682   7
  -2   7   3 18426.6 787.700   6
   2   7  -3 18304.0 990.632   3
   2   7  -2 14885.8 971.549   5
  -2   7   2 12725.8 1205.13   5
   2   7  -2 14226.1 535.446  10
  -2   7   2 14228.9 679.412  10
   2   7  -2 14938.9 597.350   4
   2   7  -2 13703.4 390.608   7
   2   7  -2 14050.3 792.533   3
   2   7  -1 64916.5 2236.84   5
  -2   7   1 58702.7 2713.89   5
   2   7  -1 61212.1 1571.88  10
  -2   7   1 63254.8 1789.03  10
   2   7  -1 63707.9 1622.16   4
   2   7  -1 64829.4 1905.10   3
   2   7   0 22987.2 894.408   3
   2   7   0 22490.5 1183.49   5
  -2   7   0 21437.4 1556.74   5
  -2   7   0 21532.4 847.717  10
   2   7   0 21353.0 682.139  10
   2   7   0 21910.8 695.863   4
  -2   7   0 21332.6 818.465   7
   2   7   1 22719.3 836.736   3
   2   7   1 22472.1 1183.72   5
  -2   7  -1 21624.8 1585.34   5
   2   7   1 21273.5 683.237   4
  -2   7  -1 20703.3 849.906  10
  -2   7  -1 21918.3 840.078   7
   2   7   2 20303.3 765.489   3
   2   7   2 21034.6 1147.90   5
  -2   7  -2 21637.4 1643.25   5
  -2   7  -2 20016.9 844.889  10
  -2   7  -2 21027.1 834.321   7
  -2   7  -3 62782.5 1833.08   7
   2   7   3 64050.8 1695.81   3
   2   7   3 64400.0 2252.39   5
  -2   7  -3 61156.6 2398.54   5
  -2   7  -3 59972.0 1837.30  10
   2   7   4 42739.0 1255.16   3
   2   7   4 43192.7 1747.14   5
  -2   7  -4 42402.5 1693.56   5
   2   7   4 42977.9 1511.57   1
  -2   7  -4 42854.7 1453.74  10
  -2   7  -4 41775.3 1421.92   7
   2   7   5 27385.0 928.334   3
   2   7   5 27705.8 1352.81   5
  -2   7  -5 26979.6 1169.63   5
  -2   7  -5 27348.6 1145.38  10
   2   7   5 27513.9 1228.98   1
  -2   7  -5 26553.8 1128.28   7
  -2   7  -5 29108.3 1210.23   2
   2   7   6 24344.0 884.629   3
   2   7   6 23977.9 1278.24   5
  -2   7  -6 24558.9 985.073   5
   2   7   6 24127.1 1241.52   1
  -2   7  -6 24426.3 1142.65  10
  -2   7  -6 23506.5 1110.55   7
  -2   7  -7 48496.5 1855.80  10
   2   7   7 52893.5 1556.28   3
   2   7   7 50345.6 2012.71   5
  -2   7  -7 52676.0 1490.25   5
   2   7   7 48480.6 2037.61   1
  -2   7  -7 48326.6 1853.34   7
   2   7   8 33308.0 1197.22   3
   2   7   8 35196.7 1637.17   5
   2   7   8 32875.0 1724.69   1
  -2   7  -8 31634.5 1512.94  10
  -2   7  -8 34046.0 1551.25   7
   2   7   9 26246.2 1405.11   5
   2   7   9 24562.2 1589.98   1
   2   7   9 25378.5 1475.04   8
  -2   7  -9 23244.5 1379.37   7
  -2   7  -9 22710.7 1347.66  10
  -2   7 -10 15249.8 1164.23  10
   2   7  10 14158.2 1053.57   5
  -2   7 -10 14087.2 1152.95   7
   2   7  10 15271.4 1363.58   1
   2   7  10 15777.4 1259.38   8
  -2   7 -11 29311.7 1760.14  10
   2   7  11 30118.4 1579.93   5
   2   7  11 33330.4 2126.12   1
   2   7  11 32469.3 1892.73   8
  -2   7 -11 27480.3 1725.61   7
   2   7  12 16538.8 1159.94   5
  -2   7 -12 15362.2 1347.69  10
   2   7  12 18091.5 1509.04   1
   2   7  12 14737.7 1406.12   8
  -2   7 -12 13376.2 1319.32   7
  -2   7 -13 10075.4 1233.62  10
   2   7  13 11964.8 1353.54   8
   2   7  13 10181.4 1168.73   1
  -2   7 -13 11970.2 1315.19   7
  -2   7 -14 4568.45 969.774  10
   2   7  14 2943.01 866.907   8
   2   7  14 5815.46 948.089   1
  -2   7 -14 5566.18 1037.77   7
   2   8 -15 1040.66 624.156  10
   2   8 -15 1875.79 615.435   4
  -2   8  15 661.087 471.051   5
   2   8 -15 987.861 508.962   7
   2   8 -14 201.857 575.364   3
  -2   8  14 301.008 452.648   5
   2   8 -14 893.542 693.360  10
   2   8 -14 1704.91 615.258   4
   2   8 -14 553.901 503.700   7
   2   8 -13 2213.54 668.572   3
  -2   8  13 2462.50 679.216   5
   2   8 -13 1657.41 750.235  10
   2   8 -13 2425.73 648.295   4
   2   8 -13 1906.96 615.562   7
   2   8 -12 8560.57 1137.12   3
   2   8 -12 10632.7 1131.14   7
  -2   8  12 8376.98 978.204   5
   2   8 -12 8644.89 1067.02  10
   2   8 -12 9361.46 1062.87   4
   2   8 -11 4602.72 940.683   3
   2   8 -11 3408.47 690.443  10
   2   8 -11 6281.09 712.232   5
   2   8 -11 5484.82 856.954   4
   2   8 -11 5384.42 863.308   7
  -2   8  11 5282.79 877.485   5
   2   8 -10 4219.30 655.323  10
   2   8 -10 5011.25 747.372   7
   2   8 -10 4649.42 811.404   4
   2   8 -10 3879.93 917.240   3
  -2   8  10 4418.10 793.188   5
   2   8  -9 12443.7 1399.55   3
  -2   8   9 13376.1 1260.18   5
   2   8  -9 12236.2 927.932  10
   2   8  -9 11811.2 1267.52   4
   2   8  -9 13127.1 1000.42   7
  -2   8   9 11911.4 715.801   6
  -2   8   8 38718.9 2213.61   5
   2   8  -8 33637.4 1488.52  10
   2   8  -8 36175.5 2100.09   4
  -2   8   8 35915.6 1305.21   6
   2   8  -8 37988.1 1599.86   7
   2   8  -8 35083.6 2106.91   3
   2   8  -7 17585.0 1263.24   5
  -2   8   7 18850.6 1528.87   5
   2   8  -7 18227.1 946.594  10
   2   8  -7 18665.3 1339.27   4
   2   8  -7 18759.0 967.744   7
   2   8  -7 16337.5 1367.60   3
  -2   8   7 18106.1 837.362   6
   2   8  -6 26844.3 1532.78   5
  -2   8   6 26981.4 1825.89   5
   2   8  -6 27177.8 1100.79  10
   2   8  -6 26323.8 1437.46   4
   2   8  -6 27657.9 1083.53   7
   2   8  -6 26645.1 1639.33   3
  -2   8   6 27403.6 1053.45   6
   2   8  -5 43399.6 1965.14   5
  -2   8   5 45678.6 2377.16   5
   2   8  -5 41717.7 1692.23   4
   2   8  -5 42897.2 1407.98  10
   2   8  -5 44229.7 1346.68   7
   2   8  -5 44689.4 2039.55   3
  -2   8   5 46284.3 1452.73   6
   2   8  -4 88093.6 3020.01   5
  -2   8   4 91632.1 3568.39   5
   2   8  -4 88104.4 2574.16   4
   2   8  -4 87777.0 2321.45  10
   2   8  -4 89177.1 2184.96   7
   2   8  -4 90588.2 3007.55   3
   2   8  -3 43115.4 1899.01   5
  -2   8   3 45467.1 2368.13   5
   2   8  -3 45394.0 1440.32   4
   2   8  -3 43630.7 1296.02  10
   2   8  -3 44460.0 1125.63   7
   2   8  -3 45818.8 1812.68   3
   2   8  -2 48997.7 1983.68   5
  -2   8   2 46494.9 2434.57   5
  -2   8   2 46836.3 1487.02  10
   2   8  -2 44781.2 1076.80   7
   2   8  -2 46461.0 1292.98  10
   2   8  -2 48335.0 1372.13   4
   2   8  -2 46735.7 1715.13   3
   2   8  -1 80707.4 2043.80  10
   2   8  -1 85114.2 2830.75   5
  -2   8   1 81336.3 3384.79   5
   2   8  -1 84419.4 2073.81   4
  -2   8   1 80638.3 2252.41  10
   2   8  -1 84131.1 2445.23   3
   2   8   0 115269. 3514.98   5
  -2   8   0 105914. 4138.08   5
   2   8   0 110900. 2687.91  10
  -2   8   0 112462. 2919.32  10
   2   8   0 113343. 2660.24   4
  -2   8   0 113750. 2869.85   7
   2   8   0 116108. 3015.70   3
   2   8   1 55637.5 1639.76   3
  -2   8  -1 52086.5 1625.59  10
   2   8   1 55192.7 2118.07   5
  -2   8  -1 50143.7 2676.74   5
   2   8   1 53686.8 1384.05   4
  -2   8  -1 51659.1 1579.40   7
   2   8   2 48680.4 1446.41   3
   2   8   2 50135.4 2004.69   5
  -2   8  -2 47428.2 1539.06  10
   2   8   2 46366.0 1401.89   4
  -2   8  -2 46570.1 1488.35   7
  -2   8  -2 50208.6 2703.52   5
   2   8   3 64213.4 1752.34   3
   2   8   3 66822.9 2394.48   5
  -2   8  -3 66898.6 2746.75   5
  -2   8  -3 63828.0 1932.27  10
  -2   8  -3 60855.2 1869.19   7
   2   8   4 67299.0 1803.06   3
   2   8   4 68845.5 2445.52   5
  -2   8  -4 62505.7 2402.06   5
  -2   8  -4 65574.5 2032.67  10
  -2   8  -4 66707.3 2009.31   7
   2   8   5 30965.3 1007.71   3
   2   8   5 27843.4 1468.63   5
  -2   8  -5 31389.2 1383.32   5
  -2   8  -5 29718.3 1247.05  10
   2   8   5 30554.3 1315.66   1
  -2   8  -5 31001.7 1238.32   7
   2   8   6 18285.4 730.504   3
  -2   8  -6 17523.4 911.631   5
   2   8   6 18183.3 1166.94   5
  -2   8  -6 16646.5 954.904  10
   2   8   6 19588.5 1090.98   1
  -2   8  -6 18661.5 981.198   7
   2   8   7 22799.2 856.570   3
   2   8   7 20136.8 1262.39   5
  -2   8  -7 21612.1 913.800   5
  -2   8  -7 21516.2 1167.05  10
   2   8   7 20731.8 1221.46   1
  -2   8  -7 21634.7 1138.25   7
  -2   8  -8 26210.1 1373.68  10
  -2   8  -8 25883.2 1350.21   7
   2   8   8 25866.7 991.651   3
   2   8   8 26458.5 1480.49   5
   2   8   8 27823.7 1538.62   1
   2   8   9 5341.64 848.342   1
   2   8   9 5721.66 749.517   5
  -2   8  -9 6055.42 758.673  10
  -2   8  -9 4089.87 630.647   7
   2   8  10 3903.52 670.126   5
  -2   8 -10 5797.78 782.855  10
   2   8  10 6106.23 982.047   1
  -2   8 -10 3789.32 627.665   7
  -2   8 -11 6754.57 900.164  10
   2   8  11 5561.21 761.585   5
   2   8  11 5883.18 1051.66   1
  -2   8 -11 4404.57 793.609   7
  -2   8 -12 7288.06 987.270  10
   2   8  12 7236.78 1142.84   1
   2   8  12 8652.22 908.721   5
  -2   8 -12 5916.27 929.391   7
  -2   8 -13-210.522 679.423   7
   2   8  13 1723.97 755.413   1
  -2   8 -13 141.995 666.890  10
  -2   8 -14 754.708 744.456   7
  -2   8 -14 1616.73 702.742  10
   2   8  14 1842.22 671.229   1
   2   9 -15 2887.08 650.817   4
  -2   9  15 2038.93 625.224   5
   2   9 -15 3669.67 736.853   7
   2   9 -14 6729.52 1062.74  10
  -2   9  14 4944.36 850.213   5
   2   9 -14 7356.72 898.938   4
   2   9 -14 6691.03 943.724   7
   2   9 -13 9417.00 1184.54   3
  -2   9  13 7162.01 961.646   5
   2   9 -13 6652.77 981.839  10
   2   9 -13 7734.83 930.012   4
   2   9 -13 8832.61 1051.57   7
   2   9 -12 11985.3 1120.48   4
   2   9 -12 12065.1 1327.45   3
  -2   9  12 12297.0 1223.63   5
   2   9 -12 12229.6 1251.26   7
   2   9 -12 10934.9 1107.05  10
  -2   9  11 5329.90 916.562   5
   2   9 -11 3586.49 885.626   3
   2   9 -11 4690.88 663.726   5
   2   9 -11 4688.35 716.946  10
   2   9 -11 5607.94 837.604   4
   2   9 -11 5598.00 827.419   7
   2   9 -10 10404.1 939.650  10
   2   9 -10 13139.9 1089.83   5
   2   9 -10 10750.1 1273.59   3
   2   9 -10 10943.4 1067.07   4
   2   9 -10 12296.7 1030.52   7
  -2   9  10 10610.4 1190.60   5
   2   9  -9 10374.1 860.719  10
   2   9  -9 12296.8 1163.26   5
   2   9  -9 11641.9 1416.66   3
  -2   9   9 11908.5 1293.03   5
   2   9  -9 10907.7 1078.73   4
   2   9  -9 11543.0 898.632   7
   2   9  -8 16827.2 1340.55   5
   2   9  -8 12916.2 1409.92   3
  -2   9   8 16652.1 1530.97   5
   2   9  -8 15436.0 943.975  10
   2   9  -8 16156.2 943.893   7
   2   9  -8 15764.1 1353.53   4
   2   9  -7 5928.16 901.940   3
  -2   9   7 6030.50 1047.13   5
   2   9  -7 7558.52 934.801   5
   2   9  -7 5819.76 884.913   4
   2   9  -7 5418.93 549.916  10
   2   9  -7 6602.71 542.734   7
  -2   9   7 5216.45 451.424   6
   2   9  -6 10342.3 1118.45   3
  -2   9   6 10273.0 1211.62   5
   2   9  -6 9414.25 639.661  10
   2   9  -6 9609.17 1003.61   5
   2   9  -6 11136.6 971.542   4
   2   9  -6 9786.43 572.398   7
  -2   9   6 10168.7 614.236   6
   2   9  -5 6981.24 867.328   5
   2   9  -5 8404.27 942.321   3
   2   9  -5 7577.06 430.976   7
  -2   9   5 7563.54 1071.54   5
   2   9  -5 7201.96 507.202  10
   2   9  -5 7715.54 737.627   4
   2   9  -4 10617.3 1030.82   5
  -2   9   4 9550.40 1145.81   5
   2   9  -4 10268.6 562.750  10
   2   9  -4 10346.1 439.483   7
   2   9  -4 10709.1 746.477   4
   2   9  -4 10488.9 967.590   3
   2   9  -3 5253.32 388.618  10
   2   9  -3 5204.65 720.044   5
  -2   9   3 4631.21 947.911   5
   2   9  -3 5165.16 460.766   4
   2   9  -3 5533.81 261.555   7
   2   9  -3 6868.91 772.339   3
  -2   9   2 5037.20 976.643   5
  -2   9   2 5107.17 477.653  10
   2   9  -2 6448.56 435.115   4
   2   9  -2 5227.05 738.898   5
   2   9  -2 5258.54 361.389  10
   2   9  -2 6959.52 701.797   3
   2   9  -1 4517.98 509.818   3
  -2   9   1 4803.77 973.409   5
   2   9  -1 5545.83 352.796  10
  -2   9   1 6248.90 491.978  10
   2   9  -1 5375.16 342.721   4
   2   9  -1 6659.05 792.324   5
   2   9   0 9295.98 923.623   5
  -2   9   0 7454.39 1167.68   5
  -2   9   0 9262.25 591.784  10
   2   9   0 8727.10 447.174  10
   2   9   0 9432.33 414.871   4
  -2   9   0 9056.58 550.872   7
   2   9   0 8630.31 621.829   3
  -2   9  -1-391.531 805.274   5
   2   9   1 511.731 522.700   5
  -2   9  -1-105.643 247.484  10
   2   9   1 7.00547 238.498   3
   2   9   1 216.777 117.414   4
  -2   9  -1 186.324 216.227   7
   2   9   2 5722.71 761.579   5
  -2   9  -2 5857.81 507.120  10
  -2   9  -2 4165.58 1127.99   5
   2   9   2 4850.17 380.326   4
   2   9   2 5570.15 308.669   4
  -2   9  -2 5378.75 458.248   7
   2   9   2 5999.07 455.128   3
   2   9   3 19210.7 783.141   3
   2   9   3 18221.7 1216.79   5
  -2   9  -3 17736.4 1527.87   5
  -2   9  -3 18892.2 916.583  10
  -2   9  -3 16913.3 836.000   7
   2   9   4 13550.1 618.401   3
   2   9   4 14364.0 1082.04   5
  -2   9  -4 12701.3 1090.00   5
  -2   9  -4 12411.5 772.320  10
  -2   9  -4 12953.0 744.364   7
   2   9   5 8060.74 452.417   3
  -2   9  -5 7945.96 755.253   5
  -2   9  -5 8217.06 641.041   7
  -2   9  -5 7415.09 635.877  10
   2   9   5 7937.16 849.633   5
   2   9   6 5929.67 390.135   3
  -2   9  -6 5064.32 537.223   5
  -2   9  -6 6193.17 595.002   7
  -2   9  -6 4803.47 575.785  10
   2   9   6 4742.44 701.667   5
   2   9   7 27015.4 1557.53   5
  -2   9  -7 30277.9 1219.97   5
   2   9   7 29692.4 1495.96   1
  -2   9  -7 27433.5 1357.95  10
  -2   9  -7 30329.6 1381.07   7
   2   9   8 13089.8 1067.52   1
   2   9   8 12533.9 1049.90   5
  -2   9  -8 11376.3 926.463  10
  -2   9  -8 11293.4 906.424   7
   2   9   9 14720.8 1173.42   5
  -2   9  -9 14736.6 1134.51  10
   2   9   9 15554.6 1253.38   1
  -2   9  -9 14284.3 1068.90   7
   2   9  10 6512.79 846.932   5
   2   9  10 6379.82 967.704   1
  -2   9 -10 5223.28 790.833  10
  -2   9 -10 4296.64 748.759   7
   2   9  11 17776.7 1322.62   5
   2   9  11 20861.2 1638.49   1
  -2   9 -11 19675.5 1423.89  10
  -2   9 -11 17883.5 1351.98   7
  -2   9 -12 6528.63 985.627  10
   2   9  12 8024.64 1192.06   1
   2   9  12 8145.09 943.830   5
  -2   9 -12 8617.29 1019.01   7
  -2   9 -13 8643.98 1131.71  10
   2   9  13 7616.21 1148.85   1
  -2   9 -13 7076.33 1055.42   7
   2  10 -14 635.842 667.964  10
  -2  10  14 2855.91 729.770   5
   2  10 -14 2256.73 588.809   4
   2  10 -13 333.978 626.337   3
  -2  10  13 1380.80 622.073   5
   2  10 -13 1507.54 655.436  10
   2  10 -13 1895.50 563.121   4
   2  10 -12 9719.36 1202.17   3
  -2  10  12 12029.5 1285.72   5
   2  10 -12 10307.7 1042.99   4
   2  10 -12 10703.0 1099.42  10
   2  10 -12 11491.8 1141.15   7
   2  10 -11 1684.79 634.919   3
  -2  10  11 2134.37 737.059   5
   2  10 -11 2064.19 591.108  10
   2  10 -11 2711.80 657.405   4
   2  10 -11 2656.17 574.331   7
   2  10 -10 11805.5 1057.42   5
   2  10 -10 11960.5 1376.41   3
  -2  10  10 12796.2 1390.87   5
   2  10 -10 12346.6 965.257   7
   2  10 -10 10802.7 1010.09   4
   2  10 -10 11856.4 982.283  10
   2  10  -9 4219.19 982.077   3
   2  10  -9 3200.56 538.937  10
   2  10  -9 3400.61 747.401   5
  -2  10   9 3041.91 939.722   5
   2  10  -9 2512.49 563.378   4
   2  10  -9 3029.08 489.702   7
   2  10  -8 30333.3 1313.37   7
   2  10  -8 35455.2 2074.92   5
  -2  10   8 32402.6 2149.80   5
   2  10  -8 30211.2 1374.56  10
   2  10  -8 32556.2 1765.33   4
   2  10  -8 30225.4 2183.91   3
   2  10  -7 4130.20 899.243   3
   2  10  -7 4021.72 809.266   5
  -2  10   7 3650.54 950.790   5
   2  10  -7 5249.01 554.218  10
   2  10  -7 5657.73 842.302   4
   2  10  -7 4856.86 449.114   7
   2  10  -6 16423.5 1352.93   5
  -2  10   6 19664.6 1685.26   5
   2  10  -6 17953.6 1394.79   4
   2  10  -6 17284.4 882.688  10
   2  10  -6 17485.0 763.120   7
   2  10  -6 17829.7 1498.08   3
   2  10  -5 8077.29 998.374   3
   2  10  -5 7927.91 968.967   5
  -2  10   5 8484.88 1202.56   5
   2  10  -5 9847.21 927.489   4
   2  10  -5 7639.95 543.561  10
   2  10  -5 8608.62 452.406   7
   2  10  -4 35160.5 1236.77  10
   2  10  -4 34720.4 1925.68   5
  -2  10   4 36114.1 2271.98   5
   2  10  -4 36259.7 1588.69   4
   2  10  -4 37252.7 1041.10   7
   2  10  -4 37411.3 1969.14   3
   2  10  -3 8927.69 994.031   5
  -2  10   3 8133.45 1125.60   5
   2  10  -3 8850.29 648.265   4
   2  10  -3 9434.68 361.899   7
   2  10  -3 9647.66 957.866   3
   2  10  -3 8645.94 516.441  10
   2  10  -2 14604.7 1210.18   5
   2  10  -2 17199.2 1175.87   3
   2  10  -2 15102.9 663.028  10
  -2  10   2 12488.0 757.366  10
   2  10  -2 14471.3 713.383   4
  -2  10   2 13834.3 1483.55   5
   2  10  -1 17228.0 1282.49   5
  -2  10   1 14019.0 1549.28   5
  -2  10   1 15973.1 838.161  10
   2  10  -1 16890.6 706.240  10
   2  10  -1 18554.3 710.338   4
   2  10  -1 19491.9 1143.82   3
   2  10   0 17624.4 1300.70   5
  -2  10   0 17043.6 1715.03   5
  -2  10   0 17198.0 862.329  10
   2  10   0 16433.0 695.879  10
   2  10   0 17267.2 624.829   4
  -2  10   0 16777.6 802.829   7
   2  10   0 19843.3 1071.96   3
   2  10   1 23116.4 1472.52   5
  -2  10  -1 23366.6 2020.13   5
  -2  10  -1 20800.6 982.028  10
   2  10   1 23172.6 720.026   4
  -2  10  -1 21667.3 934.828   7
   2  10   1 23586.4 1098.06   3
   2  10   2 3885.81 423.929   3
  -2  10  -2 4734.77 1176.97   5
  -2  10  -2 4462.08 474.100  10
   2  10   2 4648.26 274.938   4
   2  10   2 5098.55 781.154   5
  -2  10  -2 4736.44 449.012   7
   2  10   3 29684.7 1658.25   5
  -2  10  -3 28586.6 2123.45   5
  -2  10  -3 29357.0 1231.34  10
   2  10   3 30211.3 1131.75   3
   2  10   3 29219.3 888.465   4
  -2  10  -3 27693.5 1145.28   7
  -2  10  -4 5797.75 576.633  10
   2  10   4 6618.35 829.663   5
  -2  10  -4 6562.88 898.041   5
  -2  10  -4 6799.06 566.947   7
   2  10   4 7614.81 497.689   3
   2  10   5 19588.0 1343.44   5
  -2  10  -5 19350.9 1265.10   5
  -2  10  -5 19826.3 1057.54  10
  -2  10  -5 18979.8 979.369   7
   2  10   6 2023.54 562.727   5
  -2  10  -6 1362.32 403.619   5
  -2  10  -6 2018.64 444.384  10
  -2  10  -6 2961.68 492.053   7
   2  10   7 23007.5 1457.66   5
  -2  10  -7 21570.6 1216.73  10
  -2  10  -7 23003.1 1202.03   7
   2  10   8 3822.21 711.064   5
  -2  10  -8 2822.54 547.215   7
  -2  10  -8 2232.81 550.283  10
   2  10   9 10499.9 1036.32   5
  -2  10  -9 10137.9 942.060  10
  -2  10  -9 10182.2 919.954   7
  -2  10 -10 1491.06 584.017  10
   2  10  10 906.875 551.270   5
   2  10  10 1467.48 697.277   1
  -2  10 -10 893.307 513.161   7
   2  10  11 10145.4 1077.62   5
  -2  10 -11 9775.96 1124.76  10
   2  10  11 10577.0 1209.19   1
  -2  10 -11 8579.18 1001.46   7
  -2  10 -12 3059.82 737.115  10
   2  10  12 1656.94 590.469   5
   2  10  12 3023.69 885.569   1
  -2  10 -12 2067.41 649.243   7
  -2  10 -13 1032.54 675.861   7
  -2  11  13 9588.08 1175.93   5
   2  11 -13 9977.73 1152.47  10
   2  11 -12 5406.63 955.209   3
  -2  11  12 5098.34 940.844   5
   2  11 -12 4082.02 808.212  10
   2  11 -11 7980.90 1101.14   3
  -2  11  11 8435.06 1204.72   5
   2  11 -11 8477.73 918.373  10
   2  11 -10 4474.51 734.326   5
   2  11 -10 2342.42 804.488   3
  -2  11  10 4227.80 955.892   5
   2  11 -10 4144.37 666.300  10
   2  11  -9 24904.3 1703.12   5
  -2  11   9 27980.3 2077.81   5
   2  11  -9 22800.6 1275.40  10
   2  11  -9 24659.0 1896.45   3
   2  11  -8 6221.37 1079.82   3
  -2  11   8 7080.92 1170.36   5
   2  11  -8 6144.64 623.073  10
   2  11  -8 7644.78 806.946   4
   2  11  -8 9480.19 1195.70   5
   2  11  -7 20644.8 1647.82   5
  -2  11   7 19460.9 1750.81   5
   2  11  -7 17649.1 972.700  10
   2  11  -7 18613.8 1226.53   4
   2  11  -7 19301.6 1796.47   3
   2  11  -6 7605.85 1138.55   3
  -2  11   6 9394.38 1304.29   5
   2  11  -6 7742.94 599.662  10
   2  11  -6 8661.04 856.204   4
   2  11  -6 7719.39 1041.22   5
   2  11  -5 44895.5 2385.69   5
  -2  11   5 46681.9 2726.05   5
   2  11  -5 45589.1 1567.38  10
   2  11  -5 48753.5 2162.79   4
   2  11  -5 45365.2 2477.51   3
   2  11  -4 15833.6 1372.84   5
  -2  11   4 16143.1 1662.25   5
   2  11  -4 16085.3 1157.23   4
   2  11  -4 16543.2 795.480  10
   2  11  -4 12951.0 1277.02   3
   2  11  -3 30615.1 1816.45   3
   2  11  -3 31805.2 1905.73   5
  -2  11   3 28248.4 2180.48   5
   2  11  -3 29362.9 1093.07  10
   2  11  -2 21948.1 1562.09   5
  -2  11   2 19528.9 1858.14   5
   2  11  -2 19644.2 821.263  10
  -2  11   2 18404.1 949.964  10
   2  11  -2 19565.5 1364.61   3
   2  11  -1 49079.4 2344.79   5
  -2  11   1 43281.3 2788.07   5
   2  11  -1 41731.1 1347.87  10
  -2  11   1 41224.4 1534.74  10
   2  11  -1 47914.5 2075.86   3
   2  11   0 30664.8 1803.74   5
  -2  11   0 31677.9 2416.57   5
  -2  11   0 28430.1 1214.47  10
   2  11   0 28518.0 1037.34  10
   2  11   0 33208.2 1593.29   3
   2  11   1 22088.8 1510.53   5
  -2  11  -1 19160.6 900.358   7
  -2  11  -1 19159.3 1979.05   5
  -2  11  -1 19058.3 978.381  10
   2  11   1 23935.4 1245.04   3
   2  11   2 28250.5 1711.23   5
  -2  11  -2 31663.2 2593.16   5
  -2  11  -2 27050.0 1213.73  10
  -2  11  -2 27603.3 1140.01   7
   2  11   2 30726.8 1348.70   3
   2  11   3 24732.1 1573.99   5
  -2  11  -3 22956.0 1067.74   7
  -2  11  -3 26240.9 1192.87  10
   2  11   3 25046.7 1123.56   3
   2  11   4 29936.8 1752.75   5
  -2  11  -4 33233.9 2009.85   5
  -2  11  -4 30812.7 1363.18  10
  -2  11  -4 31130.0 1283.60   7
  -2  11  -5 7407.17 879.963   5
   2  11   5 7711.24 918.265   5
  -2  11  -5 9023.71 751.868  10
  -2  11  -5 8427.80 670.442   7
   2  11   6 18424.7 1385.56   5
  -2  11  -6 19220.7 1207.99   5
  -2  11  -6 19315.6 1119.70  10
  -2  11  -6 18925.3 1039.08   7
   2  11   7 13158.1 1198.85   5
  -2  11  -7 11987.5 918.028  10
  -2  11  -7 13991.3 941.592   7
  -2  11  -8 16656.9 1143.10  10
   2  11   8 17741.1 1388.95   5
  -2  11  -8 18229.1 1149.70   7
   2  11   9 5866.83 891.500   5
  -2  11  -9 4815.27 735.573  10
  -2  11  -9 5425.31 718.350   7
   2  11  10 11965.5 1183.28   5
  -2  11 -10 9281.99 950.534   7
  -2  11 -10 9302.12 1024.83  10
   2  11  11 6254.81 947.738   5
  -2  11 -11 6757.38 956.454  10
  -2  11 -11 7432.10 909.146   7
   2  11  12 8688.98 1058.53   5
  -2  11 -12 6587.93 1034.87  10
  -2  11 -12 8365.38 1044.83   7
   2  12 -12 2363.86 679.807  10
   2  12 -11 2494.61 739.558   3
  -2  12  11 2586.16 932.014   5
   2  12 -11 3321.40 674.490  10
   2  12 -10 2311.55 760.082   3
  -2  12  10 2196.97 859.588   5
   2  12 -10 1707.33 517.503  10
   2  12  -9 4374.09 883.900   3
  -2  12   9 3658.14 1003.66   5
   2  12  -9 4704.61 614.666  10
   2  12  -9 4009.71 803.446   5
   2  12  -8 9525.69 1254.23   3
  -2  12   8 9537.89 1361.81   5
   2  12  -8 8182.98 728.107  10
   2  12  -8 9270.04 1267.71   5
   2  12  -7 8305.90 1238.35   3
  -2  12   7 9460.81 1353.82   5
   2  12  -7 7713.95 665.372  10
   2  12  -7 8605.64 1194.64   5
   2  12  -6 9776.22 701.436  10
   2  12  -6 10053.1 1267.16   5
   2  12  -6 8734.74 1258.96   3
  -2  12   6 12272.7 1481.35   5
   2  12  -5 17350.6 904.598  10
   2  12  -5 18635.1 1609.67   5
  -2  12   5 22413.2 1975.99   5
   2  12  -5 17982.7 1665.14   3
   2  12  -4 23247.2 1753.79   5
  -2  12   4 24791.4 2074.09   5
   2  12  -4 21948.5 986.052  10
   2  12  -4 21686.9 1754.35   3
   2  12  -3 28618.6 1909.20   5
  -2  12   3 27144.0 2201.86   5
   2  12  -3 24581.7 1019.47  10
   2  12  -3 24796.1 1764.75   3
   2  12  -2 17119.8 1401.52   3
   2  12  -2 17036.7 1492.11   5
  -2  12   2 17752.8 1837.34   5
   2  12  -2 17281.9 799.360  10
  -2  12   2 15924.3 935.148  10
   2  12  -1 39903.5 2212.51   5
  -2  12   1 36642.6 2590.20   5
   2  12  -1 38333.5 1315.52  10
  -2  12   1 38790.2 1513.39  10
   2  12  -1 42029.6 2120.36   3
   2  12   0 29319.5 1842.45   5
  -2  12   0 24876.2 2142.68   5
  -2  12   0 25218.0 1187.41  10
   2  12   0 27476.7 1052.64  10
   2  12   0 31211.5 1705.95   3
   2  12   1 35213.2 2022.99   5
  -2  12  -1 37818.9 2719.89   5
  -2  12  -1 35142.5 1436.09  10
  -2  12  -1 35251.2 1348.73   7
   2  12   1 37963.6 1824.89   3
   2  12   2 15435.1 1316.83   5
  -2  12  -2 15202.3 1812.93   5
  -2  12  -2 13480.3 785.057   7
  -2  12  -2 13517.7 862.036  10
  -2  12  -3 37634.1 2489.67   5
  -2  12  -3 36508.2 1528.62  10
  -2  12  -3 38306.1 1447.63   7
   2  12   3 37116.6 2058.93   5
  -2  12  -4 17052.4 1433.99   5
  -2  12  -4 17075.9 946.741   7
  -2  12  -4 18161.6 1049.00  10
   2  12   4 17471.5 1433.92   5
   2  12   5 23925.0 1622.53   5
  -2  12  -5 22604.1 1507.37   5
  -2  12  -5 23784.2 1256.50  10
  -2  12  -5 23110.5 1150.32   7
  -2  12  -6 5594.73 687.814  10
   2  12   6 5505.99 850.625   5
  -2  12  -6 4458.66 573.393   7
   2  12   7 17649.2 1424.03   5
  -2  12  -7 16070.8 1108.26  10
  -2  12  -7 18002.2 1101.05   7
   2  12   8 6246.50 958.805   5
  -2  12  -8 6063.12 765.806  10
  -2  12  -8 6317.92 729.667   7
  -2  12  -9 5668.00 779.785  10
  -2  12  -9 7595.88 823.950   7
   2  12   9 7667.59 1009.50   5
   2  12  10 2288.27 726.184   5
  -2  12 -10 2156.81 689.032  10
  -2  12 -10 2703.48 644.039   7
   2  12  11 5000.89 908.414   5
  -2  12 -11 5370.45 870.125  10
  -2  12 -11 5903.84 870.205   7
   2  12  12 2690.74 721.206   5
   2  13 -11 5362.25 950.379   3
   2  13 -11 3301.92 655.267  10
   2  13 -10 2997.54 806.726   3
  -2  13  10 3153.57 938.379   5
   2  13 -10 1116.22 468.079  10
   2  13  -9 7407.97 1055.19   3
  -2  13   9 8294.59 1373.00   5
   2  13  -9 6233.86 721.184  10
   2  13  -9 7083.93 1009.85   5
   2  13  -8 5092.82 940.590   3
  -2  13   8 3124.98 988.621   5
   2  13  -8 4204.62 937.435   5
   2  13  -8 2632.60 478.923  10
   2  13  -7 9320.28 1246.72   3
  -2  13   7 7530.09 1296.83   5
   2  13  -7 8743.89 733.422  10
   2  13  -7 7964.11 1259.83   5
   2  13  -6 4417.42 998.238   3
  -2  13   6 4557.05 1112.09   5
   2  13  -6 4067.56 514.818  10
   2  13  -6 5216.80 1106.88   5
   2  13  -5 9216.21 671.953  10
   2  13  -5 10785.1 1314.31   3
   2  13  -5 7376.85 1179.44   5
  -2  13   5 11696.9 1529.59   5
   2  13  -4 6059.48 542.989  10
   2  13  -4 5219.78 1014.15   3
  -2  13   4 7266.98 1302.89   5
   2  13  -4 7012.12 1123.34   5
   2  13  -3 6706.73 1040.81   3
   2  13  -3 9300.68 1186.38   5
  -2  13   3 6911.66 1229.99   5
   2  13  -3 7354.77 559.311  10
  -2  13   2 7637.28 1315.00   5
   2  13  -2 6416.69 1013.67   3
   2  13  -2 8277.86 1165.76   5
  -2  13   2 7311.21 670.704  10
   2  13  -2 7875.59 559.928  10
  -2  13   1 6790.25 1238.33   5
   2  13  -1 7557.48 544.484  10
  -2  13   1 6524.63 647.320  10
   2  13  -1 8723.57 1140.35   5
  -2  13   0 11501.1 1535.64   5
  -2  13   0 10278.9 774.361  10
   2  13   0 10921.0 654.352  10
   2  13   0 10356.2 1201.09   5
   2  13   1 2339.05 744.950   5
  -2  13  -1 2652.50 932.283   5
  -2  13  -1 2431.69 442.227  10
  -2  13  -2 9121.22 1479.84   5
  -2  13  -2 8262.29 719.846  10
  -2  13  -2 9040.09 674.102   7
   2  13   2 8287.24 1069.41   5
   2  13   3 3656.04 771.920   5
  -2  13  -3 3776.21 942.355   5
  -2  13  -3 4203.37 578.448  10
  -2  13  -3 4213.10 497.449   7
   2  13   4 9389.90 1149.98   5
  -2  13  -4 9391.94 802.554  10
  -2  13  -4 9577.87 722.938   7
  -2  13  -4 8875.17 1105.11   5
   2  13   5-42.1218 656.223   5
  -2  13  -5 1256.93 435.164  10
  -2  13  -5 665.080 463.991   5
  -2  13  -5 627.590 370.706   7
  -2  13  -6 8825.72 849.667  10
  -2  13  -6 8121.71 751.613   7
   2  13   6 7745.83 1064.76   5
  -2  13  -7 4988.03 731.473  10
   2  13   7 3983.80 833.446   5
  -2  13  -7 4864.22 649.905   7
   2  13   8 5576.32 927.924   5
  -2  13  -8 7838.46 897.700  10
  -2  13  -8 6083.25 732.944   7
  -2  13  -9 1756.98 589.848  10
   2  13   9 1500.70 665.209   5
  -2  13  -9 1405.12 536.523   7
   2  13  10 4424.51 893.122   5
  -2  13 -10 4705.66 769.527   7
   2  13  11 3079.08 798.330   5
  -2  13 -11 3446.30 735.264   7
   2  14 -10 4747.02 923.704   3
   2  14  -9 2572.87 732.110   3
   2  14  -8 5643.05 954.733   3
   2  14  -8 5465.92 672.943  10
   2  14  -8 6842.09 1093.29   5
  -2  14   8 5967.23 1194.89   5
   2  14  -7 1494.46 607.887   3
   2  14  -7 2526.53 484.614  10
  -2  14   7 1493.23 870.548   5
   2  14  -6 6951.95 1047.75   3
   2  14  -6 5508.82 1164.99   5
  -2  14   6 6406.49 1217.43   5
   2  14  -6 5444.64 592.484  10
   2  14  -5 4025.61 832.737   3
  -2  14   5 4899.13 1079.54   5
   2  14  -5 4143.84 506.441  10
   2  14  -5 4454.85 1021.07   5
   2  14  -4 6588.58 993.831   3
  -2  14   4 5663.50 1202.73   5
   2  14  -4 6409.63 580.263  10
   2  14  -4 6120.80 1132.40   5
  -2  14   3 7824.75 1376.65   5
   2  14  -3 5168.81 1080.73   5
   2  14  -3 5466.83 534.181  10
   2  14  -2 3336.18 937.642   5
  -2  14   2 3446.39 1027.62   5
   2  14  -2 2786.06 397.834  10
  -2  14   1 8717.78 1345.63   5
   2  14  -1 7194.94 1127.18   5
  -2  14   1 8792.36 748.789  10
   2  14  -1 8348.07 611.959  10
   2  14   0 3470.27 921.717   5
  -2  14   0 3110.84 1065.43   5
  -2  14   0 3286.05 546.703  10
   2  14   1 11571.8 1334.58   5
  -2  14  -1 9461.98 1507.02   5
  -2  14  -1 9450.31 782.413  10
  -2  14  -2 2176.05 467.576  10
   2  14   2 1719.46 775.593   5
  -2  14  -2 1699.84 1029.20   5
  -2  14  -3 12170.9 928.611  10
  -2  14  -3 13448.2 1537.01   5
  -2  14  -3 12289.8 825.205   7
   2  14   3 12350.0 1317.42   5
  -2  14  -4 2936.33 757.462   5
  -2  14  -4 2465.38 462.147   7
  -2  14  -4 1629.59 492.035  10
   2  14   4 1875.75 727.862   5
   2  14   5 12879.9 1357.63   5
  -2  14  -5 11781.8 876.822   7
  -2  14  -5 12229.9 988.027  10
   2  14   6 1305.72 784.549   5
  -2  14  -6 1731.72 552.005  10
  -2  14  -6 666.340 399.531   7
   2  14   7 9557.25 1174.33   5
  -2  14  -7 9523.78 848.494   7
  -2  14  -7 10807.2 986.054  10
   2  14   8 896.670 706.506   5
  -2  14  -8 1478.11 609.176  10
  -2  14  -8 1103.05 471.396   7
   2  14   9 6084.54 1048.21   5
  -2  14  -9 6875.04 799.803   7
  -2  14 -10-191.015 499.830   7
   2  15  -9 8166.88 1080.70   3
   2  15  -8 985.794 564.415   3
   2  15  -7 7598.74 1303.89   5
   2  15  -6 3576.62 980.553   5
  -2  15   6 3176.25 1091.55   5
  -2  15   5 13069.4 1609.26   5
   2  15  -5 16853.5 1731.23   5
  -2  15   4 5369.23 1145.52   5
   2  15  -4 4286.00 1008.43   5
  -2  15   3 11452.6 1587.45   5
   2  15  -3 12093.2 1448.45   5
   2  15  -2 7482.63 1208.61   5
  -2  15   2 5727.87 1238.58   5
   2  15  -1 14248.7 1568.30   5
  -2  15   1 12031.9 1636.89   5
  -2  15   1 14051.1 985.981  10
  -2  15   0 10684.2 1559.47   5
  -2  15   0 11441.8 895.834  10
   2  15   0 12101.2 1380.79   5
   2  15   1 7512.57 1135.73   5
  -2  15  -1 6724.14 1395.91   5
  -2  15  -1 6214.25 722.414  10
  -2  15  -2 10248.9 1674.04   5
   2  15   2 11858.9 1386.44   5
  -2  15  -2 10323.4 860.719  10
  -2  15  -3 5716.50 692.054  10
  -2  15  -3 5118.34 1056.69   5
   2  15   3 6832.28 1074.50   5
  -2  15  -3 5839.22 611.668   7
   2  15   4 13342.3 1472.21   5
  -2  15  -4 12266.0 1324.33   5
  -2  15  -4 11165.2 940.295  10
  -2  15  -4 11324.5 838.611   7
   2  15   5 1561.60 847.677   5
  -2  15  -5 1199.19 539.881  10
  -2  15  -5 1296.25 407.566   7
   2  15   6 9727.52 1278.74   5
  -2  15  -6 8959.58 885.476  10
  -2  15  -6 8200.60 771.913   7
  -2  15  -7 1115.33 421.216   7
  -2  15  -8 6644.08 765.920   7
   2  16  -7 7356.16 1256.19   5
   2  16  -6 2566.79 924.206   5
   2  16  -5 9135.22 1410.77   5
   2  16  -4 4278.41 1029.48   5
  -2  16   4 3154.85 1022.32   5
   2  16  -3 12266.0 1524.99   5
  -2  16   3 13383.2 1733.42   5
   2  16  -2 4214.43 1016.81   5
  -2  16   2 5177.36 1216.76   5
  -2  16   1 15889.2 1880.12   5
   2  16  -1 16410.8 1720.37   5
  -2  16   0 7573.64 1448.81   5
   2  16   0 6260.56 1199.66   5
  -2  16   0 6752.57 759.436  10
   2  16   1 16182.5 1665.20   5
  -2  16  -1 12801.0 1750.27   5
  -2  16  -1 14233.4 1055.41  10
  -2  16  -2 5752.86 1260.41   5
   2  16   2 5839.43 1172.84   5
  -2  16  -2 5240.57 724.573  10
  -2  16  -3 13111.1 1535.45   5
  -2  16  -3 13185.0 1048.16  10
   2  16   3 13418.3 1515.04   5
  -2  16  -4 5422.97 766.872  10
  -2  17   1 176.267 869.065   5
  -2  17   0 3355.82 1154.02   5
  -2  17  -1 558.370 858.579   5
  -2  17  -2 2573.70 1011.20   5
   3 -16  -2 5511.90 1012.36   2
   3 -16  -1 7997.26 1150.34   2
   3 -16  -1 10440.3 925.332   8
   3 -16   0 5531.21 990.472   2
   3 -16   0 7535.24 825.143   8
   3 -16   1 7765.62 1022.64   2
   3 -16   1 8282.07 870.397   8
   3 -16   2 6721.75 834.281   8
   3 -16   3 5946.85 799.303   8
  -3 -15   6 1506.84 520.163   8
  -3 -15   6 796.046 591.309   2
   3 -15  -5 6015.11 1192.38   2
  -3 -15   5 5881.73 721.819   8
  -3 -15   5 5782.74 897.825   2
   3 -15  -4 2982.44 964.535   2
  -3 -15   4 1712.04 704.199   2
   3 -15  -3 3301.75 930.590   2
  -3 -15   3 5236.78 886.385   2
   3 -15  -2 3662.81 934.597   2
  -3 -15   2 1791.72 641.560  11
  -3 -15   2 2708.21 811.273   2
   3 -15  -1 4898.33 935.681   2
  -3 -15   1 3031.21 828.262   2
   3 -15   0 4946.96 873.965   2
   3 -15   0 5154.73 661.955   8
  -3 -15   0 5116.36 931.832   2
   3 -15   1 2167.45 635.292   2
   3 -15   1 1879.30 505.473   1
   3 -15   1 1456.04 483.158   8
  -3 -15  -1 2593.99 919.561   2
   3 -15   2 7523.23 888.870   2
   3 -15   2 7253.61 797.170   8
   3 -15   2 6960.34 773.176   1
  -3 -15  -2 8939.90 1297.29   2
   3 -15   3 1518.58 506.583   8
  -3 -15  -3 2714.98 882.131   2
   3 -15   3 2165.94 558.288   1
   3 -15   4 7715.49 823.548   1
   3 -15   4 8075.39 881.680   8
  -3 -15  -4 7677.70 1266.33   2
   3 -15   5-115.891 546.389   8
   3 -15   5 581.252 488.542   1
  -3 -15  -5 859.046 810.812   2
   3 -15   6 7534.90 960.428   8
  -3 -14   9-621.083 897.393   6
  -3 -14   8 7272.30 1076.05   6
  -3 -14   8 8209.99 877.713   8
  -3 -14   7 614.877 568.923   6
   3 -14  -7 2705.48 1143.07   2
  -3 -14   7 1856.15 494.282   8
   3 -14  -6 8318.08 1375.29   2
  -3 -14   6 8735.51 824.596   8
  -3 -14   6 7792.22 970.225   2
   3 -14  -5 1169.46 827.403   2
  -3 -14   5 3330.40 562.101   8
  -3 -14   5 2534.16 710.549   2
   3 -14  -4 7033.90 1192.00   2
  -3 -14   4 8053.57 996.003   2
  -3 -14   3 1419.20 533.998  11
   3 -14  -3 825.034 757.653   2
   3 -14  -2 8181.08 1140.02   2
  -3 -14   2 7039.86 943.063  11
  -3 -14   2 7878.89 1005.86   2
   3 -14  -1 2159.43 735.642   2
  -3 -14   1 2183.00 694.348   2
   3 -14   0 6991.15 990.868   2
   3 -14   0 8264.71 771.006   8
  -3 -14   0 8330.88 1114.21   2
   3 -14   1 1648.31 654.040   2
   3 -14   1 1060.54 438.020   8
   3 -14   1 1171.43 428.743   1
  -3 -14  -1-25.7704 705.149   2
   3 -14   2 5151.94 772.197   2
   3 -14   2 5324.33 690.276   8
   3 -14   2 4950.84 650.983   1
  -3 -14  -2 6591.94 1133.92   2
   3 -14   3 826.624 423.777   2
   3 -14   3 1326.91 485.606   8
   3 -14   3 1656.52 495.706   1
  -3 -14  -3 712.420 675.476   2
   3 -14   4 5993.61 753.986   8
   3 -14   4 6416.03 724.681   1
  -3 -14  -4 5493.33 1069.65   2
   3 -14   5 447.885 483.628   8
   3 -14   5 1726.68 508.506   1
  -3 -14  -5 764.039 727.935   2
   3 -14   6 1999.94 540.183   1
   3 -14   6 1491.84 581.226   8
  -3 -14  -6 3338.06 965.195   2
   3 -14   7 1424.78 536.744   1
   3 -14   7 1710.73 620.932   8
  -3 -14  -7 386.556 852.212   2
  -3 -14  -8 1459.16 890.544   2
  -3 -13  10-1129.35 1005.68   6
  -3 -13  10 1577.15 548.804   8
  -3 -13   9 5853.66 1155.16   6
   3 -13  -9 8861.71 1330.71   2
  -3 -13   9 7080.86 804.473   8
  -3 -13   8 1471.06 658.335   6
   3 -13  -8 2783.75 1047.37   2
  -3 -13   8 2410.49 565.497   8
  -3 -13   7 3194.45 814.547   6
   3 -13  -7 5334.49 1281.42   2
  -3 -13   7 5754.54 695.294   8
  -3 -13   6 1293.95 548.423   6
   3 -13  -6 2675.22 1064.41   2
  -3 -13   6 2442.55 497.429   8
  -3 -13   6 2078.57 630.870   2
  -3 -13   5 3754.61 558.575   8
   3 -13  -5 4107.50 1088.07   2
  -3 -13   5 3079.23 579.444   6
  -3 -13   5 3392.73 699.801   2
  -3 -13   4 1993.51 455.121   6
   3 -13  -4 2195.79 922.536   2
  -3 -13   4 3213.97 570.247  11
  -3 -13   4 3089.98 698.191   2
   3 -13  -3 2349.16 838.003   2
  -3 -13   3 1612.86 550.778  11
  -3 -13   3 2310.43 655.113   2
   3 -13  -2 943.926 653.061   2
  -3 -13   2 1802.29 700.419   2
   3 -13  -1 910.758 611.286   2
  -3 -13   1 454.784 612.438   2
   3 -13   0 2549.44 664.136   2
   3 -13   0 2895.07 507.982   8
  -3 -13   0 3283.43 816.280   2
   3 -13   1 301.262 465.937   2
   3 -13   1 918.214 416.642   8
   3 -13   1 545.570 357.258   1
  -3 -13  -1 735.726 673.098   2
   3 -13   2 3439.12 641.597   2
   3 -13   2 3175.67 547.219   8
  -3 -13  -2 3427.88 901.654   2
   3 -13   2 3141.91 556.687   1
   3 -13   3 53.8968 380.147   1
   3 -13   3 272.192 397.350   2
  -3 -13  -3-313.618 708.530   2
   3 -13   3 781.393 429.384   8
   3 -13   4 5901.05 703.953   1
   3 -13   4 6217.00 737.811   8
  -3 -13  -4 6223.92 1122.50   2
   3 -13   5-609.550 524.474   8
   3 -13   5 227.047 401.668   1
  -3 -13  -5 161.156 673.890   2
   3 -13   6 5688.69 732.711   1
   3 -13   6 5648.36 771.458   8
  -3 -13  -6 6537.37 1163.41   2
   3 -13   7 2119.54 579.970   1
   3 -13   7 1434.48 611.376   8
  -3 -13  -7 389.623 831.427   2
   3 -13   8 9570.76 968.038   1
   3 -13   8 9385.36 1057.24   8
  -3 -13  -8 7552.82 1387.75   2
   3 -13   9 117.862 526.815   8
   3 -13   9 442.215 520.381   1
  -3 -13  -9-152.430 767.497   2
  -3 -13 -10 7099.76 1153.09   2
  -3 -12  11 3239.06 695.671   8
   3 -12 -10 2844.26 888.216   2
  -3 -12  10 1858.60 553.417   8
   3 -12  -9 10330.1 1353.23   2
  -3 -12   9 6773.15 767.994   8
   3 -12  -8 3325.26 975.148   2
  -3 -12   8 3240.72 566.515   8
  -3 -12   7 11108.4 1203.01   6
   3 -12  -7 10928.4 1539.60   2
  -3 -12   7 9122.97 783.388   8
  -3 -12   6 1833.87 588.036   6
   3 -12  -6 3281.11 1041.87   2
  -3 -12   6 2998.43 490.705   8
  -3 -12   6 1809.02 563.823   2
  -3 -12   5 17688.1 1235.89   6
  -3 -12   5 20588.8 1385.10   2
  -3 -12   5 21129.4 1110.45   8
   3 -12  -5 22381.4 1905.71   2
  -3 -12   4 8294.78 782.192  11
  -3 -12   4 6721.70 688.455   6
   3 -12  -4 8616.85 1260.71   2
  -3 -12   4 8122.63 943.449   2
  -3 -12   3 21457.1 1099.03   6
  -3 -12   3 19775.3 1270.77  11
  -3 -12   3 22457.2 1487.69   2
   3 -12  -3 19196.8 1641.03   2
  -3 -12   2 7548.28 573.840   6
   3 -12  -2 6967.50 1035.42   2
  -3 -12   2 7165.52 862.128  11
  -3 -12   2 7317.64 960.389   2
  -3 -12   1 27859.7 1754.11   2
   3 -12  -1 25987.0 1753.60   2
   3 -12   0 13821.0 1221.06   2
  -3 -12   0 16905.9 1388.36   2
  -3 -12  -1 18812.5 1541.79   2
   3 -12   1 17990.4 1275.53   2
   3 -12   1 16767.4 988.651   8
   3 -12   2 12816.2 889.526   8
   3 -12   2 14111.7 915.591   1
   3 -12   2 11939.0 1006.76   2
  -3 -12  -2 12309.0 1274.41   2
   3 -12   3 13453.9 911.092   1
   3 -12   3 12562.2 910.311   8
   3 -12   3 13735.8 987.712   2
  -3 -12  -3 12052.1 1318.06   2
   3 -12   4 16267.8 1051.24   1
  -3 -12  -4 17069.1 1626.24   2
   3 -12   4 18550.6 1067.26   2
   3 -12   4 17116.5 1100.82   8
   3 -12   5 5965.97 681.467   1
   3 -12   5 5581.05 700.275   8
  -3 -12  -5 5323.78 981.280   2
   3 -12   6 9865.22 883.064   1
   3 -12   6 9821.74 935.415   8
  -3 -12  -6 10409.0 1413.11   2
   3 -12   7 5028.60 715.489   1
   3 -12   7 4251.06 751.687   8
  -3 -12  -7 2698.06 1002.15   2
   3 -12   8 7766.72 934.615   8
   3 -12   8 7898.12 890.261   1
  -3 -12  -8 7069.33 1254.67   2
   3 -12   9 2487.71 693.439   8
   3 -12   9 1725.20 578.418   1
  -3 -12  -9 1705.77 869.414   2
   3 -12  10 3830.89 777.253   1
   3 -12  10 3450.67 801.591   8
  -3 -12 -10 3417.04 903.735   2
  -3 -12 -11 1329.22 630.260   2
  -3 -11  12-139.919 491.373   8
   3 -11 -11 8692.02 1111.89   2
  -3 -11  11 7621.84 884.416   8
   3 -11 -10 1108.69 637.874   2
  -3 -11  10 2215.28 568.016   8
   3 -11  -9 13365.4 1404.94   2
  -3 -11   9 12723.4 981.785   8
   3 -11  -8 1268.15 857.671   2
  -3 -11   8 1733.40 470.262   8
   3 -11  -7 13702.3 1658.77   2
  -3 -11   7 11510.6 840.187   8
  -3 -11   6 1624.66 561.838   6
   3 -11  -6 3435.26 1049.99   2
  -3 -11   6 2401.02 448.640   8
  -3 -11   6 2112.29 549.536   2
  -3 -11   5 19989.3 1306.16   6
  -3 -11   5 22208.2 1089.18  11
  -3 -11   5 23760.9 1429.50   2
  -3 -11   5 22698.1 1097.76   8
   3 -11  -5 22691.6 1917.95   2
  -3 -11   4 5044.53 625.453   6
   3 -11  -4 6350.90 1048.56   2
  -3 -11   4 6358.02 627.597  11
  -3 -11   4 5620.86 763.120   2
  -3 -11   3 13103.1 838.468   6
   3 -11  -3 13425.5 1363.95   2
  -3 -11   3 13445.3 992.435  11
  -3 -11   3 13511.0 1115.53   2
  -3 -11   3 13151.0 628.108   1
  -3 -11   2 7328.98 566.405   6
   3 -11  -2 7655.77 1022.10   2
  -3 -11   2 5923.08 764.361  11
  -3 -11   2 7195.48 848.018   2
  -3 -11   1 29620.6 1087.54   6
  -3 -11   1 29686.1 1726.22   2
   3 -11  -1 29139.9 1810.91   2
  -3 -11   0 13817.6 603.590   6
  -3 -11   0 14453.7 1254.14   2
   3 -11   0 12752.3 1146.76   2
   3 -11   1 7882.74 856.994   2
   3 -11   1 8324.23 660.208   8
  -3 -11  -1 8582.87 1101.34   2
   3 -11   2 14028.4 886.720   1
  -3 -11  -2 13930.5 1342.16   2
   3 -11   2 14142.7 1054.43   2
   3 -11   2 13569.9 860.590   8
   3 -11   3 18165.5 1029.15   1
  -3 -11  -3 17622.2 1546.93   2
   3 -11   3 18595.5 1108.38   2
   3 -11   3 18485.1 1053.62   8
   3 -11   4 20421.4 1127.12   1
  -3 -11  -4 22335.7 1766.03   2
   3 -11   4 21085.4 1111.81   2
   3 -11   4 21282.3 1183.20   8
   3 -11   5 3497.74 576.938   8
   3 -11   5 5965.24 650.432   1
  -3 -11  -5 5624.40 1104.36   2
   3 -11   6 17717.0 1114.14   1
  -3 -11  -6 17036.5 1728.19   2
   3 -11   6 19726.8 1246.88   8
   3 -11   7 9622.34 876.877   1
   3 -11   7 8637.50 936.826   8
  -3 -11  -7 7775.72 1292.82   2
   3 -11   8 18524.0 1269.00   1
   3 -11   8 18214.5 1360.24   8
  -3 -11  -8 17761.1 1872.42   2
   3 -11   9 3326.86 708.304   1
   3 -11   9 3291.89 782.750   8
  -3 -11  -9 1016.52 852.341   2
   3 -11  10 13809.6 1211.59   1
   3 -11  10 13099.0 1290.60   8
  -3 -11 -10 12166.8 1311.32   2
   3 -11  11 3290.73 770.261   1
   3 -11  11 1969.06 685.883   8
  -3 -11 -11 3421.20 800.505   2
   3 -10 -13 1593.65 619.089   2
  -3 -10  13 1637.35 650.175   8
   3 -10 -12 8837.84 1093.83   2
  -3 -10  12 7346.61 895.819   8
   3 -10 -11 2721.92 748.299   2
  -3 -10  11 2612.42 612.513   8
   3 -10 -10 6356.72 989.859   2
  -3 -10  10 5978.84 769.755   8
   3 -10  -9 5227.50 954.189   2
  -3 -10   9 4878.61 659.023   8
  -3 -10   8 14841.7 974.737   8
   3 -10  -8 15808.7 1524.82   2
   3 -10  -7 4190.70 1020.41   2
  -3 -10   7 4205.94 521.538   8
  -3 -10   6 7323.89 918.688   6
   3 -10  -6 9414.85 1382.54   2
  -3 -10   6 8999.48 582.177  11
  -3 -10   6 8686.76 676.501   8
  -3 -10   5 4435.79 658.079   6
   3 -10  -5 7494.05 1196.21   2
  -3 -10   5 6792.54 568.090  11
  -3 -10   5 7517.42 617.306   8
  -3 -10   5 6096.41 736.317   2
  -3 -10   4 15188.1 1012.68   6
  -3 -10   4 14669.3 648.818   1
  -3 -10   4 15910.0 928.164  11
  -3 -10   4 14873.9 1089.72   2
   3 -10  -4 16557.5 1542.56   2
  -3 -10   3 3342.17 532.528  11
  -3 -10   3 2788.58 441.816   6
   3 -10  -3 3418.02 818.555   2
  -3 -10   3 3762.11 314.155   1
  -3 -10   3 2553.23 577.919   2
  -3 -10   2 9046.74 611.677   6
  -3 -10   2 7613.14 796.295  11
   3 -10  -2 8898.72 1067.39   2
  -3 -10   2 7969.82 876.534   2
  -3 -10   1 4373.94 390.585   6
   3 -10  -1 3963.96 284.298   3
   3 -10  -1 3899.61 733.483   2
  -3 -10   1 2950.99 602.448   2
  -3 -10   0 16273.9 668.640   6
  -3 -10   0 15969.9 1247.69   2
   3 -10   0 14470.1 1167.43   2
  -3 -10  -1 790.165 150.438   6
   3 -10   1 861.035 462.799   2
   3 -10   1 885.056 303.297   8
   3 -10   1 375.712 134.254   4
  -3 -10  -1 1392.04 638.767   2
   3 -10   2 7602.83 761.220   2
   3 -10   2 8221.65 662.635   1
   3 -10   2 8712.26 413.139   4
   3 -10   2 8590.81 668.981   8
  -3 -10  -2 6756.36 920.429   2
   3 -10   3 1776.28 417.023   2
   3 -10   3 2236.74 437.898   1
   3 -10   3 2107.01 419.695   8
  -3 -10  -3 2357.61 747.941   2
   3 -10   4 13283.3 868.477   1
   3 -10   4 14125.9 856.930   2
   3 -10   4 13833.9 912.971   8
  -3 -10  -4 12403.4 1353.50   2
   3 -10   5 912.751 297.635   2
   3 -10   5 135.710 390.542   8
  -3 -10  -5 1318.36 727.247   2
   3 -10   5 1054.90 396.449   1
   3 -10   6 5355.52 637.628   1
   3 -10   6 6514.64 752.637   8
  -3 -10  -6 6426.53 1147.30   2
   3 -10   7 2912.25 582.527   1
   3 -10   7 2657.11 631.505   8
  -3 -10  -7 2158.45 1036.17   2
  -3 -10  -8 9876.85 1448.15   2
   3 -10   8 9370.42 914.086   1
   3 -10   8 9502.47 991.230   8
  -3 -10  -9 766.237 866.840   2
   3 -10   9 774.406 492.045   1
   3 -10   9 925.243 534.207   8
   3 -10  10 2676.02 679.493   1
   3 -10  10 1988.55 701.249   8
  -3 -10 -10 2783.59 812.154   2
   3 -10  11 1506.16 586.209   1
   3 -10  11 1048.01 672.865   8
  -3 -10 -11 1436.45 629.867   2
   3 -10  12 1136.56 603.380   1
   3 -10  12-381.480 852.179   8
   3  -9 -14 2400.99 705.629   2
  -3  -9  14 1486.75 621.542   8
  -3  -9  13 6489.80 924.610   8
   3  -9 -13 8863.02 1035.67   2
   3  -9 -12 5408.15 889.363   2
  -3  -9  12 4939.52 780.259   8
   3  -9 -11 6107.79 900.496   2
   3  -9 -11 4359.13 738.420   4
  -3  -9  11 4678.83 708.557   8
   3  -9 -10 5242.01 891.798   2
   3  -9 -10 3925.23 712.042   4
  -3  -9  10 4122.68 643.383   8
   3  -9  -9 10728.4 1165.31   2
  -3  -9   9 9354.16 792.412   8
   3  -9  -9 9714.57 1053.25   4
   3  -9  -8 12162.3 1269.24   2
  -3  -9   8 9627.17 761.366   8
   3  -9  -8 10162.1 1142.98   4
   3  -9  -7 3286.19 909.444   2
   3  -9  -7 3445.14 655.819   4
  -3  -9   7 2555.42 432.016   8
  -3  -9   6 12190.4 651.270   1
   3  -9  -6 12355.5 1524.87   2
  -3  -9   6 12236.6 638.823  11
   3  -9  -6 12428.6 953.158   4
  -3  -9   6 11949.6 746.933   8
  -3  -9   5 10843.7 964.768   6
  -3  -9   5 11270.9 917.707   2
  -3  -9   5 11790.6 693.253  11
  -3  -9   5 12052.6 582.041   1
   3  -9  -5 12420.7 1399.59   2
  -3  -9   5 10992.2 687.329   8
   3  -9  -5 10648.7 787.525   4
  -3  -9   4 16504.0 1056.18   6
   3  -9  -4 16257.4 1516.46   2
  -3  -9   4 19120.3 975.181  11
  -3  -9   4 19641.2 719.186   1
  -3  -9   4 19312.6 1191.85   2
   3  -9  -4 18557.3 915.464   4
  -3  -9   3 845.819 341.121   6
  -3  -9   3 1058.11 181.814   1
   3  -9  -3 1173.70 704.344   2
   3  -9  -3 907.574 135.232   3
  -3  -9   3 1025.65 369.146  11
   3  -9  -3 1137.64 242.456   4
  -3  -9   3 1312.86 502.743   2
  -3  -9   2 18763.9 877.570   6
   3  -9  -2 16792.2 584.212   3
   3  -9  -2 16440.3 1351.52   2
  -3  -9   2 16928.8 1144.35   2
  -3  -9   2 16060.8 1059.34  11
   3  -9  -2 17017.3 691.378   4
  -3  -9   1 14069.8 680.327   6
   3  -9  -1 13837.6 560.676   3
  -3  -9   1 12840.5 1035.15   2
   3  -9  -1 13011.1 1172.92   2
   3  -9  -1 14583.6 578.294   4
  -3  -9   0 21777.5 791.687   6
   3  -9   0 21203.9 1373.49   2
  -3  -9   0 20389.5 1335.64   2
   3  -9   0 21156.9 725.110   4
  -3  -9  -1 5585.51 324.854   6
   3  -9   1 5690.64 505.179   8
   3  -9   1 6396.83 744.363   2
   3  -9   1 5080.65 319.746   4
  -3  -9  -1 5865.31 803.278   2
   3  -9   2 13002.0 782.399   1
  -3  -9  -2 14095.8 1188.27   2
   3  -9   2 14257.8 567.294   4
   3  -9   2 13020.8 778.130   8
   3  -9   2 14477.6 980.273   2
  -3  -9  -2 13731.5 472.877   6
   3  -9   3 17428.2 946.711   8
   3  -9   3 19753.3 1065.82   2
  -3  -9  -3 18849.6 1429.07   2
   3  -9   3 17667.1 937.775   1
   3  -9   4 11301.3 775.529   1
   3  -9   4 12571.2 767.518   2
   3  -9   4 11323.1 799.951   8
  -3  -9  -4 11090.2 1182.37   2
   3  -9   5 5967.64 481.556   2
   3  -9   5 6076.74 620.852   1
   3  -9   5 5675.60 626.042   8
  -3  -9  -5 7040.76 1075.38   2
   3  -9   6 5719.60 653.081   1
   3  -9   6 7107.34 748.465   8
   3  -9   7 16435.5 1082.86   1
   3  -9   7 15476.8 1137.11   8
  -3  -9  -7 16063.7 1642.35   2
  -3  -9  -8 11395.8 1455.92   2
   3  -9   8 14198.7 1067.96   1
   3  -9   8 10768.3 1040.03   8
  -3  -9  -9 3676.35 1017.65   2
  -3  -9  -9 4241.74 632.697  10
   3  -9   9 4776.77 713.243   1
   3  -9   9 3476.07 746.418   8
   3  -9  10 6516.66 886.685   1
  -3  -9 -10 5625.77 709.460  10
   3  -9  10 4995.29 897.356   8
  -3  -9 -10 6542.51 959.340   2
   3  -9  11 7905.90 988.463   1
   3  -9  11 7299.53 1075.27   8
  -3  -9 -11 7672.25 924.453   2
   3  -9  12 9378.90 1135.54   1
   3  -9  12 7616.43 1124.16   8
  -3  -8  15-207.554 661.030   8
   3  -8 -14 748.950 583.643   2
   3  -8 -14 2135.65 645.810   4
  -3  -8  14 807.200 616.472   8
   3  -8 -13 6497.56 890.535   2
   3  -8 -13 4993.88 784.076   4
  -3  -8  13 5051.53 853.424   8
   3  -8 -12 5406.16 812.259   2
   3  -8 -12 4260.60 796.812   4
  -3  -8  12 4565.40 791.672   8
   3  -8 -11 6910.12 923.221   2
   3  -8 -11 6164.08 924.231   4
  -3  -8  11 6210.40 799.801   8
   3  -8 -10 2891.94 738.390   2
   3  -8 -10 2512.55 725.007   4
  -3  -8  10 2626.48 553.381   8
  -3  -8   9 20454.3 1156.67   8
   3  -8  -9 20100.9 1630.65   4
   3  -8  -9 19336.9 1487.87   2
   3  -8  -8 12786.2 1158.68   4
  -3  -8   8 10080.0 762.145   8
   3  -8  -8 9642.49 1132.03   2
  -3  -8   7 24812.6 860.306  11
   3  -8  -7 24366.8 1421.34   4
  -3  -8   7 24243.2 1116.14   8
   3  -8  -7 24696.6 1778.31   2
  -3  -8   7 24892.0 1070.63   1
   3  -8  -6 6282.22 1045.24   2
  -3  -8   6 5315.84 804.704   6
  -3  -8   6 7409.04 570.867   8
  -3  -8   6 7089.87 457.094  11
   3  -8  -6 6435.67 669.310   4
  -3  -8   6 5718.00 439.239   1
  -3  -8   5 43469.8 1937.14   6
  -3  -8   5 46682.0 1524.10  11
  -3  -8   5 47102.2 1362.27   1
   3  -8  -5 46502.0 1668.67   4
  -3  -8   5 45329.9 1513.59   8
   3  -8  -5 47333.9 2677.07   2
   3  -8  -5 45177.2 1237.26   3
   3  -8  -4 21953.9 684.892   3
  -3  -8   4 21386.9 1162.49   6
  -3  -8   4 22233.7 744.898   1
  -3  -8   4 22490.9 1257.05   2
   3  -8  -4 22232.0 954.681   4
  -3  -8   4 20497.3 987.250  11
   3  -8  -4 21899.4 1757.91   2
  -3  -8   3 41285.3 1553.20   6
   3  -8  -3 41458.8 1123.24   3
  -3  -8   3 42418.6 1151.67   1
  -3  -8   3 42671.0 1801.52   2
   3  -8  -3 42504.9 1331.58   4
  -3  -8   3 42026.6 1279.99   1
  -3  -8   3 41193.5 1596.11  11
   3  -8  -3 38273.9 2186.13   2
  -3  -8   2 9418.97 599.722   6
   3  -8  -2 8125.84 382.349   3
   3  -8  -2 8238.93 1026.57   2
  -3  -8   2 9047.21 763.787  11
  -3  -8   2 8558.26 543.670  10
  -3  -8   2 7719.76 763.230   2
   3  -8  -2 7995.64 446.461   4
  -3  -8   2 8345.88 519.551   1
  -3  -8   1 53084.2 1550.30   6
   3  -8  -1 51925.1 1404.66   3
  -3  -8   1 46889.5 1454.83  10
  -3  -8   1 53787.6 2110.32   2
   3  -8  -1 54088.9 1421.03   4
   3  -8  -1 47515.1 2216.10   2
  -3  -8   1 46915.8 1998.35  11
  -3  -8   0 33223.5 1041.20   6
  -3  -8   0 31729.4 979.930  10
   3  -8   0 31899.5 1659.29   2
  -3  -8   0 33441.5 1632.51   2
   3  -8   0 32831.8 982.665   4
  -3  -8  -1 35049.8 1010.31   6
   3  -8   1 34913.0 1025.59   4
  -3  -8  -1 34055.7 989.609  10
  -3  -8  -1 34916.3 1726.40   2
   3  -8   1 34514.8 1238.76   8
   3  -8   1 31773.6 1572.08   2
   3  -8   2 10120.5 807.775   2
   3  -8   2 11576.3 694.566   1
  -3  -8  -2 10714.5 445.979  10
   3  -8   2 10932.8 671.220   8
  -3  -8  -2 11905.5 1045.74   2
  -3  -8  -2 11459.8 427.598   6
  -3  -8  -3 32011.0 1771.94   2
   3  -8   3 31661.9 1274.87   1
   3  -8   3 31552.9 1359.34   2
   3  -8   3 30107.7 1284.68   8
  -3  -8  -3 32559.0 849.017   6
   3  -8   4 34056.3 1387.43   1
  -3  -8  -4 38070.7 2000.89   2
   3  -8   4 35042.3 1458.31   8
   3  -8   4 36855.9 1373.17   2
  -3  -8  -4 35001.1 906.483   7
   3  -8   5 9479.33 721.481   1
   3  -8   5 10384.3 594.922   2
   3  -8   5 10950.0 836.099   8
  -3  -8  -5 9488.88 505.601   7
  -3  -8  -5 9687.85 1110.46   2
   3  -8   6 12876.3 901.979   1
   3  -8   6 11817.4 566.837   2
   3  -8   6 12828.5 959.909   8
  -3  -8  -6 12117.4 750.692   7
  -3  -8  -6 11673.3 1261.83   2
   3  -8   7 14292.7 996.795   1
   3  -8   7 12926.6 1045.85   8
  -3  -8  -7 11766.2 880.397   7
  -3  -8  -7 13103.2 1404.71   2
   3  -8   8 17886.7 1170.67   1
  -3  -8  -8 15323.8 1064.18  10
  -3  -8  -8 16105.3 1609.24   2
   3  -8   8 16683.7 1248.61   8
  -3  -8  -8 17109.0 1235.08   7
  -3  -8  -9 1299.69 418.968  10
   3  -8   9 1493.73 653.120   8
  -3  -8  -9 976.977 642.244   2
  -3  -8 -10 4230.54 615.486  10
   3  -8  10 2775.00 781.287   8
   3  -8  10 4536.96 748.742   1
  -3  -8 -10 4717.35 780.957   2
   3  -8  11 3137.58 716.860   1
  -3  -8 -11 2365.08 527.582  10
   3  -8  11 1303.53 671.155   8
  -3  -8 -11 2379.93 566.639   2
  -3  -8 -12 4180.47 650.862  10
   3  -8  12 3697.04 859.689   8
   3  -8  12 4093.67 825.289   1
  -3  -8 -13 763.345 533.644  11
   3  -8  13 38.8792 612.744   8
   3  -8  13 33.6605 650.227   1
  -3  -8 -14-188.539 452.336  11
   3  -7 -15 1842.80 602.459   2
  -3  -7  15 713.488 524.582   8
   3  -7 -15 2696.67 671.233   4
  -3  -7  14 5467.18 985.762   6
   3  -7 -14 4953.09 806.803   2
   3  -7 -14 2913.21 716.805   4
  -3  -7  14 2070.67 627.192   8
  -3  -7  13 6556.11 1026.89   6
   3  -7 -13 4436.04 761.456   2
   3  -7 -13 4367.67 803.828   4
  -3  -7  13 5547.38 886.299   8
   3  -7 -12 6367.40 857.303   2
  -3  -7  12 6426.23 845.177   8
   3  -7 -12 7254.02 1023.48   4
   3  -7 -11 3268.93 717.583   2
   3  -7 -11 1214.27 657.729   4
  -3  -7  11 2242.77 559.824   8
   3  -7 -10 4322.92 791.842   2
   3  -7 -10 3091.67 832.897   4
  -3  -7  10 3529.38 574.504   8
   3  -7  -9 16504.0 1391.00   4
  -3  -7   9 18396.2 1083.27   8
   3  -7  -9 20389.2 1471.22   2
  -3  -7   8 7269.84 636.191   8
   3  -7  -8 7178.52 849.451   4
   3  -7  -8 9036.39 1014.09   2
  -3  -7   8 8452.87 595.288   1
   3  -7  -7 13774.9 1000.98   4
  -3  -7   7 13830.5 792.806   8
   3  -7  -7 13989.1 1263.71   2
  -3  -7   7 14441.5 591.678  11
  -3  -7   7 14734.0 820.467   1
   3  -7  -7 14380.6 725.298   3
  -3  -7   6 9137.76 901.483   6
   3  -7  -6 10731.3 768.060   4
  -3  -7   6 9789.64 618.627   8
   3  -7  -6 10674.2 1159.98   2
  -3  -7   6 10034.8 579.829   1
   3  -7  -6 10121.4 510.235   3
  -3  -7   6 10610.1 541.129  11
  -3  -7   5 58834.3 1649.08   1
  -3  -7   5 57920.2 2238.44   6
  -3  -7   5 63330.2 1813.82  11
   3  -7  -5 62449.5 1956.13   4
  -3  -7   5 60990.2 1807.94   8
   3  -7  -5 66347.4 3090.86   2
   3  -7  -5 60433.2 1593.15   3
   3  -7  -4 24402.1 756.359   3
  -3  -7   4 23406.5 1174.15   6
  -3  -7   4 24497.0 759.451   1
  -3  -7   4 24146.6 1021.83  11
  -3  -7   4 23239.0 1242.39   2
  -3  -7   4 23480.5 760.083   1
   3  -7  -4 24825.6 975.553   4
   3  -7  -4 21254.2 1691.21   2
  -3  -7   3 44006.9 1569.35   6
   3  -7  -3 44373.8 1187.29   3
   3  -7  -3 46201.3 2339.78   2
  -3  -7   3 39981.9 1529.91  10
  -3  -7   3 44438.0 1146.30   1
  -3  -7   3 45154.7 1598.46  11
  -3  -7   3 46263.8 1814.31   2
   3  -7  -3 46082.0 1365.62   4
  -3  -7   3 42126.6 1236.50   1
  -3  -7   2 33307.7 1185.21   6
   3  -7  -2 31986.2 933.981   3
  -3  -7   2 29570.6 1334.54  11
  -3  -7   2 30087.5 1122.41  10
  -3  -7   2 32655.3 1491.28   2
   3  -7  -2 33260.5 1022.53   4
  -3  -7   2 30292.5 1033.49   1
   3  -7  -2 31162.0 1805.07   2
  -3  -7   1 107718. 2644.59   6
   3  -7  -1 103637. 2496.61   3
  -3  -7   1 103091. 3143.20  11
  -3  -7   1 99670.9 2529.25  10
  -3  -7   1 104736. 3190.10   2
  -3  -7   1 92545.9 2663.70   1
   3  -7  -1 106257. 2505.58   4
   3  -7  -1 94740.3 3431.68   2
  -3  -7   0 61354.1 1632.63   6
  -3  -7   0 60960.0 2305.50  11
  -3  -7   0 59655.3 2239.85   2
   3  -7   0 59674.8 1574.31   4
   3  -7   0 61893.9 1730.20   8
   3  -7   0 55714.8 2305.43   2
  -3  -7   0 58771.9 1515.48  10
  -3  -7  -1 51097.4 1366.24   6
  -3  -7  -1 50327.0 2046.71   2
  -3  -7  -1 50414.8 1278.68  10
   3  -7   1 50630.2 1386.80   4
   3  -7   1 52685.9 1583.91   8
   3  -7   1 50280.5 2003.04   2
   3  -7   2 52896.4 1960.73   2
  -3  -7  -2 54503.1 1359.00  10
   3  -7   2 54679.1 1727.08   1
  -3  -7  -2 56990.4 2225.05   2
   3  -7   2 54011.6 1719.28   8
  -3  -7  -2 55244.8 1393.28   6
  -3  -7  -3 80525.5 1949.30  10
   3  -7   3 80059.7 2353.24   1
  -3  -7  -3 81544.5 2916.41   2
   3  -7   3 80456.7 2401.38   8
   3  -7   3 78281.9 2441.32   2
  -3  -7  -3 81827.8 1918.68   6
  -3  -7  -4 61316.3 1619.43  10
   3  -7   4 61554.7 1999.98   1
  -3  -7  -4 59082.0 2496.76   2
   3  -7   4 62680.3 2089.15   8
   3  -7   4 64873.2 1945.94   2
  -3  -7  -4 62687.9 1565.87   7
   3  -7   5 27774.6 1014.56   2
   3  -7   5 28403.3 1263.89   1
  -3  -7  -5 25572.9 1641.36   2
   3  -7   5 27341.6 1343.76   8
  -3  -7  -5 30013.1 1050.11   7
   3  -7   6 38689.7 1602.56   1
  -3  -7  -6 39489.8 2090.55   2
   3  -7   6 39439.6 1143.23   2
   3  -7   6 39394.1 1738.02   8
  -3  -7  -6 38521.6 1493.02   7
   3  -7   7 38568.7 1669.29   1
  -3  -7  -7 34868.4 1571.84  10
  -3  -7  -7 38867.9 2152.92   2
   3  -7   7 34357.2 1730.54   8
  -3  -7  -7 37295.2 1648.75   7
   3  -7   8 30498.0 1559.64   1
  -3  -7  -8 30628.2 1472.16  10
  -3  -7  -8 28738.0 1948.14   2
   3  -7   8 27708.3 1634.15   8
  -3  -7  -8 29148.8 1623.77   7
   3  -7   9 11855.5 1039.46   1
  -3  -7  -9 11347.9 893.613  10
  -3  -7  -9 14605.7 1301.35   2
   3  -7   9 11767.6 1139.26   8
  -3  -7  -9 11484.7 1172.23   7
  -3  -7 -10 12653.0 967.878  10
  -3  -7 -10 13830.8 1133.76   2
   3  -7  10 13627.8 1309.10   8
  -3  -7 -10 13340.5 1238.96   7
   3  -7  10 12893.6 1144.58   1
  -3  -7 -11 15219.1 1106.01   2
  -3  -7 -11 15286.0 1083.09  10
   3  -7  11 13881.5 1375.10   8
  -3  -7 -11 16311.6 1283.40   7
   3  -7  11 14621.9 1299.09   1
  -3  -7 -12 11954.5 1068.77  11
  -3  -7 -12 12214.3 1007.14  10
   3  -7  12 10319.8 1157.00   8
  -3  -7 -12 13173.1 1126.89   7
   3  -7  12 10648.4 1210.73   1
  -3  -7 -13 5222.00 754.740  11
  -3  -7 -13 5747.39 729.805  10
   3  -7  13 6379.71 980.613   8
   3  -7  13 5199.40 926.516   1
  -3  -7 -14 3560.32 665.574  11
  -3  -7 -14 3436.37 608.665  10
   3  -7  14 3344.19 880.847   1
   3  -7  14 4209.63 806.361   8
   3  -6 -15 1416.38 558.013   2
   3  -6 -15 2484.99 669.887   4
  -3  -6  15 638.290 479.240   8
  -3  -6  14 1584.34 737.574   6
   3  -6 -14 1550.77 670.625   4
   3  -6 -14 643.758 528.763   2
  -3  -6  14-153.718 513.774   8
  -3  -6  13 6277.44 943.685   6
  -3  -6  13 5811.48 882.224   8
   3  -6 -13 5747.69 801.443   2
   3  -6 -13 5072.51 895.342   4
  -3  -6  12 15409.7 1454.27   6
   3  -6 -12 15886.4 1247.41   2
   3  -6 -12 16361.2 1498.52   4
  -3  -6  12 15586.3 1276.65   8
   3  -6 -11 4180.82 957.366   4
  -3  -6  11 4875.38 715.539   8
   3  -6 -11 3962.25 741.742   2
   3  -6 -10 6402.12 904.814   2
   3  -6 -10 5724.50 953.070   4
  -3  -6  10 5861.79 708.631   8
  -3  -6   9 15170.2 962.204   8
   3  -6  -9 12266.9 1140.62   4
  -3  -6   9 13727.6 756.650   1
   3  -6  -9 14651.5 954.374   3
  -3  -6   8 38992.4 1110.75  11
   3  -6  -8 37810.8 1817.77   4
  -3  -6   8 41232.1 1572.01   8
  -3  -6   8 38870.3 1338.34   1
   3  -6  -8 39763.1 2024.81   2
   3  -6  -8 39057.3 1490.56   3
  -3  -6   7 4603.98 750.197   6
  -3  -6   7 6397.11 375.159  11
  -3  -6   7 5467.54 499.476   8
  -3  -6   7 6500.70 452.547   1
   3  -6  -7 6508.67 885.568   2
   3  -6  -7 7041.12 695.261   4
   3  -6  -7 6749.04 498.671   3
  -3  -6   6 12769.9 1036.21   6
   3  -6  -6 15004.9 886.410   4
  -3  -6   6 13683.3 720.938   8
   3  -6  -6 14692.7 1291.08   2
  -3  -6   6 14300.6 675.028   1
  -3  -6   6 14383.8 622.736  11
   3  -6  -6 14138.1 627.932   3
   3  -6  -5 16100.6 623.245   3
  -3  -6   5 14304.2 979.463   6
  -3  -6   5 16788.1 726.793  11
   3  -6  -5 17993.8 851.405   4
  -3  -6   5 15451.6 719.911   8
   3  -6  -5 17522.3 1438.81   2
  -3  -6   5 16330.5 656.350   1
  -3  -6   4 41407.8 1102.44   1
   3  -6  -4 41994.2 1154.49   3
  -3  -6   4 41784.5 1605.93   6
  -3  -6   4 42868.2 1397.14  11
  -3  -6   4 39169.9 1050.22   1
   3  -6  -4 42103.0 1347.98   4
   3  -6  -3 4549.96 285.358   3
  -3  -6   3 4813.20 468.514   6
   3  -6  -3 5342.41 941.938   2
  -3  -6   3 4625.09 449.209  11
   3  -6  -3 5051.22 362.832   4
  -3  -6   3 4393.10 264.697   1
  -3  -6   3 4635.29 220.256   1
  -3  -6   3 4602.68 543.430   2
  -3  -6   2 14887.5 716.246   6
  -3  -6   2 13180.7 802.640  11
   3  -6  -2 14757.0 545.826   3
  -3  -6   2 13023.7 686.833  10
  -3  -6   2 14055.7 916.009   2
   3  -6  -2 14483.4 592.835   4
  -3  -6   2 13225.8 581.039   1
   3  -6  -2 14954.4 1261.81   2
  -3  -6   1 5884.10 407.711   6
  -3  -6   1 6016.61 597.587  11
   3  -6  -1 5783.06 338.033   4
   3  -6  -1 6077.63 352.097   3
   3  -6  -1 6528.51 837.558   2
  -3  -6   1 5485.03 344.800  10
  -3  -6   1 5080.20 395.835   1
  -3  -6   1 5112.54 612.660   2
  -3  -6   0 28298.2 895.311   6
  -3  -6   0 24692.9 1310.12  11
  -3  -6   0 25269.1 743.698  10
  -3  -6   0 29091.3 1348.42   2
   3  -6   0 26420.8 843.317   4
   3  -6   0 27528.0 927.154   8
  -3  -6   0 25755.8 1094.75   1
   3  -6   0 27440.8 1481.79   2
  -3  -6  -1 1097.46 457.252  11
  -3  -6  -1 617.521 146.037   6
   3  -6   1-160.585 368.587   2
  -3  -6  -1 556.279 76.5151  10
   3  -6   1 591.721 200.273   8
   3  -6   1 515.094 232.738   1
  -3  -6  -1 301.298 377.742   2
   3  -6   2 2639.61 355.177   1
   3  -6   2 2125.19 399.671   2
  -3  -6  -2 2142.97 138.303  10
   3  -6   2 2202.07 305.147   8
  -3  -6  -2 2493.16 511.825   2
  -3  -6  -2 2259.33 195.617   6
  -3  -6  -3 8066.00 816.818   2
   3  -6   3 7565.04 596.700   2
   3  -6   3 7440.05 551.311   1
  -3  -6  -3 7925.43 279.717   7
   3  -6   3 7462.37 578.786   8
  -3  -6  -3 7787.24 320.495  10
  -3  -6  -3 7554.14 342.993   6
  -3  -6  -4 17673.2 621.140  10
   3  -6   4 16999.3 893.752   1
   3  -6   4 16166.9 790.683   5
  -3  -6  -4 17350.9 1186.97   2
   3  -6   4 17967.0 973.611   8
   3  -6   4 17821.1 820.050   2
  -3  -6  -4 18840.2 650.278   7
   3  -6   5 2016.34 252.554   5
   3  -6   5 2291.79 259.145   2
   3  -6   5 2796.61 422.342   1
  -3  -6  -5 1403.69 344.039  10
  -3  -6  -5 1749.72 285.897   7
   3  -6   5 1559.97 426.592   8
  -3  -6  -5 1642.75 545.998   2
  -3  -6  -6 1517.06 379.806  10
   3  -6   6 2310.66 194.221   2
   3  -6   6 1666.19 499.511   8
   3  -6   6 2126.79 437.613   1
  -3  -6  -6 2237.32 380.572   7
  -3  -6  -6 1645.15 520.567   2
   3  -6   7 9856.74 840.848   1
  -3  -6  -7 10617.0 818.184  10
  -3  -6  -7 11785.4 1106.49   2
   3  -6   7 9171.54 910.499   8
  -3  -6  -7 10564.7 837.640   7
   3  -6   8 11623.3 973.716   1
  -3  -6  -8 11693.1 870.429  10
  -3  -6  -8 12522.5 1202.44   2
   3  -6   8 10062.4 1028.77   8
  -3  -6  -8 10450.6 961.729   7
   3  -6   9 3403.51 633.887   1
  -3  -6  -9 2938.97 528.123  10
   3  -6   9 1790.15 609.154   8
  -3  -6  -9 2964.53 690.009   7
  -3  -6  -9 2719.18 656.403   2
   3  -6  10 1349.94 530.299   1
  -3  -6 -10 1269.61 420.397  10
   3  -6  10 1675.02 709.202   8
  -3  -6 -10 1632.13 701.111   7
  -3  -6 -10 1843.86 496.695   2
  -3  -6 -11 4741.17 736.566  11
  -3  -6 -11 4098.02 596.045  10
   3  -6  11 3729.89 774.154   8
  -3  -6 -11 3363.82 695.621   7
   3  -6  11 4333.38 838.447   1
  -3  -6 -11 3775.66 557.228   2
  -3  -6 -12 3490.09 597.372  10
   3  -6  12 3547.75 814.569   8
   3  -6  12 2699.95 770.849   1
  -3  -6 -12 3293.15 631.522  11
  -3  -6 -12 4023.75 770.537   7
  -3  -6 -13 1084.08 475.519  10
  -3  -6 -13 1885.34 637.730   7
   3  -6  13 860.380 674.006   1
   3  -6  13 1132.92 659.927   8
  -3  -6 -13 801.253 437.516  11
  -3  -6 -14-173.762 378.102  10
   3  -6  14 829.389 617.838   1
   3  -6  14 296.065 491.163   8
  -3  -6 -14-138.078 436.821  11
  -3  -6 -14 1110.17 532.810   7
  -3  -6 -15 377.974 418.649  10
  -3  -6 -15 533.464 531.104   7
  -3  -5  15 1477.22 703.216   6
   3  -5 -15 923.982 489.912   2
   3  -5 -15 448.457 695.572  10
   3  -5 -15 515.948 573.705   4
  -3  -5  15 622.712 483.220   8
  -3  -5  14 7950.39 1046.46   6
   3  -5 -14 6980.27 866.698   2
   3  -5 -14 8901.91 1081.17   4
  -3  -5  14 6730.80 867.055   8
  -3  -5  13 3912.66 837.943   6
   3  -5 -13 3585.94 736.355   2
   3  -5 -13 3492.87 829.777   4
  -3  -5  13 3331.44 709.992   8
  -3  -5  12 17785.6 1501.60   6
  -3  -5  12 17325.1 1344.56   8
   3  -5 -12 16063.7 1244.84   2
   3  -5 -12 15432.1 1526.53   4
  -3  -5  11 9.52893 673.777   6
   3  -5 -11-490.952 493.662   3
   3  -5 -11 519.548 508.511   2
   3  -5 -11-617.820 815.525   4
  -3  -5  11 286.785 442.961   8
  -3  -5  10 13362.3 1501.20   6
  -3  -5  10 14672.1 1067.51   8
  -3  -5  10 13728.5 785.007   1
   3  -5 -10 13058.8 1240.22   4
   3  -5 -10 15585.8 1205.67   2
   3  -5 -10 13171.2 1013.74   3
  -3  -5   9 4868.53 985.439   6
   3  -5  -9 7695.95 884.014   2
  -3  -5   9 8618.12 740.100   8
  -3  -5   9 6850.81 535.209   1
   3  -5  -9 5713.35 769.368   4
   3  -5  -9 8100.89 706.018   3
  -3  -5   8 27527.3 1734.81   6
  -3  -5   8 28378.0 884.775  11
   3  -5  -8 27554.6 1454.31   4
  -3  -5   8 28824.1 1270.56   8
  -3  -5   8 27661.6 1079.42   1
   3  -5  -8 27465.7 1611.92   2
   3  -5  -8 28096.0 1211.28   3
  -3  -5   7 1777.76 214.970  11
  -3  -5   7 1796.70 271.854   1
   3  -5  -7 2538.36 683.019   2
   3  -5  -7 1829.58 435.922   4
  -3  -5   7 2046.53 351.181   8
   3  -5  -7 1785.87 286.401   3
  -3  -5   6 24896.3 1397.08   6
  -3  -5   6 25570.9 895.080  11
   3  -5  -6 26948.6 1164.88   4
  -3  -5   6 28018.7 1049.36   8
  -3  -5   6 26437.7 908.358   1
   3  -5  -6 25308.1 1586.04   2
   3  -5  -6 25917.1 938.048   3
   3  -5  -5 19261.5 693.788   3
  -3  -5   5 16757.7 1029.27   6
  -3  -5   5 18148.1 739.543  11
   3  -5  -5 18433.2 846.807   4
   3  -5  -5 17021.6 741.598   8
  -3  -5   5 18493.0 754.044   8
  -3  -5   5 16641.6 605.087   1
   3  -5  -5 16327.4 1282.70   2
   3  -5  -4 41757.3 1178.45   3
  -3  -5   4 38554.1 1527.00   6
  -3  -5   4 41617.4 1344.83  11
   3  -5  -4 40806.5 1203.33   8
  -3  -5   4 42064.6 1244.74   8
   3  -5  -4 43235.5 1338.64   4
   3  -5  -4 43034.9 2201.01   2
  -3  -5   3 11337.4 669.790   6
   3  -5  -3 10906.4 464.100   3
  -3  -5   3 11748.7 658.102  11
   3  -5  -3 11693.9 551.136   4
   3  -5  -3 11087.4 453.723   8
   3  -5  -3 13255.4 1392.46   2
  -3  -5   2 52564.1 1554.89   6
   3  -5  -2 51941.1 1345.10   3
  -3  -5   2 54720.3 1710.22  11
  -3  -5   2 56494.6 1903.99   2
   3  -5  -2 52427.4 1404.74   4
   3  -5  -2 53743.1 2440.09   2
  -3  -5   1 40640.9 1245.95   6
   3  -5  -1 40469.7 1162.73   3
  -3  -5   1 40113.2 1604.35   2
  -3  -5   1 40521.2 1529.24  11
   3  -5  -1 40139.0 1157.20   4
  -3  -5   1 41998.5 1417.57   1
   3  -5  -1 40275.7 1949.99   2
  -3  -5   0 37179.9 1097.91   6
  -3  -5   0 37606.7 1521.38   2
  -3  -5   0 36407.5 1512.97  11
   3  -5   0 35641.7 1055.88   4
   3  -5   0 35816.2 1103.46   8
   3  -5   0 34627.7 1668.93   2
  -3  -5   0 35773.7 1462.63   1
  -3  -5  -1 17936.7 1036.40   2
   3  -5   1 19334.6 786.425   1
   3  -5   1 17736.4 748.485   8
   3  -5   1 18301.8 1078.32   2
  -3  -5  -1 18357.8 1086.05   1
  -3  -5  -1 17013.9 1082.32  11
  -3  -5  -1 18073.9 635.942   6
  -3  -5  -2 37590.8 1720.84  11
  -3  -5  -2 35690.5 839.264  10
  -3  -5  -2 40299.3 1611.97   2
   3  -5   2 37835.3 1275.67   8
   3  -5   2 38661.0 1507.73   2
  -3  -5  -2 35952.8 836.724   7
   3  -5   2 38870.8 1244.92   1
  -3  -5  -2 36787.2 1002.87   6
   3  -5   3 49363.4 1682.70   5
  -3  -5  -3 48359.4 2167.89  11
  -3  -5  -3 55626.9 1724.86  10
  -3  -5  -3 50430.4 1963.39   2
  -3  -5  -3 50756.3 1240.47  10
   3  -5   3 50586.1 1621.41   1
   3  -5   3 46046.8 1657.86   8
   3  -5   3 50327.1 1696.98   2
  -3  -5  -3 50900.0 1257.09   7
  -3  -5  -3 49140.0 1312.63   6
   3  -5   4 19885.1 863.908   5
   3  -5   4 20488.7 974.458   1
  -3  -5  -4 22596.7 1022.92  10
  -3  -5  -4 21378.8 1226.40   2
  -3  -5  -4 22063.4 715.798  10
   3  -5   4 21886.2 1093.39   8
   3  -5   4 21118.6 876.223   2
  -3  -5  -4 21859.9 762.698   7
   3  -5   5 23434.6 827.060   5
   3  -5   5 26243.8 1166.02   1
  -3  -5  -5 23714.5 1133.44  10
  -3  -5  -5 25207.2 1373.30   2
   3  -5   5 23861.9 1252.60   8
   3  -5   5 24886.4 839.981   2
  -3  -5  -5 23697.0 963.377   7
   3  -5   6 12209.7 854.907   1
   3  -5   6 11910.0 410.124   5
  -3  -5  -6 11947.1 812.349  10
  -3  -5  -6 12795.8 1019.53   2
   3  -5   6 12548.4 411.497   2
   3  -5   6 9834.39 892.323   8
  -3  -5  -6 13018.7 786.143   7
   3  -5   7 42405.4 1787.98   1
  -3  -5  -7 41902.6 1685.94  10
  -3  -5  -7 46094.4 2044.57   2
   3  -5   7 40010.4 1947.83   8
  -3  -5  -7 39993.5 1707.32   7
   3  -5   8 6064.02 753.910   1
  -3  -5  -8 7174.28 677.128  10
   3  -5   8 5709.41 786.055   8
  -3  -5  -8 6130.89 755.061   7
  -3  -5  -8 7787.45 885.000   2
  -3  -5  -9 15740.8 1208.28  11
  -3  -5  -9 19080.0 1229.72   2
   3  -5   9 16550.7 1346.96   8
  -3  -5  -9 15818.6 1268.39   7
  -3  -5  -9 14928.8 994.659  10
   3  -5   9 17089.8 1263.85   1
   3  -5  10 2493.93 700.533   1
  -3  -5 -10 3036.58 604.444  11
  -3  -5 -10 2530.75 499.646  10
   3  -5  10 2121.01 686.864   8
  -3  -5 -10 2788.15 711.823   7
  -3  -5 -10 2578.23 491.053   2
  -3  -5 -11 26012.8 1492.62  11
  -3  -5 -11 27766.3 1449.58  10
   3  -5  11 27209.5 1723.64   8
  -3  -5 -11 28796.0 1750.44   7
   3  -5  11 27682.5 1774.43   1
  -3  -5 -12 5228.13 707.691  11
  -3  -5 -12 5335.38 709.024  10
   3  -5  12 5376.73 842.847   8
   3  -5  12 5202.50 961.110   1
  -3  -5 -12 5080.92 788.722   7
  -3  -5 -13 9229.20 881.696  11
   3  -5  13 10594.1 1303.42   1
  -3  -5 -13 10363.3 936.050  10
   3  -5  13 10143.2 1090.10   8
  -3  -5 -13 9325.10 1004.59   7
  -3  -5 -14 1097.15 463.080  11
   3  -5  14 463.004 636.349   1
  -3  -5 -14 222.829 412.481  10
  -3  -5 -14 628.163 501.415   7
   3  -5  14 1194.96 666.879   8
  -3  -5 -15 13729.0 1113.19  10
  -3  -5 -15 13257.1 1162.78   7
  -3  -5 -16 2450.57 615.009  10
  -3  -4  15 3819.43 837.312   6
   3  -4 -15 1949.20 722.366  10
   3  -4 -15 3239.58 612.300   2
   3  -4 -15 2567.52 783.231   4
  -3  -4  15 3723.25 645.775   8
  -3  -4  14 1355.32 644.885   6
   3  -4 -14 882.925 490.104   2
   3  -4 -14 192.080 685.973  10
   3  -4 -14 791.459 691.039   4
  -3  -4  14 910.861 489.108   8
  -3  -4  13 12279.0 1233.18   6
  -3  -4  13 10811.6 978.327   8
   3  -4 -13 8646.16 1186.43   4
   3  -4 -13 12041.9 1083.86   2
   3  -4 -13 13124.3 1051.47   3
  -3  -4  12 6417.94 982.954   6
   3  -4 -12 7176.59 852.446   3
   3  -4 -12 8186.47 915.489   2
   3  -4 -12 6876.24 1245.63   4
  -3  -4  12 6707.81 804.078   8
  -3  -4  11 9695.98 1192.58   6
   3  -4 -11 10320.3 1017.67   3
  -3  -4  11 10312.7 739.108   1
   3  -4 -11 9214.53 1176.31   4
  -3  -4  11 10001.0 947.668   8
   3  -4 -11 10255.6 998.194   2
  -3  -4  10 2744.82 850.356   6
   3  -4 -10 3056.08 588.414   3
   3  -4 -10 1330.68 584.105   4
  -3  -4  10 2169.45 514.420   8
  -3  -4  10 2268.55 393.754   1
  -3  -4   9 29214.0 1911.22   6
   3  -4  -9 29751.4 1630.28   4
  -3  -4   9 31186.0 1284.82   1
  -3  -4   9 30137.8 1453.86   8
   3  -4  -9 30738.9 1662.31   2
   3  -4  -9 29480.7 1397.10   3
  -3  -4   8 23508.6 1565.98   6
   3  -4  -8 27363.6 1565.51   2
  -3  -4   8 25611.7 876.284  11
   3  -4  -8 26616.7 1384.24   4
  -3  -4   8 26743.7 1240.73   8
   3  -4  -8 26440.5 1191.60   3
  -3  -4   8 30381.2 1227.68   1
   3  -4  -7 31547.7 1379.13   4
  -3  -4   7 31808.0 1127.49   1
  -3  -4   7 31336.7 1244.46   8
   3  -4  -7 31671.0 1674.34   2
  -3  -4   7 32721.0 1009.06  11
   3  -4  -7 29585.7 1148.99   3
  -3  -4   6 11450.1 877.413   6
  -3  -4   6 10149.4 498.244  11
   3  -4  -6 9746.07 666.622   4
  -3  -4   6 8802.27 406.251   1
   3  -4  -6 9209.94 622.387   8
  -3  -4   6 8843.24 555.543   8
   3  -4  -6 8965.70 942.565   2
   3  -4  -6 9115.10 518.739   3
   3  -4  -5 49359.8 1419.36   3
  -3  -4   5 48489.8 1821.71   6
  -3  -4   5 50368.9 1464.32  11
   3  -4  -5 51203.2 1599.76   4
   3  -4  -5 47603.9 1494.50   8
  -3  -4   5 52168.0 1473.25   8
   3  -4  -5 47416.1 2202.25   2
   3  -4  -4 49879.0 1384.71   3
   3  -4  -4 48485.2 1375.31   8
  -3  -4   4 51523.4 1743.82   6
  -3  -4   4 51805.8 1408.12   8
   3  -4  -4 51648.4 1524.50   4
   3  -4  -4 50945.9 2322.79   2
  -3  -4   4 50420.8 1512.96  11
  -3  -4   3 50537.9 1623.13   6
   3  -4  -3 50409.7 1363.19   3
  -3  -4   3 51069.4 1580.44  11
   3  -4  -3 51131.5 2396.52   2
   3  -4  -3 51868.8 1458.80   4
   3  -4  -3 50232.3 1291.96   8
  -3  -4   2 9586.31 538.188   6
   3  -4  -2 8317.97 401.949   3
  -3  -4   2 8917.71 595.202  11
   3  -4  -2 8527.26 434.078   4
  -3  -4   1 78881.8 2056.57   6
   3  -4  -1 80473.2 1980.12   3
  -3  -4   1 82334.9 2471.19   2
  -3  -4   1 79788.5 2337.82  11
   3  -4  -1 78402.9 1972.63   4
   3  -4  -1 77971.3 1900.67   8
   3  -4  -1 79877.8 3057.16   2
  -3  -4   1 72747.3 1965.35   1
  -3  -4   0 60085.1 1592.13   6
  -3  -4   0 57566.9 1968.43  11
   3  -4   0 58004.5 1553.61   4
   3  -4   0 59966.4 1594.27   8
   3  -4   0 60396.2 2373.76   2
  -3  -4   0 59205.7 2010.50   2
  -3  -4   0 59825.9 1931.18   1
   3  -4   1 43509.5 1321.75   1
  -3  -4  -1 43163.0 1685.49  11
  -3  -4  -1 44578.7 1646.71   2
   3  -4   1 42288.4 1326.84   8
   3  -4   1 42539.0 1766.91   2
  -3  -4  -1 46729.0 1947.30   1
  -3  -4  -1 41776.5 1187.95   6
   3  -4   2 3046.98 322.976   1
  -3  -4  -2 3110.45 518.874  11
   3  -4   2 3228.00 459.132   2
  -3  -4  -2 2629.31 109.842  10
   3  -4   2 3633.41 395.267   8
  -3  -4  -2 3297.49 173.450   7
  -3  -4  -2 3166.60 554.559   1
  -3  -4  -2 3461.74 497.917   2
  -3  -4  -2 3163.03 232.054   6
   3  -4   3 73593.8 2181.21   5
   3  -4   3 74079.9 2110.23   1
  -3  -4  -3 72247.5 2630.11  11
  -3  -4  -3 73894.4 2403.13   2
  -3  -4  -3 70850.8 1893.96  10
   3  -4   3 69113.1 2217.70   8
   3  -4   3 72551.9 2183.10   2
  -3  -4  -3 75824.7 1787.16   7
  -3  -4  -3 69769.4 1804.75   6
   3  -4   4 41629.3 1476.68   1
   3  -4   4 38338.9 1289.90   5
  -3  -4  -4 37860.7 1892.53  11
  -3  -4  -4 41363.0 1455.31  10
  -3  -4  -4 41398.7 1666.55   2
   3  -4   4 37792.7 1590.80   8
   3  -4   4 42937.7 1341.41   2
  -3  -4  -4 40147.4 1203.82   7
   3  -4   5 27206.2 1215.93   1
   3  -4   5 24774.7 832.636   5
  -3  -4  -5 26680.2 1634.38  11
  -3  -4  -5 26229.9 1310.76   2
   3  -4   5 25030.5 1348.64   8
   3  -4   5 26671.9 849.758   2
  -3  -4  -5 25967.4 1020.26   7
  -3  -4  -5 29051.9 1326.96  10
  -3  -4  -6 2356.93 476.065  10
  -3  -4  -6 1828.68 692.263  11
   3  -4   6 1918.87 442.610   1
   3  -4   6 1987.37 540.796   8
  -3  -4  -6 1951.34 363.297   7
  -3  -4  -6 2363.35 475.440   2
   3  -4   7 33311.7 1598.37   1
  -3  -4  -7 34911.3 1916.72  11
  -3  -4  -7 35029.9 1556.20  10
  -3  -4  -7 36596.3 1671.10   2
   3  -4   7 30772.7 1801.86   8
  -3  -4  -7 32859.4 1501.40   7
  -3  -4  -8 21458.9 1396.98  11
  -3  -4  -8 21996.6 1217.73  10
  -3  -4  -8 25079.4 1388.21   2
   3  -4   8 20711.9 1418.43   8
  -3  -4  -8 19638.9 1264.01   7
   3  -4   8 19618.2 1283.05   1
  -3  -4  -9 5586.02 717.760  11
   3  -4   9 4499.10 752.305   1
  -3  -4  -9 5767.47 648.470  10
   3  -4   9 4479.93 730.262   8
  -3  -4  -9 3544.20 655.486   7
  -3  -4  -9 5198.11 618.041   2
  -3  -4 -10 1878.91 474.221  10
   3  -4  10 1079.55 483.749   8
  -3  -4 -10 1595.51 504.474  11
   3  -4  10 926.465 575.772   1
  -3  -4 -10 1638.50 595.547   7
  -3  -4 -10 1180.33 338.419   2
  -3  -4 -11 6973.06 782.105  11
  -3  -4 -11 6454.52 736.607  10
   3  -4  11 7363.50 916.367   8
   3  -4  11 7224.68 996.565   1
  -3  -4 -11 8751.29 1060.46   7
  -3  -4 -12 5808.58 728.728  10
   3  -4  12 5683.17 990.680   1
   3  -4  12 4332.81 733.342   8
  -3  -4 -12 6066.31 869.452   7
  -3  -4 -12 4812.96 662.407  11
  -3  -4 -13 524.797 424.349  11
  -3  -4 -13 616.341 432.149  10
   3  -4  13 482.578 547.741   1
   3  -4  13-196.855 475.695   8
  -3  -4 -13 1419.05 611.733   7
   3  -4  14 660.521 635.611   1
  -3  -4 -14 1278.77 503.651  10
  -3  -4 -14-144.704 354.668  11
   3  -4  14 1149.03 555.113   8
  -3  -4 -14 1141.90 570.040   7
   3  -4  15 565.546 557.502   1
  -3  -4 -15-29.8807 468.491  10
   3  -4  15 506.521 504.058   8
  -3  -4 -15 855.744 489.457   7
  -3  -4 -16 112.541 442.122  10
  -3  -4 -16 1511.61 638.601   7
  -3  -3  16 13762.4 1213.27   6
   3  -3 -16 13762.0 1366.27   4
  -3  -3  15 464.878 551.558   6
   3  -3 -15-66.8676 414.136   2
   3  -3 -15-18.5933 513.554  10
  -3  -3  15 323.882 409.718   8
   3  -3 -15 633.390 670.357   4
  -3  -3  14 10933.3 1148.18   6
   3  -3 -14 8797.19 1091.93  10
   3  -3 -14 10292.1 1264.75   4
  -3  -3  14 10778.6 931.710   8
   3  -3 -14 12313.1 1060.10   2
   3  -3 -14 10268.6 983.325   3
   3  -3 -13 1974.68 555.558   2
  -3  -3  13 1655.96 680.881   6
   3  -3 -13 1077.05 672.513  10
   3  -3 -13 883.713 467.152   3
   3  -3 -13 864.141 748.628   4
  -3  -3  13 1757.20 460.705   8
  -3  -3  12 24789.0 1720.27   6
   3  -3 -12 22373.2 1882.31   4
  -3  -3  12 24606.0 1244.47   1
  -3  -3  12 24251.2 1358.08   8
   3  -3 -12 24928.0 1476.54   2
   3  -3 -12 27180.2 1771.04   3
  -3  -3  11 3507.50 885.639   6
   3  -3 -11 1607.15 574.843   3
   3  -3 -11 1600.65 701.284   4
  -3  -3  11 2474.64 489.677   8
  -3  -3  11 2339.54 429.180   1
   3  -3 -11 2914.83 602.739   2
  -3  -3  10 22738.2 1735.30   6
   3  -3 -10 18915.7 1415.01   4
  -3  -3  10 20384.9 1112.85   1
  -3  -3  10 23901.9 1307.64   8
   3  -3 -10 19282.5 1288.77   2
   3  -3 -10 20046.3 1255.40   3
  -3  -3   9 12615.6 1226.10   6
   3  -3  -9 14403.7 1095.18   2
   3  -3  -9 12896.4 1056.39   4
  -3  -3   9 12544.6 837.801   1
  -3  -3   9 13999.8 1029.83   8
   3  -3  -9 12735.9 891.265   3
  -3  -3   8 23363.0 1481.05   6
  -3  -3   8 25229.4 1233.38   8
   3  -3  -8 25303.5 1318.47   4
  -3  -3   8 24905.7 1042.32   1
   3  -3  -8 22703.7 1399.49   2
   3  -3  -8 24299.2 1130.31   3
  -3  -3   7 17624.4 1148.92   6
  -3  -3   7 19250.7 733.455  11
   3  -3  -7 18852.6 1019.26   4
  -3  -3   7 18082.6 734.479   1
   3  -3  -7 18772.8 952.310   8
  -3  -3   7 19077.1 949.486   8
   3  -3  -7 20830.0 1315.17   2
   3  -3  -7 18825.4 872.472   3
  -3  -3   6 27733.0 1346.27   6
  -3  -3   6 30916.9 1117.11   8
  -3  -3   6 27636.6 819.244   1
   3  -3  -6 32742.5 1235.80   4
  -3  -3   6 30010.9 986.593  11
   3  -3  -6 28028.9 1208.02   8
   3  -3  -6 28473.2 1602.16   2
   3  -3  -6 30444.0 1063.61   3
   3  -3  -5 65480.8 1762.99   3
  -3  -3   5 63182.8 2095.11   6
  -3  -3   5 64477.6 1769.64  11
   3  -3  -5 66325.7 1902.29   4
  -3  -3   5 65589.9 1777.27   8
   3  -3  -5 68051.7 2621.44   2
  -3  -3   4 24179.0 1042.39   6
   3  -3  -4 23839.8 816.728   3
   3  -3  -4 24240.3 899.186   4
   3  -3  -4 22433.5 803.455   8
  -3  -3   4 24681.7 788.651   8
  -3  -3   4 23717.0 890.064  11
  -3  -3   3 50804.7 1566.02   6
   3  -3  -3 48649.5 1347.14   3
  -3  -3   3 50948.8 1518.26  11
   3  -3  -3 50305.4 1420.99   4
   3  -3  -3 48184.4 1235.06   8
  -3  -3   2 40851.5 1270.82   6
  -3  -3   2 42200.9 1355.62  11
   3  -3  -2 39367.5 1127.40   3
   3  -3  -2 38856.2 949.271   8
   3  -3  -2 39900.9 1159.60   4
   3  -3  -2 38858.4 968.049   8
  -3  -3   1 115589. 2753.80   6
   3  -3  -1 108695. 2663.27   3
  -3  -3   1 111979. 2608.97   8
   3  -3  -1 111496. 2667.25   4
   3  -3  -1 107480. 2560.32   8
  -3  -3   1 113464. 2989.71  11
  -3  -3   0 53286.6 1454.35   6
  -3  -3   0 50429.0 1427.85   1
   3  -3   0 54821.1 1484.43   3
   3  -3   0 55100.6 1477.30   1
  -3  -3   0 53855.3 1787.02  11
  -3  -3   0 52164.2 1817.05   2
  -3  -3   0 53970.5 1443.95   8
   3  -3   0 51830.9 1457.90   8
  -3  -3  -1 56305.5 1793.75   1
  -3  -3  -1 58124.8 1986.91  11
   3  -3   1 60794.6 1658.13   1
  -3  -3  -1 60456.9 1964.25   2
  -3  -3  -1 60024.4 1650.69   8
   3  -3   1 56433.6 1723.78   8
  -3  -3  -1 58787.2 1396.55   7
  -3  -3  -1 58295.7 1542.85   6
   3  -3   2 65188.7 1813.53   1
   3  -3   2 63260.2 2202.60   5
   3  -3   2 59363.7 1959.95   8
  -3  -3  -2 61284.1 2055.05   2
  -3  -3  -2 65505.2 2183.65  11
  -3  -3  -2 63683.1 1524.24   7
   3  -3   2 60225.1 2181.53   2
  -3  -3  -2 61070.2 1615.37   6
  -3  -3  -2 64783.8 2186.13   1
  -3  -3  -3 104732. 3247.81  11
   3  -3   3 112197. 2859.19   1
   3  -3   3 102901. 2935.97   5
  -3  -3  -3 104213. 2492.32  10
  -3  -3  -3 108835. 3046.52   2
   3  -3   3 97837.1 3076.91   8
  -3  -3  -3 107951. 2530.25   7
   3  -3   3 108341. 2972.21   2
  -3  -3  -3 104422. 2546.93   6
   3  -3   4 54654.3 1796.79   1
   3  -3   4 48670.8 1578.76   5
  -3  -3  -4 53036.0 1576.56  10
  -3  -3  -4 55420.9 1902.16   2
  -3  -3  -4 55164.9 2174.46  11
   3  -3   4 49679.6 2049.19   8
   3  -3   4 55700.7 1634.66   2
  -3  -3  -4 53875.0 1514.02   7
   3  -3   5 37060.5 1463.59   1
   3  -3   5 32317.9 1008.27   5
  -3  -3  -5 34921.3 1332.35  10
   3  -3   5 31220.1 900.720   2
  -3  -3  -5 37824.7 1485.82   2
  -3  -3  -5 36365.6 1782.28  11
   3  -3   5 34524.5 1766.15   8
   3  -3   5 36291.5 1040.93   2
  -3  -3  -5 33872.6 1203.27   7
   3  -3   6 39226.3 1674.22   1
  -3  -3  -6 40961.4 1664.43  10
  -3  -3  -6 40987.3 1633.38   2
   3  -3   6 40167.7 1897.62   8
  -3  -3  -6 39934.2 2036.25  11
  -3  -3  -6 37919.7 1466.24   7
  -3  -3  -7 69354.9 2797.26  11
  -3  -3  -7 68772.4 2549.96  10
  -3  -3  -7 68640.9 2300.80   2
   3  -3   7 64676.7 2536.71   8
  -3  -3  -7 61501.6 2232.19   7
   3  -3   7 60546.3 2375.65   1
  -3  -3  -8 21228.1 1370.37  11
  -3  -3  -8 22982.2 1317.38  10
  -3  -3  -8 24660.1 1263.01   2
   3  -3   8 20777.0 1342.42   8
  -3  -3  -8 20646.6 1276.44   7
   3  -3   8 20090.8 1319.57   1
  -3  -3  -9 28856.1 1488.49  10
  -3  -3  -9 26476.5 1473.90  11
  -3  -3  -9 31473.6 1311.04   2
   3  -3   9 27917.4 1593.39   8
  -3  -3  -9 25715.6 1590.88   7
   3  -3   9 26343.9 1629.28   1
  -3  -3 -10 11689.3 943.165  11
  -3  -3 -10 12949.4 999.986  10
  -3  -3 -10 13121.8 760.136   2
   3  -3  10 12327.3 1063.07   8
  -3  -3 -10 13882.2 1280.49   7
   3  -3  10 11787.7 1162.86   1
  -3  -3 -11 40018.9 1788.54  11
   3  -3  11 42397.6 2026.73   8
  -3  -3 -11 41729.5 1872.72  10
  -3  -3 -11 43692.9 2299.76   7
   3  -3  11 44508.6 2387.54   1
  -3  -3 -12 4353.73 599.458  11
   3  -3  12 5002.88 793.365   8
  -3  -3 -12 4889.77 663.123  10
   3  -3  12 3500.22 774.127   1
  -3  -3 -12 4928.46 837.314   7
  -3  -3 -13 14685.1 1001.19  11
  -3  -3 -13 15267.8 1134.50  10
   3  -3  13 16773.5 1281.98   8
   3  -3  13 17685.0 1447.50   1
  -3  -3 -13 16078.2 1311.62   7
   3  -3  14 2879.86 762.232   1
  -3  -3 -14 1742.58 559.835  10
   3  -3  14 2576.93 648.454   8
  -3  -3 -14 2381.10 627.354   7
  -3  -3 -15 18490.2 1291.80  10
   3  -3  15 22179.9 1510.89   8
   3  -3  15 20806.4 1553.92   1
  -3  -3 -15 18010.8 1366.21   7
  -3  -3 -16 1925.38 595.321  10
  -3  -3 -16 1472.87 591.770   7
  -3  -2  16 2933.86 710.461   6
   3  -2 -16 3604.75 800.113  10
   3  -2 -16 2997.66 840.836   4
  -3  -2  15 3593.84 615.689   8
  -3  -2  15 4313.81 774.457   6
   3  -2 -15 3170.73 666.156   3
   3  -2 -15 3512.07 777.196  10
   3  -2 -15 4634.43 701.295   2
   3  -2 -15 3358.89 869.453   4
  -3  -2  14 555.345 553.667   6
   3  -2 -14-13.2231 443.799   3
   3  -2 -14-79.8042 544.165  10
   3  -2 -14-1057.23 824.986   4
  -3  -2  14 420.685 385.590   8
   3  -2 -14 1619.72 563.573   2
  -3  -2  13 10191.9 1122.06   6
   3  -2 -13 8365.36 986.256   3
   3  -2 -13 9060.64 1069.10  10
  -3  -2  13 9566.20 835.234   8
   3  -2 -13 10537.5 1363.18   4
   3  -2 -13 10213.7 955.435   2
  -3  -2  12 22007.8 1609.44   6
   3  -2 -12 19479.1 1493.06  10
   3  -2 -12 20542.5 1810.94   4
  -3  -2  12 22463.7 1224.95   1
  -3  -2  12 21005.0 1194.58   8
   3  -2 -12 20551.3 1327.50   2
   3  -2 -12 20480.3 1551.90   3
  -3  -2  11 4370.67 888.880   6
   3  -2 -11 4314.31 710.365   3
   3  -2 -11 5591.45 708.946   2
  -3  -2  11 4895.05 597.590   8
   3  -2 -11 3933.88 825.466   4
  -3  -2  11 5199.68 639.703   1
  -3  -2  10 2993.04 739.285   6
   3  -2 -10 2863.05 573.551   3
   3  -2 -10 3517.14 634.682   2
  -3  -2  10 4092.85 548.946   8
   3  -2 -10 2575.18 682.426   4
  -3  -2  10 3669.39 535.636   1
  -3  -2   9 12676.0 1154.38   6
  -3  -2   9 14169.2 839.662   1
  -3  -2   9 16061.4 987.714   8
   3  -2  -9 14692.4 1094.05   4
   3  -2  -9 14886.4 1112.73   2
   3  -2  -9 14937.2 981.070   3
  -3  -2   8 57715.6 2365.82   6
  -3  -2   8 60079.5 1815.96   1
  -3  -2   8 62025.4 2200.87   8
   3  -2  -8 57379.7 2173.22   4
   3  -2  -8 61810.9 2463.63   2
   3  -2  -8 61246.5 2046.98   3
  -3  -2   7 1189.55 448.544   6
  -3  -2   7 1860.20 246.976  11
   3  -2  -7 1939.95 325.028   3
  -3  -2   7 1665.35 238.863   1
  -3  -2   7 1485.60 341.288   8
   3  -2  -7 2251.43 336.110   8
  -3  -2   6 7778.77 707.662   6
  -3  -2   6 8213.86 473.162  11
  -3  -2   6 8186.53 358.671   1
   3  -2  -6 8993.23 634.074   4
  -3  -2   6 8030.54 571.433   8
   3  -2  -6 8204.41 549.270   8
   3  -2  -6 9015.15 541.954   3
   3  -2  -5 11749.7 581.045   3
  -3  -2   5 10792.6 725.089   6
   3  -2  -5 11970.2 643.339   4
   3  -2  -5 11263.0 587.962   8
  -3  -2   5 11246.2 574.894   8
  -3  -2   5 11718.0 570.496  11
  -3  -2   4 89649.7 2542.62   6
   3  -2  -4 90580.9 2309.82   3
  -3  -2   4 92744.3 2393.01  11
   3  -2  -4 90371.1 2251.20   1
   3  -2  -4 91693.6 2391.04   4
   3  -2  -4 93118.3 2306.73   8
  -3  -2   4 92405.6 2244.44   8
  -3  -2   3 5672.95 453.886   6
   3  -2  -3 5585.38 344.452   3
  -3  -2   3 5403.24 410.573  11
   3  -2  -3 5209.11 366.507   4
  -3  -2   3 5277.05 265.722   8
  -3  -2   2 2132.13 284.922   6
  -3  -2   2 1854.51 293.411  11
   3  -2  -2 1951.35 218.383   3
   3  -2  -2 1770.58 223.412   4
  -3  -2   1 5398.32 369.716   6
   3  -2  -1 5222.35 329.565   3
   3  -2  -1 5768.46 298.680  10
  -3  -2   1 5735.09 278.437   8
   3  -2  -1 5248.73 377.673   8
   3  -2  -1 5880.36 344.497   4
  -3  -2   1 5962.39 468.456  11
   3  -2   0 46743.1 1334.37   3
  -3  -2   0 46782.4 1592.35  11
   3  -2   0 47980.5 1314.16   1
   3  -2   0 47909.5 1241.87  10
  -3  -2   0 46025.4 1195.25   1
  -3  -2   0 45576.6 1286.20   8
  -3  -2   0 46096.5 1317.22   6
  -3  -2  -1 667.702 162.914   6
   3  -2   1 904.398 462.978   5
  -3  -2  -1 676.746 162.343   8
  -3  -2  -1 870.670 339.679  11
   3  -2   1 611.123 352.956   8
   3  -2   1 649.668 185.311   1
  -3  -2  -1 788.486 123.810   7
  -3  -2  -1 574.687 174.496   1
   3  -2   1 734.248 128.223  10
   3  -2   2 3050.69 330.697   1
  -3  -2  -2 3738.08 490.944  11
   3  -2   2 2962.71 485.143   5
  -3  -2  -2 2940.54 146.418  10
  -3  -2  -2 2981.79 336.190   8
  -3  -2  -2 3593.41 377.842   1
   3  -2   2 3267.70 531.154   8
  -3  -2  -2 3255.16 223.806   7
  -3  -2  -2 2796.81 253.763   6
   3  -2   3 11776.9 671.829   1
   3  -2   3 10401.7 695.340   5
  -3  -2  -3 10726.2 804.490  11
  -3  -2  -3 10911.4 418.650  10
  -3  -2  -3 11126.9 691.789   2
   3  -2   3 11558.0 896.448   8
  -3  -2  -3 10788.9 476.726   7
  -3  -2  -3 9787.06 475.558   6
   3  -2   4 19109.8 953.558   1
   3  -2   4 18556.1 860.848   5
  -3  -2  -4 17839.0 1068.09  11
  -3  -2  -4 17927.2 904.266   2
   3  -2   4 18735.7 1151.01   8
  -3  -2  -4 18593.5 710.729  10
  -3  -2  -4 18596.9 723.362   7
  -3  -2  -5 8462.50 816.414  11
   3  -2   5 7336.30 436.028   5
   3  -2   5 6636.53 641.742   1
  -3  -2  -5 7812.80 542.121  10
   3  -2   5 6971.32 308.667   2
  -3  -2  -5 8253.21 617.563   2
   3  -2   5 7927.60 774.462   8
  -3  -2  -5 7940.62 535.610   7
   3  -2   6 3076.71 148.383   5
   3  -2   6 2420.28 486.520   1
   3  -2   6 2641.28 170.467   5
  -3  -2  -6 3304.02 445.537  10
  -3  -2  -6 2745.25 580.117  11
   3  -2   6 3654.94 589.729   8
   3  -2   6 2763.18 175.393   2
   3  -2   6 2604.41 140.798   2
  -3  -2  -6 3540.62 447.153   7
  -3  -2  -7 20624.9 1381.42  11
  -3  -2  -7 19024.5 1135.51  10
  -3  -2  -7 22181.8 1059.97   2
   3  -2   7 19024.7 1219.65   8
  -3  -2  -7 19015.9 1077.41   7
   3  -2   7 20100.8 1276.17   1
  -3  -2  -8 8273.44 855.756  11
  -3  -2  -8 7595.64 601.416   2
  -3  -2  -8 7680.12 810.082  10
   3  -2   8 7176.27 809.285   8
   3  -2   8 5861.54 815.273   1
  -3  -2  -8 6703.95 763.135   7
  -3  -2  -9 8814.76 819.776  11
  -3  -2  -9 9592.83 922.891  10
  -3  -2  -9 8916.59 574.553   2
   3  -2   9 7781.59 945.869   1
   3  -2   9 8440.63 854.338   8
  -3  -2  -9 9136.62 948.597   7
  -3  -2 -10 1194.22 492.524  10
   3  -2  10 351.396 610.008   1
   3  -2  10 789.260 513.818   8
  -3  -2 -10 847.941 391.421  11
  -3  -2 -10 765.108 588.889   7
   3  -2  11 8539.19 897.656   8
  -3  -2 -11 6409.71 702.915  11
  -3  -2 -11 8283.31 845.594  10
   3  -2  11 8512.67 1055.71   1
  -3  -2 -11 7473.66 1057.92   7
   3  -2  12 3459.57 794.439   1
  -3  -2 -12 2649.71 582.566  10
   3  -2  12 2976.93 621.106   8
  -3  -2 -12 3054.95 511.880  11
  -3  -2 -12 2678.21 737.049   7
   3  -2  13 1567.91 662.258   1
  -3  -2 -13 1562.28 420.099  11
  -3  -2 -13 1363.02 529.243  10
   3  -2  13 1763.00 633.674   8
  -3  -2 -13 2284.36 650.869   7
   3  -2  14 464.271 595.181   1
  -3  -2 -14 22.2082 423.260  10
   3  -2  14-164.270 442.491   8
  -3  -2 -14-47.7914 501.533   7
   3  -2  15 1124.72 572.762   1
  -3  -2 -15 758.416 497.258  10
   3  -2  15 1054.67 611.491   8
  -3  -2 -15 978.375 552.453   7
  -3  -2 -16 491.090 492.724  10
  -3  -2 -16 71.9878 473.864   7
  -3  -1  16 19939.9 1435.05   6
   3  -1 -16 18976.6 1444.74  10
   3  -1 -16 17728.0 1573.58   4
   3  -1 -16 18772.1 1396.49   3
  -3  -1  15 169.972 501.794   6
   3  -1 -15 214.931 500.829   3
   3  -1 -15 595.216 540.829  10
   3  -1 -15 99.3348 648.150   4
  -3  -1  15 134.592 389.172   8
   3  -1 -15 911.020 481.916   2
  -3  -1  14 12938.4 1207.29   6
   3  -1 -14 13224.8 1198.30  10
  -3  -1  14 12933.3 960.064   8
   3  -1 -14 14431.2 1504.36   4
   3  -1 -14 14381.1 1093.07   2
   3  -1 -14 12876.5 1223.58   3
  -3  -1  13 934.961 584.016   6
   3  -1 -13 745.608 621.458   3
   3  -1 -13 1531.63 521.297   2
   3  -1 -13 672.471 490.693  10
  -3  -1  13 1388.35 460.359   1
  -3  -1  13 961.788 410.117   8
   3  -1 -13-409.485 942.033   4
  -3  -1  12 37766.8 2127.33   6
   3  -1 -12 34579.6 1918.78  10
   3  -1 -12 36476.1 2360.73   4
  -3  -1  12 44199.6 1891.42   1
  -3  -1  12 38700.6 1653.00   8
   3  -1 -12 37540.4 1824.07   2
   3  -1 -12 38968.2 2160.99   3
  -3  -1  11 4752.16 888.068   6
   3  -1 -11 4308.80 715.335   3
   3  -1 -11 4893.38 703.677   2
   3  -1 -11 3923.94 736.487  10
  -3  -1  11 4223.48 555.355   8
   3  -1 -11 2839.22 733.707   4
  -3  -1  11 4837.03 658.803   1
  -3  -1  10 27657.4 1704.39   6
   3  -1 -10 27105.0 1644.07   4
  -3  -1  10 26985.7 1279.63   8
   3  -1 -10 28432.7 1558.80   2
   3  -1 -10 27094.2 1508.48   3
  -3  -1  10 29659.0 1363.26   1
  -3  -1   9 8023.50 887.028   6
  -3  -1   9 9285.48 655.536   1
  -3  -1   9 8202.41 671.850   8
   3  -1  -9 8042.42 821.287   4
   3  -1  -9 9270.30 811.436   3
  -3  -1   8 46158.2 1969.68   6
   3  -1  -8 45452.1 1838.64   4
  -3  -1   8 47224.4 1517.21   1
  -3  -1   8 47881.4 1727.70   8
   3  -1  -8 48914.9 1778.01   3
  -3  -1   7 15333.7 988.834   6
  -3  -1   7 14483.2 633.598   1
   3  -1  -7 15875.1 908.805   4
  -3  -1   7 15665.1 853.512   8
   3  -1  -7 14443.0 781.767   8
   3  -1  -7 14090.9 789.004   3
  -3  -1   6 34727.2 1149.03  11
  -3  -1   6 33118.8 1403.10   6
   3  -1  -6 33609.2 1284.42   4
  -3  -1   6 35390.8 1334.82   8
   3  -1  -6 33559.6 1130.12   8
   3  -1  -6 33004.4 1186.63   1
   3  -1  -6 35154.8 1230.13   3
   3  -1  -5 19409.0 792.621   3
  -3  -1   5 19984.0 952.467   6
  -3  -1   5 19847.9 800.707  11
   3  -1  -5 19878.8 849.977   4
  -3  -1   5 20558.2 954.584   8
   3  -1  -5 18923.6 730.293   1
   3  -1  -5 19022.7 642.757   8
  -3  -1   4 25265.0 1008.66   6
   3  -1  -4 25098.3 869.338   3
  -3  -1   4 26262.6 934.347  11
   3  -1  -4 24135.9 762.490   1
   3  -1  -4 27212.9 933.847   4
  -3  -1   4 24077.3 840.323   8
   3  -1  -4 23037.0 606.777   8
  -3  -1   3 18420.4 777.510   6
   3  -1  -3 17737.4 671.699   3
  -3  -1   3 17434.0 742.227  11
   3  -1  -3 17161.5 624.915  10
   3  -1  -3 16663.3 549.229   1
   3  -1  -3 16600.9 674.514   4
  -3  -1   3 16780.0 528.573   8
  -3  -1   2 29756.5 1008.75   6
  -3  -1   2 30219.4 1070.54  11
   3  -1  -2 29430.3 929.182   3
   3  -1  -2 30307.4 852.481  10
  -3  -1   2 28185.3 728.071   8
   3  -1  -2 29870.2 940.686   4
  -3  -1   2 29337.9 713.927   8
  -3  -1   1 27563.3 907.049   6
  -3  -1   1 24494.7 732.821   8
   3  -1  -1 26829.9 860.654   3
   3  -1  -1 26328.6 746.353  10
   3  -1  -1 26251.4 780.046   1
   3  -1  -1 25696.2 838.287   4
  -3  -1   1 26574.6 1013.68  11
   3  -1   0 6367.57 381.325   3
  -3  -1   0 4990.00 463.989  11
   3  -1   0 5981.01 344.302   1
   3  -1   0 6065.22 275.579  10
   3  -1   0 5447.52 270.124   8
  -3  -1   0 5535.00 357.021   8
  -3  -1   0 5899.04 266.763   1
  -3  -1   0 5742.39 287.162   7
  -3  -1   0 6423.05 380.409   6
   3  -1   1 17694.2 717.097   1
   3  -1   1 17100.3 1022.51   5
  -3  -1  -1 17814.1 880.835  11
  -3  -1  -1 18044.9 637.528   1
   3  -1   1 17534.4 569.466  10
  -3  -1  -1 16940.6 464.316  10
   3  -1   1 17297.9 729.811   8
  -3  -1  -1 15086.8 754.539   8
  -3  -1  -1 17421.0 574.072   7
  -3  -1  -1 17704.0 659.300   6
  -3  -1  -2 22479.1 1053.68  11
   3  -1   2 22728.3 925.958   1
  -3  -1  -2 22178.3 865.261   1
   3  -1   2 23453.9 1200.49   5
   3  -1   2 22241.6 730.850  10
   3  -1   2 21513.5 1027.98   8
  -3  -1  -2 21540.5 1034.57   8
  -3  -1  -2 22947.8 620.166  10
  -3  -1  -2 21587.8 712.929   7
  -3  -1  -2 21063.7 765.025   6
   3  -1   3 33909.0 1315.23   1
  -3  -1  -3 34626.8 969.126  10
   3  -1   3 35131.2 1088.11  10
   3  -1   3 34512.3 1070.86   2
   3  -1   3 35760.5 1591.22   8
  -3  -1  -3 33703.7 1045.39   7
  -3  -1  -3 32629.1 1399.95  11
  -3  -1  -3 33889.2 1078.41   6
   3  -1   4 454.091 304.468   1
  -3  -1  -4 554.353 333.717  11
   3  -1   4 695.878 231.582   5
  -3  -1  -4 804.732 184.968  10
   3  -1   4 448.361 452.815   8
  -3  -1  -4 772.997 210.361   7
   3  -1   4 514.624 126.367   2
   3  -1   5 23851.7 906.756   5
  -3  -1  -5 23575.8 1260.95  11
  -3  -1  -5 25698.6 990.155  10
   3  -1   5 24996.0 745.916   2
   3  -1   5 26576.8 1410.11   8
  -3  -1  -5 25305.9 1005.77   7
   3  -1   5 22809.2 1244.96   1
   3  -1   6 22082.6 638.119   5
   3  -1   6 19723.6 707.602   5
   3  -1   6 19729.4 1232.72   8
  -3  -1  -6 20099.5 1229.06  11
   3  -1   6 20404.9 621.582   2
  -3  -1  -6 19744.0 972.995  10
  -3  -1  -6 22482.5 1033.73   7
   3  -1   6 21252.5 1270.76   1
  -3  -1  -7 62022.1 2393.05  11
  -3  -1  -7 59663.0 2101.87  10
   3  -1   7 60278.0 2314.86   8
  -3  -1  -7 55473.4 2050.43   7
   3  -1   7 58107.7 2410.05   1
  -3  -1  -8 1065.60 467.624  11
  -3  -1  -8 939.477 439.327  10
   3  -1   8 540.209 560.360   1
   3  -1   8 841.839 468.742   8
  -3  -1  -8 1125.75 459.940   7
  -3  -1  -9 29778.4 1639.91  10
  -3  -1  -9 26707.6 1416.71  11
   3  -1   9 29464.1 1555.79   8
   3  -1   9 30916.3 1808.03   1
  -3  -1  -9 29576.6 1632.30   7
  -3  -1 -10 10943.4 1044.14  10
  -3  -1 -10 11368.5 856.975  11
   3  -1  10 10965.2 971.371   8
   3  -1  10 10972.1 1088.68   1
  -3  -1 -10 10894.1 1126.65   7
  -3  -1 -11 49853.6 1920.35  11
  -3  -1 -11 49028.2 2188.40  10
   3  -1  11 48858.5 2166.26   8
   3  -1  11 53721.5 2388.22   1
  -3  -1 -11 55162.6 2677.18   7
   3  -1  12 867.342 559.913   1
  -3  -1 -12 708.627 330.107  11
  -3  -1 -12 668.891 488.503  10
   3  -1  12 1062.93 527.315   8
  -3  -1 -12 556.701 599.726   7
  -3  -1 -13 17408.7 1270.25  10
   3  -1  13 20508.2 1389.46   8
   3  -1  13 22687.1 1510.54   1
  -3  -1 -13 20603.1 1555.50   7
   3  -1  14 4081.43 779.188   1
  -3  -1 -14 3193.00 651.099  10
   3  -1  14 3783.44 704.502   8
  -3  -1 -14 4705.38 844.476   7
  -3  -1 -15 23829.4 1487.06  10
   3  -1  15 24429.0 1563.49   8
   3  -1  15 25897.2 1675.42   1
  -3  -1 -15 24114.0 1625.15   7
  -3  -1 -16 1039.93 545.281  10
  -3  -1 -16 857.231 556.079   7
   3   0 -17 3879.42 781.587   3
  -3   0  16 1931.71 612.785   6
   3   0 -16 1411.91 643.465   3
   3   0 -16 2521.43 683.397  10
   3   0 -16 2786.26 810.415   4
  -3   0  15 3770.20 750.976   6
   3   0 -15 4188.80 805.352   3
   3   0 -15 4848.71 780.019  10
   3   0 -15 3009.42 825.987   4
  -3   0  15 4326.56 621.147   8
  -3   0  14 2456.82 679.172   6
   3   0 -14 686.276 572.341   3
   3   0 -14 2357.75 531.710   2
   3   0 -14 2589.63 630.703  10
  -3   0  14 837.838 458.990   1
  -3   0  14 2353.39 469.544   8
   3   0 -14 1432.30 747.072   4
  -3   0  13 14048.7 1257.39   6
   3   0 -13 15635.9 1496.58   3
   3   0 -13 13163.5 1143.87  10
  -3   0  13 15922.7 1159.68   1
  -3   0  13 14021.9 980.704   8
   3   0 -13 14808.7 1661.85   4
   3   0 -13 14272.1 1099.71   2
  -3   0  12 7944.28 1061.25   6
   3   0 -12 6541.06 1011.68   3
   3   0 -12 7559.27 849.051   2
   3   0 -12 8697.87 937.756  10
  -3   0  12 10819.2 1011.20   1
  -3   0  12 7817.94 725.307   8
   3   0 -12 7825.20 1207.65   4
  -3   0  11 10623.8 1150.47   6
   3   0 -11 11087.4 1046.16  10
  -3   0  11 11539.3 917.553   1
  -3   0  11 12420.1 856.465   8
   3   0 -11 12417.6 1026.57   2
   3   0 -11 11708.0 1119.24   3
  -3   0  10 2230.34 603.667   6
   3   0 -10 2984.36 649.356   3
   3   0 -10 4050.88 732.978  10
  -3   0  10 3381.89 399.576   9
  -3   0  10 3424.16 504.464   1
  -3   0  10 3240.06 472.412   8
   3   0 -10 2320.97 632.047   4
  -3   0   9 27897.3 1532.50   6
   3   0  -9 26809.2 1568.82  10
  -3   0   9 29477.6 1222.08   1
   3   0  -9 28773.7 1519.25   4
  -3   0   9 27223.2 1263.23   8
   3   0  -9 29742.5 1472.88   3
  -3   0   8 39594.3 1720.08   6
  -3   0   8 36585.5 1304.96   1
   3   0  -8 39344.1 1662.13   4
  -3   0   8 37250.7 1492.75   8
   3   0  -8 39025.8 1582.86   3
  -3   0   7 15467.6 942.632   6
   3   0  -7 15871.5 905.069   4
  -3   0   7 14772.7 847.344   8
   3   0  -7 14576.7 699.510   8
   3   0  -7 13695.2 886.310   1
   3   0  -7 14094.4 806.831   3
  -3   0   6 1116.49 391.275   6
   3   0  -6 912.545 302.794   3
  -3   0   6 315.300 221.484  11
   3   0  -6 711.060 250.933   1
  -3   0   6 957.746 345.825   8
   3   0  -6 568.388 298.316   4
   3   0  -6 1018.54 185.445   8
   3   0  -5 54940.9 1642.21   3
  -3   0   5 55436.2 1775.45   6
   3   0  -5 56865.6 1691.09   4
  -3   0   5 57235.1 1657.91  11
  -3   0   4 58404.2 1734.60   6
   3   0  -4 55417.4 1602.98   3
  -3   0   4 55595.3 1663.68  11
   3   0  -4 58104.0 1635.84   4
  -3   0   4 55311.8 1428.78   8
   3   0  -4 55393.9 1443.69   1
  -3   0   3 39040.8 1265.62   6
   3   0  -3 38137.6 1177.19   3
  -3   0   3 39040.2 1290.13  11
   3   0  -3 38863.3 1094.42  10
   3   0  -3 38477.9 978.356   1
   3   0  -3 38644.3 1185.84   4
  -3   0   2 443.686 209.790   6
   3   0  -2 256.592 170.631   3
   3   0  -2 591.225 106.194   1
   3   0  -2 270.189 93.3939  10
   3   0  -2 272.697 156.845   4
   3   0  -1 78354.8 2041.88   3
   3   0  -1 80251.6 1930.31   1
  -3   0   1 78979.7 2223.43  11
   3   0  -1 81665.9 2024.90   4
   3   0  -1 80099.2 1855.51  10
   3   0  -1 81957.4 1961.16   7
  -3   0   1 77154.3 2073.07   6
  -3   0   0 72370.5 2079.54  11
   3   0   0 71897.9 1859.07   1
   3   0   0 70220.2 1869.96   3
  -3   0   0 73221.6 1678.10  10
   3   0   0 71773.6 1656.16   8
  -3   0   0 71799.8 1964.03   8
  -3   0   0 71895.9 1774.95   7
   3   0   0 70630.6 1764.41   7
   3   0   0 70031.0 1663.25  10
  -3   0   0 73077.2 1887.95   6
   3   0   1 48268.7 1499.64   1
   3   0   1 51238.2 1444.16   3
   3   0   1 50463.4 1245.62  10
  -3   0  -1 49750.8 1216.34  10
  -3   0  -1 50100.6 1338.10   1
   3   0   1 48352.8 1533.04   2
   3   0   1 47907.1 1730.76   5
   3   0   1 49031.7 1344.53   8
  -3   0  -1 55144.3 1951.34   8
  -3   0  -1 49863.1 1325.14   7
   3   0   1 49447.0 1326.43   7
  -3   0  -1 49300.6 1629.99  11
  -3   0  -1 50106.7 1408.66   6
  -3   0  -2 15.5394 166.971   6
  -3   0  -2 222.226 140.800   1
   3   0   2 58.3707 269.417   1
  -3   0  -2 227.454 91.0460  10
  -3   0  -2 145.846 259.217  11
   3   0   2 114.504 183.881   8
   3   0   2 254.263 259.819   5
   3   0   2 269.527 126.767  10
  -3   0  -2 23.7268 333.442   8
  -3   0  -2 125.759 134.008   7
   3   0   2 446.371 164.918   2
   3   0   3 105273. 3005.28   5
  -3   0  -3 109204. 3044.52  11
   3   0   3 103441. 2686.08  10
  -3   0  -3 110470. 2555.74  10
   3   0   3 110571. 2672.07   2
   3   0   3 105708. 2957.05   8
  -3   0  -3 113082. 3414.40   8
  -3   0  -3 105965. 2645.27   7
   3   0   3 102131. 3069.24   1
   3   0   4 35987.2 1363.88   5
  -3   0  -4 33826.4 1423.85  11
   3   0   4 32867.8 1231.43  10
   3   0   4 34734.9 1047.83   2
   3   0   4 36162.5 1514.32   8
  -3   0  -4 36551.3 1180.48   7
  -3   0  -4 35807.1 1102.20  10
   3   0   4 32485.4 1515.31   1
  -3   0  -5 30516.0 1400.34  11
   3   0   5 27948.1 1217.71   5
  -3   0  -5 33298.3 1151.31  10
   3   0   5 32407.0 960.021   2
   3   0   5 33093.4 1600.10   8
  -3   0  -5 32822.5 1192.49   7
   3   0   5 34203.5 1644.72   1
   3   0   6 207.858 121.492   2
  -3   0  -6 425.927 341.269  11
   3   0   6 775.051 210.027   5
  -3   0  -6 1020.01 305.317  10
   3   0   6 1012.62 559.941   1
   3   0   6 1063.12 555.034   8
   3   0   6 248.332 138.765   5
  -3   0  -6 740.547 328.157   7
   3   0   7 47595.1 1247.52   5
  -3   0  -7 45059.4 1907.99  11
  -3   0  -7 45722.5 1728.68  10
   3   0   7 44414.8 1305.15   5
   3   0   7 47658.2 2081.10   8
   3   0   7 44048.6 1228.95   2
  -3   0  -7 46369.2 1784.02   7
   3   0   7 51898.0 2287.88   1
   3   0   8 14683.6 498.901   5
  -3   0  -8 14806.7 1007.31  10
   3   0   8 13007.7 483.258   5
   3   0   8 13634.4 1070.38   8
  -3   0  -8 15070.0 1069.39  11
   3   0   8 13982.1 498.339   2
   3   0   8 14895.0 1191.70   1
  -3   0  -8 15723.4 1067.71   7
  -3   0  -9 9961.83 695.348   9
  -3   0  -9 9242.15 789.596  11
   3   0   9 11025.9 972.164   8
  -3   0  -9 11265.7 976.565  10
   3   0   9 10900.8 1039.01   1
  -3   0  -9 9663.97 945.441   7
  -3   0 -10 37.0716 537.710  10
  -3   0 -10-196.717 250.030   9
   3   0  10 757.300 472.651   8
  -3   0 -10-10.9676 306.430  11
  -3   0 -10 454.948 507.568   7
  -3   0 -11 6627.00 617.461  11
   3   0  11 9124.91 976.536   1
  -3   0 -11 7441.08 903.465  10
   3   0  11 7554.92 866.107   8
  -3   0 -11 6702.50 981.199   7
   3   0  12 6708.40 875.067   1
  -3   0 -12 4667.94 733.949  10
   3   0  12 4738.19 743.720   8
  -3   0 -12 3384.46 458.980  11
  -3   0 -12 5258.99 959.117   7
   3   0  13 667.273 534.324   1
  -3   0 -13-88.9463 452.533  10
   3   0  13 1604.57 558.852   8
  -3   0 -13 177.842 575.452   7
   3   0  14 185.925 544.571   1
  -3   0 -14 139.097 435.183  10
   3   0  14 1178.73 573.001   8
  -3   0 -14 592.885 545.746   7
   3   0  15 517.353 569.810   1
  -3   0 -15 143.978 478.512  10
   3   0  15 127.320 483.730   8
  -3   0 -15-130.542 543.334   7
  -3   0 -16-281.624 491.826  10
  -3   1  17 113.526 467.095   6
  -3   1  16 16260.8 1276.47   6
   3   1 -16 17269.0 1340.46  10
   3   1 -16 18323.9 1586.00   4
   3   1 -16 19212.0 1521.05   3
  -3   1  15 506.797 487.863   6
   3   1 -15 619.552 601.427   3
   3   1 -15 1598.27 613.966  10
   3   1 -15 553.208 561.290   4
  -3   1  14 12644.2 1176.61   6
   3   1 -14 12965.8 1340.85   3
   3   1 -14 13746.7 1156.72  10
  -3   1  14 14069.3 1120.74   1
  -3   1  14 13410.0 983.740   8
   3   1 -14 14792.2 1508.32   4
   3   1 -14 15117.7 1121.27   2
  -3   1  13 408.805 538.571   6
   3   1 -13 523.673 682.101   3
   3   1 -13 970.407 428.773   2
   3   1 -13 1097.26 500.702  10
  -3   1  13 476.849 451.886   1
  -3   1  13 719.042 352.788   8
   3   1 -13-439.664 928.113   4
  -3   1  12 40217.3 2214.15   6
   3   1 -12 34520.9 2307.88   4
   3   1 -12 37576.0 1868.91  10
  -3   1  12 42340.4 1961.89   1
  -3   1  12 37987.9 1671.46   8
   3   1 -12 37467.4 2197.49   3
  -3   1  11 4367.99 773.337   6
   3   1 -11 4587.43 822.980   3
   3   1 -11 4353.41 709.564  10
  -3   1  11 4927.07 592.600   8
  -3   1  11 5393.65 660.893   1
   3   1 -11 4634.43 852.285   4
  -3   1  10 28614.1 1589.76   6
  -3   1  10 27596.7 1482.50   5
   3   1 -10 26830.6 1515.64  10
  -3   1  10 29318.5 1348.77   1
   3   1 -10 29138.5 1703.09   4
  -3   1  10 26977.3 1136.20   9
  -3   1  10 29629.0 1391.46   8
   3   1 -10 27589.3 1590.51   3
  -3   1   9 9173.16 844.900   6
   3   1  -9 8706.51 867.743  10
  -3   1   9 9167.88 661.372   1
  -3   1   9 8487.60 630.061   9
  -3   1   9 10170.4 819.779   8
  -3   1   9 8124.60 831.346   5
   3   1  -9 8656.08 856.497   4
   3   1  -9 10576.4 913.403   3
  -3   1   8 41570.8 1733.46   6
  -3   1   8 41571.0 1890.82   5
   3   1  -8 40480.4 1859.19  10
   3   1  -8 41271.1 1740.41   4
  -3   1   8 42665.1 1597.97   9
  -3   1   8 48849.5 1715.63   8
   3   1  -8 44161.8 1769.71   3
  -3   1   7 17753.6 979.974   6
  -3   1   7 17220.5 1188.51   5
   3   1  -7 15720.5 1092.72  10
   3   1  -7 18144.0 981.753   4
  -3   1   7 17532.1 833.841   8
   3   1  -7 16965.3 853.072   1
   3   1  -7 15844.9 904.020   3
  -3   1   6 35841.1 1370.02   6
  -3   1   6 37313.9 1833.42   5
  -3   1   6 35208.5 1122.05   8
   3   1  -6 33692.4 1233.14   1
   3   1  -6 35425.3 1309.55   3
   3   1  -6 33504.3 1302.35   4
   3   1  -5 21849.5 913.390   3
  -3   1   5 22203.7 966.876   6
  -3   1   5 24667.3 1551.43   5
  -3   1   5 21938.9 926.303  11
   3   1  -5 22437.6 924.518   4
  -3   1   5 22233.5 687.436   8
   3   1  -5 21356.1 845.437   1
  -3   1   4 21805.8 912.041   6
   3   1  -4 22139.8 869.929   3
   3   1  -4 22651.0 816.981   1
  -3   1   4 22242.7 1355.58   5
  -3   1   4 21340.7 914.429  11
   3   1  -4 22732.4 869.275   4
  -3   1   3 22907.9 849.145   6
   3   1  -3 21973.6 794.553   3
  -3   1   3 21407.3 872.971  11
   3   1  -3 19242.2 490.663   1
   3   1  -3 22441.5 782.780   4
   3   1  -3 17982.6 531.721   1
  -3   1   3 20106.5 1189.72   5
   3   1  -2 28479.5 953.827   3
   3   1  -2 26916.9 748.168   1
  -3   1   2 27845.1 1302.55   5
  -3   1   2 28818.4 1082.43  11
   3   1  -2 29486.0 773.594  10
   3   1  -2 28976.2 931.289   4
   3   1  -2 29998.9 852.394   7
  -3   1   2 29450.9 996.006   6
   3   1  -1 29608.1 963.955   3
  -3   1   1 30190.7 1110.79  11
   3   1  -1 30231.6 931.507   4
   3   1  -1 30283.6 842.016   7
   3   1  -1 27615.3 907.929   1
  -3   1   1 30816.8 999.682   6
   3   1  -1 29036.0 729.442  10
  -3   1   0 4963.76 443.809  11
   3   1   0 4978.99 350.940   3
  -3   1   0 4965.58 256.789  10
   3   1   0 4870.47 188.249  10
  -3   1   0 4893.06 217.826   8
  -3   1   0 4611.75 297.652   7
   3   1   0 4690.12 253.281   7
   3   1   0 5122.74 438.446   1
  -3   1   0 5238.87 369.899   6
   3   1   1 20752.6 768.606   3
   3   1   1 19480.7 581.181  10
  -3   1  -1 20291.0 913.904  11
  -3   1  -1 20749.8 629.700  10
   3   1   1 21068.1 669.842   8
  -3   1  -1 20087.3 712.495   8
  -3   1  -1 20188.3 705.102   7
   3   1   1 19790.7 650.538   7
   3   1   1 20188.3 1013.86   1
  -3   1  -1 20211.5 764.172   6
   3   1   2 23330.1 867.210   3
  -3   1  -2 23906.2 727.233  10
  -3   1  -2 21893.8 1004.52  11
   3   1   2 22340.8 775.219  10
   3   1   2 24442.5 851.670   8
  -3   1  -2 22874.4 950.220   8
  -3   1  -2 24031.5 814.150   7
   3   1   2 23330.1 772.283   7
   3   1   2 21373.9 1192.51   1
  -3   1  -2 24131.2 870.698   6
  -3   1  -3 39171.3 1475.85  11
   3   1   3 37993.3 1323.43  10
  -3   1  -3 41253.2 1162.69  10
   3   1   3 40443.8 1251.15   2
   3   1   3 42511.0 1388.25   8
  -3   1  -3 43204.6 1612.63   8
  -3   1  -3 40291.4 1239.73   7
   3   1   3 45838.9 1965.57   1
   3   1   4 1454.64 201.918   2
   3   1   4 1511.48 321.067  10
  -3   1  -4 1734.66 238.546  10
   3   1   4 1115.49 561.083   1
  -3   1  -4 1850.90 382.445  11
   3   1   4 1523.11 325.463   8
  -3   1  -4 1331.67 259.613   7
   3   1   5 25395.5 866.413   5
  -3   1  -5 24763.1 1195.07  11
  -3   1  -5 23586.4 944.623  10
   3   1   5 24738.1 853.586   2
   3   1   5 25032.5 1232.71   8
  -3   1  -5 24385.6 1011.56   7
   3   1   5 28626.4 1531.67   1
   3   1   6 22177.5 1273.22   8
   3   1   6 23137.2 810.303   5
  -3   1  -6 20737.4 1129.78  11
   3   1   6 20573.3 778.227   2
  -3   1  -6 22367.2 996.601  10
   3   1   6 21926.2 1369.95   1
  -3   1  -6 22209.7 1033.28   7
   3   1   7 61764.7 1689.12   5
  -3   1  -7 58696.9 2205.70  11
  -3   1  -7 62421.9 2076.17  10
   3   1   7 66006.5 2553.20   8
   3   1   7 59685.6 1673.32   2
   3   1   7 62707.2 2451.66   1
  -3   1  -7 60696.1 2125.42   7
  -3   1  -8 957.025 399.203  11
   3   1   8 1314.32 544.279   1
   3   1   8 1223.28 211.265   5
  -3   1  -8 1877.73 466.811  10
  -3   1  -8 1084.60 337.760   9
   3   1   8 294.514 544.729   8
  -3   1  -8 1446.11 478.480   7
   3   1   9 32076.3 1010.13   5
  -3   1  -9 31085.7 1448.53  11
  -3   1  -9 30089.6 1300.67   9
   3   1   9 31142.2 1689.07   8
   3   1   9 31440.5 1675.97   1
  -3   1  -9 31408.4 1662.15   7
  -3   1  -9 29801.5 1553.28  10
  -3   1 -10 10805.7 1033.04  10
  -3   1 -10 11146.8 722.536   9
   3   1  10 12541.9 1099.19   8
   3   1  10 11768.6 1059.52   1
  -3   1 -10 11161.0 801.808  11
  -3   1 -10 12630.5 1171.19   7
  -3   1 -11 51839.8 2452.12  10
   3   1  11 50032.2 2229.41   8
   3   1  11 52485.4 2299.43   1
  -3   1 -11 53534.3 2583.89   7
  -3   1 -11 51234.0 1843.83  11
   3   1  12 253.980 498.311   1
  -3   1 -12 65.7842 606.142  10
   3   1  12 1096.24 552.366   8
  -3   1 -12-502.249 796.077   7
  -3   1 -13 19635.2 1420.04  10
   3   1  13 21911.5 1431.15   8
   3   1  13 22115.5 1471.33   1
  -3   1 -13 25500.2 1765.42   7
   3   1  14 3186.54 694.647   1
  -3   1 -14 2794.62 632.211  10
   3   1  14 3684.57 724.235   8
  -3   1 -14 3717.15 812.513   7
   3   1  15 24718.8 1570.80   8
  -3   1 -15 22573.0 1522.39  10
  -3   1 -15 24030.5 1665.02   7
  -3   1 -16 832.272 519.738  10
  -3   2  16 1982.63 572.147   6
   3   2 -16 2411.53 745.957   3
   3   2 -16 2459.15 636.365  10
  -3   2  15 2658.19 621.337   6
   3   2 -15 2522.28 771.598   3
   3   2 -15 2921.57 683.124  10
  -3   2  15 3668.22 692.208   1
   3   2 -15 4074.73 888.314   4
  -3   2  14 478.053 527.934   6
   3   2 -14-491.602 745.239   3
   3   2 -14 427.682 403.512   2
   3   2 -14 399.932 468.978  10
  -3   2  14-135.804 540.210   1
  -3   2  14 270.505 391.373   8
   3   2 -14-794.081 818.000   4
  -3   2  13 10672.3 1114.59   6
   3   2 -13 8351.01 1209.98   3
   3   2 -13 9537.47 960.407  10
  -3   2  13 9555.74 1031.12   1
  -3   2  13 8605.57 811.578   8
   3   2 -13 9406.49 1410.27   4
  -3   2  12 25158.3 1626.87   6
  -3   2  12 20315.9 1279.02   5
  -3   2  12 21734.6 1381.93   1
   3   2 -12 22159.3 1843.72   4
  -3   2  12 20726.3 1253.19   8
   3   2 -12 22668.2 1411.09  10
   3   2 -12 21786.2 1699.27   3
  -3   2  11 5073.39 786.995   6
   3   2 -11 4182.83 799.800   3
  -3   2  11 4988.61 686.289   5
   3   2 -11 4632.72 694.875  10
  -3   2  11 4920.59 644.205   1
  -3   2  11 4785.53 660.279   8
   3   2 -11 3114.23 701.473   4
  -3   2  10 4792.52 680.749   6
   3   2 -10 4662.69 792.219   3
  -3   2  10 4730.37 698.627   5
   3   2 -10 5466.79 743.797  10
  -3   2  10 4196.80 563.738   1
  -3   2  10 4922.78 611.583   8
   3   2 -10 3162.98 690.487   4
  -3   2   9 13478.5 961.608   6
  -3   2   9 13823.0 1055.63   5
   3   2  -9 12160.9 996.737  10
   3   2  -9 14352.9 1074.76   4
  -3   2   9 13079.6 809.954   9
  -3   2   9 14551.2 870.022   8
   3   2  -9 13289.9 1049.37   3
  -3   2   8 57861.5 2092.26   6
  -3   2   8 56182.1 2309.88   5
   3   2  -8 59321.7 2287.88  10
   3   2  -8 60050.1 2188.64   4
  -3   2   8 56748.9 2016.84   9
  -3   2   8 60742.9 1891.86   8
   3   2  -8 58016.9 2175.16   3
  -3   2   7 1848.68 392.810   6
   3   2  -7 1003.77 353.814   3
   3   2  -7 1072.74 428.675  10
  -3   2   7 927.860 359.239   9
  -3   2   7 1521.44 543.210   5
  -3   2   7 1045.41 227.514   8
   3   2  -7 1594.88 384.502   4
   3   2  -7 755.157 238.851   1
  -3   2   6 8964.29 641.576   6
   3   2  -6 10018.9 479.434   1
  -3   2   6 11022.0 983.861   5
   3   2  -6 9847.99 845.630  10
  -3   2   6 9375.25 764.117   9
   3   2  -6 9964.30 655.710   4
  -3   2   6 10462.5 469.103   8
   3   2  -6 10714.1 704.292   3
  -3   2   5 7567.97 536.400   6
   3   2  -5 6623.97 275.783   1
   3   2  -5 7846.20 709.307  10
  -3   2   5 9492.73 980.342   5
  -3   2   5 6796.96 701.279   9
   3   2  -5 7872.39 525.214   4
   3   2  -5 8587.76 573.608   3
  -3   2   4 95848.4 2556.76   6
   3   2  -4 95831.1 2547.41   3
  -3   2   4 104044. 3516.29   5
   3   2  -4 92519.3 2920.04  10
  -3   2   4 94174.3 2638.77  11
   3   2  -4 95827.9 2493.05   4
  -3   2   3 2755.46 315.021   6
  -3   2   3 2497.47 352.914  11
   3   2  -3 2598.28 313.840   3
  -3   2   3 2589.53 586.640   5
   3   2  -3 2453.78 440.079  10
   3   2  -3 2962.18 290.832   4
   3   2  -2 4327.16 354.300   3
  -3   2   2 4925.44 459.088  11
  -3   2   2 4379.90 605.601   5
   3   2  -2 3453.33 426.575  10
   3   2  -2 4022.31 313.862   4
   3   2  -2 4444.06 246.263   7
  -3   2   2 4454.92 374.779   6
  -3   2   1 5592.87 480.851  11
   3   2  -1 6013.22 398.682   3
   3   2  -1 5560.23 288.342  10
  -3   2   1 6338.85 607.170   5
   3   2  -1 5309.32 167.564  10
  -3   2   1 5973.21 324.550  10
   3   2  -1 5752.23 349.049   4
   3   2  -1 5497.22 238.344   1
  -3   2   1 5564.97 349.199   7
   3   2  -1 5499.18 257.608   7
  -3   2   1 6140.77 410.446   6
  -3   2   0 45219.3 1617.59   5
   3   2   0 46972.9 1367.48   3
  -3   2   0 47884.5 1250.86  10
   3   2   0 46220.9 1408.01   1
  -3   2   0 48200.3 1560.07  11
  -3   2   0 47113.1 1314.58   7
   3   2   0 46512.9 1178.46   7
  -3   2   0 47389.9 1399.17   6
  -3   2  -1 18.2590 196.881   6
   3   2   1 595.121 321.001   1
  -3   2  -1 527.448 261.288  11
  -3   2  -1 268.015 134.167  10
   3   2   1 200.389 194.701   3
  -3   2  -1 424.157 121.762   8
  -3   2  -1 148.763 165.547   7
   3   2   1 258.703 98.6849   7
  -3   2  -2 4897.33 302.117  10
   3   2   2 4167.49 349.731   3
   3   2   2 5052.46 705.501   1
   3   2   2 4333.87 323.477   8
  -3   2  -2 4290.12 324.770   8
  -3   2  -2 4592.11 346.684   7
  -3   2  -2 3660.03 429.879  11
   3   2   2 4365.16 286.674   7
  -3   2  -3 11988.0 740.618  11
  -3   2  -3 13277.4 562.198  10
   3   2   3 13622.9 676.244   8
   3   2   3 13359.9 1042.11   1
  -3   2  -3 13185.7 617.284   7
   3   2   4 18134.1 766.435   5
  -3   2  -4 19345.7 765.347  10
  -3   2  -4 19206.7 973.468  11
   3   2   4 19412.6 918.419   8
  -3   2  -4 18766.6 810.948   7
   3   2   4 18425.5 1195.50   1
   3   2   5 8881.66 508.805   5
  -3   2  -5 8020.85 657.176  11
  -3   2  -5 8678.05 547.677  10
  -3   2  -5 8272.83 793.207   9
   3   2   5 8394.20 698.692   8
   3   2   5 8900.97 852.378   1
  -3   2  -5 8497.59 577.731   7
   3   2   6 2404.44 539.090   1
  -3   2  -6 1930.79 329.481  10
   3   2   6 2583.61 300.973   5
  -3   2  -6 1728.71 435.110   9
  -3   2  -6 2131.52 434.079  11
   3   2   6 2198.64 466.026   8
  -3   2  -6 2366.24 402.136   7
   3   2   7 24170.9 921.404   5
  -3   2  -7 21138.2 1070.37  10
  -3   2  -7 23728.7 1235.83  11
  -3   2  -7 21110.4 1149.96   9
   3   2   7 22223.7 1307.55   8
   3   2   7 21751.6 888.430   2
   3   2   7 24276.5 1391.05   1
  -3   2  -7 21114.5 1122.85   7
   3   2   8 5963.53 437.108   5
   3   2   8 5654.13 763.369   1
  -3   2  -8 4592.02 585.901  10
  -3   2  -8 6472.35 627.007   9
   3   2   8 7348.46 859.403   8
  -3   2  -8 6576.43 722.289  11
  -3   2  -8 6658.01 747.992   7
   3   2   9 8747.98 925.661   1
   3   2   9 9202.40 550.080   5
  -3   2  -9 9747.27 775.878  11
  -3   2  -9 7155.37 764.178  10
  -3   2  -9 7282.93 638.394   9
   3   2   9 8159.04 1008.58   8
  -3   2  -9 8444.84 880.554   7
   3   2  10 555.432 498.695   1
  -3   2 -10 54.7466 434.296  10
  -3   2 -10 182.358 269.822  11
   3   2  10-269.941 570.431   8
  -3   2 -10-341.551 510.174   7
   3   2  11 9210.70 947.882   1
  -3   2 -11 7543.89 960.285  10
  -3   2 -11 7821.69 637.310  11
   3   2  11 7782.02 918.965   8
  -3   2 -11 7117.98 976.074   7
   3   2  12 3301.82 683.664   1
  -3   2 -12 2432.06 667.627  10
   3   2  12 2984.36 661.705   8
  -3   2 -12 2214.70 758.467   7
   3   2  13 2269.78 652.784   1
  -3   2 -13 337.194 569.080  10
   3   2  13 1450.99 550.494   8
  -3   2 -13 1600.59 778.059   7
   3   2  14 620.508 538.894   1
  -3   2 -14-525.043 601.576  10
   3   2  14-178.709 495.225   8
  -3   2 -14-741.205 684.184   7
  -3   2 -15 735.514 579.034  10
   3   2  15 386.681 496.319   8
  -3   2 -15 262.623 633.053   7
   3   2  15 497.627 494.559   1
  -3   3  16 13917.4 1161.11   6
   3   3 -16 13492.2 1358.44   3
   3   3 -16 14656.7 1238.60  10
  -3   3  15-993.857 590.935   6
   3   3 -15-958.461 681.610   3
   3   3 -15-390.869 740.233   4
   3   3 -15 192.627 493.725  10
  -3   3  14 12324.1 1151.95   6
   3   3 -14 10017.1 1238.12   3
  -3   3  14 11383.5 967.960   8
   3   3 -14 10276.9 1343.38   4
  -3   3  14 12002.1 1013.86   5
   3   3 -14 13295.8 1049.07   2
   3   3 -14 12375.2 1104.42  10
  -3   3  13 1759.63 631.200   6
   3   3 -13 364.538 847.940   3
  -3   3  13 2320.26 563.594   5
   3   3 -13 2142.05 610.993  10
  -3   3  13 2574.94 577.128   8
   3   3 -13 1702.00 877.486   4
   3   3 -12 27944.6 1580.02  10
  -3   3  12 27443.2 1650.94   6
   3   3 -12 27212.5 2033.64   4
  -3   3  12 33823.0 1695.71   8
  -3   3  12 28236.0 1553.42   5
   3   3 -12 26523.9 1911.07   3
  -3   3  11 3134.70 604.285   6
   3   3 -11 3972.25 766.733   3
  -3   3  11 2342.66 560.902   5
   3   3 -11 3786.67 675.177  10
  -3   3  11 4744.46 639.995   8
   3   3 -11 2510.64 746.583   4
  -3   3  10 22563.6 1287.94   6
  -3   3  10 21805.6 1352.57   5
   3   3 -10 21710.7 1350.60  10
   3   3 -10 20201.4 1447.28   4
  -3   3  10 24376.3 1194.11   8
   3   3 -10 22454.2 1493.47   3
  -3   3   9 12446.5 903.450   6
  -3   3   9 13031.0 1036.00   5
   3   3  -9 13475.9 1063.76   4
   3   3  -9 13485.3 1044.45  10
  -3   3   9 13852.1 805.634   8
   3   3  -9 13472.0 1077.01   3
  -3   3   8 26959.7 1271.85   6
  -3   3   8 27812.4 1529.14   5
   3   3  -8 30660.0 1578.67  10
  -3   3   8 27001.5 1299.24   9
   3   3  -8 27942.8 1388.49   4
  -3   3   8 28203.2 1079.80   8
   3   3  -8 31068.6 1499.64   3
  -3   3   7 18413.3 949.223   6
  -3   3   7 17793.9 1225.79   5
   3   3  -7 19903.4 1262.49  10
   3   3  -7 17588.4 659.737   1
   3   3  -7 18550.9 1012.89   4
  -3   3   7 18250.0 1073.64   9
  -3   3   7 19788.4 765.015   8
   3   3  -7 18578.4 1046.97   3
  -3   3   6 30148.3 1187.43   6
  -3   3   6 29816.0 1619.39   5
   3   3  -6 31352.0 1596.76  10
  -3   3   6 28475.9 1405.70   9
   3   3  -6 28773.8 790.620   1
   3   3  -6 30842.4 1222.86   4
   3   3  -6 29829.4 1268.70   3
  -3   3   5 64361.9 1907.82   6
  -3   3   5 60876.1 2521.67   5
   3   3  -5 63356.5 2195.88  10
  -3   3   5 62288.6 2332.89   9
   3   3  -5 62173.1 1883.06   4
   3   3  -5 64232.6 1977.11   3
  -3   3   4 22008.2 901.749   6
   3   3  -4 23278.4 948.396   3
  -3   3   4 23697.6 1527.91   5
   3   3  -4 22358.4 982.160  10
  -3   3   4 20497.9 1266.55   9
   3   3  -4 20736.2 848.846   4
   3   3  -3 45659.4 1430.25   3
  -3   3   3 46965.4 2228.74   5
   3   3  -3 44713.0 1323.22  10
  -3   3   3 44368.6 2039.18   9
  -3   3   3 45634.7 1581.10  11
   3   3  -3 44524.5 1343.86   4
  -3   3   3 46309.7 1421.43   6
   3   3  -2 42044.7 1277.56   3
  -3   3   2 38164.9 1841.11   5
   3   3  -2 38734.0 998.551  10
  -3   3   2 39159.4 2020.94   9
  -3   3   2 39499.8 1426.57  11
   3   3  -2 38544.9 1175.64   4
   3   3  -2 39182.6 1012.82   7
  -3   3   2 40467.1 1267.47   6
   3   3  -1 102419. 2560.44   3
  -3   3   1 99655.6 3117.73   5
  -3   3   1 101337. 2452.70  10
  -3   3   1 104556. 3807.73   9
   3   3  -1 97496.3 2457.09   4
  -3   3   1 99562.4 2491.60   7
  -3   3   1 101898. 2782.46  11
   3   3  -1 98999.5 2261.48   7
  -3   3   1 102745. 2590.15   6
   3   3   0 46000.7 1361.22   3
  -3   3   0 45753.2 1708.07   5
  -3   3   0 46884.0 1575.08  11
  -3   3   0 45206.9 1273.09  10
   3   3   0 46168.5 1198.56   1
  -3   3   0 45998.8 1327.52   7
   3   3   0 46203.6 1125.01   7
   3   3   0 44245.6 1288.08   4
  -3   3   0 45561.9 1406.02   6
   3   3   1 48888.0 1418.68   3
  -3   3  -1 48155.7 1644.36   5
  -3   3  -1 48730.5 1336.15  10
  -3   3  -1 47723.6 1626.88  11
  -3   3  -1 51274.4 2464.69   9
   3   3   1 47010.5 1433.43   1
  -3   3  -1 48996.5 1398.50   7
   3   3   1 47991.2 1232.37   7
  -3   3  -1 48713.8 1489.00   6
   3   3   2 63179.2 1725.90   6
   3   3   2 64992.6 1778.92   3
  -3   3  -2 64896.3 1884.06   5
  -3   3  -2 61927.1 1979.57  11
  -3   3  -2 63834.6 1697.04  10
  -3   3  -2 64789.6 2703.06   9
  -3   3  -2 63164.2 1697.68   8
   3   3   2 64934.3 1996.74   1
  -3   3  -2 64124.3 1763.53   7
   3   3   3 97738.1 2468.01   6
  -3   3  -3 97869.0 2472.65  10
   3   3   3 98935.6 2555.43   3
  -3   3  -3 94665.4 2760.03  11
   3   3   3 101848. 2587.39   8
  -3   3  -3 95042.7 3377.02   9
   3   3   3 102539. 3027.81   1
  -3   3  -3 93331.4 2521.58   7
   3   3   4 49754.7 1585.34   5
  -3   3  -4 49207.9 1732.04  11
   3   3   4 51457.1 1664.11   8
  -3   3  -4 49906.9 2155.71   9
  -3   3  -4 50537.1 1517.24  10
   3   3   4 50986.7 2148.45   1
  -3   3  -4 50513.4 1574.21   7
   3   3   5 30602.9 1130.49   5
  -3   3  -5 29670.7 1118.35  10
  -3   3  -5 28422.8 1510.38   9
   3   3   5 31262.7 1302.35   8
  -3   3  -5 29136.7 1162.92   7
  -3   3  -5 28389.7 1280.81  11
  -3   3  -6 38462.6 1432.88  10
   3   3   6 42249.2 1412.71   5
  -3   3  -6 37516.6 1715.44   9
   3   3   6 40884.5 1664.09   8
  -3   3  -6 39878.5 1597.25  11
   3   3   6 42084.3 2018.48   1
  -3   3  -6 38528.7 1497.72   7
   3   3   7 62102.7 1855.24   5
  -3   3  -7 59065.5 2112.83  11
  -3   3  -7 54655.3 1952.42  10
  -3   3  -7 56989.7 2145.61   9
   3   3   7 61666.4 2277.17   8
   3   3   7 56199.8 2363.17   1
  -3   3  -7 54666.1 2014.71   7
  -3   3  -8 21589.3 1203.95  11
   3   3   8 20435.5 934.041   5
  -3   3  -8 19759.0 1130.90  10
  -3   3  -8 19723.6 1119.32   9
   3   3   8 22334.7 1368.49   8
   3   3   8 22044.0 1393.46   1
  -3   3  -8 18609.8 1149.56   7
   3   3   9 27790.7 1140.06   5
  -3   3  -9 28750.2 1342.99  11
  -3   3  -9 26969.1 1448.41  10
   3   3   9 30361.0 1726.24   8
   3   3   9 26799.3 1567.30   1
  -3   3  -9 30574.9 1593.34   7
   3   3  10 14929.1 791.785   5
  -3   3 -10 13429.9 1075.06  10
   3   3  10 14764.4 1324.65   8
   3   3  10 14626.4 1166.99   1
  -3   3 -10 13987.9 861.985  11
  -3   3 -10 14935.6 1210.17   7
  -3   3 -11 39583.7 2065.57  10
   3   3  11 43115.9 2184.50   8
   3   3  11 45951.9 2110.26   1
  -3   3 -11 42959.0 2224.47   7
   3   3  12 5889.97 811.429   1
  -3   3 -12 4942.11 882.267  10
   3   3  12 3642.52 760.885   8
  -3   3 -12 5341.81 987.091   7
   3   3  13 15919.0 1290.74   8
  -3   3 -13 18926.3 1536.96  10
   3   3  13 16743.2 1295.11   1
  -3   3 -13 16781.6 1619.31   7
  -3   3 -14 3000.23 760.360  10
   3   3  14 2689.36 672.793   8
  -3   3 -14 1681.80 767.321   7
   3   3  14 3671.22 709.438   1
  -3   3 -15 20538.9 1536.70  10
   3   3  15 19797.2 1454.97   8
   3   3  15 22993.1 1523.95   1
  -3   3 -15 20258.2 1570.67   7
   3   4 -16 2023.48 640.938  10
  -3   4  15 4001.67 747.339   6
   3   4 -15 2602.69 748.719   3
  -3   4  15 3692.29 656.536   5
   3   4 -15 2521.95 656.136  10
   3   4 -15 2099.64 699.025   4
  -3   4  14 880.347 535.046   6
   3   4 -14 463.886 658.151   3
  -3   4  14 1185.13 521.600   5
   3   4 -14 969.854 547.452  10
   3   4 -14 1385.48 753.682   4
  -3   4  13 11017.5 1095.40   6
   3   4 -13 13198.0 1546.13   3
  -3   4  13 10381.6 991.870   5
  -3   4  13 12622.6 1093.42   8
   3   4 -13 9618.90 1341.33   4
   3   4 -13 11913.0 1078.30  10
  -3   4  12 7170.16 836.715   6
   3   4 -12 7648.20 1141.19   3
  -3   4  12 7179.91 767.727   8
  -3   4  12 6740.72 821.271   5
   3   4 -12 7472.06 885.530  10
   3   4 -12 7785.84 1182.83   4
  -3   4  11 10209.9 920.202   6
   3   4 -11 9600.27 1112.25   3
  -3   4  11 12278.5 887.321   8
   3   4 -11 9662.83 1166.49   4
   3   4 -11 11299.3 1036.41  10
  -3   4  11 9813.79 933.746   5
  -3   4  10 3226.49 544.866   6
   3   4 -10 5415.20 827.170   3
  -3   4  10 4078.65 710.418   5
   3   4 -10 4879.64 741.122  10
  -3   4  10 6115.99 594.501   8
   3   4 -10 4593.12 801.652   4
  -3   4   9 28422.3 1355.89   6
  -3   4   9 27303.8 1564.36   5
   3   4  -9 32218.0 1733.86  10
   3   4  -9 28905.4 1588.27   4
  -3   4   9 29280.8 1182.60   8
   3   4  -9 27743.2 1621.31   3
  -3   4   8 27601.1 1260.41   6
  -3   4   8 28147.5 1576.59   5
   3   4  -8 28936.4 1627.82  10
   3   4  -8 28333.0 1434.60   4
   3   4  -8 30027.5 1549.46   3
  -3   4   7 27838.3 1184.37   6
  -3   4   7 27401.2 1566.56   5
   3   4  -7 29969.5 1335.30   4
  -3   4   7 26771.7 1403.11   9
   3   4  -7 26333.7 1395.65  10
   3   4  -7 29678.5 1418.15   3
  -3   4   6 13577.4 759.479   6
  -3   4   6 14303.9 1143.04   5
   3   4  -6 13865.1 874.775  10
   3   4  -6 16061.2 862.393   4
  -3   4   6 13835.0 1007.84   9
   3   4  -6 14297.2 899.016   3
  -3   4   5 50387.5 2230.18   5
   3   4  -5 48069.2 1616.98  10
  -3   4   5 48273.0 2080.86   9
   3   4  -5 50888.6 1618.21   4
   3   4  -5 50442.1 1725.60   3
  -3   4   5 49777.7 1593.57   6
  -3   4   4 50445.1 2324.02   5
   3   4  -4 51706.6 1528.16  10
  -3   4   4 53993.1 2263.52   9
   3   4  -4 51932.1 1606.88   4
  -3   4   4 55376.5 1661.32   6
   3   4  -4 55970.3 1750.09   3
   3   4  -3 50523.8 1571.79   3
  -3   4   3 51744.4 2396.90   5
   3   4  -3 48688.6 1288.51  10
  -3   4   3 48003.5 2236.24   9
   3   4  -3 49431.3 1451.71   4
  -3   4   3 48498.4 1517.72   6
   3   4  -2 15362.0 715.127   3
   3   4  -2 14022.2 441.785   7
  -3   4   2 13880.7 1239.77   5
  -3   4   2 14670.8 635.090  10
  -3   4   2 15693.2 1335.10   9
   3   4  -2 15626.3 433.297  10
   3   4  -2 14205.4 612.666   4
  -3   4   2 14608.0 688.410   6
   3   4  -1 82518.3 2168.29   3
  -3   4   1 79260.6 2889.94   5
  -3   4   1 79968.7 2406.46  11
  -3   4   1 82644.7 2074.17  10
  -3   4   1 82943.4 3363.67   9
   3   4  -1 81521.1 2050.47   4
  -3   4   1 81809.8 2105.71   7
   3   4  -1 77834.4 1791.14   7
  -3   4   1 81275.4 2189.44   6
   3   4   0 63297.4 1427.26   3
  -3   4   0 63609.1 2043.63   5
  -3   4   0 62457.8 1337.52  10
   3   4   0 64852.6 1135.91   1
  -3   4   0 62584.5 1721.75  11
   3   4   0 62264.7 1304.52   4
  -3   4   0 63784.6 1391.08   7
  -3   4   0 66108.2 1527.58   6
   3   4   1 43347.2 1326.98   3
  -3   4  -1 42649.9 1648.22   5
  -3   4  -1 41268.8 1542.21  11
  -3   4  -1 44049.1 1275.52  10
  -3   4  -1 45094.1 2358.28   9
   3   4   1 43605.6 1248.42   1
  -3   4  -1 42923.3 1314.86   7
   3   4   2 5131.60 345.783   6
   3   4   2 4405.88 372.243   3
  -3   4  -2 4854.55 497.338  11
  -3   4  -2 4555.49 836.447   9
   3   4   2 5241.57 416.172   1
  -3   4  -2 4500.65 343.376  10
  -3   4  -2 4312.21 378.260   7
  -3   4  -2 4665.24 454.608   5
   3   4   3 78577.9 2010.41   6
  -3   4  -3 76555.5 2078.86  10
   3   4   3 79687.8 2119.34   3
   3   4   3 79068.7 2280.19   5
  -3   4  -3 76433.0 2360.71  11
  -3   4  -3 75714.9 2144.61   5
  -3   4  -3 78411.1 3004.12   9
   3   4   3 75306.3 2312.89   1
  -3   4  -3 76710.1 2134.99   7
   3   4   4 38499.0 1173.15   6
   3   4   4 39914.1 1420.55   5
   3   4   4 38767.7 1294.85   3
  -3   4  -4 39154.8 1188.24   5
   3   4   4 39260.9 1613.61   1
  -3   4  -4 38774.5 1289.88  10
  -3   4  -4 37768.5 1895.75   9
   3   4   4 40849.0 1401.75   8
  -3   4  -4 38273.7 1490.96  11
  -3   4  -4 38199.5 1328.26   7
   3   4   5 27683.6 934.175   6
   3   4   5 28226.6 1156.89   5
  -3   4  -5 28191.8 1259.00  11
  -3   4  -5 28185.5 1101.63  10
  -3   4  -5 25669.6 1493.03   9
   3   4   5 27660.6 1207.71   8
   3   4   5 29521.9 1506.33   1
  -3   4  -5 27045.3 1128.41   7
   3   4   6 2501.37 616.546   1
  -3   4  -6 2189.15 420.737  11
  -3   4  -6 2298.53 389.971  10
  -3   4  -6 2320.73 570.006   9
   3   4   6 2488.67 387.329   5
   3   4   6 2234.53 461.630   8
  -3   4  -6 3499.70 454.928   7
   3   4   7 35416.4 1366.44   5
  -3   4  -7 34156.2 1424.09  10
  -3   4  -7 32435.3 1602.16   9
   3   4   7 35587.2 1618.09   8
   3   4   7 39841.2 2069.89   1
  -3   4  -7 37424.3 1554.88  11
  -3   4  -7 31553.2 1442.95   7
   3   4   8 20987.0 1016.97   5
  -3   4  -8 23212.8 1218.97  11
  -3   4  -8 18512.6 1107.89  10
   3   4   8 20767.0 1297.71   8
   3   4   8 19370.0 1401.78   1
  -3   4  -8 20327.9 1203.40   7
   3   4   9 6414.42 574.021   5
  -3   4  -9 5723.14 728.382  10
   3   4   9 6258.48 852.147   8
  -3   4  -9 6842.50 620.899  11
  -3   4  -9 4633.25 672.455   7
   3   4   9 5317.16 777.146   1
   3   4  10 1386.83 323.756   5
  -3   4 -10 1239.02 319.859  11
  -3   4 -10 528.495 469.529  10
   3   4  10 1414.50 619.916   8
  -3   4 -10 868.373 539.957   7
   3   4  10 1622.94 598.140   1
  -3   4 -11 8542.98 996.234  10
   3   4  11 8309.53 1087.58   8
  -3   4 -11 7006.47 965.229   7
   3   4  11 6751.17 868.423   1
   3   4  12 4807.31 877.180   8
  -3   4 -12 4330.99 804.728  10
  -3   4 -12 4756.51 911.678   7
   3   4  12 4889.51 817.080   1
  -3   4 -13 515.496 682.315  10
   3   4  13 515.563 585.052   8
   3   4  13 399.608 467.033   1
  -3   4 -13 409.686 733.838   7
  -3   4 -14 995.761 720.294  10
   3   4  14 379.896 503.091   8
   3   4  14 669.237 538.087   1
  -3   4 -14-827.502 914.264   7
  -3   4 -15 1029.42 622.672  10
   3   4  15 260.202 500.534   8
   3   4  15 352.612 546.770   1
  -3   4 -15-143.358 711.745   7
   3   5 -16 8453.44 1003.73  10
   3   5 -15 921.085 706.444   3
  -3   5  15 462.371 456.069   5
   3   5 -15 607.212 453.949  10
   3   5 -15 2016.32 702.258   4
   3   5 -14 6375.39 1076.21   3
  -3   5  14 6493.25 810.872   5
   3   5 -14 6665.90 891.639  10
   3   5 -14 7251.47 1069.22   4
  -3   5  13 4158.69 737.159   6
   3   5 -13 1553.43 836.392   3
   3   5 -13 2167.30 633.556  10
  -3   5  13 2797.25 624.288   5
  -3   5  13 3359.38 648.755   8
   3   5 -13 2066.48 779.454   4
  -3   5  12 16896.7 1198.91   6
  -3   5  12 15724.2 1211.01   5
   3   5 -12 14236.9 1215.63  10
  -3   5  12 17246.0 1125.19   8
   3   5 -12 15248.5 1587.51   4
   3   5 -12 19139.4 1692.91   3
   3   5 -11-757.380 565.971  10
  -3   5  11-116.916 364.795   6
   3   5 -11-255.703 654.687   3
  -3   5  11 224.376 447.746   5
   3   5 -11-1135.01 809.654   4
  -3   5  10 14468.9 951.657   6
  -3   5  10 15024.0 1171.39   5
   3   5 -10 13910.0 1220.92   4
   3   5 -10 14390.6 1285.82  10
   3   5 -10 14320.4 1326.62   3
  -3   5   9 8068.61 686.998   6
   3   5  -9 10166.2 1060.97   3
  -3   5   9 7799.67 888.969   5
   3   5  -9 9312.05 931.975  10
   3   5  -9 8676.20 894.031   4
  -3   5   8 27248.4 1223.98   6
  -3   5   8 26872.5 1599.24   5
   3   5  -8 27006.7 1427.32  10
   3   5  -8 27237.9 1431.78   4
   3   5  -8 29437.7 1594.53   3
  -3   5   7 3310.16 436.456   6
   3   5  -7 3603.44 505.269  10
  -3   5   7 2466.10 608.435   5
   3   5  -7 3805.96 544.524   4
  -3   5   6 26113.2 1575.42   5
   3   5  -6 26695.9 1119.27  10
   3   5  -6 26317.2 1174.55   4
   3   5  -6 25643.1 1280.17   3
  -3   5   6 26046.2 1084.77   6
  -3   5   5 16316.9 1286.18   5
   3   5  -5 18614.8 798.018  10
   3   5  -5 18341.5 874.285   4
  -3   5   5 18861.0 1291.44   9
   3   5  -5 17265.1 963.629   3
  -3   5   5 19357.7 862.174   6
  -3   5   4 37523.0 1991.14   5
  -3   5   4 38967.3 1977.24   9
   3   5  -4 40114.9 1178.59  10
   3   5  -4 39867.7 1323.18   4
  -3   5   4 39897.4 1350.38   6
   3   5  -4 39490.1 1466.20   3
   3   5  -3 14683.8 770.902   3
  -3   5   3 13454.4 1241.44   5
   3   5  -3 13750.9 492.261  10
  -3   5   3 15052.3 1259.09   9
   3   5  -3 14023.6 641.779   4
  -3   5   3 14401.7 704.599   6
   3   5  -2 54464.7 1643.32   3
  -3   5   2 57769.6 2716.51   5
   3   5  -2 53142.7 1240.71  10
  -3   5   2 54071.3 1551.40  10
  -3   5   2 56955.3 2626.30   9
   3   5  -2 53350.0 1496.94   4
   3   5  -2 50343.2 1204.99   7
  -3   5   2 54454.2 1633.51   6
   3   5  -1 41333.3 1304.52   3
  -3   5   1 41988.1 2167.94   5
  -3   5   1 40564.9 1225.05  10
   3   5  -1 39333.6 1162.84   4
  -3   5   1 40701.9 2359.04   9
  -3   5   1 39694.8 1237.79   7
   3   5  -1 37198.6 881.810  10
  -3   5   1 42027.3 1341.74   6
   3   5   0 37216.3 1212.03   3
  -3   5   0 38719.2 1858.42   5
  -3   5   0 35697.7 1154.75  10
   3   5   0 35358.9 1092.12   4
  -3   5   0 36630.5 1177.07   7
  -3   5   0 37934.6 1294.38   6
   3   5   1 20621.7 816.690   3
  -3   5  -1 20252.4 1185.53   5
  -3   5  -1 21039.0 803.583  10
   3   5   1 20348.4 725.635   1
  -3   5  -1 21614.7 1701.68   9
  -3   5  -1 20568.7 821.834   7
  -3   5  -1 20599.9 1048.02  11
   3   5   2 39221.3 1220.29   6
   3   5   2 39518.9 1261.08   3
   3   5   2 39031.2 1484.31   5
  -3   5  -2 39891.5 2218.24   9
  -3   5  -2 37999.6 1541.86   5
  -3   5  -2 38386.4 1244.70  10
   3   5   2 40108.8 1264.05   1
  -3   5  -2 39442.0 1539.36  11
  -3   5  -2 39393.1 1286.65   7
   3   5   3 47110.9 1366.94   6
   3   5   3 47901.8 1467.30   3
   3   5   3 48118.8 1696.58   5
  -3   5  -3 48294.6 1623.79   5
  -3   5  -3 49098.9 1493.60  10
  -3   5  -3 47810.2 2324.87   9
   3   5   3 47098.3 1571.45   1
  -3   5  -3 46170.1 1729.64  11
  -3   5  -3 47884.4 1519.00   7
   3   5   4 19796.1 730.837   6
   3   5   4 20771.9 853.095   3
   3   5   4 19785.5 1000.20   5
  -3   5  -4 21040.9 847.634   5
  -3   5  -4 19756.4 1053.03  11
  -3   5  -4 19186.9 1371.63   9
   3   5   4 21243.6 1055.94   1
  -3   5  -4 20123.5 904.431   7
  -3   5  -4 19116.4 862.057  10
   3   5   5 23754.2 825.006   6
   3   5   5 25001.3 991.127   3
   3   5   5 26406.6 1170.83   5
   3   5   5 24548.0 1124.75   8
  -3   5  -5 22700.6 1165.46  11
   3   5   5 25158.7 1282.70   1
  -3   5  -5 25047.6 828.292   5
  -3   5  -5 24211.0 1039.08  10
  -3   5  -5 24356.1 1076.10   7
   3   5   6 14682.2 625.224   6
   3   5   6 15575.6 789.058   3
   3   5   6 15813.5 900.578   5
   3   5   6 18442.7 1020.41   8
   3   5   6 15188.8 1117.99   1
  -3   5  -6 14673.3 934.794  11
  -3   5  -6 16045.3 911.350   7
  -3   5  -6 16686.4 883.107  10
   3   5   7 45749.7 1694.55   5
  -3   5  -7 42658.3 1674.57  10
  -3   5  -7 46671.7 1830.22  11
   3   5   7 45139.4 1857.41   8
   3   5   7 49593.6 2230.76   1
  -3   5  -7 43041.3 1728.90   7
   3   5   8 6208.05 608.237   5
  -3   5  -8 6348.08 613.406  11
  -3   5  -8 5823.60 663.985  10
   3   5   8 6688.10 786.674   8
   3   5   8 7475.31 1019.79   1
  -3   5  -8 5252.06 654.043   7
   3   5   9 16914.4 987.466   5
  -3   5  -9 15895.1 1100.50  10
  -3   5  -9 19025.7 972.136  11
   3   5   9 17722.2 1271.66   8
   3   5   9 17277.1 1387.67   1
  -3   5  -9 15592.9 1128.61   7
   3   5  10 4599.43 539.954   5
  -3   5 -10 3600.50 653.707  10
   3   5  10 3412.03 722.899   8
   3   5  10 4237.31 792.411   1
  -3   5 -10 2585.79 594.390   7
  -3   5 -11 27045.0 1661.33  10
   3   5  11 29430.3 1736.42   1
  -3   5 -11 27250.6 1737.23   7
  -3   5 -12 4518.49 831.406  10
   3   5  12 4208.28 892.099   8
   3   5  12 4854.76 799.325   1
  -3   5 -12 3347.44 793.100   7
  -3   5 -13 10943.3 1261.83  10
   3   5  13 11210.7 1226.06   8
   3   5  13 10818.9 1089.96   1
  -3   5 -13 11463.7 1379.36   7
  -3   5 -14 1010.02 764.331  10
   3   5  14 852.597 574.384   8
   3   5  14 916.382 565.966   1
  -3   5 -14 745.213 784.564   7
  -3   5 -15 14103.2 1341.98  10
   3   6 -15 678.126 566.150  10
   3   6 -15 2722.79 811.330   4
  -3   6  15 1959.59 658.194   5
   3   6 -14 436.537 717.989   3
   3   6 -14 692.049 519.797  10
   3   6 -14 115.713 598.831   4
  -3   6  14 771.733 521.643   5
   3   6 -13 6494.58 1231.74   3
  -3   6  13 4809.67 738.893   5
   3   6 -13 5497.24 870.759  10
   3   6 -13 5308.59 981.499   4
  -3   6  12 17536.5 1180.26   6
   3   6 -12 14597.7 1593.63   3
  -3   6  12 16397.5 1267.36   5
   3   6 -12 16456.5 1720.12   4
   3   6 -12 14890.6 1331.47  10
  -3   6  11 4615.13 620.877   6
   3   6 -11 5400.15 909.028   3
  -3   6  11 5584.16 808.540   5
   3   6 -11 5223.48 879.339  10
   3   6 -11 4184.04 914.754   4
  -3   6  10 6124.53 632.314   6
   3   6 -10 7168.31 969.147   3
  -3   6  10 7208.33 898.339   5
   3   6 -10 7739.43 902.833  10
   3   6 -10 4657.41 829.869   4
  -3   6   9 13287.3 867.654   6
  -3   6   9 14291.2 1204.75   5
   3   6  -9 14162.3 1043.71  10
   3   6  -9 14060.0 1166.24   4
   3   6  -9 15010.9 1297.85   3
  -3   6   8 39459.1 2029.45   5
   3   6  -8 40510.2 1675.81  10
   3   6  -8 42221.0 1873.14   4
   3   6  -8 41357.1 2015.79   3
  -3   6   8 39595.4 1531.36   6
   3   6  -7 5901.07 754.144   3
  -3   6   7 4858.36 495.412   6
  -3   6   7 5243.00 854.446   5
   3   6  -7 4798.29 529.823  10
   3   6  -7 4396.90 573.556   4
  -3   6   6 17608.1 1387.50   5
   3   6  -6 16793.5 823.010  10
   3   6  -6 18979.3 1006.53   4
   3   6  -6 17672.7 1108.40   3
  -3   6   6 16961.7 851.820   6
  -3   6   5 13766.5 1246.86   5
   3   6  -5 15818.2 690.428  10
   3   6  -5 14194.3 782.486   4
   3   6  -5 14585.3 925.451   3
  -3   6   5 15045.9 779.236   6
  -3   6   4 44887.2 2298.64   5
   3   6  -4 47754.5 1523.48   4
  -3   6   4 45340.8 1529.28   6
   3   6  -4 46640.8 1711.40   3
   3   6  -4 48349.3 1330.77  10
  -3   6   3 1399.87 279.568   6
   3   6  -3 1874.14 370.775   3
  -3   6   3 1546.17 629.397   5
   3   6  -3 2042.02 187.253  10
   3   6  -3 1877.22 268.706   4
   3   6  -3 1429.04 169.395   7
   3   6  -2 18523.4 893.915   3
  -3   6   2 20041.1 1624.47   5
   3   6  -2 19062.2 559.950  10
  -3   6   2 18344.0 805.376  10
   3   6  -2 19455.8 753.946   4
  -3   6   2 19980.4 876.112   6
   3   6  -1 6687.70 491.418   3
  -3   6   1 6839.88 1169.10   5
   3   6  -1 6086.61 234.053  10
  -3   6   1 6035.99 444.796  10
   3   6  -1 5646.01 379.278   4
  -3   6   1 5957.97 436.739   7
  -3   6   1 6747.79 503.174   6
   3   6   0 29838.6 1073.66   3
  -3   6   0 30960.6 1853.33   5
  -3   6   0 28178.3 1022.96  10
   3   6   0 27702.2 925.378   4
  -3   6   0 27859.3 1019.37   7
   3   6   1 157.608 341.425   5
   3   6   1 548.254 213.386   3
  -3   6  -1 439.005 469.560   5
  -3   6  -1 597.154 233.389  10
   3   6   1 323.467 163.343   4
  -3   6  -1 751.288 261.248   7
   3   6   2 4214.78 374.283   3
  -3   6  -2 3722.97 588.327   5
   3   6   2 4691.80 378.364   1
  -3   6  -2 4284.40 398.072  10
   3   6   2 4350.57 550.418   5
  -3   6  -2 3774.78 376.527   7
   3   6   3 11173.6 591.188   3
   3   6   3 11184.3 807.421   5
  -3   6  -3 10763.1 760.994   5
  -3   6  -3 11440.6 643.202  10
   3   6   3 11317.3 645.137   1
  -3   6  -3 11505.2 647.112   7
   3   6   4 16492.8 648.706   6
   3   6   4 16484.3 754.597   3
   3   6   4 16701.4 981.410   5
  -3   6  -4 16883.9 824.949  10
  -3   6  -4 17252.2 848.609   5
  -3   6  -4 16786.2 1026.15  11
   3   6   4 16073.3 882.635   1
  -3   6  -4 17176.8 851.481   7
   3   6   5 2262.98 223.207   6
   3   6   5 2134.69 439.594   5
  -3   6  -5 1987.56 466.819  11
  -3   6  -5 2105.95 272.489   5
  -3   6  -5 2348.64 367.035  10
   3   6   5 2742.70 342.007   3
  -3   6  -5 2614.66 424.850   7
   3   6   5 2696.02 462.463   1
  -3   6  -6 2239.66 490.805  11
   3   6   6 1688.01 307.851   3
  -3   6  -6 1744.82 183.341   5
  -3   6  -6 2332.20 431.456  10
   3   6   6 1528.58 414.643   5
   3   6   6 1829.82 450.547   1
  -3   6  -6 1623.86 386.335   7
   3   6   7 14744.5 793.552   3
   3   6   7 13447.7 904.135   5
  -3   6  -7 14765.0 966.133  11
  -3   6  -7 14360.0 906.558  10
   3   6   7 13146.4 1086.26   1
   3   6   7 13710.7 984.809   8
  -3   6  -7 12802.4 886.162   7
   3   6   8 10415.3 705.965   3
   3   6   8 10972.7 827.745   5
  -3   6  -8 10659.8 861.581  10
  -3   6  -8 10466.1 754.396  11
   3   6   8 11933.6 1143.50   1
   3   6   8 10340.9 927.774   8
  -3   6  -8 11060.1 887.560   7
   3   6   9 4589.05 588.504   5
  -3   6  -9 3402.64 424.914  11
  -3   6  -9 3389.19 602.850  10
   3   6   9 3744.22 690.635   8
   3   6   9 3681.35 790.081   1
  -3   6  -9 3646.75 639.769   7
  -3   6 -10 1301.44 558.387  10
   3   6  10 1355.14 612.033   8
   3   6  10 1164.73 632.958   1
   3   6  10 1358.15 415.703   5
  -3   6 -10 259.672 579.592   7
  -3   6 -11 3974.01 772.292  10
   3   6  11 5007.97 912.489   8
   3   6  11 5437.34 906.343   1
  -3   6 -11 3428.88 744.962   7
   3   6  12 2014.32 819.202   8
  -3   6 -12 4664.07 858.934  10
   3   6  12 3299.14 752.411   1
  -3   6 -12 2195.56 696.633   7
  -3   6 -13 960.680 647.762  10
   3   6  13 283.936 717.586   8
   3   6  13 1430.41 614.388   1
  -3   6 -13-116.330 692.467   7
  -3   6 -14 682.859 762.360  10
   3   6  14 60.5397 625.439   8
   3   6  14 1201.19 654.305   1
  -3   6 -14 61.6521 755.612   7
  -3   7  15 2118.93 614.962   5
   3   7 -15 1411.17 702.855  10
   3   7 -15 1588.77 656.789   4
   3   7 -15 1611.96 546.341   7
   3   7 -14 3106.59 941.340   3
  -3   7  14 2226.02 610.298   5
   3   7 -14 3421.22 760.098  10
   3   7 -14 4219.11 890.428   4
   3   7 -14 3735.01 706.270   7
   3   7 -13 3068.89 921.476   3
  -3   7  13 5350.53 800.554   5
   3   7 -13 5692.20 897.369  10
   3   7 -13 6127.86 1039.80   4
   3   7 -13 5796.17 803.743   7
   3   7 -12 7249.24 1247.79   3
  -3   7  12 7601.33 968.325   5
   3   7 -12 8157.82 1058.19  10
   3   7 -12 6427.08 1161.37   4
   3   7 -12 8670.86 919.824   7
  -3   7  11 3164.68 536.839   6
   3   7 -11 1984.67 886.911   4
   3   7 -11 2020.81 752.274   3
  -3   7  11 1870.63 674.393   5
   3   7 -11 2429.82 623.184  10
  -3   7  10 4123.45 549.918   6
   3   7 -10 3604.09 943.902   3
   3   7 -10 5253.24 713.386  10
  -3   7  10 4611.36 818.588   5
   3   7 -10 4252.96 844.929   4
   3   7  -9 17342.1 1347.93   4
  -3   7   9 19498.2 1459.38   5
   3   7  -9 19332.1 1154.60  10
   3   7  -9 18825.7 1506.03   3
  -3   7   9 20222.2 1057.30   6
   3   7  -8 8471.33 982.932   3
  -3   7   8 8756.38 1065.53   5
   3   7  -8 7987.00 680.663  10
   3   7  -8 9023.15 885.811   4
  -3   7   8 8288.35 641.394   6
  -3   7   7 14578.5 1304.27   5
   3   7  -7 13587.5 795.605  10
   3   7  -7 15709.5 1035.35   4
   3   7  -7 16830.0 1249.00   3
  -3   7   7 14711.4 826.561   6
  -3   7   6 9371.51 1123.24   5
   3   7  -6 11653.4 655.383  10
   3   7  -6 11666.1 825.024   4
   3   7  -6 11237.2 731.095   7
  -3   7   6 11262.1 701.188   6
  -3   7   5 64223.3 2882.54   5
   3   7  -5 62977.8 1797.23  10
   3   7  -5 65127.2 2064.67   4
   3   7  -5 66068.7 1880.18   7
   3   7  -5 64805.2 2316.45   3
  -3   7   5 64108.3 1992.80   6
   3   7  -4 24715.3 835.478  10
  -3   7   4 23568.9 1713.35   5
   3   7  -4 24713.7 1017.16   4
   3   7  -4 24940.4 801.840   7
  -3   7   4 22829.4 1022.24   6
   3   7  -4 24650.4 1208.77   3
  -3   7   3 44587.9 2462.53   5
   3   7  -3 43393.6 1171.00  10
   3   7  -3 42803.3 1372.48   4
   3   7  -3 42323.0 1031.13   7
  -3   7   3 44297.4 1499.51   6
   3   7  -3 44484.4 1629.60   3
  -3   7   2 33556.9 2216.94   5
  -3   7   2 31999.9 1182.50  10
   3   7  -2 32184.8 899.371  10
   3   7  -2 33951.8 1111.90   4
  -3   7   2 35418.9 1300.42   6
   3   7  -2 34730.5 1327.52   3
   3   7  -1 105331. 2868.49   3
   3   7  -1 106820. 3260.12   5
  -3   7   1 113365. 4522.37   5
   3   7  -1 104827. 2399.03  10
  -3   7   1 103646. 2759.62  10
   3   7  -1 103837. 2618.64   4
   3   7   0 63992.4 1880.99   3
   3   7   0 65006.1 2266.87   5
  -3   7   0 64408.9 3185.26   5
  -3   7   0 60154.5 1808.04  10
   3   7   0 60481.6 1667.60   4
  -3   7   0 60502.7 1811.49   7
   3   7   1 50316.4 1582.91   3
   3   7   1 51938.1 1976.96   5
  -3   7  -1 52126.6 2509.73   5
  -3   7  -1 50580.7 1577.61  10
   3   7   1 50170.1 1428.08   4
  -3   7  -1 49739.5 1574.34   7
   3   7   2 61427.0 1805.76   3
   3   7   2 58823.1 2179.94   5
  -3   7  -2 62527.8 2509.23   5
  -3   7  -2 61657.8 1843.45  10
  -3   7  -2 60670.8 1845.06   7
   3   7   3 80431.9 2224.26   3
   3   7   3 80906.7 2673.83   5
  -3   7  -3 82180.3 2757.02   5
  -3   7  -3 81612.3 2315.83  10
   3   7   3 81134.1 2287.95   1
  -3   7  -3 77915.6 2300.01   7
   3   7   4 65336.5 1888.87   3
   3   7   4 65704.9 2321.31   5
  -3   7  -4 65791.6 2169.72   5
  -3   7  -4 64003.0 2001.19  10
   3   7   4 63947.4 2043.87   1
  -3   7  -4 62790.0 2000.48   7
   3   7   5 28748.0 1065.45   3
   3   7   5 26437.5 1353.24   5
  -3   7  -5 26629.6 1079.19   5
  -3   7  -5 25080.2 1141.89  10
   3   7   5 25015.2 1216.36   1
  -3   7  -5 25473.4 1158.02   7
   3   7   6 44376.2 1486.97   3
  -3   7  -6 41088.8 1615.11  10
   3   7   6 43249.1 1802.31   5
  -3   7  -6 45018.3 1333.99   5
   3   7   6 43217.2 1806.79   1
  -3   7  -6 42279.7 1647.84   7
   3   7   7 37073.7 1355.21   3
   3   7   7 35846.3 1630.14   5
   3   7   7 36670.1 1761.69   1
  -3   7  -7 35051.2 1542.53   7
  -3   7  -7 35457.6 1531.49  10
   3   7   8 33806.0 1313.92   3
   3   7   8 29932.2 1497.21   5
   3   7   8 31966.3 1770.95   1
  -3   7  -8 32414.8 1529.73  10
  -3   7  -8 31519.8 1528.39   7
   3   7   9 13307.2 821.553   3
   3   7   9 13865.9 984.508   5
  -3   7  -9 11641.0 984.803  10
   3   7   9 12810.7 1097.10   8
   3   7   9 11488.3 1189.19   1
  -3   7  -9 10842.1 976.673   7
   3   7  10 15093.6 926.646   3
   3   7  10 15280.9 1072.27   5
  -3   7 -10 12826.2 1096.77  10
   3   7  10 15063.7 1452.71   1
   3   7  10 16692.5 1328.70   8
  -3   7 -10 12600.1 1114.92   7
   3   7  11 16392.9 1101.24   5
  -3   7 -11 14150.0 1222.54  10
   3   7  11 15129.0 1449.22   1
   3   7  11 17555.0 1426.20   8
  -3   7 -11 14739.1 1286.37   7
  -3   7 -12 10859.1 1173.70  10
   3   7  12 13470.3 1315.97   1
   3   7  12 12863.0 1341.20   8
  -3   7 -12 12852.2 1251.50   7
  -3   7 -13 6286.54 984.373  10
   3   7  13 5576.74 1052.31   8
   3   7  13 7124.15 1007.15   1
  -3   7 -13 5165.97 962.198   7
  -3   7 -14 3168.64 923.602  10
   3   7  14 4727.36 842.689   1
  -3   8  15 698.665 540.828   5
   3   8 -15 1748.50 732.741  10
  -3   8  14 648.308 569.275   5
   3   8 -14 772.992 592.706  10
   3   8 -14 847.644 614.218   4
   3   8 -14 923.325 537.930   7
   3   8 -13 5211.86 1066.93   3
  -3   8  13 5436.93 851.804   5
   3   8 -13 4515.23 897.720  10
   3   8 -13 5932.29 987.492   4
   3   8 -13 6100.05 824.455   7
   3   8 -12 4849.66 1174.07   3
   3   8 -12 3951.20 779.183  10
   3   8 -12 4085.92 895.244   4
   3   8 -12 5093.48 782.760   7
  -3   8  12 4497.59 829.532   5
   3   8 -11 6577.89 1174.39   3
   3   8 -11 7119.80 860.225  10
   3   8 -11 8447.42 1321.92   4
  -3   8  11 7217.52 951.088   5
   3   8 -11 9058.24 999.952   7
  -3   8  10 3925.51 528.703   6
   3   8 -10 3143.17 856.518   3
  -3   8  10 3614.88 743.752   5
   3   8 -10 3769.22 618.283  10
   3   8 -10 3184.27 840.113   4
   3   8 -10 4287.93 741.382   7
   3   8  -9 19830.1 1159.70  10
  -3   8   9 20946.0 1565.31   5
   3   8  -9 18051.2 1438.39   4
   3   8  -9 22100.4 1318.87   7
   3   8  -9 21728.7 1668.14   3
  -3   8   9 22146.2 1123.67   6
  -3   8   8 11819.4 1231.99   5
   3   8  -8 11908.4 1067.43   4
   3   8  -8 11421.6 789.521  10
   3   8  -8 13197.2 905.921   7
   3   8  -8 12910.7 1262.96   3
  -3   8   8 12291.4 799.097   6
  -3   8   7 25731.9 1803.10   5
   3   8  -7 25972.7 1120.30  10
   3   8  -7 25213.1 1400.79   4
   3   8  -7 27721.7 1201.85   7
   3   8  -7 27812.1 1678.17   3
  -3   8   7 25642.1 1161.67   6
  -3   8   6 10189.9 1232.99   5
   3   8  -6 11318.5 645.560  10
   3   8  -6 11683.1 849.435   4
   3   8  -6 11503.8 652.816   7
   3   8  -6 12605.3 1085.01   3
  -3   8   6 12536.8 778.727   6
  -3   8   5 45895.0 2538.32   5
   3   8  -5 45759.3 1422.65  10
   3   8  -5 46922.4 1705.06   4
   3   8  -5 47899.8 1367.66   7
   3   8  -5 48477.5 2028.13   3
  -3   8   5 46455.9 1639.37   6
  -3   8   4 25020.8 1904.43   5
   3   8  -4 26247.2 887.139  10
   3   8  -4 25929.5 1090.55   4
   3   8  -4 26299.7 753.897   7
  -3   8   4 26946.2 1149.04   6
   3   8  -4 25355.6 1327.36   3
   3   8  -3 42841.7 1976.41   5
  -3   8   3 43883.0 2681.16   5
   3   8  -3 43973.1 1222.74  10
   3   8  -3 43583.8 1430.53   4
   3   8  -3 43613.0 1710.37   3
   3   8  -2 13263.3 1048.39   5
  -3   8   2 10827.7 1518.52   5
   3   8  -2 12356.7 480.764  10
  -3   8   2 11473.1 690.169  10
   3   8  -2 13474.1 631.045   4
   3   8  -2 12389.4 792.715   3
   3   8  -1 57012.5 2236.63   5
  -3   8   1 58470.5 3291.13   5
   3   8  -1 55079.5 1400.15  10
  -3   8   1 51599.9 1700.16  10
   3   8  -1 57262.2 1586.93   4
   3   8  -1 54860.0 1841.70   3
   3   8   0 38276.7 1388.34   3
   3   8   0 40793.1 1796.72   5
  -3   8   0 42707.0 2893.45   5
  -3   8   0 35168.1 1302.69  10
   3   8   0 37547.4 1158.52   4
  -3   8   0 36288.7 1296.90   7
   3   8   1 35626.9 1285.55   3
   3   8   1 36234.0 1687.62   5
  -3   8  -1 36994.1 2370.87   5
  -3   8  -1 35487.8 1286.78  10
   3   8   1 35497.2 1110.59   4
  -3   8  -1 33992.0 1259.16   7
   3   8   2 13656.6 705.307   3
   3   8   2 13496.8 1022.02   5
  -3   8  -2 14187.7 1306.09   5
  -3   8  -2 12143.2 705.846  10
   3   8   2 13104.2 592.240   4
  -3   8  -2 12843.1 718.560   7
   3   8   3 37351.7 1290.33   3
   3   8   3 37117.3 1699.95   5
  -3   8  -3 39236.2 1892.30   5
  -3   8  -3 35567.0 1360.55  10
  -3   8  -3 37224.8 1375.44   7
   3   8   4 36930.6 1278.68   3
   3   8   4 36559.5 1711.21   5
  -3   8  -4 38427.6 1672.49   5
  -3   8  -4 34931.7 1386.15  10
   3   8   4 36505.3 1392.63   1
  -3   8  -4 35985.9 1387.16   7
   3   8   5 11323.6 641.859   3
   3   8   5 10604.4 911.682   5
  -3   8  -5 11037.5 744.895   5
  -3   8  -5 11387.3 760.797  10
   3   8   5 11608.9 802.402   1
  -3   8  -5 12146.2 788.719   7
   3   8   6 11813.9 674.186   3
   3   8   6 11811.4 946.698   5
  -3   8  -6 11042.4 633.765   5
  -3   8  -6 10449.3 781.513  10
   3   8   6 11450.9 874.466   1
  -3   8  -6 12694.6 853.848   7
   3   8   7 14022.0 766.918   3
   3   8   7 13926.2 1025.92   5
  -3   8  -7 13655.5 937.701  10
   3   8   7 14035.6 1059.91   1
  -3   8  -7 14103.0 942.916   7
   3   8   8 17390.0 885.665   3
   3   8   8 14836.9 1085.40   5
  -3   8  -8 15266.7 1043.17  10
   3   8   8 17450.3 1260.76   1
  -3   8  -8 17156.6 1100.23   7
   3   8   9 1895.21 359.822   3
  -3   8  -9 1906.87 541.201  10
   3   8   9 1932.82 628.399   1
   3   8   9 1292.97 471.880   5
  -3   8  -9 2617.37 615.378   7
  -3   8 -10 4937.11 783.090  10
   3   8  10 4824.52 930.299   1
   3   8  10 5641.07 734.652   5
  -3   8 -10 4330.87 774.968   7
   3   8  11 4646.07 697.640   5
  -3   8 -11 4087.41 735.130  10
   3   8  11 2721.12 847.988   1
  -3   8 -11 3341.12 751.810   7
  -3   8 -12 4199.90 815.911  10
   3   8  12 3902.79 867.138   1
  -3   8 -12 3896.35 865.844   7
  -3   8 -13 79.3007 557.633  10
   3   8  13 626.445 658.007   1
  -3   8 -13 183.071 589.899   7
  -3   9  14 3113.89 758.782   5
   3   9 -14 2594.76 834.953  10
   3   9 -14 2304.93 650.928   4
   3   9 -13 6845.09 1179.92   3
  -3   9  13 8396.02 1015.50   5
   3   9 -13 7071.31 995.810  10
   3   9 -13 9206.19 1125.11   4
   3   9 -12 5000.58 1032.17   3
  -3   9  12 4451.06 864.252   5
   3   9 -12 4444.63 763.116  10
   3   9 -12 4231.00 829.576   4
   3   9 -11 2617.26 894.722   3
  -3   9  11 4523.40 856.206   5
   3   9 -11 3038.79 646.925   5
   3   9 -11 3996.00 677.191  10
   3   9 -11 3475.42 912.033   4
   3   9 -10 4218.90 923.537   3
  -3   9  10 3855.84 831.441   5
   3   9 -10 3200.35 556.652  10
   3   9 -10 1675.86 726.378   4
   3   9 -10 3910.34 611.655   7
   3   9  -9 10111.9 1254.24   3
  -3   9   9 10754.0 1218.88   5
   3   9  -9 9764.35 806.634  10
   3   9  -9 10334.6 1166.66   4
   3   9  -9 10741.1 853.129   7
   3   9  -8 10492.0 737.768  10
   3   9  -8 8815.27 1132.48   3
  -3   9   8 9153.55 1170.30   5
   3   9  -8 8091.40 942.120   4
   3   9  -8 10573.7 747.464   7
  -3   9   8 9973.30 729.009   6
  -3   9   7 2680.40 428.319   6
  -3   9   7 2660.69 887.959   5
   3   9  -7 2427.54 732.318   3
   3   9  -7 2284.19 721.144   5
   3   9  -7 2455.17 385.080  10
   3   9  -7 1955.47 522.751   4
   3   9  -7 2731.94 363.765   7
   3   9  -6 13486.5 711.027  10
   3   9  -6 12907.4 1205.09   5
  -3   9   6 13240.7 1437.53   5
   3   9  -6 14059.9 963.184   4
   3   9  -6 12363.4 608.384   7
   3   9  -6 13839.7 1205.77   3
  -3   9   6 13043.9 812.743   6
   3   9  -5 13251.2 1188.28   5
   3   9  -5 11679.2 611.371  10
   3   9  -5 13650.6 863.361   4
  -3   9   5 11619.6 1392.91   5
   3   9  -5 12342.5 500.850   7
   3   9  -5 12587.4 1082.85   3
  -3   9   5 13151.8 800.394   6
   3   9  -4 19907.4 1411.90   5
  -3   9   4 20284.9 1891.55   5
   3   9  -4 19997.0 776.109  10
   3   9  -4 20995.2 993.558   4
   3   9  -4 21262.8 1261.29   3
   3   9  -3 1557.25 401.546   3
   3   9  -3 2156.08 618.213   5
  -3   9   3 1362.12 829.743   5
   3   9  -3 2105.97 235.847  10
   3   9  -3 2006.85 299.212   4
   3   9  -2 21355.7 1384.61   5
  -3   9   2 19443.2 1914.21   5
   3   9  -2 19681.3 687.890  10
  -3   9   2 18864.8 933.822  10
   3   9  -2 20861.2 848.648   4
   3   9  -2 20133.1 1104.65   3
   3   9  -1 17009.8 1224.30   5
  -3   9   1 18314.8 1935.89   5
  -3   9   1 15539.3 839.272  10
   3   9  -1 17928.7 624.427  10
   3   9  -1 16723.4 715.623   4
   3   9  -1 17992.3 971.298   3
   3   9   0 23607.8 1434.04   5
  -3   9   0 25239.3 2314.11   5
  -3   9   0 20978.3 984.667  10
   3   9   0 23305.9 844.315   4
  -3   9   0 22802.8 992.884   7
   3   9   0 25115.5 1119.28   3
   3   9   1 7439.62 571.262   3
   3   9   1 6970.49 839.085   5
  -3   9  -1 8442.46 1286.02   5
  -3   9  -1 6450.97 561.045  10
   3   9   1 7481.83 428.920   4
  -3   9  -1 6577.23 533.633   7
   3   9   2 16955.1 837.638   3
   3   9   2 15373.6 1153.33   5
  -3   9  -2 18325.2 1548.61   5
  -3   9  -2 15257.3 850.637  10
   3   9   2 16641.9 685.549   4
  -3   9  -2 17485.7 869.169   7
   3   9   3 21599.6 946.799   3
   3   9   3 22392.4 1384.04   5
  -3   9  -3 23210.2 1573.62   5
  -3   9  -3 21317.2 1029.95  10
  -3   9  -3 20612.6 1000.39   7
   3   9   4 14114.0 733.794   3
   3   9   4 15961.7 1178.14   5
  -3   9  -4 13596.5 1071.02   5
  -3   9  -4 13898.6 858.894  10
  -3   9  -4 14136.4 845.950   7
   3   9   5 8424.20 554.531   3
  -3   9  -5 7642.40 719.769   5
  -3   9  -5 7246.90 657.480  10
   3   9   5 7928.05 859.732   5
  -3   9  -5 6356.74 621.379   7
   3   9   6 7977.50 560.840   3
  -3   9  -6 8569.34 730.416  10
   3   9   6 8055.01 745.895   1
   3   9   6 7869.99 855.625   5
  -3   9  -6 8361.04 729.389   7
   3   9   7 16917.9 838.110   3
   3   9   7 15965.7 1173.11   5
  -3   9  -7 16633.5 1061.21  10
   3   9   7 15690.3 1120.69   1
  -3   9  -7 15799.3 1038.21   7
   3   9   8 11533.5 1012.29   5
  -3   9  -8 11194.9 933.105  10
   3   9   8 11495.2 1055.67   1
  -3   9  -8 11914.1 947.754   7
  -3   9  -9 3755.04 627.934  10
   3   9   9 4734.17 715.159   5
   3   9   9 4821.83 802.505   1
  -3   9  -9 4233.70 681.483   7
   3   9  10 6000.73 806.232   5
  -3   9 -10 6199.21 841.266  10
   3   9  10 6369.52 949.566   1
  -3   9 -10 5527.91 806.004   7
   3   9  11 9500.96 991.737   5
  -3   9 -11 8635.68 1010.16  10
   3   9  11 7820.50 1182.91   1
  -3   9 -11 8871.35 1042.28   7
  -3   9 -12 10845.4 1158.38  10
   3   9  12 9456.41 1317.35   1
  -3   9 -12 9545.34 1143.40   7
   3   9  13 2816.67 876.870   1
   3  10 -13 2193.42 717.889  10
  -3  10  13 1369.99 622.957   5
   3  10 -13 1999.50 656.643   4
   3  10 -12 9150.39 1318.44   3
  -3  10  12 9224.96 1152.10   5
   3  10 -12 8539.28 966.937  10
   3  10 -12 10164.6 1111.36   4
   3  10 -11 2713.95 679.381   5
  -3  10  11 2443.95 785.638   5
   3  10 -11 2116.49 565.710  10
   3  10 -11 2755.59 799.241   4
   3  10 -10 6846.51 1196.64   3
   3  10 -10 7231.82 993.059   5
   3  10 -10 6443.61 733.419  10
  -3  10  10 4827.55 926.104   5
   3  10 -10 6173.37 1084.41   4
   3  10  -9 6939.97 1077.43   5
   3  10  -9 4522.73 922.133   3
  -3  10   9 5730.00 1025.65   5
   3  10  -9 6393.04 649.255  10
   3  10  -9 4851.39 957.539   4
   3  10  -8 17179.1 1501.79   5
   3  10  -8 13888.9 1441.29   3
  -3  10   8 13954.6 1436.68   5
   3  10  -8 15882.1 931.727  10
   3  10  -8 15932.7 1382.15   4
  -3  10   7 4455.46 536.252   6
   3  10  -7 3803.25 833.632   3
  -3  10   7 4234.62 976.999   5
   3  10  -7 4499.39 472.149  10
   3  10  -7 4013.47 673.014   4
   3  10  -6 10809.1 1161.94   5
   3  10  -6 11441.8 956.865   4
  -3  10   6 11389.7 1420.34   5
   3  10  -6 10791.1 1161.37   3
   3  10  -6 9234.05 605.509  10
   3  10  -5 7202.80 994.301   5
   3  10  -5 7246.18 943.737   3
  -3  10   5 7209.21 1269.64   5
   3  10  -5 7221.28 493.086  10
   3  10  -5 7934.84 716.025   4
   3  10  -4 17111.3 1388.09   5
  -3  10   4 18909.2 1867.11   5
   3  10  -4 17511.2 741.257  10
   3  10  -4 19533.4 1328.63   3
   3  10  -4 17323.1 953.948   4
   3  10  -3 3502.06 768.402   5
   3  10  -3 4533.21 679.431   3
  -3  10   3 4213.86 1159.36   5
   3  10  -3 2996.57 293.654  10
   3  10  -3 3698.54 432.017   4
   3  10  -2 12410.8 1174.47   5
  -3  10   2 14398.6 1788.50   5
   3  10  -2 11084.9 512.833  10
  -3  10   2 11123.4 734.156  10
   3  10  -2 11213.9 631.677   4
   3  10  -2 12340.3 932.091   3
  -3  10   1 5272.41 510.624  10
   3  10  -1 5499.58 838.991   5
   3  10  -1 5360.29 599.709   3
   3  10  -1 5059.64 338.061  10
   3  10  -1 5169.82 395.143   4
  -3  10   1 5280.64 1283.10   5
   3  10   0 16065.3 1278.87   5
  -3  10   0 14523.2 1987.85   5
  -3  10   0 14831.5 841.887  10
   3  10   0 15700.6 674.128   4
  -3  10   0 16107.0 844.030   7
   3  10   0 15489.3 931.593   3
  -3  10  -1 1139.31 987.804   5
   3  10   1 140.668 276.901   3
  -3  10  -1 678.338 317.899  10
   3  10   1 357.506 153.827   4
   3  10   1 704.943 560.745   5
  -3  10  -1 702.759 309.185   7
   3  10   2 11120.2 727.576   3
   3  10   2 11226.7 1073.12   5
  -3  10  -2 9035.13 1190.52   5
  -3  10  -2 9264.10 691.875  10
   3  10   2 11201.8 541.015   4
  -3  10  -2 10205.8 690.720   7
   3  10   3 3813.75 742.243   5
  -3  10  -3 4128.99 828.918   5
  -3  10  -3 3613.21 476.954  10
   3  10   3 4295.21 446.921   3
   3  10   3 3676.07 321.939   4
  -3  10  -3 3472.17 462.626   7
   3  10   4 13226.2 741.247   3
   3  10   4 12412.1 1102.29   5
  -3  10  -4 14100.1 1191.18   5
  -3  10  -4 12141.5 842.539  10
  -3  10  -4 12817.3 833.096   7
   3  10   5 990.400 262.761   3
   3  10   5 1232.35 518.742   5
  -3  10  -5 328.669 344.050   5
  -3  10  -5 926.051 403.865  10
  -3  10  -5 243.991 343.132   7
   3  10   6 5943.80 810.079   5
  -3  10  -6 5180.37 636.892  10
  -3  10  -6 5116.77 599.988   7
   3  10   7 2104.78 593.119   5
  -3  10  -7 2134.24 519.366  10
  -3  10  -7 3026.42 555.070   7
   3  10   8 8441.57 914.740   5
  -3  10  -8 8772.47 866.008  10
  -3  10  -8 9327.92 873.990   7
   3  10   9 624.579 504.697   5
  -3  10  -9 210.653 455.561  10
   3  10   9 1929.79 663.562   1
  -3  10  -9 1620.38 519.748   7
   3  10  10 3133.58 656.139   5
  -3  10 -10 1489.78 567.735  10
   3  10  10 2314.27 747.268   1
  -3  10 -10 2596.05 602.779   7
  -3  10 -11 652.571 546.789  10
   3  10  11 1611.53 808.359   1
   3  10  11 1227.66 579.059   5
  -3  10 -11 1766.92 688.245   7
  -3  10 -12 1039.79 606.663  10
   3  10  12 1392.46 779.714   1
  -3  11  12 1912.00 762.242   5
   3  11 -11 9352.21 1354.31   3
  -3  11  11 9339.43 1209.57   5
   3  11 -10 2399.43 904.987   3
   3  11 -10 168.173 560.057   5
   3  11 -10 1127.98 445.054  10
  -3  11  10 1001.06 684.446   5
   3  11  -9 15266.8 1506.85   5
   3  11  -9 17207.0 1703.87   3
  -3  11   9 16413.5 1560.83   5
   3  11  -9 15783.7 993.021  10
   3  11  -8 805.109 723.082   3
   3  11  -8 3270.64 905.964   5
  -3  11   8 1840.94 848.127   5
   3  11  -8 1884.61 387.888  10
   3  11  -8 1557.15 651.602   4
   3  11  -7 11344.1 1301.80   5
   3  11  -7 11248.6 1325.43   3
  -3  11   7 10826.4 1425.31   5
   3  11  -7 12251.2 753.369  10
   3  11  -7 13599.4 1222.05   4
   3  11  -6 3160.60 835.652   3
  -3  11   6 706.309 828.677   5
   3  11  -6 1876.99 347.279  10
   3  11  -6 435.784 446.478   4
   3  11  -6 1832.83 722.852   5
   3  11  -5 25948.7 1814.70   5
  -3  11   5 23527.8 2157.32   5
   3  11  -5 24697.7 1005.92  10
   3  11  -5 27392.4 1413.99   4
   3  11  -5 25893.2 1752.09   3
   3  11  -4 5340.07 848.392   3
   3  11  -4 6583.06 1008.31   5
  -3  11   4 3929.56 1126.83   5
   3  11  -4 5857.39 431.689  10
   3  11  -4 5709.53 598.551   4
   3  11  -3 14823.0 1353.98   5
  -3  11   3 16064.1 1897.56   5
   3  11  -3 16062.9 878.888   4
   3  11  -3 14439.9 663.738  10
   3  11  -3 14336.4 1171.64   3
   3  11  -2 8342.15 1085.79   5
  -3  11   2 8484.43 1539.33   5
   3  11  -2 7827.85 462.027  10
  -3  11   2 8069.94 671.015  10
   3  11  -2 9699.93 612.629   4
   3  11  -2 10106.9 928.609   3
   3  11  -1 30992.5 1874.21   5
  -3  11   1 28706.4 2610.34   5
  -3  11   1 31159.9 1333.37  10
   3  11  -1 31628.3 1043.04  10
   3  11  -1 31263.3 1117.65   4
   3  11  -1 31577.6 1565.52   3
   3  11   0 17342.4 1382.35   5
  -3  11   0 17414.2 2280.18   5
  -3  11   0 15070.1 897.733  10
   3  11   0 16833.2 716.934   4
   3  11   0 16275.8 1042.94   3
   3  11   1 9461.74 1066.47   5
  -3  11  -1 8923.46 1559.75   5
  -3  11  -1 9690.00 714.705  10
  -3  11  -1 8514.54 653.018   7
   3  11   1 10045.8 768.142   3
   3  11   2 16831.0 1360.44   5
  -3  11  -2 17468.7 1733.69   5
  -3  11  -2 16112.0 941.794  10
  -3  11  -2 16909.6 931.891   7
   3  11   2 18590.0 1009.41   3
  -3  11  -3 19643.5 1075.29  10
   3  11   3 22042.9 1501.06   5
  -3  11  -3 21767.8 1689.52   5
  -3  11  -3 20947.3 1059.95   7
   3  11   3 21129.7 1042.32   3
   3  11   4 24997.1 1613.74   5
  -3  11  -4 25175.9 1682.96   5
  -3  11  -4 25273.0 1261.34  10
  -3  11  -4 26287.1 1235.05   7
  -3  11  -5 5719.43 770.161   5
  -3  11  -5 5943.99 690.794  10
   3  11   5 5115.11 779.364   5
  -3  11  -5 5695.27 630.956   7
   3  11   6 22141.0 1518.52   5
  -3  11  -6 21987.1 1250.95  10
  -3  11  -6 19601.8 1148.18   7
   3  11   7 8713.19 965.014   5
  -3  11  -7 8237.78 840.842  10
  -3  11  -7 7784.71 771.803   7
   3  11   8 19557.9 1444.53   5
  -3  11  -8 20360.4 1323.75  10
  -3  11  -8 19924.9 1266.80   7
   3  11   9 2332.41 687.778   5
  -3  11  -9 1915.44 529.355  10
  -3  11  -9 2671.85 604.446   7
   3  11  10 13866.6 1253.11   5
  -3  11 -10 13156.8 1176.99  10
  -3  11 -10 13478.8 1170.30   7
   3  11  11 3020.21 735.223   5
  -3  11 -11 3633.80 747.097  10
  -3  11 -11 5473.83 892.445   7
   3  12 -11 1372.05 690.572   3
   3  12 -10 1997.97 796.833   3
   3  12 -10 826.512 600.374   5
  -3  12  10 1634.89 795.708   5
   3  12  -9 7484.91 1315.59   3
  -3  12   9 7830.87 1233.17   5
   3  12  -9 7275.86 1143.74   5
   3  12  -8 3193.76 946.100   3
   3  12  -8 5504.26 1120.11   5
  -3  12   8 3411.32 918.088   5
   3  12  -7 11787.7 1406.08   3
   3  12  -7 14780.3 1602.77   5
  -3  12   7 14429.7 1657.41   5
   3  12  -6 2499.16 873.395   3
   3  12  -6 2550.60 872.904   5
  -3  12   6 2730.27 1022.23   5
   3  12  -5 21565.6 1767.23   5
  -3  12   5 22607.8 2165.92   5
   3  12  -5 22482.3 1751.94   3
   3  12  -4 8067.74 1036.37   3
  -3  12   4 10776.8 1681.18   5
   3  12  -4 8722.90 1189.27   5
   3  12  -3 21188.3 1729.03   5
  -3  12   3 23939.6 2296.90   5
   3  12  -3 24398.7 1652.31   3
   3  12  -2 8731.68 1146.73   5
  -3  12   2 10274.0 1666.25   5
  -3  12   2 9379.02 761.825  10
   3  12  -2 11625.7 1108.61   3
   3  12  -1 27719.9 1900.24   5
  -3  12   1 29055.2 2800.50   5
  -3  12   1 26744.6 1289.25  10
   3  12  -1 33456.4 1738.00   3
   3  12   0 15779.6 1436.03   5
  -3  12   0 18384.7 2411.20   5
  -3  12   0 15613.0 960.062  10
   3  12   0 17631.4 1202.39   3
   3  12   1 19198.4 1510.36   5
  -3  12  -1 19796.9 2311.18   5
  -3  12  -1 17785.0 1028.72  10
  -3  12  -1 18346.5 987.066   7
   3  12   1 20272.7 1206.15   3
   3  12   2 14378.0 1328.52   5
  -3  12  -2 15880.8 1787.17   5
  -3  12  -2 13884.2 925.492  10
  -3  12  -2 14514.2 888.199   7
   3  12   3 14055.1 1309.81   5
  -3  12  -3 14927.1 1552.81   5
  -3  12  -3 14065.0 935.380  10
  -3  12  -3 14391.4 906.855   7
  -3  12  -4 20196.8 1163.40  10
   3  12   4 18112.0 1445.00   5
  -3  12  -4 18820.2 1530.37   5
  -3  12  -4 18297.5 1062.18   7
  -3  12  -5 6365.47 719.425  10
   3  12   5 6657.21 957.017   5
  -3  12  -5 5891.60 648.823   7
  -3  12  -6 13408.8 1011.35  10
   3  12   6 11998.5 1183.58   5
  -3  12  -6 10649.8 883.257   7
   3  12   7 4050.86 810.089   5
  -3  12  -7 4567.24 690.982  10
  -3  12  -7 3299.94 567.472   7
   3  12   8 8028.03 1003.34   5
  -3  12  -8 8055.86 891.540  10
  -3  12  -8 9429.60 886.896   7
   3  12   9 1247.63 582.926   5
  -3  12  -9 1332.05 590.147  10
  -3  12  -9 493.381 485.469   7
   3  12  10 3708.23 773.339   5
  -3  12 -10 2768.57 684.810  10
  -3  12 -10 3939.13 686.635   7
   3  12  11 421.891 528.639   5
   3  13 -10 477.504 687.596   3
   3  13  -9 7822.50 1250.12   3
   3  13  -9 7538.41 1138.59   5
  -3  13   9 9156.88 1371.37   5
   3  13  -8 2049.84 833.936   3
  -3  13   8 4055.99 1105.42   5
   3  13  -8 4418.80 1146.94   5
   3  13  -7 1992.30 873.234   3
   3  13  -7 5588.22 1130.92   5
  -3  13   7 5075.76 1161.07   5
   3  13  -6 1276.30 756.937   3
  -3  13   6 2457.82 1036.11   5
   3  13  -6 3919.01 1119.95   5
   3  13  -5 3154.55 917.212   3
  -3  13   5 5017.60 1342.21   5
   3  13  -5 2675.07 910.479   5
   3  13  -4 4438.14 1057.51   5
   3  13  -4 3315.00 848.563   3
  -3  13   4 5204.66 1268.98   5
   3  13  -3 810.352 642.665   3
  -3  13   3 588.964 1035.80   5
   3  13  -3 931.773 686.419   5
   3  13  -2 2343.51 699.671   3
   3  13  -2 1480.03 786.859   5
  -3  13   2 3131.94 1248.52   5
   3  13  -1 2136.54 796.427   5
   3  13  -1 366.496 472.601   3
  -3  13   1 209.511 1138.74   5
  -3  13   1 114.640 340.136  10
   3  13   0 3435.16 823.422   5
  -3  13   0 1967.79 1541.12   5
  -3  13   0 2330.19 458.208  10
   3  13   1 453.833 660.998   5
  -3  13  -1-73.0497 1178.12   5
  -3  13  -1 47.8390 331.116  10
  -3  13  -2 1671.41 1045.36   5
  -3  13  -2 2932.08 538.540  10
  -3  13  -2 3299.29 495.899   7
  -3  13  -3-277.380 725.949   5
  -3  13  -3 337.241 342.575  10
   3  13   3 163.471 656.259   5
  -3  13  -3 834.530 367.304   7
  -3  13  -4 6134.50 1000.53   5
  -3  13  -4 6081.55 693.366  10
  -3  13  -4 5444.47 635.151   7
   3  13   4 4289.09 868.201   5
  -3  13  -5 348.297 425.403  10
   3  13   5 586.469 688.279   5
  -3  13  -5-51.6517 334.303   7
   3  13   6 5407.82 876.703   5
  -3  13  -6 6891.24 799.495  10
  -3  13  -6 5700.55 700.193   7
   3  13   7 861.353 614.428   5
  -3  13  -7 1422.04 578.828  10
  -3  13  -7 317.896 404.946   7
  -3  13  -8 8010.55 923.278  10
  -3  13  -8 7621.39 845.173   7
   3  13   9 364.988 600.781   5
  -3  13  -9-244.608 519.349   7
   3  13  10 7113.60 1022.55   5
   3  14  -9 2129.26 912.433   3
   3  14  -9 2642.32 901.086   5
   3  14  -8 8844.14 1302.54   3
   3  14  -8 11209.9 1586.60   5
   3  14  -7 3100.11 961.205   3
   3  14  -7 3117.80 1066.11   5
  -3  14   7 1019.08 845.814   5
   3  14  -6 8931.85 1428.09   3
  -3  14   6 11332.8 1740.31   5
   3  14  -6 10036.8 1460.51   5
   3  14  -5 2229.50 869.319   3
  -3  14   5 4473.63 1264.51   5
   3  14  -5 3264.19 1015.12   5
   3  14  -4 9071.96 1329.98   5
   3  14  -4 8642.21 1231.71   3
  -3  14   4 8476.16 1574.80   5
  -3  14   3 3850.03 1204.85   5
   3  14  -3 3478.20 1016.07   5
  -3  14   2 9169.39 1701.12   5
   3  14  -2 8222.13 1216.87   5
   3  14  -1 2196.30 813.704   5
  -3  14   1 3482.16 577.013  10
   3  14   0 8022.49 1171.35   5
  -3  14   0 10644.1 2060.51   5
  -3  14   0 8348.49 772.762  10
   3  14   1 891.664 722.811   5
  -3  14  -1 252.345 1155.83   5
  -3  14  -1 721.887 433.136  10
   3  14   2 7102.36 1117.35   5
  -3  14  -2 5457.33 1276.77   5
  -3  14  -2 5750.09 666.310  10
   3  14   3 750.470 613.427   5
  -3  14  -3 1573.53 874.097   5
  -3  14  -3 1302.77 449.608  10
  -3  14  -3 2297.63 495.824   7
  -3  14  -4 5836.82 714.940  10
   3  14   4 6456.30 1025.70   5
  -3  14  -4 6118.97 675.002   7
  -3  14  -5 48.6632 488.125  10
  -3  14  -5 577.484 400.669   7
  -3  14  -6 5448.17 767.754  10
   3  14   6 3551.67 900.675   5
  -3  14  -6 3632.25 607.478   7
   3  14   7 1740.26 772.586   5
  -3  14  -7 1257.06 612.859  10
  -3  14  -7 1353.08 479.952   7
   3  14   8 2816.61 787.964   5
  -3  14  -8 3623.89 673.382   7
   3  15  -8 487.933 780.296   5
   3  15  -7 7100.59 1363.85   5
   3  15  -6 1833.87 965.876   5
  -3  15   5 5956.74 1415.03   5
   3  15  -5 9538.85 1469.56   5
   3  15  -4 3494.92 1069.72   5
  -3  15   4 1766.80 1151.59   5
  -3  15   3 5675.48 1412.39   5
   3  15  -3 5105.95 1148.64   5
   3  15  -2 2665.22 870.691   5
  -3  15   2 4190.92 1428.78   5
  -3  15   1 3995.02 1359.89   5
  -3  15   1 4186.34 646.422  10
   3  15  -1 4439.61 999.431   5
  -3  15   0 4779.34 1507.59   5
  -3  15   0 6469.89 744.110  10
   3  15   0 6084.02 1114.51   5
  -3  15  -1 1654.17 1126.67   5
  -3  15  -1 1985.61 499.646  10
   3  15   1 1935.03 757.382   5
  -3  15  -2 8015.90 1431.21   5
   3  15   2 6581.32 1140.26   5
  -3  15  -2 7799.92 796.366  10
   3  15   3 730.261 691.942   5
  -3  15  -3 1152.68 427.248  10
  -3  15  -3 1806.14 462.825   7
   3  15   4 7140.88 1074.51   5
  -3  15  -4 7360.11 837.515  10
  -3  15  -4 8882.37 816.275   7
   3  15   5 234.792 627.026   5
  -3  15  -5 707.396 449.571   7
  -3  15  -6 10362.3 935.716   7
  -3  15  -7 198.013 459.403   7
  -3  16   2 6425.83 1527.23   5
  -3  16   1 8529.85 1656.52   5
  -3  16   0 8953.83 1810.56   5
  -3  16  -1 10279.9 1726.62   5
  -3  16  -2 6619.50 1332.17   5
  -3  16  -4 6835.47 760.565   7
  -3  16  -5 6428.18 766.578   7
  -4 -16   0 6467.08 1117.93  11
   4 -16   0 6714.89 1057.87   2
   4 -15  -3 1223.67 757.762   2
   4 -15  -2 328.246 679.987   2
   4 -15  -1 1886.95 777.716   2
  -4 -15   1 2459.59 760.613  11
   4 -15   0 4103.78 873.285   2
  -4 -15   0 4290.49 989.101  11
   4 -15   0 4215.00 658.981   8
   4 -15   1 1155.03 563.110   2
   4 -15   1 1655.49 505.468   8
  -4 -15  -1 1477.76 837.723  11
  -4 -15  -2 4671.01 1081.23  11
   4 -15   2 4079.81 679.462   8
   4 -15   3 2396.27 621.439   8
  -4 -15  -3 2859.95 1072.35  11
   4 -15   4 6843.76 878.843   8
   4 -15   5 2482.37 720.219   8
  -4 -14   8 10396.3 986.885   8
  -4 -14   7 1057.36 432.653   8
  -4 -14   6 14581.1 1040.05   8
   4 -14  -5 654.272 843.120   2
  -4 -14   5 2392.78 513.412   8
  -4 -14   4 25213.4 1798.81   2
   4 -14  -4 24338.0 2106.80   2
   4 -14  -3 1655.89 919.357   2
  -4 -14   3 3075.00 789.541   2
  -4 -14   2 17798.0 1590.34   2
   4 -14  -2 16848.8 1640.55   2
  -4 -14   2 17947.1 1421.52  11
   4 -14  -1 1120.22 651.179   2
  -4 -14   1 1039.83 677.072  11
   4 -14  -1 1510.55 480.011   8
  -4 -14   1 1816.44 845.785   2
  -4 -14   0 15949.6 1552.07  11
  -4 -14   0 17804.0 1652.67   2
   4 -14   0 16372.9 1122.61   1
   4 -14   0 15831.1 1409.74   2
   4 -14   0 16279.1 1112.29   8
   4 -14   1 2161.50 679.948   2
  -4 -14  -1 2878.87 861.428  11
   4 -14   1 2561.11 576.289   1
   4 -14   1 2660.39 565.437   8
  -4 -14  -1 2220.48 884.804   2
   4 -14   2 13142.4 1146.41   2
  -4 -14  -2 9312.39 1445.11  11
   4 -14   2 12675.7 1030.96   1
   4 -14   2 11567.9 995.017   8
  -4 -14  -2 12113.0 1513.10   2
  -4 -14  -3-9.23088 887.408  11
   4 -14   3 1582.66 521.447   1
   4 -14   3 919.759 490.742   8
  -4 -14  -3-550.471 818.680   2
   4 -14   4 7960.63 862.588   1
  -4 -14  -4 8644.92 1653.80  11
   4 -14   4 7547.19 889.832   8
  -4 -14  -4 9626.14 1473.80   2
   4 -14   5 1667.50 613.149   8
  -4 -14  -5 365.347 820.105   2
   4 -14   6 4348.94 809.135   8
   4 -14   7 218.009 545.849   8
  -4 -13   9 1698.24 761.680   6
  -4 -13   9 1283.69 492.902   8
  -4 -13   8 1285.94 613.668   6
  -4 -13   8 2092.66 554.892   8
  -4 -13   7 1747.41 589.170   6
   4 -13  -7 3013.48 1202.69   2
  -4 -13   7 1729.61 490.220   8
  -4 -13   6 3743.66 678.767   6
   4 -13  -6 3052.78 1061.66   2
  -4 -13   6 2540.07 531.237   8
   4 -13  -5 2629.86 1064.35   2
  -4 -13   5 2045.32 449.579   8
   4 -13  -4 4672.02 1074.14   2
  -4 -13   4 4565.87 897.448   2
   4 -13  -3 2082.07 889.522   2
  -4 -13   3 1395.19 518.990  11
  -4 -13   3 1823.32 729.773   2
   4 -13  -2 4671.54 948.281   2
  -4 -13   2 4112.32 748.026  11
   4 -13  -2 4643.88 569.161   8
  -4 -13   2 5153.34 925.376   2
   4 -13  -1 993.508 654.983   2
  -4 -13   1 2523.20 773.691  11
   4 -13  -1 2694.94 483.034   8
   4 -13   0 8950.67 1097.67   2
  -4 -13   0 6254.34 1085.09  11
   4 -13   0 8911.50 822.898   1
   4 -13   0 8029.04 749.912   8
  -4 -13   0 8152.69 1212.11   2
   4 -13   1 815.306 538.040   2
  -4 -13  -1 210.806 721.558  11
   4 -13   1 1414.81 459.412   8
   4 -13   1 1872.62 539.246   1
  -4 -13  -1 1820.06 853.086   2
  -4 -13  -2 7392.01 1280.82  11
   4 -13   2 9091.58 845.548   1
   4 -13   2 9714.44 983.544   2
   4 -13   2 9071.61 873.427   8
  -4 -13  -2 10404.6 1403.43   2
  -4 -13  -3 3623.84 1096.34  11
   4 -13   3 3782.26 645.375   1
   4 -13   3 2504.71 557.497   8
  -4 -13  -3 2107.29 957.209   2
   4 -13   4 10075.8 920.586   1
   4 -13   4 7224.21 856.564   8
  -4 -13  -4 9903.61 1462.48   2
   4 -13   5 596.752 468.181   1
   4 -13   5 1945.58 627.719   8
  -4 -13  -5 1092.54 796.710   2
   4 -13   6 8814.12 943.649   1
   4 -13   6 8155.07 958.198   8
  -4 -13  -6 10628.9 1607.86   2
   4 -13   7 2893.21 688.137   1
   4 -13   7 2819.74 685.655   8
  -4 -13  -7 3265.86 1053.47   2
   4 -13   8 7216.50 1030.28   8
  -4 -13  -8 6425.94 1446.65   2
  -4 -12  10 2511.96 878.822   6
  -4 -12  10 5876.10 792.906   8
  -4 -12   9 2649.99 890.831   6
   4 -12  -9 2985.54 852.477   2
  -4 -12   9 3337.84 614.191   8
  -4 -12   8 9785.27 1207.91   6
   4 -12  -8 9493.92 1336.40   2
  -4 -12   8 9986.76 874.474   8
  -4 -12   7 4896.23 830.999   6
  -4 -12   7 5017.57 630.932   8
  -4 -12   6 13120.8 1110.31   6
   4 -12  -6 15863.6 1784.25   2
  -4 -12   6 13189.4 924.119   8
  -4 -12   5 8998.36 840.694   6
   4 -12  -5 9872.90 1455.34   2
  -4 -12   5 8677.08 745.029   8
  -4 -12   4 20860.9 1143.21   6
  -4 -12   4 21650.1 1537.08   2
  -4 -12   4 19728.3 1187.53  11
   4 -12  -4 18830.8 1800.78   2
   4 -12  -3 12901.6 1466.37   2
  -4 -12   3 11325.1 970.315  11
  -4 -12   3 12833.5 1236.56   2
  -4 -12   2 24900.3 1722.87   2
   4 -12  -2 23884.5 1151.28   8
  -4 -12   2 22269.7 1461.38  11
  -4 -12   1 11670.7 1206.47  11
  -4 -12   1 14193.2 1370.54   2
   4 -12  -1 14659.3 911.659   8
   4 -12  -1 13482.5 1380.50   2
  -4 -12   0 21771.6 1716.36  11
  -4 -12   0 23933.8 1759.79   2
   4 -12   0 24500.7 1280.47   1
   4 -12   0 24445.5 1236.62   8
   4 -12   0 22538.1 1618.28   2
  -4 -12  -1 13802.4 1474.95  11
   4 -12   1 15174.4 1022.15   1
  -4 -12  -1 17630.1 1626.67   2
   4 -12   1 14503.5 978.875   8
   4 -12   1 15719.1 1286.81   2
  -4 -12  -2 13047.8 1571.80  11
   4 -12   2 16621.3 1075.57   1
   4 -12   2 16710.6 1228.72   2
   4 -12   2 13233.4 980.853   8
  -4 -12  -2 15753.8 1606.90   2
  -4 -12  -3 8955.57 1459.73  11
   4 -12   3 13218.2 970.610   1
   4 -12   3 11568.9 950.956   2
   4 -12   3 13206.9 1008.01   8
  -4 -12  -3 15742.6 1660.95   2
  -4 -12  -4 11177.3 1668.28  11
   4 -12   4 13292.4 1008.38   1
   4 -12   4 11461.8 982.407   8
  -4 -12  -4 14022.7 1609.88   2
   4 -12   5 7963.68 809.964   1
   4 -12   5 9015.44 934.481   8
   4 -12   6 5241.18 722.434   1
   4 -12   6 5208.81 807.132   8
  -4 -12  -6 5027.91 1256.35   2
   4 -12   7 5897.01 812.728   1
   4 -12   7 4442.82 797.273   8
  -4 -12  -7 4297.38 1192.05   2
   4 -12   8 3466.28 814.621   8
   4 -12   8 4714.86 795.993   1
  -4 -12  -8 2824.76 1129.79   2
   4 -12   9 1905.56 659.904   8
  -4 -12  -9 3137.17 1071.41   2
  -4 -12 -10 565.561 631.159   2
  -4 -11  11 674.319 898.703   6
  -4 -11  11 1240.29 522.886   8
  -4 -11  10 668.644 875.637   6
   4 -11 -10 2046.33 732.043   2
  -4 -11  10 2365.37 576.096   8
  -4 -11   9 3432.49 907.152   6
   4 -11  -9 3194.78 828.500   2
  -4 -11   9 2512.98 519.144   8
  -4 -11   8 1423.70 657.686   6
   4 -11  -8 260.323 750.725   2
  -4 -11   8 1513.39 464.764   8
  -4 -11   7 2336.33 685.962   6
   4 -11  -7 2092.55 994.984   2
  -4 -11   7 1773.83 451.800   8
  -4 -11   6-290.060 493.216   6
   4 -11  -6 1469.01 995.146   2
  -4 -11   6 917.272 376.208   8
  -4 -11   5 7331.48 782.176   6
   4 -11  -5 7829.02 1349.01   2
  -4 -11   5 7593.02 666.577  11
  -4 -11   5 6931.26 649.321   8
  -4 -11   4 1209.21 387.197   6
   4 -11  -4 2245.55 917.117   2
  -4 -11   4 1253.01 405.159  11
  -4 -11   4 1151.15 574.201   2
  -4 -11   3 4870.63 529.721   6
   4 -11  -3 3503.84 892.784   2
  -4 -11   3 3847.20 616.499  11
  -4 -11   3 4411.60 812.075   2
  -4 -11   2 3230.21 409.527   6
   4 -11  -2 3254.63 819.988   2
  -4 -11   2 2446.65 616.425  11
  -4 -11   2 2906.37 718.517   2
   4 -11  -1 8446.36 1089.99   2
  -4 -11   1 9624.08 1007.51  11
   4 -11  -1 10853.5 746.942   8
  -4 -11   1 10122.8 1098.25   2
   4 -11   0 9726.56 1078.37   2
  -4 -11   0 8934.56 1081.41  11
   4 -11   0 9863.83 784.821   1
   4 -11   0 10139.4 734.553   8
  -4 -11   0 10222.3 1162.49   2
   4 -11   1 8555.87 971.132   2
   4 -11   1 7872.78 716.175   1
   4 -11   1 6566.67 653.525   8
  -4 -11  -1 6839.64 1040.16  11
  -4 -11  -1 8279.09 1093.07   2
  -4 -11  -2 11671.2 1389.73  11
   4 -11   2 12455.3 894.491   1
   4 -11   2 14004.1 944.972   8
   4 -11   2 12047.9 1036.85   2
  -4 -11  -2 12965.4 1407.62   2
  -4 -11  -3 7723.48 1303.81  11
   4 -11   3 9398.44 807.045   1
   4 -11   3 8594.92 782.553   8
   4 -11   3 10293.3 902.918   2
  -4 -11  -3 10742.3 1340.06   2
   4 -11   4 20474.4 1202.87   1
  -4 -11  -4 19015.8 2023.19  11
  -4 -11  -4 20777.7 1826.54   2
   4 -11   4 18920.9 1214.55   8
   4 -11   5 5459.09 711.424   1
   4 -11   5 6046.87 813.754   8
  -4 -11  -5 5650.01 1137.10   2
   4 -11   6 15685.5 1137.75   1
   4 -11   6 14209.4 1163.02   8
  -4 -11  -6 17068.5 1854.04   2
   4 -11   7 5432.51 837.276   8
  -4 -11  -7 6978.95 1390.90   2
   4 -11   7 8192.73 902.657   1
   4 -11   8 15425.8 1226.24   1
  -4 -11  -8 15893.1 1678.95  11
   4 -11   8 14178.9 1297.52   8
  -4 -11  -8 14839.5 1992.66   2
  -4 -11  -9 2679.90 854.433  11
   4 -11   9 3841.47 739.977   1
   4 -11   9 980.355 644.916   8
  -4 -11  -9 2966.66 1044.06   2
   4 -11  10 9898.84 1224.83   8
  -4 -11 -10 10783.6 1254.39   2
  -4 -10  11 3051.87 1254.74   6
   4 -10 -11 2399.60 730.432   2
  -4 -10  11 2239.17 567.936   8
  -4 -10  10 9134.09 1446.21   6
   4 -10 -10 11195.0 1291.95   2
  -4 -10  10 10835.1 948.041   8
  -4 -10   9 5982.20 1149.72   6
   4 -10  -9 7717.82 1162.45   2
  -4 -10   9 4995.78 648.810   8
  -4 -10   8 26900.7 1891.58   6
  -4 -10   8 25111.4 1303.59   8
   4 -10  -8 26439.6 1996.49   2
  -4 -10   7 3772.05 834.044   6
   4 -10  -7 5056.18 1065.78   2
  -4 -10   7 4616.60 552.270   8
  -4 -10   6 27404.4 1603.07   6
  -4 -10   6 26778.6 1216.33   8
   4 -10  -6 25588.4 2236.73   2
  -4 -10   5 4887.03 660.788   6
   4 -10  -5 5333.82 1193.27   2
  -4 -10   5 5616.54 564.038  11
  -4 -10   5 5283.37 530.230   8
  -4 -10   4 50142.0 1908.45   6
  -4 -10   4 49736.5 2259.49   2
  -4 -10   4 48430.7 1875.26  11
   4 -10  -4 46923.0 2745.67   2
  -4 -10   3 7632.58 630.940   6
   4 -10  -3 6520.46 1078.57   2
  -4 -10   3 7923.56 767.150  11
  -4 -10   3 8696.44 942.224   2
  -4 -10   2 34459.2 1299.25   6
  -4 -10   2 32548.2 1642.21  11
  -4 -10   2 34400.4 1860.48   2
   4 -10  -2 30990.5 2029.96   2
  -4 -10   1 5750.91 460.170   6
   4 -10  -1 5144.49 375.377   3
   4 -10  -1 5309.46 878.588   2
  -4 -10   1 4896.51 712.216  11
   4 -10  -1 5098.60 503.993   8
  -4 -10   1 5553.69 809.821   2
  -4 -10   0 42297.5 1319.85   6
   4 -10   0 43580.4 1368.51   3
  -4 -10   0 38867.5 2106.61  11
  -4 -10   0 40998.8 2161.32   2
   4 -10   0 40410.1 1542.52   8
   4 -10   0 42508.0 2142.44   2
   4 -10   1 10018.1 763.234   1
  -4 -10  -1 7625.39 1058.32  11
   4 -10   1 8704.26 691.409   8
   4 -10   1 10127.1 1016.47   2
  -4 -10  -1 10066.9 1144.10   2
  -4 -10  -2 19397.3 1671.63  11
   4 -10   2 21670.7 1131.11   1
  -4 -10  -2 20832.0 1612.87   2
   4 -10   2 20170.0 1099.21   8
   4 -10   2 20804.1 1292.39   2
   4 -10   3 3695.81 551.219   2
  -4 -10  -3 3302.64 961.416  11
   4 -10   3 3405.95 522.515   1
   4 -10   3 3708.25 544.960   8
  -4 -10  -3 5322.50 1028.62   2
   4 -10   4 15715.8 1034.46   1
  -4 -10  -4 14833.2 1689.31  11
  -4 -10  -4 17534.5 1626.09   2
   4 -10   4 16697.4 1108.31   8
   4 -10   4 19233.3 1053.05   2
  -4 -10  -5 7838.27 1463.91  11
   4 -10   5 7720.06 771.373   1
   4 -10   5 8695.35 878.688   8
  -4 -10  -5 8048.94 1225.33   2
   4 -10   6 8443.99 841.238   1
  -4 -10  -6 5970.03 1371.65  11
   4 -10   6 8065.27 900.373   8
  -4 -10  -6 5495.41 1173.47   2
  -4 -10  -7 4966.12 1168.21  11
   4 -10   7 3279.03 703.907   8
  -4 -10  -7 3457.88 1085.63   2
   4 -10   7 3953.27 688.492   1
  -4 -10  -8 5438.45 1064.89  11
   4 -10   8 3406.33 717.933   1
   4 -10   8 2965.19 704.394   8
  -4 -10  -8 3640.16 1247.26   2
  -4 -10  -9 5413.75 994.699  11
   4 -10   9 3996.24 759.308   1
   4 -10   9 3658.89 800.396   8
  -4 -10  -9 4899.52 995.297   2
  -4 -10 -10 2881.28 788.122  11
   4 -10  10 2314.66 700.417   1
   4 -10  10 1666.88 634.654   8
  -4 -10 -11 2808.79 744.006  11
   4 -10  11 320.679 735.969   8
  -4  -9  12 8399.03 1441.80   6
   4  -9 -12 7402.36 1000.90   2
  -4  -9  11 1878.70 1210.98   6
   4  -9 -11 2492.67 784.205   2
  -4  -9  11 2118.14 578.391   8
  -4  -9  10 9406.48 1472.53   6
   4  -9 -10 7623.49 1042.02   2
  -4  -9  10 10398.0 913.537   8
   4  -9 -10 10349.5 1301.61   4
  -4  -9   9 5810.72 1130.70   6
   4  -9  -9 5274.61 946.113   2
   4  -9  -9 4812.32 837.259   4
  -4  -9   9 6790.63 713.820   8
  -4  -9   8 15403.0 1471.25   6
   4  -9  -8 13042.8 1149.44   4
  -4  -9   8 14944.1 946.282   8
   4  -9  -8 14720.3 1472.35   2
  -4  -9   7 857.371 568.043   6
   4  -9  -7 1177.22 723.363   2
   4  -9  -7 1193.95 408.359   4
  -4  -9   7 1469.51 379.177   8
  -4  -9   6 11004.4 1010.07   6
  -4  -9   6 11846.4 697.988  11
   4  -9  -6 13933.0 929.567   4
   4  -9  -6 11523.8 1453.49   2
  -4  -9   6 12095.9 751.067   8
  -4  -9   5 5753.63 693.793   6
  -4  -9   5 5564.29 532.322  11
   4  -9  -5 5397.45 1219.55   2
   4  -9  -5 5103.50 550.941   4
  -4  -9   5 4789.72 481.299   8
  -4  -9   4 15210.2 968.031   6
  -4  -9   4 15209.6 928.126  11
   4  -9  -4 16272.0 846.086   4
   4  -9  -4 15946.5 1606.73   2
  -4  -9   3 1629.65 365.189   6
   4  -9  -3 689.364 637.724   2
  -4  -9   3 754.097 387.603  11
   4  -9  -3 1080.84 198.916   3
   4  -9  -3 1040.51 250.228   4
  -4  -9   3 899.663 530.655   2
  -4  -9   2 8544.77 593.936   6
   4  -9  -2 8065.23 451.038   3
   4  -9  -2 9418.54 1180.52   2
   4  -9  -2 9010.35 535.539   4
  -4  -9   2 8529.92 820.384  11
  -4  -9   2 8736.17 943.526   2
  -4  -9   1 5970.96 453.069   6
   4  -9  -1 5517.08 396.983   3
   4  -9  -1 4476.67 809.605   2
  -4  -9   1 5289.76 705.668  11
   4  -9  -1 6164.61 428.629   4
   4  -9  -1 5804.76 496.708   8
  -4  -9   1 5424.13 797.516   2
  -4  -9   0 11817.5 585.283   6
   4  -9   0 11129.8 601.902   3
   4  -9   0 10025.2 1036.72   2
  -4  -9   0 10416.9 1033.07  11
  -4  -9   0 12314.8 1151.80   2
   4  -9   0 11032.9 565.037   4
   4  -9   0 10389.8 687.068   8
   4  -9   1 788.870 352.834   1
  -4  -9  -1 391.461 169.771   6
   4  -9   1-82.1893 398.955   2
  -4  -9  -1-96.8651 582.245  11
   4  -9   1 84.3262 265.776   8
   4  -9   1 137.463 160.178   4
  -4  -9  -1 254.972 473.784   2
  -4  -9  -2 7317.61 997.438  11
   4  -9   2 8004.13 674.839   1
   4  -9   2 8838.63 507.221   4
   4  -9   2 8253.53 683.574   8
   4  -9   2 8773.93 830.976   2
  -4  -9  -2 8466.10 1041.34   2
  -4  -9  -2 8324.42 412.814   6
  -4  -9  -3 6644.95 1113.45  11
   4  -9   3 7967.53 681.804   1
   4  -9   3 7445.14 707.120   8
   4  -9   3 8981.83 775.767   2
  -4  -9  -3 8431.74 1086.84   2
   4  -9   4 15683.9 990.080   1
  -4  -9  -4 16967.5 1500.48   2
   4  -9   4 15661.4 1046.97   8
   4  -9   4 17694.8 988.852   2
  -4  -9  -5 2000.82 850.845  11
   4  -9   5 2522.30 520.866   1
   4  -9   5 2283.33 531.642   8
  -4  -9  -5 2994.33 837.299   2
   4  -9   6 9402.88 866.114   1
  -4  -9  -6 11351.5 1653.28  11
   4  -9   6 9453.80 940.579   8
  -4  -9  -6 9120.08 1264.20   2
   4  -9   7 9488.24 905.360   1
  -4  -9  -7 9753.86 1394.06  11
   4  -9   7 7076.20 893.905   8
  -4  -9  -7 10750.7 1440.08   2
   4  -9   8 13840.4 1135.44   1
  -4  -9  -8 13963.9 1511.49  11
   4  -9   8 11767.0 1186.99   8
  -4  -9  -8 14315.3 1655.97   2
  -4  -9  -9 5704.44 999.471  11
   4  -9   9 6072.40 861.060   1
   4  -9   9 5387.47 927.709   8
  -4  -9  -9 8283.79 1192.88   2
  -4  -9 -10 5930.88 935.512  11
   4  -9  10 5879.39 1030.44   8
   4  -9  10 5517.33 871.591   1
  -4  -9 -10 7619.47 1003.29   2
   4  -9  11 7914.83 1049.81   1
  -4  -9 -11 6996.48 974.636  11
   4  -9  11 7116.29 1078.62   8
  -4  -9 -12 8128.29 1002.63  11
   4  -9  12 4192.27 882.158   8
   4  -8 -14 588.262 543.152   4
  -4  -8  13 8234.91 1319.88   6
   4  -8 -13 7979.05 1003.87   2
   4  -8 -13 10008.6 1227.65   4
  -4  -8  12 6513.19 1274.48   6
   4  -8 -12 6849.66 960.627   2
   4  -8 -12 5208.83 986.148   4
  -4  -8  11 7073.70 1403.13   6
  -4  -8  11 8707.77 910.446   8
   4  -8 -11 8716.30 1061.17   2
  -4  -8  10 3288.10 1029.08   6
   4  -8 -10 4122.71 819.621   2
   4  -8 -10 3732.52 793.372   4
  -4  -8  10 3162.26 589.008   8
  -4  -8   9 15031.6 1515.53   6
   4  -8  -9 16514.9 1323.18   4
  -4  -8   9 18110.4 1091.00   8
   4  -8  -9 15326.9 1379.74   2
  -4  -8   8 14453.1 1348.77   6
   4  -8  -8 15934.3 1168.68   4
  -4  -8   8 13347.6 873.330   8
   4  -8  -8 15846.7 1464.59   2
  -4  -8   7 19033.9 1398.55   6
  -4  -8   7 21401.2 881.754  11
   4  -8  -7 18281.3 1157.65   4
  -4  -8   7 18727.2 981.894   8
   4  -8  -7 20344.8 1661.59   2
  -4  -8   6 10033.2 954.873   6
   4  -8  -6 10480.1 1341.91   2
   4  -8  -6 11228.2 806.253   4
  -4  -8   6 10664.4 677.807   8
  -4  -8   6 10557.2 645.346  11
   4  -8  -5 38205.0 1173.81   3
  -4  -8   5 35209.5 1646.16   6
  -4  -8   5 39196.3 1441.26  11
   4  -8  -5 38143.2 1466.44   4
  -4  -8   5 37974.3 1349.27   8
   4  -8  -5 38805.3 2601.54   2
  -4  -8   4 31763.2 1391.68   6
   4  -8  -4 30307.3 986.239   3
  -4  -8   4 31183.3 1325.79  11
   4  -8  -4 31249.2 1212.79   4
   4  -8  -4 30628.4 2198.41   2
  -4  -8   3 38098.9 1452.52   6
   4  -8  -3 37261.1 1147.67   3
  -4  -8   3 37023.0 1556.52  11
   4  -8  -3 38140.7 1302.38   4
   4  -8  -3 34875.6 2255.77   2
  -4  -8   2 21554.7 972.296   6
   4  -8  -2 22399.4 818.603   3
  -4  -8   2 21406.9 1364.39   2
   4  -8  -2 22150.2 883.115   4
   4  -8  -2 22755.6 899.022   8
   4  -8  -2 19781.7 1588.67   2
  -4  -8   2 20372.2 1186.03  11
  -4  -8   1 60168.9 1760.33   6
   4  -8  -1 58436.4 1665.08   3
  -4  -8   1 55024.3 2216.51  11
  -4  -8   1 55031.2 2363.39   2
   4  -8  -1 58909.2 1682.72   4
   4  -8  -1 57874.3 1763.30   8
   4  -8  -1 53968.6 2578.02   2
  -4  -8   0 37814.2 1207.79   6
   4  -8   0 37146.1 1240.50   3
  -4  -8   0 37189.1 1841.60  11
  -4  -8   0 37287.7 1886.01   2
   4  -8   0 35732.6 1385.76   1
   4  -8   0 36533.7 1184.21   4
   4  -8   0 35505.7 1314.81   8
   4  -8   0 34372.8 1876.90   2
  -4  -8  -1 48607.8 2296.76  11
   4  -8   1 51236.0 1769.78   1
  -4  -8  -1 52907.9 2335.02   2
   4  -8   1 51492.8 1524.85   4
   4  -8   1 52506.1 1758.58   8
   4  -8   1 52756.3 2229.30   2
  -4  -8  -1 51521.5 1470.58   6
  -4  -8  -2 16148.5 1387.99  11
   4  -8   2 17592.0 956.637   1
  -4  -8  -2 18918.3 1375.75   2
   4  -8   2 17949.1 979.433   8
   4  -8   2 18021.7 1163.61   2
   4  -8   2 18204.8 770.321   4
  -4  -8  -2 19506.4 697.467   6
  -4  -8  -3 44956.4 2482.90  11
  -4  -8  -3 47183.2 2324.00   2
   4  -8   3 48163.8 1768.87   1
   4  -8   3 46813.8 1819.88   8
   4  -8   3 49569.7 1906.25   2
  -4  -8  -3 48377.7 1316.53   6
  -4  -8  -4 20633.1 1751.44  11
   4  -8   4 19495.8 1084.06   1
  -4  -8  -4 19313.3 1519.32   2
   4  -8   4 19944.0 1168.27   8
   4  -8   4 21069.7 1065.81   2
   4  -8   5 35579.4 1577.42   1
  -4  -8  -5 36504.7 2143.77   2
   4  -8   5 34569.0 1686.97   8
   4  -8   5 37164.5 1366.14   2
  -4  -8  -5 36179.3 2449.61  11
   4  -8   6 8415.80 798.416   1
   4  -8   6 8596.75 905.517   8
  -4  -8  -6 7754.30 1368.45  11
  -4  -8  -6 8947.64 1181.33   2
   4  -8   7 19488.4 1260.02   1
  -4  -8  -7 22428.6 1923.30  11
  -4  -8  -7 21117.6 1744.66   2
   4  -8   7 17514.9 1348.63   8
   4  -8   8 7203.80 871.468   1
   4  -8   8 5277.80 871.828   8
  -4  -8  -8 6902.84 1119.80  11
  -4  -8  -8 6771.56 1118.34   2
   4  -8   9 12291.8 1150.22   1
  -4  -8  -9 13951.2 1313.29   2
   4  -8   9 12651.7 1329.97   8
   4  -8  10 2375.84 685.342   1
  -4  -8 -10 3439.06 809.700  11
   4  -8  10 1689.95 724.961   8
  -4  -8 -10 4108.92 729.931   2
   4  -8  11 2433.62 741.854   1
   4  -8  11 4294.93 882.598   8
  -4  -8 -12 1460.71 619.129  11
   4  -8  12 991.091 656.470   8
   4  -8  12 1709.28 651.311   1
  -4  -8 -13 2650.91 687.565  11
   4  -7 -14 3663.47 796.095   2
   4  -7 -14 2392.91 768.952   4
  -4  -7  13 3244.83 945.389   6
   4  -7 -13 3353.11 773.402   2
   4  -7 -13 2418.23 754.379   4
  -4  -7  12 9169.95 1349.29   6
   4  -7 -12 7623.40 1006.66   2
   4  -7 -12 7655.55 1306.79   4
  -4  -7  12 7371.69 942.912   8
  -4  -7  11 2041.52 1060.64   6
   4  -7 -11 850.934 635.803   4
  -4  -7  11 1467.34 501.430   8
   4  -7 -11 2144.51 698.558   2
  -4  -7  10 6752.76 1204.03   6
   4  -7 -10 9659.99 1118.85   2
   4  -7 -10 7042.77 986.379   4
  -4  -7  10 7427.17 768.310   8
  -4  -7   9 8478.56 1168.40   6
   4  -7  -9 8298.08 1079.87   2
  -4  -7   9 9011.61 763.528   8
   4  -7  -9 7383.44 867.757   4
   4  -7  -8 9232.01 1143.94   2
  -4  -7   8 9811.99 717.859   8
   4  -7  -8 7724.09 823.466   4
   4  -7  -7 3846.06 889.529   2
  -4  -7   7 3867.96 703.144   6
   4  -7  -7 3356.80 359.259   3
  -4  -7   7 3732.05 358.787  11
   4  -7  -7 3488.15 555.263   4
  -4  -7   7 3703.15 439.855   8
   4  -7  -6 6098.20 1032.88   2
  -4  -7   6 5466.36 728.557   6
  -4  -7   6 5671.39 472.168  11
   4  -7  -6 6084.47 600.783   4
  -4  -7   6 5435.56 484.172   8
   4  -7  -6 6164.30 424.085   3
   4  -7  -5 17452.7 715.974   3
  -4  -7   5 17434.4 1080.95   6
  -4  -7   5 19190.2 905.484  11
   4  -7  -5 19146.9 937.516   4
  -4  -7   5 18371.6 824.361   8
   4  -7  -5 17535.3 1631.48   2
   4  -7  -4 2352.12 261.574   3
  -4  -7   4 2626.57 449.511   6
  -4  -7   4 2507.67 390.949  11
   4  -7  -4 1888.28 319.434   4
  -4  -7   3 6073.59 550.762   6
   4  -7  -3 5649.51 374.041   3
  -4  -7   3 6132.22 583.462  11
   4  -7  -3 6575.83 1074.75   2
   4  -7  -3 6897.52 482.014   4
  -4  -7   2 1456.82 305.076   6
   4  -7  -2 1230.67 661.672   2
  -4  -7   2 1596.92 443.870  11
   4  -7  -2 1361.11 229.017   3
  -4  -7   2 1146.11 100.337   1
   4  -7  -2 1689.65 252.097   8
   4  -7  -2 1774.28 279.365   4
  -4  -7   2 1496.00 481.645   2
  -4  -7   1 22805.4 916.159   6
   4  -7  -1 21948.5 855.509   3
  -4  -7   1 22985.4 1266.04  11
  -4  -7   1 24729.0 1412.38   2
   4  -7  -1 23320.3 873.889   4
   4  -7  -1 22707.6 897.760   8
   4  -7  -1 24953.7 1655.09   2
  -4  -7   0 7072.92 446.340   6
  -4  -7   0 5953.76 701.424  11
   4  -7   0 6573.41 462.527   3
   4  -7   0 7377.33 905.119   2
   4  -7   0 6959.42 539.241   1
   4  -7   0 6893.68 438.133   4
   4  -7   0 6089.33 469.462   8
  -4  -7   0 6864.77 813.131   2
   4  -7   1 5901.50 730.829   2
  -4  -7  -1 7778.07 842.917  11
   4  -7   1 7325.64 449.781   4
   4  -7   1 6972.38 539.918   8
  -4  -7  -1 7874.27 858.319   2
  -4  -7  -1 7168.16 425.559   6
   4  -7   1 6982.01 569.880   1
  -4  -7  -2 4038.12 776.695  11
   4  -7   2 4291.79 577.408   2
   4  -7   2 3676.64 454.547   1
   4  -7   2 4862.06 520.098   8
  -4  -7  -2 4217.33 741.185   2
  -4  -7  -2 4166.03 308.489   6
  -4  -7  -3 24202.6 1704.16  11
  -4  -7  -3 25622.2 1565.93   2
   4  -7   3 25098.2 1226.71   8
   4  -7   3 24796.1 1243.41   2
   4  -7   3 24036.3 1133.90   1
  -4  -7  -3 24469.5 825.493   6
   4  -7   4 15059.6 928.317   1
  -4  -7  -4 12989.2 1366.28  11
  -4  -7  -4 16230.6 1301.81   2
   4  -7   4 13933.7 977.592   8
   4  -7   4 15406.3 868.440   2
   4  -7   5 9863.05 814.644   1
  -4  -7  -5 11027.6 1349.52  11
   4  -7   5 9428.50 873.101   8
   4  -7   5 10651.8 639.410   2
  -4  -7  -5 8224.48 1011.04   2
   4  -7   6 9876.14 863.615   1
  -4  -7  -6 7961.64 1248.56  11
   4  -7   6 7561.65 842.755   8
  -4  -7  -6 9979.62 1149.16   2
   4  -7   7 24030.9 1382.22   1
  -4  -7  -7 25101.6 2004.52  11
  -4  -7  -7 23010.0 1721.98   2
   4  -7   7 21458.0 1486.98   8
   4  -7   8 17777.3 1258.91   1
  -4  -7  -8 18083.7 1562.74  11
  -4  -7  -8 21810.7 1707.30   2
   4  -7   8 17085.6 1429.63   8
   4  -7   9 9256.64 996.932   1
   4  -7   9 9023.14 1117.54   8
  -4  -7  -9 10114.0 1157.27  11
  -4  -7  -9 10141.7 1038.31   2
  -4  -7 -10 8553.31 1037.41  11
   4  -7  10 5310.01 850.905   1
   4  -7  10 7057.55 1029.85   8
  -4  -7 -10 8230.20 879.859   2
  -4  -7 -11 17590.6 1362.66  11
   4  -7  11 17882.2 1483.52   8
   4  -7  11 19105.7 1547.67   1
  -4  -7 -12 9553.96 1037.12  11
   4  -7  12 9680.30 1114.58   8
   4  -7  12 10510.6 1266.00   1
  -4  -7 -13 6715.02 878.097  11
   4  -7  13 7222.36 992.972   8
  -4  -7 -14 4396.20 742.498  11
  -4  -6  14 2879.80 895.990   6
   4  -6 -14 1629.92 578.921   2
   4  -6 -14 1620.16 756.902   4
  -4  -6  13 10791.2 1357.39   6
   4  -6 -13 9278.41 1393.22   4
   4  -6 -13 12413.3 1192.30   2
  -4  -6  12 11422.3 1489.56   6
   4  -6 -12 12749.4 1502.47   4
  -4  -6  12 11156.2 1084.62   8
   4  -6 -12 11645.1 1168.24   2
  -4  -6  11 9002.79 1399.63   6
   4  -6 -11 11755.1 1167.34   2
  -4  -6  11 10225.6 970.706   8
   4  -6 -11 8515.65 1151.87   4
  -4  -6  10 5615.10 1089.02   6
   4  -6 -10 6680.39 946.070   2
   4  -6 -10 5931.56 878.811   4
  -4  -6  10 4699.31 636.239   8
  -4  -6   9 22827.7 1686.44   6
   4  -6  -9 21545.0 1406.01   4
  -4  -6   9 24221.4 1242.91   8
   4  -6  -9 24169.9 1645.81   2
   4  -6  -9 23372.5 1177.50   3
  -4  -6   8 29803.7 1818.33   6
  -4  -6   8 30650.7 1089.36  11
   4  -6  -8 31934.1 1562.86   4
  -4  -6   8 35379.6 1427.03   8
   4  -6  -8 28800.4 1824.91   2
   4  -6  -8 33551.6 1296.68   3
  -4  -6   7 16115.3 1218.28   6
  -4  -6   7 16878.3 775.329  11
   4  -6  -7 19076.4 1073.90   4
  -4  -6   7 19016.1 926.688   8
   4  -6  -7 17042.9 1426.00   2
   4  -6  -7 17919.8 829.610   3
   4  -6  -6 13055.6 645.606   3
  -4  -6   6 14269.7 1030.67   6
   4  -6  -6 14418.4 850.523   4
   4  -6  -6 11606.3 1257.34   2
  -4  -6   6 14237.0 733.784   8
  -4  -6   6 13838.9 711.803  11
   4  -6  -5 26940.1 956.675   3
  -4  -6   5 27338.1 1328.58   6
   4  -6  -5 28098.7 1149.80   4
  -4  -6   5 27958.5 1017.27   8
  -4  -6   5 26394.4 1095.92  11
   4  -6  -5 26123.2 1847.96   2
  -4  -6   4 56629.9 1992.12   6
   4  -6  -4 60237.3 1656.84   3
  -4  -6   4 58525.6 1903.92  11
   4  -6  -4 59069.0 1805.30   4
   4  -6  -4 60239.3 3025.61   2
  -4  -6   3 21396.8 986.174   6
   4  -6  -3 20302.3 775.693   3
  -4  -6   3 20071.1 1022.27  11
   4  -6  -3 21235.5 863.129   4
   4  -6  -3 22482.5 1872.96   2
  -4  -6   2 18698.0 850.722   6
   4  -6  -2 18443.1 734.112   3
  -4  -6   2 18542.0 1037.58  11
   4  -6  -2 18812.8 780.851   4
   4  -6  -2 17919.1 696.693   8
   4  -6  -2 18570.7 1579.26   2
  -4  -6   1 25955.7 993.426   6
   4  -6  -1 26766.2 945.741   3
  -4  -6   1 26322.7 1311.34  11
  -4  -6   1 29013.7 1476.06   2
   4  -6  -1 26283.5 940.541   4
   4  -6  -1 25903.2 935.336   8
   4  -6  -1 28443.6 1783.51   2
  -4  -6   1 24021.5 863.901   1
  -4  -6   0 50995.1 1498.81   6
   4  -6   0 50292.1 1544.03   3
  -4  -6   0 48618.2 1991.32  11
  -4  -6   0 52546.8 2124.91   2
   4  -6   0 50709.0 1623.00   1
   4  -6   0 50183.7 1481.31   4
   4  -6   0 50855.0 1584.08   8
   4  -6   0 49571.6 2279.85   2
  -4  -6   0 48448.1 1732.62   1
  -4  -6  -1 18739.1 1234.12  11
   4  -6   1 20105.9 932.303   1
  -4  -6  -1 18499.1 1223.19   2
   4  -6   1 20374.2 803.946   4
   4  -6   1 20026.6 937.233   8
   4  -6   1 21546.2 1327.22   2
  -4  -6  -1 21058.5 775.349   6
  -4  -6  -2 13022.4 1100.54  11
  -4  -6  -2 12915.9 1051.37   2
   4  -6   2 13013.6 806.405   8
   4  -6   2 15274.6 1030.57   2
  -4  -6  -2 12866.7 565.197   6
   4  -6   2 13483.6 766.618   1
   4  -6   3 19300.5 991.613   1
  -4  -6  -3 21210.1 1471.66  11
  -4  -6  -3 19149.1 1297.91   2
   4  -6   3 19296.9 1086.40   8
   4  -6   3 19933.4 1097.43   2
  -4  -6  -3 20280.3 557.005   7
  -4  -6  -3 21264.2 748.910   6
  -4  -6  -4 24504.8 1678.81  11
   4  -6   4 22587.3 1136.07   1
  -4  -6  -4 24129.6 760.416  10
  -4  -6  -4 25416.8 1532.71   2
   4  -6   4 22302.1 1271.35   8
   4  -6   4 25676.5 1145.91   2
  -4  -6  -4 25568.9 740.279   7
   4  -6   5 19701.1 1125.65   1
  -4  -6  -5 22456.4 1743.16  11
  -4  -6  -5 20074.2 858.872  10
  -4  -6  -5 20346.0 1411.28   2
   4  -6   5 17470.0 1201.24   8
   4  -6   5 20238.7 886.729   2
  -4  -6  -5 20138.1 727.205   7
   4  -6   6 8369.75 809.688   1
  -4  -6  -6 6791.85 1136.27  11
  -4  -6  -6 8365.55 653.377  10
   4  -6   6 6819.71 832.549   8
  -4  -6  -6 7519.34 497.946   7
  -4  -6  -6 8442.53 977.841   2
   4  -6   7 15584.4 1103.00   1
  -4  -6  -7 15360.2 1519.44  11
  -4  -6  -7 14319.7 1006.74  10
  -4  -6  -7 17058.4 1361.83   2
   4  -6   7 12260.5 1192.54   8
  -4  -6  -7 13292.4 790.075   7
  -4  -6  -8 8135.25 1077.63  11
   4  -6   8 7703.13 863.072   1
  -4  -6  -8 7424.57 784.730  10
   4  -6   8 7685.82 1024.01   8
  -4  -6  -8 8107.38 722.316   7
  -4  -6  -8 9281.62 1069.02   2
   4  -6   9 11903.4 1129.42   1
  -4  -6  -9 11722.0 1186.80  11
  -4  -6  -9 12688.4 971.008  10
  -4  -6  -9 13963.4 1137.00   2
   4  -6   9 12936.4 1225.21   8
  -4  -6  -9 13604.2 1064.93   7
   4  -6  10 3339.49 736.657   1
  -4  -6 -10 5627.44 851.647  11
   4  -6  10 3875.90 756.200   8
  -4  -6 -10 5705.18 681.995   2
  -4  -6 -10 4992.46 818.214   7
   4  -6  11 4520.38 807.121   8
  -4  -6 -11 4265.35 759.149  11
   4  -6  11 5026.80 959.015   1
   4  -6  12 1419.02 594.637   8
   4  -6  12 2326.04 783.703   1
  -4  -6 -12 1046.46 547.337  11
  -4  -6 -13 3958.56 688.607  11
   4  -6  13 3349.75 861.957   1
   4  -6  13 3305.91 710.709   8
  -4  -6 -14 1444.97 528.564  11
   4  -5 -15 1390.85 588.368   2
   4  -5 -15 2114.80 861.447   4
  -4  -5  14 6600.05 1073.72   6
   4  -5 -14 6224.52 881.830   2
   4  -5 -14 5277.04 1112.65   4
  -4  -5  13 4839.08 958.654   6
   4  -5 -13 6471.52 895.132   2
   4  -5 -13 3614.06 936.575   4
  -4  -5  12 13903.2 1589.73   6
   4  -5 -12 13771.9 1496.43   4
   4  -5 -12 15500.2 1303.32   2
  -4  -5  11 2463.54 878.080   6
   4  -5 -11 3780.11 757.637   2
   4  -5 -11 1940.09 589.307   4
  -4  -5  11 2532.49 602.302   8
  -4  -5  10 15367.0 1467.58   6
   4  -5 -10 17321.2 1336.41   4
  -4  -5  10 16691.4 1141.08   8
   4  -5 -10 17122.8 1378.32   2
   4  -5 -10 17763.3 1120.52   3
  -4  -5   9 9901.87 1132.37   6
   4  -5  -9 9570.25 1044.02   2
  -4  -5   9 10467.9 814.940   8
   4  -5  -9 9175.78 896.621   4
   4  -5  -9 10786.7 796.843   3
  -4  -5   8 24921.7 1596.89   6
  -4  -5   8 25767.2 982.664  11
   4  -5  -8 26365.5 1371.42   4
  -4  -5   8 28650.8 1261.70   8
   4  -5  -8 27055.1 1700.66   2
   4  -5  -8 27314.7 1158.72   3
  -4  -5   7 1922.22 536.379   6
   4  -5  -7 1553.33 296.772   3
  -4  -5   7 1951.19 287.671  11
   4  -5  -7 2311.91 766.782   2
  -4  -5   7 2767.92 405.658   8
   4  -5  -7 2152.87 436.577   4
   4  -5  -6 28579.6 1045.40   3
  -4  -5   6 26919.2 1415.33   6
  -4  -5   6 27593.4 1069.45  11
   4  -5  -6 27609.8 1204.38   4
  -4  -5   6 29915.0 1103.61   8
   4  -5  -6 27060.8 1749.74   2
   4  -5  -5 8946.41 515.240   3
  -4  -5   5 8595.53 733.719   6
   4  -5  -5 8648.51 1077.96   2
   4  -5  -5 9841.92 632.584   4
  -4  -5   5 9876.95 533.547   8
  -4  -5   5 9874.49 611.098  11
  -4  -5   4 25563.0 1162.38   6
   4  -5  -4 24793.4 889.779   3
  -4  -5   4 25146.9 1062.90  11
   4  -5  -4 23976.6 979.634   4
   4  -5  -4 23739.0 798.430   8
  -4  -5   4 24607.1 863.831   8
   4  -5  -4 22435.5 1686.30   2
  -4  -5   3 1365.51 347.993   6
   4  -5  -3 1000.22 205.929   3
   4  -5  -3 904.424 758.365   2
  -4  -5   3 970.053 307.494  11
   4  -5  -3 1199.57 151.236   8
   4  -5  -3 1334.48 165.549   8
   4  -5  -3 1011.25 241.471   4
  -4  -5   2 10249.6 620.322   6
   4  -5  -2 9516.10 502.204   3
  -4  -5   2 9867.84 724.985  11
   4  -5  -2 10052.7 1296.97   2
   4  -5  -2 9639.10 376.235   8
   4  -5  -2 10054.3 539.870   4
   4  -5  -2 10112.7 453.589   8
  -4  -5   1 21210.1 746.708   6
   4  -5  -1 20167.8 678.414   3
  -4  -5   1 20591.7 1024.00  11
   4  -5  -1 19450.0 663.348   4
   4  -5  -1 20141.4 656.654   8
   4  -5  -1 19393.6 1490.08   2
  -4  -5   0 6664.32 425.035   1
   4  -5   0 7394.05 471.544   3
  -4  -5   0 7401.17 730.661  11
   4  -5   0 6340.19 868.187   2
   4  -5   0 7195.12 496.303   1
   4  -5   0 6931.76 435.619   4
   4  -5   0 6949.98 494.000   8
  -4  -5   0 5695.11 696.648   2
  -4  -5   0 6895.52 453.656   6
  -4  -5  -1 14087.7 802.394   1
   4  -5   1 15460.8 763.901   1
  -4  -5  -1 13992.4 1020.84  11
  -4  -5  -1 14634.3 1046.36   2
   4  -5   1 13762.7 773.584   8
   4  -5   1 14105.0 1084.48   2
  -4  -5  -1 13898.3 613.316   6
   4  -5   2 999.525 282.560   1
  -4  -5  -2 445.941 179.864   6
  -4  -5  -2 39.3562 468.203  11
   4  -5   2 870.742 419.314   2
   4  -5   2 755.898 345.185   8
  -4  -5  -2 729.544 98.6109   7
  -4  -5  -2 584.633 419.853   2
   4  -5   3 40977.7 1526.95   1
  -4  -5  -3 39854.1 1973.81  11
  -4  -5  -3 40839.0 1866.76   2
   4  -5   3 38999.6 1686.70   8
   4  -5   3 41350.8 1679.71   2
  -4  -5  -3 42705.4 1094.19   7
  -4  -5  -3 41289.9 1238.63   6
   4  -5   4 6554.11 621.757   1
  -4  -5  -4 6337.65 885.311  11
  -4  -5  -4 6451.14 298.790  10
  -4  -5  -4 5778.52 255.439  10
   4  -5   4 6395.34 737.517   8
   4  -5   4 6579.97 568.222   2
  -4  -5  -4 6388.36 349.884   7
  -4  -5  -4 5973.65 745.012   2
   4  -5   5 21469.3 1154.96   1
  -4  -5  -5 20296.6 1537.51  11
  -4  -5  -5 22074.7 1378.93   2
   4  -5   5 20010.2 1360.45   8
   4  -5   5 20458.1 897.417   2
  -4  -5  -5 21419.7 806.549   7
  -4  -5  -5 22319.9 846.603  10
  -4  -5  -6 49.3149 638.868  11
  -4  -5  -6 300.404 244.460  10
   4  -5   6 568.747 442.173   1
   4  -5   6 7.47798 621.350   8
  -4  -5  -6 148.526 424.047   2
  -4  -5  -6 198.111 215.022   7
   4  -5   7 44198.7 1961.38   1
  -4  -5  -7 41717.5 2480.68  11
  -4  -5  -7 43625.0 1747.55  10
  -4  -5  -7 45017.5 2146.96   2
   4  -5   7 43304.7 2177.26   8
  -4  -5  -7 43170.9 1614.45   7
   4  -5   8 6014.15 831.167   1
  -4  -5  -8 6523.92 747.783  10
   4  -5   8 7409.93 909.947   8
  -4  -5  -8 8250.30 740.994   7
  -4  -5  -8 8263.20 1084.97  11
  -4  -5  -8 8558.44 904.179   2
  -4  -5  -9 17982.5 1383.59  11
  -4  -5  -9 20721.4 1302.94  10
  -4  -5  -9 20699.3 1244.84   2
   4  -5   9 18637.5 1382.74   8
  -4  -5  -9 18696.5 1260.94   7
   4  -5   9 19930.9 1450.77   1
  -4  -5 -10 730.666 421.941  10
   4  -5  10 823.411 551.485   8
  -4  -5 -10-223.738 476.788  11
  -4  -5 -10 1279.77 541.091   7
   4  -5  10 1348.03 685.171   1
  -4  -5 -11 23259.4 1482.11  11
  -4  -5 -11 23666.6 1380.52  10
   4  -5  11 24301.1 1572.95   8
  -4  -5 -11 22400.7 1667.25   7
   4  -5  11 24865.8 1756.75   1
  -4  -5 -12 5937.98 736.997  10
  -4  -5 -12 5265.48 713.030  11
   4  -5  12 5644.97 982.158   1
   4  -5  12 5669.41 865.267   8
  -4  -5 -12 4741.13 944.502   7
   4  -5  13 12497.3 1447.67   1
   4  -5  13 11907.0 1164.72   8
  -4  -5 -13 8328.41 861.400  11
  -4  -5 -13 9854.68 1230.34   7
  -4  -5 -14 2724.96 572.422  11
   4  -5  14 1223.92 624.397   8
   4  -4 -15 4408.24 744.936   2
   4  -4 -15 2909.62 782.378  10
   4  -4 -15 3084.14 897.551   4
  -4  -4  14 2938.20 813.898   6
   4  -4 -14 2859.05 709.452   2
   4  -4 -14 420.082 636.066  10
   4  -4 -14 968.231 855.273   4
  -4  -4  13 14876.4 1529.43   6
   4  -4 -13 15907.5 1654.12   4
   4  -4 -13 16538.7 1326.82   2
   4  -4 -12 6211.75 868.191   2
  -4  -4  12 5255.01 1150.59   6
   4  -4 -12 5334.81 814.844   3
   4  -4 -12 5319.74 1020.65   4
  -4  -4  11 19126.7 1762.82   6
   4  -4 -11 15022.7 1349.40   4
  -4  -4  11 17626.0 1136.43   8
   4  -4 -11 18076.5 1368.73   2
   4  -4 -11 17873.9 1223.50   3
  -4  -4  10 1821.21 747.881   6
   4  -4 -10 2074.99 490.459   3
   4  -4 -10 978.279 514.081   2
  -4  -4  10 1281.34 446.496   8
   4  -4 -10 1431.40 557.779   4
  -4  -4   9 55720.2 2555.83   6
   4  -4  -9 52925.2 2206.04   4
  -4  -4   9 55557.5 2123.33   8
   4  -4  -9 57093.2 2521.69   2
   4  -4  -9 55399.4 1990.25   3
  -4  -4   8 8257.41 959.850   6
  -4  -4   8 8006.62 516.253  11
   4  -4  -8 9123.12 790.843   4
  -4  -4   8 9156.10 723.465   8
   4  -4  -8 10165.4 1068.55   2
   4  -4  -8 8141.52 614.206   3
  -4  -4   7 55259.7 2231.66   6
  -4  -4   7 56831.5 1710.57  11
   4  -4  -7 55682.6 1973.95   4
  -4  -4   7 58466.8 1865.54   8
   4  -4  -7 55891.7 2550.47   2
   4  -4  -7 55861.6 1775.49   3
  -4  -4   6 781.798 416.985   6
  -4  -4   6 504.268 245.510  11
   4  -4  -6 945.484 592.299   2
  -4  -4   6 630.246 247.848   8
   4  -4  -6 170.329 257.058   4
   4  -4  -6 376.378 237.137   3
  -4  -4   5 143618. 3927.41   6
   4  -4  -5 143724. 3528.80   3
   4  -4  -5 144185. 3683.43   4
   4  -4  -5 134854. 3457.79   8
  -4  -4   5 148078. 3497.91   8
  -4  -4   5 149334. 3669.76  11
   4  -4  -5 144723. 4753.10   2
  -4  -4   4 18964.2 954.910   6
   4  -4  -4 16488.2 705.156   3
  -4  -4   4 16881.3 834.911  11
   4  -4  -4 17694.5 804.784   4
   4  -4  -4 14972.5 589.159   8
  -4  -4   4 17080.5 648.726   8
   4  -4  -4 16477.2 475.889   8
   4  -4  -4 17118.4 1475.26   2
  -4  -4   3 131383. 3342.26   6
   4  -4  -3 128826. 3094.70   3
  -4  -4   3 133078. 3395.61  11
   4  -4  -3 134912. 3190.31   4
   4  -4  -3 125167. 2825.63   8
   4  -4  -3 128038. 4526.88   2
  -4  -4   2 1284.46 284.458   6
  -4  -4   2 1712.12 399.963  11
   4  -4  -2 1960.57 817.208   2
   4  -4  -2 1321.54 110.035   8
   4  -4  -2 1563.45 187.469   8
   4  -4  -2 1077.91 226.824   4
   4  -4  -2 1255.11 237.402   3
  -4  -4   1 194018. 4646.49   6
   4  -4  -1 198540. 4595.11   3
  -4  -4   1 195049. 5004.17  11
   4  -4  -1 200859. 4628.00   1
   4  -4  -1 195277. 4581.56   4
   4  -4  -1 187549. 4566.90   8
   4  -4  -1 197989. 6419.53   2
   4  -4   0 30949.3 1082.41   3
  -4  -4   0 29339.6 902.911   1
  -4  -4   0 30057.3 1380.14  11
   4  -4   0 32116.9 1104.84   1
   4  -4   0 29063.3 1160.97   8
   4  -4   0 29071.4 1019.26   4
   4  -4   0 31930.0 1930.14   2
  -4  -4   0 31203.0 1053.25   6
  -4  -4  -1 135772. 3458.41   1
   4  -4   1 143114. 3523.59   1
  -4  -4  -1 139900. 3985.44  11
   4  -4   1 129516. 3726.73   8
   4  -4   1 141837. 4429.54   2
  -4  -4  -1 138735. 3347.45   6
  -4  -4  -2 3796.25 624.768  11
   4  -4   2 4370.12 633.373   2
   4  -4   2 3826.50 417.900   1
   4  -4   2 3487.30 514.532   8
  -4  -4  -2 4404.96 246.305   7
  -4  -4  -2 3363.97 576.603   2
  -4  -4  -2 3570.88 311.810   6
   4  -4   3 137475. 3610.41   1
  -4  -4  -3 126364. 4083.27  11
  -4  -4  -3 132072. 3969.49   2
   4  -4   3 138350. 4129.25   8
  -4  -4  -3 137693. 3128.04   7
   4  -4   3 132836. 3837.47   2
  -4  -4  -3 131257. 3251.99   6
   4  -4   4 24771.0 1176.40   1
  -4  -4  -4 22163.6 1443.65  11
  -4  -4  -4 23565.6 710.246  10
  -4  -4  -4 24332.9 1351.10   2
   4  -4   4 25670.3 1545.79   8
   4  -4   4 23907.5 1110.16   2
  -4  -4  -4 23729.7 816.511   7
   4  -4   5 72261.3 2447.03   1
  -4  -4  -5 66379.3 2849.81  11
  -4  -4  -5 71003.7 1944.22  10
  -4  -4  -5 73965.5 2665.57   2
   4  -4   5 69768.2 2748.82   8
   4  -4   5 74134.4 2127.77   2
  -4  -4  -5 75633.9 2023.69   7
  -4  -4  -6 3708.28 795.699  11
  -4  -4  -6 5309.71 481.089  10
   4  -4   6 5018.45 643.755   1
   4  -4   6 4720.35 724.856   8
   4  -4   6 4980.02 332.129   2
  -4  -4  -6 6333.27 731.651   2
  -4  -4  -6 4502.31 436.051   7
   4  -4   7 41066.7 1899.73   1
  -4  -4  -7 41249.8 2313.62  11
  -4  -4  -7 39987.5 1587.17  10
  -4  -4  -7 43357.8 1964.22   2
   4  -4   7 37440.3 1896.98   8
  -4  -4  -7 39923.8 1550.93   7
   4  -4   8 7078.96 878.582   1
  -4  -4  -8 8034.84 980.541  11
  -4  -4  -8 8496.66 781.745  10
  -4  -4  -8 9653.70 853.437   2
   4  -4   8 8244.70 912.817   8
  -4  -4  -8 10190.8 824.840   7
  -4  -4  -9 19669.1 1408.66  11
  -4  -4  -9 24347.2 1452.51  10
  -4  -4  -9 22469.7 1176.24   2
   4  -4   9 19771.9 1369.77   8
  -4  -4  -9 21925.6 1359.99   7
   4  -4   9 21575.6 1545.47   1
  -4  -4 -10 3229.88 651.845  11
  -4  -4 -10 3058.73 614.629  10
   4  -4  10 3166.65 674.070   8
   4  -4  10 3678.12 815.899   1
  -4  -4 -10 3221.26 672.073   7
  -4  -4 -11 6451.13 775.234  11
  -4  -4 -11 6590.01 769.601  10
   4  -4  11 6674.03 878.892   8
   4  -4  11 6261.71 1048.45   1
  -4  -4 -11 6530.56 952.889   7
  -4  -4 -12 1407.64 502.816  11
  -4  -4 -12 1620.78 501.674  10
   4  -4  12 1683.92 854.115   1
   4  -4  12 2673.99 683.405   8
  -4  -4 -12 1022.92 678.425   7
  -4  -4 -13 3148.38 599.648  11
  -4  -4 -13 3532.89 636.882  10
   4  -4  13 4522.46 921.030   1
   4  -4  13 4199.21 740.343   8
  -4  -4 -13 2779.10 757.140   7
   4  -4  14 1085.19 687.982   1
   4  -4  14 683.512 538.649   8
  -4  -4 -14-479.972 715.521   7
  -4  -4 -15 49.1920 573.927   7
   4  -3 -16 8174.83 976.887   2
  -4  -3  15 1520.74 649.106   6
   4  -3 -15 1090.05 548.719   2
   4  -3 -15 606.698 563.415  10
   4  -3 -15 514.371 767.858   4
  -4  -3  14 3868.13 859.929   6
   4  -3 -14 4441.02 773.638   2
   4  -3 -14 4337.98 915.072  10
   4  -3 -14 2982.67 1024.44   4
  -4  -3  13 3486.56 878.580   6
   4  -3 -13 684.653 620.503   3
   4  -3 -13 2807.24 677.884   2
   4  -3 -13 1186.97 680.222  10
   4  -3 -13 1910.33 799.774   4
  -4  -3  12 12205.0 1511.62   6
   4  -3 -12 9274.95 1151.21   4
   4  -3 -12 12827.7 1152.82   2
   4  -3 -12 10991.6 1094.47   3
  -4  -3  11 1038.67 750.274   6
   4  -3 -11 2648.56 565.762   3
   4  -3 -11 1668.73 623.250   2
  -4  -3  11 1805.13 416.927   8
   4  -3 -11 1387.77 570.619   4
  -4  -3  10 9434.30 1126.19   6
   4  -3 -10 9322.47 1043.27   2
  -4  -3  10 8229.30 718.297   8
   4  -3 -10 7984.65 875.771   4
   4  -3 -10 9105.07 827.214   3
  -4  -3   9 5260.36 828.314   6
   4  -3  -9 5918.29 610.168   3
   4  -3  -9 6549.56 880.580   2
  -4  -3   9 6862.88 677.457   8
   4  -3  -9 6750.88 795.964   4
  -4  -3   8 8933.37 917.084   6
  -4  -3   8 9640.58 579.242  11
   4  -3  -8 10927.1 846.966   4
  -4  -3   8 8976.59 746.829   8
   4  -3  -8 11589.6 1105.36   2
   4  -3  -8 9622.54 697.817   3
  -4  -3   7 2550.29 528.012   6
   4  -3  -7 3125.56 397.767   3
  -4  -3   7 2889.57 347.513  11
   4  -3  -7 1632.28 602.904   2
  -4  -3   7 1756.55 337.638   8
   4  -3  -7 3993.39 515.296   4
   4  -3  -6 12183.2 661.070   3
  -4  -3   6 12268.8 888.333   6
   4  -3  -6 12500.4 752.347   4
  -4  -3   6 12054.4 651.793   8
  -4  -3   6 12876.5 683.976  11
  -4  -3   5 15044.9 904.367   6
   4  -3  -5 13324.6 671.234   3
  -4  -3   5 13413.4 720.211  11
   4  -3  -5 13735.8 747.747   4
  -4  -3   5 15726.5 660.255   8
  -4  -3   4 7181.70 596.715   6
   4  -3  -4 6112.95 428.400   3
  -4  -3   4 7051.35 531.362  11
   4  -3  -4 6779.14 493.808   4
  -4  -3   4 6645.00 360.576   8
  -4  -3   3 13779.8 738.465   6
   4  -3  -3 14245.8 641.396   3
  -4  -3   3 12975.8 496.700   8
   4  -3  -3 14022.5 669.554   4
  -4  -3   3 13684.0 492.894   8
  -4  -3   3 13589.8 761.356  11
  -4  -3   2 12589.0 681.442   6
   4  -3  -2 12941.7 610.511   3
  -4  -3   2 13028.4 784.717  11
  -4  -3   2 12821.5 509.749   8
   4  -3  -2 11949.4 600.863   4
  -4  -3   1 46626.2 1445.08   6
   4  -3  -1 46823.4 1402.32   3
   4  -3  -1 45130.6 1369.34   1
  -4  -3   1 46359.0 1322.99   8
   4  -3  -1 43950.9 1282.18   8
   4  -3  -1 47453.8 1395.40   4
  -4  -3   1 45592.1 1666.74  11
  -4  -3   0 777.327 220.583   6
  -4  -3   0 967.889 391.055  11
   4  -3   0 228.993 195.751   3
  -4  -3   0 722.552 125.549   1
   4  -3   0 807.450 232.338   1
  -4  -3   0 488.488 156.990   8
   4  -3   0 689.913 273.606   8
   4  -3   0 541.273 208.834   4
   4  -3   1 42756.3 1400.48   1
   4  -3   1 41491.6 1377.09   3
  -4  -3  -1 40963.4 1260.94   1
  -4  -3  -1 42551.9 1712.31  11
   4  -3   1 46903.0 1949.73   8
  -4  -3  -1 42789.6 1137.21   7
  -4  -3  -1 41544.6 1292.36   6
   4  -3   2 8145.58 578.352   1
  -4  -3  -2 7996.02 772.059  11
   4  -3   2 8076.76 764.111   8
  -4  -3  -2 8148.11 381.818   7
  -4  -3  -2 7936.74 454.848   6
   4  -3   3 85219.0 2367.97   1
  -4  -3  -3 81108.2 2729.71  11
   4  -3   3 84977.5 2752.37   8
  -4  -3  -3 83698.1 1916.37   7
  -4  -3  -3 81529.5 2015.04   6
  -4  -3  -4 2632.30 202.662  10
   4  -3   4 2477.47 411.375   2
   4  -3   4 2654.71 427.604   1
   4  -3   4 2908.04 575.054   8
  -4  -3  -4 2664.02 608.288  11
  -4  -3  -4 2538.85 272.589   7
   4  -3   5 49854.5 1929.72   1
   4  -3   5 48260.3 1629.90   5
  -4  -3  -5 47454.0 2197.33  11
  -4  -3  -5 49316.9 1437.28  10
  -4  -3  -5 49786.9 2002.83   2
   4  -3   5 48398.6 1387.06   2
   4  -3   5 47779.7 2073.15   8
  -4  -3  -5 50595.4 1543.72   7
   4  -3   5 52031.3 1669.07   2
   4  -3   6 4056.22 603.508   1
  -4  -3  -6 4444.01 426.498  10
  -4  -3  -6 4080.39 748.889  11
   4  -3   6 4421.83 680.707   8
   4  -3   6 4910.41 353.975   2
  -4  -3  -6 5092.95 641.733   2
  -4  -3  -6 3980.44 435.950   7
  -4  -3  -7 76795.8 3140.89  11
  -4  -3  -7 73312.5 2332.35  10
  -4  -3  -7 81147.0 2732.91   2
   4  -3   7 71842.4 2729.64   8
  -4  -3  -7 70887.4 2331.08   7
   4  -3   7 72910.1 2777.37   1
  -4  -3  -8 8556.91 998.909  11
  -4  -3  -8 7758.45 739.364  10
  -4  -3  -8 8394.14 710.103   2
   4  -3   8 6903.95 837.861   8
  -4  -3  -8 8506.14 762.909   7
   4  -3   8 8004.41 949.524   1
  -4  -3  -9 24530.5 1535.45  11
  -4  -3  -9 26007.2 1463.63  10
   4  -3   9 28093.8 1576.11   8
  -4  -3  -9 26829.0 1498.74   7
   4  -3   9 26792.9 1743.11   1
  -4  -3 -10 2817.54 606.782  11
  -4  -3 -10 2220.34 579.913  10
   4  -3  10 3556.12 655.337   8
   4  -3  10 2251.65 733.706   1
  -4  -3 -10 2786.55 639.338   7
  -4  -3 -11 32977.4 1709.17  11
  -4  -3 -11 35607.9 1865.13  10
   4  -3  11 40662.8 1958.58   8
  -4  -3 -11 34507.6 2052.56   7
   4  -3  11 41323.9 2399.64   1
  -4  -3 -12 7508.48 798.440  11
  -4  -3 -12 6575.97 800.283  10
   4  -3  12 8005.84 1059.56   1
   4  -3  12 9181.40 969.141   8
  -4  -3 -12 6841.61 1043.10   7
  -4  -3 -13 10063.6 874.395  11
   4  -3  13 11602.2 1235.88   1
  -4  -3 -13 10461.6 985.832  10
  -4  -3 -13 8317.99 1168.62   7
   4  -3  14 2020.02 724.937   1
  -4  -3 -14 1063.96 472.760  10
   4  -3  14 2547.75 689.097   8
  -4  -3 -15 12856.5 1268.67   7
  -4  -2  15 3036.44 740.947   6
   4  -2 -15 4578.80 762.090   2
   4  -2 -15 4511.40 833.889  10
   4  -2 -15 4876.93 1057.33   4
  -4  -2  14 142.922 593.685   6
   4  -2 -14-111.488 740.601   3
   4  -2 -14 788.260 527.131   2
   4  -2 -14 407.727 570.688  10
   4  -2 -14-381.947 908.767   4
  -4  -2  13 20603.3 1709.13   6
   4  -2 -13 18647.1 1488.11  10
   4  -2 -13 16103.1 1691.71   4
   4  -2 -13 18728.3 1389.43   2
   4  -2 -13 20298.2 1583.51   3
  -4  -2  12 10410.7 1373.00   6
   4  -2 -12 9888.57 1066.69   3
   4  -2 -12 8201.85 963.796   2
   4  -2 -12 8296.45 1046.08  10
   4  -2 -12 7893.79 1075.80   4
  -4  -2  11 17690.5 1526.36   6
   4  -2 -11 15890.5 1350.27   4
  -4  -2  11 21118.7 1083.41   8
   4  -2 -11 18663.5 1370.95   2
   4  -2 -11 18619.9 1281.57   3
  -4  -2  10-16.9640 567.494   6
   4  -2 -10 1508.10 523.897   3
   4  -2 -10 284.608 473.932   2
  -4  -2  10 379.036 302.917   8
   4  -2 -10 573.156 521.177   4
  -4  -2   9 55520.7 2401.01   6
   4  -2  -9 53349.2 2161.07   4
  -4  -2   9 55783.6 1917.20   8
   4  -2  -9 53614.2 2474.19   2
   4  -2  -9 56404.3 2045.37   3
  -4  -2   8 27137.8 1505.16   6
  -4  -2   8 27751.6 1097.85  11
   4  -2  -8 28296.5 1365.44   4
  -4  -2   8 28505.8 1216.40   8
   4  -2  -8 27468.8 1224.84   3
  -4  -2   7 47361.5 1958.64   6
   4  -2  -7 52315.7 1840.86   4
  -4  -2   7 54096.7 1785.90   8
  -4  -2   7 50149.5 1626.16  11
   4  -2  -7 51039.1 1706.31   3
  -4  -2   6 3.54924 221.248  11
   4  -2  -6 343.374 250.073   3
  -4  -2   6-309.319 295.302   8
   4  -2  -6 161.218 302.614   4
  -4  -2   5 107790. 3064.34   6
   4  -2  -5 104877. 2786.88   3
  -4  -2   5 108137. 2883.75  11
   4  -2  -5 106736. 2872.51   4
  -4  -2   5 107878. 2732.79   8
  -4  -2   4 37892.5 1429.81   6
   4  -2  -4 37333.7 1243.70   3
  -4  -2   4 39479.2 1387.57  11
   4  -2  -4 38948.0 1305.65   4
  -4  -2   4 38732.8 1093.76   8
  -4  -2   3 72138.4 2104.25   6
   4  -2  -3 70936.7 1953.53   3
  -4  -2   3 71374.1 2141.47  11
  -4  -2   3 68474.7 1685.81   8
   4  -2  -3 70719.4 1978.38   4
  -4  -2   3 73106.1 1695.79   8
  -4  -2   2 1346.44 291.817   6
   4  -2  -2 1468.96 256.558   3
  -4  -2   2 1577.13 352.798  11
   4  -2  -2 1717.06 225.276   1
  -4  -2   2 1259.97 152.612   8
   4  -2  -2 1264.81 249.864   4
   4  -2  -1 107723. 2722.73   3
   4  -2  -1 106679. 2649.72   1
  -4  -2   1 107273. 3012.29  11
  -4  -2   1 101381. 2599.11   8
   4  -2  -1 107347. 2696.11   4
  -4  -2   1 109284. 2760.15   6
   4  -2   0 38110.7 1231.49   3
  -4  -2   0 37772.3 1491.46  11
   4  -2   0 37018.5 1199.36   1
  -4  -2   0 36218.8 978.361   1
   4  -2   0 36131.5 1031.81   8
  -4  -2   0 35282.4 1215.46   8
   4  -2   0 36995.5 1188.90   4
  -4  -2   0 37201.4 1204.42   6
  -4  -2  -1 45989.7 1779.82  11
   4  -2   1 49122.0 1512.45   3
   4  -2   1 48418.8 1520.31   1
   4  -2   1 47881.7 1515.05   8
  -4  -2  -1 44077.3 1581.37   8
  -4  -2  -1 48238.2 1348.77   1
  -4  -2  -1 48031.7 1291.01   7
  -4  -2  -1 46826.4 1429.17   6
  -4  -2  -2 1747.35 254.041   6
  -4  -2  -2 2746.14 505.079  11
   4  -2   2 2736.08 436.880   8
   4  -2   2 2401.12 373.413   1
  -4  -2  -2 2295.54 223.775   7
   4  -2   3 64252.4 2085.94   1
  -4  -2  -3 60193.6 2273.58  11
  -4  -2  -3 63811.9 1513.33  10
   4  -2   3 64888.8 2387.55   8
  -4  -2  -3 63829.8 1705.44   7
  -4  -2  -3 60052.8 1760.32   6
   4  -2   4 19972.7 1123.75   1
  -4  -2  -4 21576.9 1293.82  11
  -4  -2  -4 22026.0 717.293  10
   4  -2   4 24004.2 1478.74   8
  -4  -2  -4 22064.1 845.099   7
   4  -2   5 19579.3 999.156   5
  -4  -2  -5 19498.7 1289.62  11
  -4  -2  -5 18943.4 753.433  10
   4  -2   5 18834.3 710.449   2
   4  -2   5 20312.9 1309.98   8
  -4  -2  -5 20559.9 865.943   7
   4  -2   5 19241.8 1167.46   1
   4  -2   6 3249.02 567.318   1
  -4  -2  -6 3975.71 394.414  10
   4  -2   6 4091.30 640.315   8
  -4  -2  -6 3795.65 435.211   7
  -4  -2  -6 4315.20 732.012  11
  -4  -2  -7 20183.3 1429.33  11
  -4  -2  -7 19156.0 966.686  10
   4  -2   7 18270.9 1238.88   8
  -4  -2  -7 18056.7 995.996   7
   4  -2   7 17681.4 1293.52   1
  -4  -2  -8 7593.84 927.057  11
  -4  -2  -8 8816.88 745.354  10
   4  -2   8 7638.93 850.497   8
   4  -2   8 8760.36 1018.03   1
  -4  -2  -8 8458.02 766.650   7
  -4  -2  -9 6390.97 818.066  11
  -4  -2  -9 5988.29 718.818  10
   4  -2   9 7120.01 991.451   1
   4  -2   9 7993.67 882.591   8
  -4  -2  -9 6807.25 790.366   7
  -4  -2 -10 813.676 420.299  11
  -4  -2 -10 1475.81 545.648  10
   4  -2  10 1979.24 720.652   1
   4  -2  10 1590.93 551.632   8
  -4  -2 -10 1481.08 576.905   7
  -4  -2 -11 3854.20 719.956  10
   4  -2  11 4855.02 888.508   1
   4  -2  11 4345.70 691.913   8
  -4  -2 -11 4476.23 627.621  11
  -4  -2 -11 4122.04 800.472   7
  -4  -2 -12 813.279 384.955  11
   4  -2  12 2005.15 722.108   1
  -4  -2 -12 1262.74 505.665  10
   4  -2  12 1767.39 589.112   8
  -4  -2 -12 595.539 655.869   7
   4  -2  13 1977.68 659.864   1
  -4  -2 -13 1899.06 586.663  10
   4  -2  13 3103.92 685.603   8
  -4  -2 -13 1654.64 442.138  11
  -4  -2 -13 1657.31 797.539   7
   4  -2  14 1263.12 662.480   1
  -4  -2 -14 630.288 459.563  10
   4  -2  14 797.739 546.790   8
  -4  -2 -14-334.169 640.835   7
  -4  -2 -15 660.024 474.005  10
  -4  -2 -15-159.898 672.021   7
   4  -1 -16 6049.13 990.196   3
  -4  -1  15 996.486 634.460   6
   4  -1 -15 79.7737 675.041   3
   4  -1 -15 879.570 444.850   2
   4  -1 -15 1632.58 615.209  10
   4  -1 -15-564.845 929.996   4
  -4  -1  14 5068.72 894.933   6
   4  -1 -14 4007.21 923.573   3
   4  -1 -14 5933.63 799.810   2
   4  -1 -14 5270.12 822.126  10
   4  -1 -14 5694.75 1219.75   4
  -4  -1  13 2402.43 868.457   6
   4  -1 -13 2382.48 741.018   3
   4  -1 -13 2560.41 657.120   2
   4  -1 -13 1762.70 604.970  10
   4  -1 -13 3655.07 936.446   4
  -4  -1  12 11571.0 1338.52   6
   4  -1 -12 9891.23 1074.96   3
   4  -1 -12 9695.37 1037.58   2
   4  -1 -12 11618.4 1151.86  10
   4  -1 -12 10473.0 1177.51   4
  -4  -1  11 2150.10 752.135   6
   4  -1 -11 2327.98 590.736   3
   4  -1 -11 2163.27 637.519   2
   4  -1 -11 1304.50 540.030  10
  -4  -1  11 2678.25 431.326   8
   4  -1 -11 1761.92 607.057   4
  -4  -1  10 14629.2 1255.13   6
   4  -1 -10 12940.1 1100.11   4
  -4  -1  10 14945.4 871.836   8
   4  -1 -10 14247.5 1058.19   3
  -4  -1   9 3443.49 723.538   6
  -4  -1   9 1923.60 363.056   8
   4  -1  -9 2921.64 563.845   4
  -4  -1   8 17427.2 1160.99   6
   4  -1  -8 18546.6 1066.91   4
  -4  -1   8 16837.9 868.231   8
   4  -1  -8 16327.8 945.145   3
   4  -1  -7 313.018 263.330   3
  -4  -1   7 196.825 244.004  11
  -4  -1   7 232.511 225.882   8
   4  -1  -7-389.697 385.278   4
   4  -1  -6 26626.9 1073.13   3
  -4  -1   6 27198.1 1262.41   6
  -4  -1   6 25512.5 1069.58  11
  -4  -1   6 26846.9 994.786   8
   4  -1  -6 24601.5 973.312   1
   4  -1  -6 27653.5 1148.01   4
  -4  -1   5 3662.63 481.169   6
   4  -1  -5 3752.65 384.808   3
  -4  -1   5 4222.17 428.132  11
  -4  -1   5 3499.65 304.630   8
   4  -1  -5 4249.97 310.208   1
   4  -1  -5 3618.03 398.970   4
  -4  -1   4 14954.0 812.888   6
   4  -1  -4 14209.6 690.312   3
  -4  -1   4 14890.7 782.590  11
   4  -1  -4 14196.2 541.817   1
   4  -1  -4 14075.7 708.646   4
  -4  -1   3 11814.9 682.802   6
   4  -1  -3 11578.1 595.070   3
  -4  -1   3 11273.0 692.679  11
   4  -1  -3 10724.0 588.994   4
  -4  -1   2 27742.0 1077.83   6
   4  -1  -2 28517.8 1021.31   3
  -4  -1   2 28560.8 1191.02  11
   4  -1  -2 29996.7 909.355   1
   4  -1  -2 28927.2 1017.99   4
   4  -1  -1 57997.7 1667.46   3
   4  -1  -1 57563.5 1584.61   1
  -4  -1   1 58413.8 1900.88  11
   4  -1  -1 54863.9 1451.71  10
  -4  -1   1 57431.1 1778.90   8
   4  -1  -1 57895.3 1639.56   4
  -4  -1   1 57542.2 1693.17   6
   4  -1   0 5910.38 440.997   3
   4  -1   0 6144.28 432.676   1
  -4  -1   0 5625.55 544.535  11
   4  -1   0 4677.38 276.830  10
   4  -1   0 5667.91 245.728   8
   4  -1   0 5747.52 414.477   4
  -4  -1   0 5275.48 534.504   8
  -4  -1   0 5801.27 341.611   7
  -4  -1   0 5298.91 411.756   6
   4  -1   1 54454.3 1700.43   1
   4  -1   1 56286.4 1665.11   3
  -4  -1  -1 52982.6 1920.89  11
   4  -1   1 53926.2 1435.69  10
  -4  -1  -1 53747.0 1300.02  10
  -4  -1  -1 55261.0 1477.57   1
   4  -1   1 53601.4 1487.45   8
  -4  -1  -1 51303.3 2028.96   8
  -4  -1  -1 54315.3 1469.31   7
  -4  -1  -1 55328.1 1601.24   6
   4  -1   2 18180.1 924.245   1
  -4  -1  -2 17953.9 1045.26  11
   4  -1   2 19693.8 876.685   3
   4  -1   2 19194.8 703.237  10
  -4  -1  -2 19118.1 565.780  10
   4  -1   2 17357.8 819.243   8
  -4  -1  -2 19784.4 1241.51   8
  -4  -1  -2 19829.2 720.536   7
  -4  -1  -2 19207.1 787.794   6
   4  -1   3 117348. 3373.97   1
  -4  -1  -3 120696. 2747.68  10
  -4  -1  -3 117186. 3504.05  11
   4  -1   3 116899. 3297.13   8
  -4  -1  -3 117820. 2923.79   7
  -4  -1  -3 116157. 2998.69   6
   4  -1   4-418.201 425.712   1
  -4  -1  -4 180.006 138.706  10
   4  -1   4 573.905 384.313   8
  -4  -1  -4 848.750 467.060  11
  -4  -1  -4 193.955 205.346   7
   4  -1   5 63809.8 2059.02   5
  -4  -1  -5 62210.9 2433.80  11
  -4  -1  -5 69167.1 1836.90  10
   4  -1   5 63951.2 1763.88   2
   4  -1   5 67761.4 2568.47   8
  -4  -1  -5 67211.4 1958.99   7
   4  -1   5 65527.9 2464.58   1
   4  -1   6 7736.86 526.088   5
  -4  -1  -6 7895.65 865.075  11
   4  -1   6 8707.82 418.601   2
  -4  -1  -6 7513.31 525.697  10
   4  -1   6 8318.53 925.560   8
  -4  -1  -6 8151.08 604.502   7
   4  -1   6 8370.59 905.701   1
   4  -1   7 95700.2 2268.24   5
  -4  -1  -7 92870.3 2714.96  10
  -4  -1  -7 90675.5 3301.99  11
   4  -1   7 95709.8 3294.31   8
  -4  -1  -7 87748.9 2785.76   7
   4  -1   7 91035.9 3380.72   1
  -4  -1  -8 2570.71 636.329  11
  -4  -1  -8 3283.46 490.966  10
   4  -1   8 3265.99 777.290   1
   4  -1   8 4009.54 676.915   8
  -4  -1  -8 2123.03 411.487   7
  -4  -1  -9 35374.7 1660.59  10
   4  -1   9 32826.3 1742.90   8
  -4  -1  -9 35413.6 1737.18   7
   4  -1   9 39867.6 2137.86   1
  -4  -1  -9 33064.0 1729.11  11
  -4  -1 -10 956.540 407.613  11
   4  -1  10 1991.52 670.970   1
  -4  -1 -10 429.881 428.719  10
   4  -1  10 733.622 480.972   8
  -4  -1 -10 1235.60 577.026   7
  -4  -1 -11 43597.9 2159.41  10
   4  -1  11 41812.0 2018.15   8
  -4  -1 -11 37690.1 1765.99  11
   4  -1  11 45725.4 2246.60   1
  -4  -1 -11 43764.8 2249.29   7
  -4  -1 -12 3321.74 537.414  11
   4  -1  12 4695.45 882.189   1
  -4  -1 -12 2857.92 693.219  10
   4  -1  12 4660.34 736.556   8
  -4  -1 -12 3668.20 841.677   7
  -4  -1 -13 10924.9 1091.65  10
   4  -1  13 14265.9 1189.07   8
   4  -1  13 15160.0 1317.28   1
  -4  -1 -13 10049.7 1319.83   7
   4  -1  14 458.571 504.982   1
  -4  -1 -14-430.672 528.730  10
   4  -1  14 533.199 588.985   8
  -4  -1 -14-1100.34 776.904   7
  -4  -1 -15 15896.7 1249.72  10
  -4  -1 -15 13799.2 1344.65   7
   4   0 -16 445.867 566.481   3
  -4   0  15 3698.42 816.754   6
   4   0 -15 2546.19 825.046   3
   4   0 -15 5166.44 771.848   2
   4   0 -15 4469.06 808.001  10
   4   0 -15 4302.68 1049.53   4
  -4   0  14 1064.44 691.572   6
   4   0 -14 1378.23 731.108   3
   4   0 -14 2001.73 637.805   2
   4   0 -14 1298.54 583.917  10
   4   0 -14 65.9908 923.253   4
  -4   0  13 18771.5 1652.24   6
   4   0 -13 18157.3 1688.72   4
   4   0 -13 15439.0 1256.07  10
   4   0 -13 19774.3 1404.07   2
   4   0 -13 16153.4 1470.98   3
  -4   0  12 2088.81 711.774   6
   4   0 -12 1600.58 614.387   3
   4   0 -12 2844.09 678.919   2
   4   0 -12 2198.95 609.246  10
   4   0 -12 1978.20 755.072   4
  -4   0  11 23818.4 1611.78   6
   4   0 -11 21217.4 1437.92  10
   4   0 -11 23092.5 1576.09   4
   4   0 -11 22666.5 1476.11   3
  -4   0  10 4295.32 775.151   6
   4   0 -10 4689.60 729.204   3
   4   0 -10 4007.50 726.447  10
  -4   0  10 2987.99 475.293   9
  -4   0  10 3309.00 466.123   8
   4   0 -10 2956.02 641.619   4
  -4   0   9 81355.8 2957.68   6
   4   0  -9 78393.7 3108.68  10
   4   0  -9 83297.3 2879.50   4
   4   0  -9 83428.3 2794.70   3
   4   0  -8 2576.76 443.180   3
  -4   0   8 3343.18 592.335   6
  -4   0   8 2249.98 357.979   8
   4   0  -8 3605.37 567.231   4
  -4   0   7 101456. 3166.30   6
   4   0  -7 104192. 3051.86   4
  -4   0   7 109831. 2697.84   8
   4   0  -7 104602. 2983.73   3
   4   0  -6 5516.73 503.277   3
  -4   0   6 4738.62 552.967   6
  -4   0   6 6499.96 543.573  11
   4   0  -6 5543.68 525.216   4
  -4   0   6 5104.31 271.468   8
   4   0  -6 5743.73 448.474   1
  -4   0   5 221127. 5344.84   6
   4   0  -5 216016. 5154.98   3
  -4   0   5 226135. 5278.02  11
   4   0  -5 220914. 5192.13   4
  -4   0   4 12842.3 747.277   6
  -4   0   4 10875.5 691.459  11
   4   0  -4 11868.8 635.614   3
   4   0  -4 11366.4 630.165   4
   4   0  -4 10247.1 420.065   1
  -4   0   3 222741. 5198.04   6
   4   0  -3 214590. 5069.34   3
  -4   0   3 215256. 5266.42  11
   4   0  -3 221309. 4770.18   1
   4   0  -3 220117. 4839.49  10
   4   0  -3 202878. 4707.08   1
   4   0  -3 221622. 5069.33   4
   4   0  -2 4696.13 397.404   3
   4   0  -2 4261.12 277.912   1
  -4   0   2 4030.20 467.608  11
   4   0  -2 3884.81 240.508  10
   4   0  -2 3245.59 335.000   4
  -4   0   2 4759.79 442.254   6
   4   0  -1 336943. 7437.21   3
   4   0  -1 325805. 7332.70   1
  -4   0   1 330018. 7718.07  11
   4   0  -1 319249. 7109.25  10
   4   0  -1 336351. 7396.68   4
  -4   0   1 330778. 7474.02   6
   4   0   0 19020.1 817.218   1
   4   0   0 20065.7 812.402   3
  -4   0   0 19177.4 979.425  11
   4   0   0 19948.2 778.939   4
  -4   0   0 19093.9 659.354   8
  -4   0   0 19661.8 701.382   7
  -4   0   0 19306.5 810.993   6
   4   0   1 206556. 5110.72   1
   4   0   1 225187. 4995.53   3
  -4   0  -1 223280. 5335.43  11
  -4   0  -1 218153. 4619.24  10
   4   0   1 224213. 4709.98   8
  -4   0  -1 209319. 5075.61   8
  -4   0  -1 216208. 4790.38   7
  -4   0  -1 218789. 4933.56   6
  -4   0  -2 211.325 218.780   6
   4   0   2-411.154 333.338   1
  -4   0  -2 363.690 340.394  11
   4   0   2-259.248 263.536   3
   4   0   2 118.962 117.359  10
  -4   0  -2 269.867 115.090  10
   4   0   2 102.889 186.004   8
  -4   0  -2-138.030 292.783   8
  -4   0  -2 101.780 187.524   7
  -4   0  -3 183353. 4900.13  11
   4   0   3 174615. 4327.40  10
  -4   0  -3 187136. 4158.35  10
   4   0   3 183680. 4531.66   8
  -4   0  -3 186274. 4337.76   7
   4   0   3 175377. 4899.13   1
  -4   0  -3 181862. 4410.42   6
  -4   0  -4 23958.7 1297.09  11
   4   0   4 23709.3 1151.30   8
  -4   0  -4 25449.9 851.270  10
  -4   0  -4 24683.1 954.300   7
   4   0   4 22035.9 1317.02   1
  -4   0  -5 82103.1 2863.70  11
  -4   0  -5 87117.3 2294.78  10
   4   0   5 87253.7 2836.55   8
  -4   0  -5 86591.4 2436.19   7
   4   0   5 88677.5 3138.15   1
  -4   0  -6 177.700 420.363  11
   4   0   6 300.606 162.011   5
  -4   0  -6 402.531 235.465  10
   4   0   6 266.548 486.428   1
   4   0   6-804.004 531.114   8
  -4   0  -6-11.8682 275.012   7
   4   0   7 51751.2 1454.28   5
  -4   0  -7 50730.9 2212.14  11
  -4   0  -7 51463.6 1770.81  10
   4   0   7 54057.7 2381.08   8
  -4   0  -7 49668.9 1860.97   7
   4   0   7 52423.9 2429.09   1
  -4   0  -8 9564.97 988.013  11
   4   0   8 8296.76 961.329   1
  -4   0  -8 6975.69 653.854  10
   4   0   8 7256.49 911.945   8
  -4   0  -8 7219.17 716.111   7
  -4   0  -9 13955.6 1072.42  11
  -4   0  -9 12131.7 948.908  10
   4   0   9 13542.3 1138.23   8
   4   0   9 14699.2 1212.18   1
  -4   0  -9 11762.3 974.909   7
  -4   0 -10 27.9948 355.265  11
   4   0  10 367.995 491.354   1
  -4   0 -10-315.169 510.903  10
  -4   0 -10 657.466 359.542   9
   4   0  10 352.763 507.868   8
  -4   0 -10 229.441 496.809   7
   4   0  11 7509.04 950.419   1
  -4   0 -11 6203.31 844.031  10
   4   0  11 8135.66 939.680   8
  -4   0 -11 6384.43 692.885  11
  -4   0 -11 6487.39 931.204   7
   4   0  12 915.819 549.610   1
  -4   0 -12 339.989 323.340  11
  -4   0 -12 773.523 592.740  10
   4   0  12 772.507 531.574   8
  -4   0 -12-260.990 663.019   7
   4   0  13 1161.78 534.720   1
  -4   0 -13 2157.00 639.976  10
   4   0  13 1831.13 602.047   8
  -4   0 -13 1057.60 714.859   7
   4   0  14-74.1046 509.026   1
  -4   0 -14 236.002 559.863  10
   4   0  14 71.0148 449.787   8
  -4   0 -14-917.467 818.721   7
  -4   0 -15 2721.51 711.286  10
  -4   0 -15-70.2656 673.140   7
  -4   1  16 5521.52 887.166   6
   4   1 -16 6698.80 1114.26   3
  -4   1  15 586.223 604.128   6
   4   1 -15-530.912 875.461   3
   4   1 -15 1318.91 561.208   2
   4   1 -15 1347.99 604.051  10
   4   1 -15-697.858 931.713   4
  -4   1  14 4566.28 849.972   6
   4   1 -14 4063.50 943.449   3
   4   1 -14 5615.75 825.332   2
   4   1 -14 5708.53 829.212  10
   4   1 -14 4387.35 1141.92   4
  -4   1  13 3419.84 834.074   6
   4   1 -13 2549.55 771.276   3
   4   1 -13 3347.30 706.323  10
   4   1 -13 2785.08 770.998   4
   4   1 -13 2125.11 658.462   2
  -4   1  12 11891.2 1240.13   6
   4   1 -12 9685.51 1106.98   3
   4   1 -12 11309.3 1034.35  10
   4   1 -12 9757.32 1202.80   4
  -4   1  11 1254.98 520.533   6
   4   1 -11 2199.59 628.782   3
   4   1 -11 2097.40 570.027  10
   4   1 -11 1682.36 629.587   4
  -4   1  10 12308.4 1063.40   6
   4   1 -10 11141.2 1014.52  10
   4   1 -10 10972.1 1005.82   4
  -4   1  10 10885.0 832.622   9
  -4   1  10 11796.5 793.609   8
   4   1 -10 13005.1 1064.90   3
  -4   1   9 1615.63 497.894   6
   4   1  -9 1828.54 480.136   3
   4   1  -9 1953.30 574.360  10
  -4   1   9 1888.22 456.043   9
  -4   1   9 1951.76 315.216   8
   4   1  -9 2674.52 584.845   4
  -4   1   8 13603.8 980.328   6
   4   1  -8 15932.7 1150.40  10
   4   1  -8 15199.8 987.539   4
  -4   1   8 15743.0 684.270   8
   4   1  -8 14696.7 935.883   3
  -4   1   7 222.158 336.342   6
   4   1  -7-3.42977 299.467   3
   4   1  -7 13.9939 422.806  10
  -4   1   7 467.948 127.242   8
   4   1  -7 88.3015 305.147   4
   4   1  -6 23008.7 1039.00   3
  -4   1   6 23899.5 1144.70   6
   4   1  -6 22663.6 1045.02   4
  -4   1   6 23580.4 1079.80  11
   4   1  -6 23234.6 839.755   1
   4   1  -5 4694.19 463.334   3
  -4   1   5 4584.04 509.516   6
  -4   1   5 4643.92 500.577  11
   4   1  -5 4752.37 458.554   4
   4   1  -5 3913.08 271.063   1
  -4   1   4 12920.7 752.979   6
   4   1  -4 12717.5 690.579   3
   4   1  -4 12877.1 679.863   4
  -4   1   4 13349.6 781.146  11
   4   1  -3 11961.9 437.335   1
   4   1  -3 13961.8 688.186   3
  -4   1   3 13570.3 787.064  11
   4   1  -3 12953.4 477.818  10
   4   1  -3 13844.6 663.269   4
   4   1  -3 12093.1 367.472   1
  -4   1   3 14172.8 736.382   6
   4   1  -2 30397.4 1026.99   3
  -4   1   2 29438.7 1188.86  11
   4   1  -2 29702.3 982.715   4
   4   1  -2 27489.1 890.450   1
  -4   1   2 29682.8 1065.29   6
   4   1  -1 58067.4 1391.64  10
   4   1  -1 60797.9 1748.90   3
  -4   1   1 63836.3 1987.70  11
   4   1  -1 57846.1 1683.65   4
   4   1  -1 58933.1 1811.12   1
  -4   1   1 60995.7 1778.87   6
  -4   1   0 4216.96 403.924   6
   4   1   0 4861.50 420.343   3
  -4   1   0 4355.34 518.055  11
   4   1   0 4300.27 205.879  10
  -4   1   0 4224.89 279.194  10
   4   1   0 4110.24 359.165   4
  -4   1   0 4425.51 206.836   8
  -4   1   0 4639.67 344.820   7
   4   1   0 4826.40 528.338   1
   4   1   1 59247.0 1761.32   3
  -4   1  -1 59641.7 2015.79  11
   4   1   1 56868.1 1456.55  10
  -4   1  -1 59044.1 1518.03  10
   4   1   1 60427.9 1529.21   8
  -4   1  -1 58791.1 1573.39   8
  -4   1  -1 59442.0 1647.76   7
   4   1   1 55218.9 2111.25   1
  -4   1  -1 59468.3 1752.63   6
   4   1   2 22256.2 928.457   3
  -4   1  -2 20276.8 1094.40  11
   4   1   2 19663.0 735.743  10
  -4   1  -2 21916.8 723.908  10
   4   1   2 22630.4 815.204   8
  -4   1  -2 20444.4 884.234   8
  -4   1  -2 21107.2 826.014   7
   4   1   2 21496.3 1286.24   1
  -4   1  -2 21253.8 890.895   6
   4   1   3 123646. 3201.57   3
  -4   1  -3 120572. 3512.58  11
  -4   1  -3 122102. 2902.43  10
   4   1   3 126588. 3150.71   8
  -4   1  -3 122691. 3058.36   7
   4   1   3 133317. 4066.95   1
  -4   1  -4 2.72359 390.557  11
   4   1   4-17.1894 249.568  10
  -4   1  -4 97.3953 162.178  10
   4   1   4 414.099 480.446   1
   4   1   4-42.0869 264.642   8
  -4   1  -4 333.497 241.953   7
  -4   1  -5 69807.1 1983.91  10
   4   1   5 71407.6 2365.36   8
  -4   1  -5 71865.0 2531.01  11
  -4   1  -5 69546.9 2105.82   7
   4   1   5 75404.2 2808.30   1
   4   1   6 10378.5 551.518   5
   4   1   6 9122.08 912.697   1
   4   1   6 9517.73 854.566   8
  -4   1  -6 8582.27 836.154  11
  -4   1  -6 8793.36 655.854   7
  -4   1  -6 9094.26 593.618  10
   4   1   7 96873.4 2491.04   5
  -4   1  -7 92661.7 3204.83  11
  -4   1  -7 90172.0 2717.59  10
   4   1   7 96137.7 3265.37   8
   4   1   7 95832.2 3330.53   1
  -4   1  -7 95467.8 2887.55   7
  -4   1  -8 3226.11 632.133  11
   4   1   8 3186.94 670.191   1
   4   1   8 3392.98 322.977   5
  -4   1  -8 3128.34 487.142  10
  -4   1  -8 2463.98 533.880   9
   4   1   8 2689.54 653.496   8
  -4   1  -8 1941.90 482.957   7
  -4   1  -9 36495.4 1738.79  11
  -4   1  -9 33497.1 1588.33   9
   4   1   9 39295.3 2034.63   8
   4   1   9 38088.9 1889.97   1
  -4   1  -9 34776.8 1629.83  10
  -4   1  -9 33702.7 1703.50   7
   4   1  10 1102.44 528.614   1
  -4   1 -10 1406.44 444.942  11
  -4   1 -10 1157.89 453.838  10
  -4   1 -10 1549.58 434.579   9
   4   1  10 1272.39 585.774   8
  -4   1 -10 621.402 554.719   7
  -4   1 -11 41594.1 1758.76  11
  -4   1 -11 40023.2 2054.33  10
   4   1  11 42778.8 2100.07   8
   4   1  11 45818.2 2156.79   1
  -4   1 -11 44818.1 2260.59   7
   4   1  12 4269.62 798.866   1
  -4   1 -12 3652.16 785.430  10
   4   1  12 4881.84 795.968   8
  -4   1 -12 2489.28 702.504   7
  -4   1 -13 10828.7 1245.62  10
   4   1  13 12211.2 1117.47   8
   4   1  13 13250.3 1183.95   1
  -4   1 -13 10189.0 1245.53   7
   4   1  14 51.0810 475.401   1
  -4   1 -14 143.517 502.400  10
   4   1  14-80.0728 499.967   8
  -4   1 -14-1077.60 868.487   7
  -4   1 -15 15747.6 1333.18  10
  -4   2  16 2342.03 703.523   6
  -4   2  15 4823.42 859.620   6
   4   2 -15 3469.49 899.811   3
   4   2 -15 4353.34 729.421  10
   4   2 -15 3187.47 959.047   4
  -4   2  14 259.617 593.364   6
   4   2 -14 646.254 759.591   3
   4   2 -14 875.573 585.292   2
   4   2 -14 509.014 519.921  10
   4   2 -14-1070.57 1108.88   4
  -4   2  13 19325.8 1579.75   6
   4   2 -13 17669.8 1294.13  10
   4   2 -13 19043.6 1740.78   4
   4   2 -13 18575.0 1638.85   3
  -4   2  12 6924.53 927.161   6
   4   2 -12 9401.82 1142.57   3
   4   2 -12 8426.03 886.542  10
   4   2 -12 6158.85 1025.93   4
  -4   2  11 17286.2 1305.57   6
   4   2 -11 19393.9 1294.04  10
   4   2 -11 18510.8 1437.93   4
   4   2 -11 21064.3 1466.55   3
  -4   2  10 235.366 442.025   6
   4   2 -10 1229.93 539.800   3
   4   2 -10 980.844 485.101  10
  -4   2  10 143.845 310.868   9
  -4   2  10 382.541 243.570   8
   4   2 -10 550.944 518.603   4
  -4   2  10 1361.04 561.959   5
  -4   2   9 55395.2 2191.71   6
  -4   2   9 57037.9 2450.99   5
   4   2  -9 55268.9 2258.87  10
   4   2  -9 55341.9 2200.06   4
  -4   2   9 54524.7 2121.92   9
  -4   2   9 58107.8 1703.25   8
   4   2  -9 55096.9 2194.74   3
  -4   2   8 26070.4 1325.71   6
  -4   2   8 26723.3 1639.47   5
   4   2  -8 25973.1 1427.73  10
   4   2  -8 26349.3 1313.44   4
  -4   2   8 26773.8 889.390   8
  -4   2   8 25370.5 1390.94   9
   4   2  -8 24627.3 1283.28   3
  -4   2   7 45841.3 1799.07   6
  -4   2   7 50931.5 2352.77   5
   4   2  -7 48313.9 1986.57  10
  -4   2   7 46154.4 2013.39   9
   4   2  -7 48696.9 1772.53   4
   4   2  -7 49703.1 1798.72   3
  -4   2   6-44.4849 326.893   6
   4   2  -6 568.066 346.213   3
  -4   2   6 199.424 554.721   5
   4   2  -6-30.6509 331.749  10
   4   2  -6 317.726 300.285   4
  -4   2   5 115955. 3183.62   6
   4   2  -5 116998. 3125.73   3
  -4   2   5 124204. 4295.16   5
  -4   2   5 115358. 3240.32  11
   4   2  -5 114645. 3460.40  10
   4   2  -5 112411. 3067.92   4
   4   2  -4 35406.4 1286.28   3
  -4   2   4 36377.4 1945.00   5
  -4   2   4 35700.3 1419.18  11
   4   2  -4 36618.1 1551.12  10
   4   2  -4 33325.5 1225.93   4
  -4   2   4 36397.6 1340.07   6
   4   2  -3 73273.0 2106.49   3
  -4   2   3 75046.0 2771.38   5
  -4   2   3 76279.4 2305.45  11
   4   2  -3 77853.3 2398.72  10
   4   2  -3 72192.9 1763.83  10
   4   2  -3 72512.8 2046.21   4
  -4   2   3 74076.4 2156.31   6
  -4   2   2 1057.24 280.671   6
  -4   2   2 874.868 335.386  11
   4   2  -2 1884.63 329.130   3
   4   2  -2 1208.71 103.011  10
  -4   2   2 1345.90 520.426   5
   4   2  -2 1041.97 297.071  10
   4   2  -2 670.952 211.398   4
   4   2  -1 111924. 2795.52   3
   4   2  -1 101316. 2302.14  10
   4   2  -1 115796. 2654.23  10
  -4   2   1 110098. 3040.84  11
   4   2  -1 107653. 2708.51   4
   4   2  -1 107079. 2563.97   1
   4   2  -1 107501. 2516.30   7
  -4   2   1 112934. 2840.67   6
   4   2   0 35125.4 1225.99   3
  -4   2   0 36411.5 1444.87  11
  -4   2   0 35603.3 1065.70  10
   4   2   0 35280.6 1171.44   4
   4   2   0 37473.2 1356.66   1
  -4   2   0 34970.6 1146.44   7
   4   2   0 33941.4 1013.20   7
  -4   2   0 38363.7 1280.14   6
   4   2   1 48473.2 1520.60   3
  -4   2  -1 47293.0 1743.37  11
  -4   2  -1 47412.1 1321.02  10
  -4   2  -1 47280.2 1259.33   8
  -4   2  -1 46833.2 1425.07   7
   4   2   1 46090.0 1310.58   7
  -4   2  -1 47144.7 1529.08   6
  -4   2  -2 1688.04 312.502   6
   4   2   2 2491.23 640.555   1
   4   2   2 1324.52 290.986   3
  -4   2  -2 986.612 375.352  11
  -4   2  -2 1836.27 240.449  10
   4   2   2 1737.55 253.942   8
  -4   2  -2 1379.23 211.460   8
  -4   2  -2 1667.82 273.540   7
   4   2   3 64733.1 1985.83   3
  -4   2  -3 66345.7 1785.63  10
  -4   2  -3 64907.6 2251.79  11
   4   2   3 65850.6 1914.19   8
   4   2   3 69156.9 2618.60   1
  -4   2  -3 66140.1 1905.42   7
   4   2   4 18328.8 918.972   3
  -4   2  -4 19223.6 780.414  10
   4   2   4 20470.5 954.652   8
   4   2   4 21059.6 1320.69   1
  -4   2  -4 19876.2 885.805   7
  -4   2  -4 19554.1 1130.26  11
   4   2   5 17477.2 803.137   5
  -4   2  -5 17434.6 787.353  10
   4   2   5 17330.3 964.517   8
   4   2   5 15675.9 1155.26   1
  -4   2  -5 16285.5 1078.17  11
  -4   2  -5 17167.2 872.906   7
  -4   2  -6 4908.41 686.417  11
   4   2   6 3898.96 381.167   5
  -4   2  -6 4949.64 470.322  10
  -4   2  -6 5037.56 731.014   9
   4   2   6 4964.73 616.224   8
   4   2   6 4902.83 751.805   1
  -4   2  -6 3984.45 478.949   7
   4   2   7 18969.6 844.929   5
  -4   2  -7 16898.3 927.692  10
  -4   2  -7 18102.7 1209.42   9
   4   2   7 18275.6 1187.02   8
   4   2   7 17196.9 1242.32   1
  -4   2  -7 18758.1 1256.49  11
  -4   2  -7 18306.5 1043.10   7
   4   2   8 8165.20 536.282   5
   4   2   8 7477.88 864.036   1
  -4   2  -8 8991.55 940.982  11
  -4   2  -8 7275.54 671.012  10
  -4   2  -8 8590.91 853.599   9
   4   2   8 8386.72 926.912   8
  -4   2  -8 7580.36 753.237   7
   4   2   9 6817.21 836.878   1
  -4   2  -9 5402.33 649.177  10
  -4   2  -9 6350.34 693.811   9
  -4   2  -9 5568.06 713.501  11
   4   2   9 5914.27 838.813   8
  -4   2  -9 4226.98 665.325   7
   4   2  10 1664.99 617.250   1
  -4   2 -10 2185.32 479.420  11
  -4   2 -10 1143.22 499.104  10
  -4   2 -10 1755.88 457.317   9
   4   2  10 1031.88 550.314   8
  -4   2 -10 780.724 524.519   7
   4   2  11 4095.30 725.387   1
  -4   2 -11 4285.94 558.444  11
  -4   2 -11 4926.13 785.943  10
   4   2  11 3936.62 813.433   8
  -4   2 -11 3087.92 720.685   7
   4   2  12 1970.97 602.839   1
  -4   2 -12 566.175 571.550  10
   4   2  12 1324.80 600.387   8
  -4   2 -12 38.5150 744.665   7
   4   2  13 2377.35 654.338   1
  -4   2 -13 1639.06 691.247  10
   4   2  13 1635.06 605.311   8
  -4   2 -13 781.523 668.852   7
   4   2  14 661.308 566.209   1
  -4   2 -14 380.336 605.981  10
   4   2  14 573.571 533.252   8
  -4   2 -14 831.264 754.220   7
  -4   2 -15 1778.90 666.742  10
  -4   3  16 7797.46 1008.60   6
  -4   3  15 1471.30 649.488   6
   4   3 -15 741.760 837.499   3
   4   3 -15 1499.65 545.876  10
   4   3 -15 719.226 878.770   4
  -4   3  14 4522.39 912.824   6
   4   3 -14 3229.58 946.762   3
   4   3 -14 5346.46 816.026  10
   4   3 -14 3882.14 1067.62   4
  -4   3  13 1927.29 729.497   6
   4   3 -13 2443.89 862.137   3
   4   3 -13 2722.90 617.662  10
   4   3 -13 1259.03 775.487   4
  -4   3  12 10055.0 1051.55   6
   4   3 -12 9482.96 1128.98   3
  -4   3  12 10197.1 1013.87   5
   4   3 -12 10339.3 980.591  10
   4   3 -12 8621.98 1101.91   4
  -4   3  11 1870.38 564.714   6
   4   3 -11 1856.79 650.158   3
  -4   3  11 1273.88 561.654   5
   4   3 -11 1890.83 544.454  10
   4   3 -11 1767.49 570.411   4
  -4   3  10 8165.30 835.224   6
   4   3 -10 9528.06 913.823  10
  -4   3  10 8998.25 953.140   5
  -4   3  10 8392.98 768.701   9
   4   3 -10 9171.78 941.829   4
   4   3 -10 9827.98 1013.46   3
  -4   3   9 4859.49 655.703   6
   4   3  -9 6254.87 783.815   3
  -4   3   9 6155.85 867.934   5
   4   3  -9 6578.40 785.453  10
  -4   3   9 5768.15 680.599   9
   4   3  -9 6535.64 777.379   4
  -4   3   8 10406.7 830.932   6
  -4   3   8 10402.9 1054.10   5
   4   3  -8 11994.9 976.568  10
   4   3  -8 10976.1 855.982   4
  -4   3   8 10417.6 899.829   9
   4   3  -8 9490.46 839.788   3
  -4   3   7 2452.94 449.084   6
   4   3  -7 1860.71 433.492   3
  -4   3   7 2403.62 654.895   5
   4   3  -7 2510.97 566.660  10
  -4   3   7 2038.14 519.903   9
   4   3  -7 1809.04 433.495   4
  -4   3   6 13848.5 852.738   6
  -4   3   6 13083.4 1210.28   5
   4   3  -6 16733.7 1158.89  10
  -4   3   6 13307.5 1081.74   9
   4   3  -6 14065.4 824.224   4
   4   3  -6 13735.6 850.122   3
   4   3  -5 14260.4 816.125   3
   4   3  -5 14344.2 918.748  10
  -4   3   5 13245.9 1366.31   5
  -4   3   5 12809.4 1133.84   9
   4   3  -5 12843.1 741.004   4
  -4   3   5 14814.1 825.818   6
   4   3  -4 8040.31 592.960   3
   4   3  -4 7538.45 547.291  10
  -4   3   4 6922.11 1007.49   5
  -4   3   4 8419.04 1007.97   9
   4   3  -4 7587.61 532.558   4
  -4   3   4 8442.41 691.311  11
  -4   3   4 7742.87 588.499   6
   4   3  -3 12778.2 707.112   3
  -4   3   3 14276.9 1191.75   5
  -4   3   3 12986.1 836.787  11
   4   3  -3 12299.3 542.567  10
   4   3  -3 12687.6 429.971  10
  -4   3   3 13885.1 1310.53   9
   4   3  -3 12900.9 655.566   4
  -4   3   3 12195.2 714.793   6
   4   3  -2 14984.6 739.112   3
  -4   3   2 12014.7 1029.86   5
  -4   3   2 14939.1 888.011  11
   4   3  -2 13588.2 383.494  10
   4   3  -2 12781.0 345.236  10
  -4   3   2 12021.9 1367.44   9
   4   3  -2 13962.7 656.272   4
   4   3  -2 14756.3 511.596   7
  -4   3   2 13603.3 727.089   6
  -4   3   1 45707.3 1693.54  11
   4   3  -1 45902.4 1472.71   3
  -4   3   1 44168.2 1863.65   5
  -4   3   1 44709.2 1331.85  10
   4   3  -1 43783.4 1047.44   1
   4   3  -1 45558.1 1387.93   4
   4   3  -1 44746.5 1173.60   7
  -4   3   1 46460.2 1512.61   6
  -4   3   0 2456.11 350.506   6
  -4   3   0 1786.21 412.377  11
   4   3   0 1610.07 301.123   3
  -4   3   0 2318.88 475.795   5
  -4   3   0 1361.25 210.672  10
   4   3   0 1590.36 263.252   4
  -4   3   0 1181.23 254.182   7
   4   3   0 2043.97 222.938   1
   4   3   0 1727.87 173.603   7
   4   3   1 45142.4 1476.51   3
  -4   3  -1 43182.2 1700.19  11
  -4   3  -1 45046.0 1323.91  10
  -4   3  -1 48792.6 2792.65   9
   4   3   1 44854.2 1478.43   1
  -4   3  -1 45545.1 1418.14   7
  -4   3  -1 45275.8 1659.17   5
   4   3   1 44567.4 1238.89   7
  -4   3  -1 46205.3 1518.87   6
   4   3   2 9536.75 604.456   3
  -4   3  -2 9928.55 779.264  11
  -4   3  -2 9407.83 501.602  10
  -4   3  -2 9936.10 1302.43   9
   4   3   2 10019.5 723.443   1
  -4   3  -2 9201.87 561.142   7
   4   3   2 9002.67 468.729   7
   4   3   3 85393.9 2426.94   3
  -4   3  -3 84999.6 2260.67  10
  -4   3  -3 82821.0 3422.52   9
  -4   3  -3 83403.3 2713.23  11
   4   3   3 87669.4 2355.76   8
   4   3   3 90810.3 2963.19   1
  -4   3  -3 84182.4 2366.37   7
   4   3   4 1244.14 510.917   1
  -4   3  -4 2289.99 493.038  11
   4   3   4 2052.91 374.188   3
  -4   3  -4 1562.56 276.124  10
  -4   3  -4 2088.33 686.825   9
   4   3   4 1892.39 354.647   8
  -4   3  -4 1920.90 349.817   7
   4   3   5 51462.8 1694.04   5
   4   3   5 51531.7 1762.00   3
  -4   3  -5 48744.6 2002.15  11
  -4   3  -5 50711.7 1627.16  10
  -4   3  -5 50259.7 2333.44   9
   4   3   5 53231.1 1839.86   8
   4   3   5 57916.3 2493.56   1
  -4   3  -5 51489.6 1731.67   7
   4   3   6 5630.00 483.375   5
   4   3   6 4879.11 754.791   1
  -4   3  -6 4394.49 631.022  11
  -4   3  -6 5278.28 503.317  10
  -4   3  -6 5155.93 807.800   9
   4   3   6 4953.08 610.666   8
  -4   3  -6 5332.43 544.922   7
   4   3   7 79712.7 2274.83   5
  -4   3  -7 76181.2 2777.13  11
  -4   3  -7 74619.5 2349.45  10
  -4   3  -7 72796.1 2780.86   9
   4   3   7 75286.2 2650.26   8
   4   3   7 71808.6 2838.48   1
  -4   3  -7 70704.2 2425.18   7
   4   3   8 7974.04 902.233   1
   4   3   8 6984.99 559.649   5
  -4   3  -8 6898.86 860.489  11
  -4   3  -8 6489.95 653.496  10
  -4   3  -8 6957.50 802.411   9
   4   3   8 6286.59 782.643   8
  -4   3  -8 7155.30 730.849   7
  -4   3  -9 27248.9 1409.45  10
  -4   3  -9 26379.9 1442.08   9
   4   3   9 29632.2 1712.54   8
   4   3   9 25833.3 1573.37   1
  -4   3  -9 28691.9 1503.85  11
  -4   3  -9 25820.9 1475.80   7
   4   3  10 4684.29 768.607   1
  -4   3 -10 3760.06 564.038  11
  -4   3 -10 4183.58 691.063  10
  -4   3 -10 3434.46 563.791   9
   4   3  10 3949.86 832.159   8
  -4   3 -10 3323.87 702.108   7
  -4   3 -11 35439.8 1895.72  10
   4   3  11 39250.1 2198.30   8
   4   3  11 38819.5 1963.43   1
  -4   3 -11 33268.7 1954.33   7
   4   3  12 7526.99 900.185   1
  -4   3 -12 6400.91 942.279  10
   4   3  12 6056.82 918.545   8
  -4   3 -12 7368.08 1025.05   7
  -4   3 -13 11991.5 1262.13  10
   4   3  13 11741.1 1111.37   1
   4   3  13 12046.5 1201.15   8
  -4   3 -13 10023.5 1272.19   7
  -4   3 -14 1122.89 639.218  10
   4   3  14 864.149 591.703   8
  -4   3 -14 1402.66 794.126   7
   4   3  14 928.455 517.460   1
  -4   3 -15 12294.9 1282.25  10
  -4   4  15 3149.71 768.850   6
   4   4 -15 2986.38 918.061   3
   4   4 -15 4235.74 741.090  10
  -4   4  14 2160.19 591.868   5
  -4   4  14 2064.30 720.937   6
   4   4 -14 1591.40 821.429   3
   4   4 -14 2399.54 598.245  10
   4   4 -14 213.878 841.794   4
  -4   4  13 15191.5 1340.67   6
   4   4 -13 13554.0 1470.76   3
  -4   4  13 16850.8 1299.31   5
   4   4 -13 15002.2 1221.07  10
   4   4 -13 13995.4 1546.19   4
  -4   4  12 4668.84 787.227   6
   4   4 -12 4230.49 923.874   3
  -4   4  12 5745.39 846.522   5
   4   4 -12 5107.24 754.792  10
   4   4 -12 2940.61 827.035   4
  -4   4  11 17353.1 1231.55   6
  -4   4  11 18740.2 1372.36   5
   4   4 -11 16517.9 1241.64  10
   4   4 -11 16250.5 1353.97   4
   4   4 -11 17131.3 1407.51   3
  -4   4  10 2556.94 558.818   6
   4   4 -10 3747.87 785.880   3
  -4   4  10 2601.28 667.333   5
   4   4 -10 3740.88 678.185  10
   4   4 -10 3289.27 674.379   4
  -4   4   9 56018.3 2160.10   6
  -4   4   9 56666.9 2499.04   5
   4   4  -9 59398.0 2455.98  10
   4   4  -9 57611.0 2294.95   4
  -4   4   9 53470.9 2235.05   9
   4   4  -9 58763.8 2389.99   3
  -4   4   8 6982.05 697.868   6
   4   4  -8 6071.73 721.261   3
  -4   4   8 6227.49 878.936   5
   4   4  -8 7348.61 838.507  10
  -4   4   8 6572.75 753.024   9
   4   4  -8 6793.43 713.022   4
  -4   4   7 57915.2 2029.96   6
  -4   4   7 55986.1 2545.30   5
   4   4  -7 60433.2 2207.28  10
   4   4  -7 59881.2 2063.46   4
  -4   4   7 56776.0 2379.72   9
   4   4  -7 56965.2 2119.60   3
  -4   4   6 192.672 301.008   6
  -4   4   6 1044.23 653.516   5
   4   4  -6 678.360 295.632  10
  -4   4   6 686.238 507.912   9
   4   4  -6 903.904 342.657   4
   4   4  -6 828.625 389.640   3
  -4   4   5 151312. 4962.56   5
   4   4  -5 145886. 3705.98  10
  -4   4   5 142184. 4618.12   9
   4   4  -5 148311. 3793.70   4
  -4   4   5 147555. 3867.91   6
   4   4  -5 146469. 3917.86   3
   4   4  -4 15123.5 832.409   3
  -4   4   4 15596.4 1491.37   5
   4   4  -4 14665.9 609.289  10
  -4   4   4 14899.0 1327.96   9
   4   4  -4 13863.6 737.848   4
  -4   4   4 13588.8 783.490   6
   4   4  -3 140525. 3639.05   3
  -4   4   3 139927. 4687.82   5
  -4   4   3 139674. 3894.09  11
   4   4  -3 142115. 3138.35  10
  -4   4   3 141930. 4787.02   9
   4   4  -3 140002. 3497.77   4
   4   4  -3 135730. 3206.51   7
  -4   4   3 138722. 3628.99   6
  -4   4   2 316.842 265.469   6
   4   4  -2 704.819 277.499   3
  -4   4   2 1063.89 419.018  11
  -4   4   2 837.652 557.694   5
  -4   4   2 800.317 789.228   9
   4   4  -2 726.227 233.520   4
   4   4  -2 704.350 113.221   7
   4   4  -1 211160. 5025.57   3
  -4   4   1 199397. 5651.26   5
  -4   4   1 206020. 4858.39  10
  -4   4   1 215647. 6935.15   9
   4   4  -1 208512. 4888.84   4
  -4   4   1 205071. 5337.87  11
   4   4  -1 207002. 4580.92   7
  -4   4   1 212155. 5067.52   6
   4   4   0 27575.7 1063.22   3
  -4   4   0 27110.4 1364.10   5
  -4   4   0 26678.4 1285.64  11
  -4   4   0 26241.8 944.557  10
   4   4   0 26671.6 781.470   1
   4   4   0 26124.1 966.173   4
  -4   4   0 27206.7 1016.22   7
   4   4   0 26222.9 763.829   7
  -4   4   0 26342.9 1096.60   6
   4   4   1 147330. 3702.22   3
  -4   4  -1 145147. 4007.28   5
  -4   4  -1 141678. 4030.50  11
  -4   4  -1 146386. 3557.30  10
  -4   4  -1 153005. 5455.05   9
   4   4   1 147735. 3526.94   1
  -4   4  -1 145638. 3642.93   7
  -4   4  -1 146951. 3787.53   6
  -4   4  -2 5147.18 517.900   5
  -4   4  -2 3296.62 522.049  11
   4   4   2 4862.49 443.543   3
  -4   4  -2 4297.97 373.351  10
  -4   4  -2 3956.94 976.876   9
   4   4   2 4457.09 442.295   1
  -4   4  -2 4096.79 415.188   7
   4   4   3 140125. 3611.46   3
  -4   4  -3 138203. 3473.33  10
  -4   4  -3 133925. 3935.34  11
  -4   4  -3 137430. 4786.30   9
   4   4   3 143651. 3849.92   1
  -4   4  -3 141681. 3581.81   7
   4   4   4 22952.2 1018.59   3
   4   4   4 22843.2 1061.03   5
  -4   4  -4 19933.1 1194.75  11
  -4   4  -4 21908.2 925.203  10
  -4   4  -4 20630.5 1552.22   9
   4   4   4 22500.4 1006.30   8
   4   4   4 23371.6 1300.28   1
  -4   4  -4 22577.2 1006.45   7
   4   4   5 70383.3 2167.15   3
   4   4   5 70069.2 2186.75   5
  -4   4  -5 64938.8 2434.95  11
  -4   4  -5 69038.2 2073.33  10
  -4   4  -5 65083.1 2807.08   9
   4   4   5 72808.5 2250.61   8
   4   4   5 75443.9 2778.17   1
  -4   4  -5 66334.4 2147.03   7
   4   4   6 6698.93 928.029   1
   4   4   6 5250.19 530.420   5
   4   4   6 4815.90 518.472   3
  -4   4  -6 5079.00 516.447  10
  -4   4  -6 5635.85 810.365   9
   4   4   6 5029.47 594.758   8
  -4   4  -6 5295.20 580.515   7
  -4   4  -6 5330.43 698.965  11
   4   4   7 41635.8 1567.89   5
  -4   4  -7 41150.0 1596.65  10
  -4   4  -7 42097.6 2020.09   9
   4   4   7 42297.1 1816.81   8
   4   4   7 46446.2 2255.92   1
  -4   4  -7 40171.6 1680.27   7
  -4   4  -7 42811.0 1958.74  11
   4   4   8 9400.96 1031.52   1
   4   4   8 8627.68 655.927   5
  -4   4  -8 9246.42 927.235  11
  -4   4  -8 9009.64 765.333  10
  -4   4  -8 8921.27 900.187   9
   4   4   8 8205.50 867.166   8
  -4   4  -8 8626.89 824.349   7
   4   4   9 19261.8 996.894   5
  -4   4  -9 21011.8 1237.55  11
  -4   4  -9 17852.5 1144.94  10
   4   4   9 21165.6 1427.67   8
   4   4   9 22009.3 1476.14   1
  -4   4  -9 18299.6 1228.55   7
  -4   4 -10 4039.57 559.769  11
  -4   4 -10 3367.82 634.067  10
   4   4  10 4298.68 849.582   8
  -4   4 -10 3463.84 672.833   7
   4   4  10 4070.23 743.626   1
  -4   4 -11 5937.49 845.385  10
   4   4  11 5745.65 923.093   8
  -4   4 -11 6593.97 914.411   7
   4   4  11 7129.16 934.212   1
  -4   4 -12 1497.69 607.406  10
   4   4  12 1120.44 574.508   8
  -4   4 -12 1009.58 657.273   7
  -4   4 -13 3433.63 836.007  10
   4   4  13 2426.70 767.372   8
  -4   4 -13 2324.96 826.906   7
   4   4  13 2807.14 657.837   1
  -4   4 -14-92.3263 680.368  10
   4   4  14 564.784 556.071   8
   4   4  14 1422.36 578.887   1
  -4   4 -14 855.308 668.468   7
  -4   5  15 1563.35 560.080   5
   4   5 -15 996.821 519.348  10
  -4   5  14 5245.61 936.104   6
   4   5 -14 5588.07 1176.99   3
  -4   5  14 6596.99 856.206   5
   4   5 -14 6433.63 882.803  10
   4   5 -14 6991.95 1291.52   4
  -4   5  13 7950.94 980.042   6
   4   5 -13 6580.37 1114.19   3
  -4   5  13 8391.47 987.835   5
   4   5 -13 7078.22 899.099  10
   4   5 -13 6207.44 1159.13   4
  -4   5  12 12326.0 1097.82   6
   4   5 -12 12791.4 1386.87   3
  -4   5  12 13773.7 1221.98   5
   4   5 -12 13295.1 1149.91  10
   4   5 -12 10943.0 1223.49   4
  -4   5  11 2367.25 584.867   6
   4   5 -11 3123.31 822.321   3
  -4   5  11 3372.85 744.974   5
   4   5 -11 1509.32 567.363  10
   4   5 -11 1903.41 609.412   4
  -4   5  10 15939.3 1097.48   6
  -4   5  10 18028.5 1366.18   5
   4   5 -10 14946.1 1255.17  10
   4   5 -10 15165.6 1239.35   4
   4   5 -10 17019.7 1392.19   3
  -4   5   9 8732.77 790.531   6
  -4   5   9 10463.2 1100.41   5
   4   5  -9 8678.52 892.631  10
   4   5  -9 9812.44 930.464   4
   4   5  -9 11999.4 1100.56   3
  -4   5   8 23818.2 1597.12   5
   4   5  -8 24978.3 1303.29  10
   4   5  -8 24117.5 1303.02   4
   4   5  -8 24469.1 1418.56   3
  -4   5   8 23053.1 1218.20   6
  -4   5   7 1405.43 401.878   6
  -4   5   7 1554.64 624.461   5
   4   5  -7 711.703 393.894   3
   4   5  -7 1985.25 393.592  10
  -4   5   7 1427.48 538.193   9
   4   5  -7 2343.05 473.596   4
  -4   5   6 30226.2 1823.97   5
   4   5  -6 27259.9 1101.09  10
   4   5  -6 27272.0 1219.57   4
  -4   5   6 29100.5 1703.07   9
   4   5  -6 28071.8 1346.56   3
  -4   5   6 26053.2 1206.98   6
   4   5  -5 9676.53 523.754  10
  -4   5   5 7850.98 1035.84   5
   4   5  -5 9374.37 642.633   4
  -4   5   5 9325.95 1037.56   9
  -4   5   5 9252.79 680.237   6
   4   5  -5 10837.7 784.911   3
   4   5  -4 22462.2 1091.04   3
  -4   5   4 24837.8 1831.32   5
   4   5  -4 23674.9 746.496  10
  -4   5   4 22629.7 1624.83   9
   4   5  -4 22341.1 971.783   4
   4   5  -4 22710.5 745.332   7
  -4   5   4 22148.4 1045.48   6
  -4   5   3 1730.07 353.156   6
   4   5  -3 2724.49 419.492   3
  -4   5   3 1276.39 730.198   5
  -4   5   3 3166.45 902.060   9
   4   5  -3 2186.85 172.212   7
   4   5  -3 2372.78 340.050   4
   4   5  -3 2201.18 139.855  10
   4   5  -2 11639.2 705.695   3
  -4   5   2 11151.6 1172.49   5
  -4   5   2 10125.2 1339.25   9
   4   5  -2 10697.5 589.999   4
   4   5  -2 10923.6 366.060   7
  -4   5   2 11111.9 703.240   6
   4   5  -1 23857.3 1007.28   3
  -4   5   1 23120.8 1480.10   5
  -4   5   1 22900.0 1222.69  11
  -4   5   1 23015.2 910.052  10
  -4   5   1 24784.1 2087.40   9
   4   5  -1 22744.4 891.298   4
   4   5  -1 21825.7 600.834   7
  -4   5   1 22743.4 1032.05   6
   4   5   0 6683.20 517.507   3
  -4   5   0 5647.11 640.189  11
  -4   5   0 6433.79 760.574   5
  -4   5   0 6229.28 446.775  10
  -4   5   0 7115.35 1466.87   9
   4   5   0 6133.62 439.119   4
  -4   5   0 6370.66 481.999   7
  -4   5   0 5687.57 534.787   6
   4   5   1 19253.2 881.796   3
  -4   5  -1 17023.4 1055.05   5
  -4   5  -1 18284.8 1095.26  11
  -4   5  -1 18806.0 801.289  10
   4   5   1 18149.7 687.910   1
  -4   5  -1 18834.3 1789.07   9
   4   5   1 17506.4 777.895   4
  -4   5  -1 18402.0 840.242   7
  -4   5  -2 1637.21 448.474  11
   4   5   2 1967.90 341.178   3
  -4   5  -2 814.768 327.581   5
  -4   5  -2 2201.94 309.600  10
  -4   5  -2 1888.05 837.382   9
   4   5   2 1999.86 293.650   1
  -4   5  -2 2101.81 330.043   7
   4   5   3 46378.8 1583.17   3
   4   5   3 46718.3 1742.79   5
  -4   5  -3 46936.1 1628.63   5
  -4   5  -3 45622.6 1886.04  11
  -4   5  -3 46044.6 1508.31  10
  -4   5  -3 45728.0 2509.33   9
   4   5   3 49494.8 1662.61   1
  -4   5  -3 47278.9 1589.35   7
   4   5   4 4133.15 518.673   5
  -4   5  -4 4743.72 618.252  11
   4   5   4 4570.73 477.845   3
  -4   5  -4 4335.00 427.093  10
  -4   5  -4 4989.25 921.588   9
   4   5   4 5425.39 599.639   1
  -4   5  -4 3544.06 451.978   7
   4   5   5 24191.9 1093.55   3
   4   5   5 26195.1 1204.53   5
  -4   5  -5 24892.0 1072.65  10
  -4   5  -5 23872.8 1638.08   9
  -4   5  -5 22842.7 1342.98  11
   4   5   5 23715.3 1339.30   1
  -4   5  -5 25851.6 1161.14   7
   4   5   6 241.836 283.645   3
  -4   5  -6-189.133 293.060  10
  -4   5  -6-218.917 520.998   9
  -4   5  -6 115.853 399.253  11
   4   5   6 274.452 377.025   8
   4   5   6 221.044 294.928   5
   4   5   6 836.545 491.679   1
  -4   5  -6 895.447 404.205   7
   4   5   7 44468.3 1704.45   3
   4   5   7 46761.1 1743.29   5
  -4   5  -7 49084.3 2117.79  11
  -4   5  -7 43227.8 1693.89  10
  -4   5  -7 42177.1 2124.77   9
   4   5   7 43960.6 1872.85   8
   4   5   7 49262.5 2357.90   1
  -4   5  -7 44496.3 1793.78   7
  -4   5  -8 6480.07 762.561  11
   4   5   8 4856.02 593.780   3
  -4   5  -8 6810.79 705.924  10
   4   5   8 5543.89 575.604   5
   4   5   8 6620.62 772.523   8
  -4   5  -8 7099.50 762.577   7
   4   5   8 4705.57 930.706   1
   4   5   9 18246.9 1036.80   5
  -4   5  -9 20777.4 1192.72  11
  -4   5  -9 19834.4 1208.61  10
   4   5   9 19348.3 1343.86   8
   4   5   9 21223.4 1550.31   1
  -4   5  -9 18250.0 1236.89   7
  -4   5 -10 1644.78 558.086  10
   4   5  10 824.551 512.704   8
   4   5  10 329.957 535.297   1
  -4   5 -10 866.473 511.448   7
  -4   5 -11 24371.2 1555.03  10
   4   5  11 26312.4 1793.97   8
   4   5  11 27724.4 1715.58   1
  -4   5 -11 25318.3 1693.38   7
  -4   5 -12 4416.68 818.864  10
   4   5  12 5475.55 996.484   8
   4   5  12 5329.77 830.461   1
  -4   5 -12 4742.05 915.458   7
  -4   5 -13 9309.82 1180.12  10
   4   5  13 7522.66 1117.84   8
   4   5  13 9961.88 1078.74   1
  -4   5 -13 9414.43 1180.76   7
  -4   5 -14 188.132 603.925  10
  -4   6  15 4372.17 790.281   5
   4   6 -15 2946.26 685.829  10
   4   6 -14 2895.79 1138.96   3
  -4   6  14 1922.87 598.427   5
   4   6 -14 896.133 560.893  10
  -4   6  13 12223.7 1144.46   6
   4   6 -13 12067.3 1450.40   3
  -4   6  13 12646.4 1158.17   5
   4   6 -13 11539.7 1126.37  10
   4   6 -13 13068.6 1563.58   4
  -4   6  12 9080.65 955.153   6
   4   6 -12 10630.8 1318.31   3
  -4   6  12 10724.1 1106.59   5
   4   6 -12 8634.19 1049.91  10
   4   6 -12 7846.28 1177.51   4
   4   6 -11 10217.6 1229.38   3
   4   6 -11 11344.3 1111.12  10
  -4   6  11 10303.8 1098.48   5
   4   6 -11 8627.44 1120.01   4
  -4   6  11 9198.07 900.662   6
  -4   6  10 6093.00 730.691   6
   4   6 -10 7701.27 1012.40   3
  -4   6  10 5776.05 904.376   5
   4   6 -10 6569.20 846.016  10
   4   6 -10 4044.83 759.530   4
  -4   6   9 23854.1 1623.84   5
   4   6  -9 23464.6 1300.91  10
   4   6  -9 22647.9 1410.72   4
   4   6  -9 25468.4 1624.63   3
  -4   6   9 23144.5 1257.38   6
  -4   6   8 28077.1 1794.07   5
   4   6  -8 29661.0 1336.03  10
   4   6  -8 29120.8 1493.41   4
   4   6  -8 30598.0 1675.00   3
  -4   6   8 27550.6 1338.56   6
  -4   6   7 16699.2 1409.45   5
   4   6  -7 18113.1 913.010  10
   4   6  -7 19420.8 1107.48   4
   4   6  -7 17199.8 1180.43   3
  -4   6   7 17693.5 999.815   6
   4   6  -6 10381.8 591.890  10
  -4   6   6 8942.63 1094.86   5
   4   6  -6 10814.5 760.968   4
   4   6  -6 10729.5 876.217   3
  -4   6   6 10473.1 741.324   6
  -4   6   5 29903.6 1920.85   5
   4   6  -5 31012.0 989.747  10
  -4   6   5 28006.7 1845.09   9
   4   6  -5 26925.2 1195.27   4
  -4   6   5 30123.0 1278.89   6
   4   6  -5 31317.0 1403.65   3
  -4   6   4 52871.9 2724.41   5
   4   6  -4 55765.0 1404.85  10
  -4   6   4 50595.1 2648.28   9
   4   6  -4 54291.8 1747.13   4
  -4   6   4 52987.6 1831.37   6
   4   6  -4 52358.8 1914.43   3
   4   6  -3 19878.5 1002.29   3
  -4   6   3 21001.5 1873.54   5
   4   6  -3 18640.4 525.130  10
  -4   6   3 17307.1 1588.01   9
   4   6  -3 18817.7 846.302   4
   4   6  -3 18677.0 534.975   7
  -4   6   3 18060.3 939.281   6
   4   6  -2 16136.9 875.680   3
  -4   6   2 15836.8 1513.14   5
  -4   6   2 15849.6 783.972  10
  -4   6   2 15423.6 1624.83   9
   4   6  -2 15449.8 733.598   4
  -4   6   2 15684.1 865.078   6
   4   6  -1 30041.5 1206.68   3
  -4   6   1 26298.6 1738.54   5
  -4   6   1 29333.0 1105.35  10
  -4   6   1 29057.3 2259.23   9
   4   6  -1 28705.5 1050.76   4
  -4   6   1 29249.0 1229.79   6
   4   6   0 44264.5 1540.39   3
  -4   6   0 46521.6 2125.44   5
  -4   6   0 44372.4 1456.95  10
  -4   6   0 48172.9 3126.64   9
   4   6   0 45465.2 1417.88   4
  -4   6   0 43805.9 1485.99   7
   4   6   1 17843.9 867.634   3
  -4   6  -1 17518.8 1154.55   5
  -4   6  -1 17292.6 812.847  10
  -4   6  -1 18702.3 1921.66   9
   4   6   1 17960.1 782.666   4
  -4   6  -1 16908.6 1101.55  11
  -4   6  -1 17915.0 856.245   7
   4   6   2 11709.1 701.395   3
   4   6   2 12056.3 876.049   5
  -4   6  -2 11871.5 862.375   5
  -4   6  -2 11307.1 927.417  11
  -4   6  -2 11790.0 663.048  10
   4   6   2 12469.7 624.520   1
  -4   6  -2 13394.6 1525.44   9
  -4   6  -2 11734.3 702.572   7
   4   6   3 20861.3 964.499   3
   4   6   3 20726.4 1137.10   5
  -4   6  -3 20785.7 1045.44   5
  -4   6  -3 19796.6 1219.08  11
  -4   6  -3 22447.4 963.817  10
   4   6   3 21405.5 955.925   1
  -4   6  -3 19522.2 1669.65   9
  -4   6  -3 19145.4 956.088   7
   4   6   4 21820.4 1004.86   3
   4   6   4 21087.2 1147.05   5
  -4   6  -4 23180.4 1002.69   5
   4   6   4 21913.5 1089.00   1
  -4   6  -4 20101.8 1650.92   9
  -4   6  -4 22715.1 1325.26  11
  -4   6  -4 21633.2 996.124  10
  -4   6  -4 20805.0 1029.88   7
   4   6   5 17969.4 922.815   3
   4   6   5 16657.9 1017.20   5
  -4   6  -5 15477.5 1120.86  11
  -4   6  -5 15842.1 871.124  10
   4   6   5 16353.2 1044.93   1
  -4   6  -5 16773.8 941.100   7
   4   6   6 9081.03 683.215   3
   4   6   6 10282.7 812.143   5
  -4   6  -6 8904.26 902.811  11
  -4   6  -6 8103.93 672.412  10
   4   6   6 9080.54 877.361   1
  -4   6  -6 8794.70 740.256   7
   4   6   7 14453.2 897.988   3
   4   6   7 14472.7 952.441   5
  -4   6  -7 15804.1 1210.12  11
  -4   6  -7 12878.1 887.569  10
   4   6   7 14613.9 1195.61   1
  -4   6  -7 15230.8 1004.82   7
   4   6   8 7442.38 692.606   3
   4   6   8 7719.17 726.064   5
  -4   6  -8 8839.36 836.306  11
  -4   6  -8 7698.86 745.987  10
   4   6   8 9437.09 911.113   8
   4   6   8 8814.07 1072.57   1
  -4   6  -8 8242.18 816.110   7
   4   6   9 9556.25 809.698   3
   4   6   9 11194.2 847.279   5
  -4   6  -9 11322.7 954.171  10
  -4   6  -9 11778.5 884.540  11
   4   6   9 10582.6 1017.77   8
  -4   6  -9 9926.51 946.635   7
   4   6  10 5519.05 664.035   3
  -4   6 -10 6672.48 850.683  10
   4   6  10 4701.24 843.678   1
  -4   6 -10 4950.60 765.239   7
   4   6  11 4565.24 670.367   3
  -4   6 -11 4683.44 781.221  10
   4   6  11 4146.91 820.149   8
   4   6  11 3837.99 798.940   1
  -4   6 -11 5092.93 876.187   7
  -4   6 -12 2416.63 678.655  10
   4   6  12 156.786 664.590   8
   4   6  12 1402.60 601.945   1
  -4   6 -12 1308.20 715.780   7
  -4   6 -13 4135.37 847.597  10
   4   6  13 4209.56 982.522   8
   4   6  13 4386.84 851.682   1
  -4   6 -13 4725.69 959.620   7
  -4   7  14 4437.05 864.609   5
   4   7 -14 2435.97 832.227   4
   4   7 -13 2036.32 872.981   3
  -4   7  13 3798.79 780.750   5
   4   7 -13 2826.85 732.314  10
   4   7 -13 2561.50 948.409   4
   4   7 -12 7938.64 1256.11   3
  -4   7  12 8425.26 1029.02   5
   4   7 -12 8086.06 1013.08  10
   4   7 -12 6480.40 1127.33   4
  -4   7  11 1779.42 486.622   6
   4   7 -11 1879.93 760.385   3
  -4   7  11 1458.63 678.356   5
   4   7 -11 1869.84 559.208  10
   4   7 -11 367.678 643.637   4
   4   7 -10 9641.52 1116.98   3
  -4   7  10 7980.02 1026.75   5
   4   7 -10 7908.18 827.016  10
   4   7 -10 8101.39 997.003   4
  -4   7  10 8986.55 837.079   6
   4   7  -9 9871.22 1116.00   3
   4   7  -9 8288.44 730.963  10
  -4   7   9 8776.35 1097.88   5
   4   7  -9 9128.29 948.040   4
  -4   7   9 8807.02 782.636   6
   4   7  -8 8649.77 668.723  10
  -4   7   8 8321.99 1071.16   5
   4   7  -8 8183.26 834.123   4
   4   7  -8 10724.4 1067.01   3
  -4   7   8 8824.43 763.038   6
  -4   7   7 4763.67 577.966   6
   4   7  -7 4235.09 725.896   3
  -4   7   7 4035.79 863.581   5
   4   7  -7 3709.96 416.780  10
   4   7  -7 3807.14 568.355   4
  -4   7   6 6051.62 589.944   6
  -4   7   6 6774.90 1024.08   5
   4   7  -6 6747.77 457.928  10
   4   7  -6 7810.66 680.877   4
   4   7  -6 6205.52 730.345   3
  -4   7   5 16280.7 1493.56   5
   4   7  -5 17539.3 675.294  10
   4   7  -5 18089.1 941.815   4
  -4   7   5 15912.6 935.108   6
   4   7  -5 16554.0 1072.55   3
  -4   7   4 2160.77 418.290   6
   4   7  -4 2828.16 501.751   3
  -4   7   4 2174.68 804.967   5
   4   7  -4 2284.16 199.730  10
   4   7  -4 2244.58 379.149   4
   4   7  -4 1999.31 194.468   7
   4   7  -3 7203.94 659.305   3
  -4   7   3 5736.68 577.245   6
  -4   7   3 6369.44 1130.55   5
   4   7  -3 6212.29 259.813  10
   4   7  -3 6595.12 506.303   4
  -4   7   2 1950.08 393.909   6
  -4   7   2 2558.77 928.792   5
  -4   7   2 1503.69 333.873  10
   4   7  -2 2083.98 413.059   3
   4   7  -2 2228.81 325.662   4
   4   7  -1 23340.4 1063.96   3
  -4   7   1 21174.9 1685.33   5
  -4   7   1 20366.1 943.443  10
   4   7  -1 21257.3 879.774   4
   4   7   0 4140.25 457.697   3
  -4   7   0 3941.33 800.844   5
  -4   7   0 4659.63 450.215  10
   4   7   0 4230.59 383.901   4
  -4   7   0 4085.86 462.566   7
   4   7   1 6904.57 559.270   3
  -4   7  -1 5922.25 758.426   5
  -4   7  -1 6367.74 521.403  10
   4   7   1 7457.79 495.780   4
  -4   7  -1 6804.93 561.728   7
   4   7   1 7950.96 774.479   5
   4   7   2 3615.45 577.083   5
   4   7   2 3613.43 428.454   3
  -4   7  -2 3141.93 550.891   5
  -4   7  -2 3179.28 408.321  10
  -4   7  -2 3233.48 412.341   7
   4   7   3 26081.6 1132.42   3
   4   7   3 26249.2 1362.91   5
  -4   7  -3 26352.7 1282.40   5
  -4   7  -3 25946.7 1119.00  10
   4   7   3 26895.3 1083.63   1
  -4   7  -3 26363.7 1164.54   7
   4   7   4 12469.1 764.689   3
   4   7   4 12849.0 957.800   5
  -4   7  -4 12475.2 777.987   5
  -4   7  -4 12028.2 768.382  10
   4   7   4 13236.3 800.519   1
  -4   7  -4 11701.8 780.323   7
   4   7   5 11139.0 727.618   3
   4   7   5 10741.1 894.126   5
  -4   7  -5 10862.7 638.469   5
  -4   7  -5 10163.6 734.340  10
   4   7   5 10898.2 826.869   1
  -4   7  -5 10136.5 757.523   7
   4   7   6 8193.51 655.829   3
   4   7   6 8057.78 785.665   5
  -4   7  -6 6613.49 637.876  10
   4   7   6 7444.78 788.245   1
  -4   7  -6 8699.58 744.345   7
   4   7   7 22557.0 1134.39   3
   4   7   7 25491.9 1344.18   5
  -4   7  -7 20776.5 1176.19  10
   4   7   7 24150.0 1469.84   1
  -4   7  -7 25739.8 1327.42   7
   4   7   8 17797.1 1011.05   3
   4   7   8 16201.4 1069.88   5
  -4   7  -8 15263.5 1045.08  10
   4   7   8 16485.8 1317.55   1
  -4   7  -8 16989.7 1132.36   7
   4   7   9 8577.62 751.868   3
   4   7   9 8984.05 814.857   5
  -4   7  -9 7005.64 800.200  10
   4   7   9 9142.71 1105.54   1
  -4   7  -9 9217.63 924.771   7
   4   7  10 8071.68 770.909   3
  -4   7 -10 7586.07 896.093  10
   4   7  10 8992.68 1216.00   1
  -4   7 -10 7180.61 926.175   7
  -4   7 -11 18149.8 1370.93  10
   4   7  11 17713.5 1551.56   1
  -4   7 -11 17821.6 1420.88   7
  -4   7 -12 10642.4 1181.05  10
   4   7  12 9597.08 1193.52   8
   4   7  12 10029.8 1206.93   1
  -4   7 -12 8290.85 1118.19   7
  -4   7 -13 4929.58 923.268  10
   4   7  13 5200.15 989.916   8
   4   7  13 7400.43 1024.22   1
  -4   8  13 7368.45 995.805   5
   4   8 -13 7495.24 1274.67   4
   4   8 -12 6093.68 1106.98   3
  -4   8  12 6800.64 1003.98   5
   4   8 -12 5585.93 1055.27   4
   4   8 -11 5873.08 1017.84   3
  -4   8  11 8782.79 1091.15   5
   4   8 -11 6522.57 1120.90   4
  -4   8  10 3883.52 612.209   6
   4   8 -10 4058.83 917.058   3
  -4   8  10 4225.73 903.230   5
   4   8 -10 2251.71 754.242   4
  -4   8   9 16900.1 1460.35   5
   4   8  -9 18001.9 1021.84  10
   4   8  -9 14474.3 1243.38   4
   4   8  -9 18469.9 1500.32   3
  -4   8   9 17478.2 1107.55   6
  -4   8   8 15062.2 1413.63   5
   4   8  -8 13386.5 814.317  10
   4   8  -8 15052.0 1134.99   4
   4   8  -8 15134.9 1301.44   3
  -4   8   8 13321.8 934.416   6
  -4   8   7 18715.4 1566.20   5
   4   8  -7 19879.2 1201.75   4
   4   8  -7 18867.8 884.961  10
   4   8  -7 22520.9 1476.47   3
  -4   8   7 19679.8 1103.15   6
   4   8  -6 7880.14 871.143   3
  -4   8   6 9762.03 1216.97   5
   4   8  -6 10152.0 559.155  10
   4   8  -6 11798.7 859.958   4
  -4   8   6 9774.89 758.403   6
  -4   8   5 37373.0 2301.56   5
   4   8  -5 41752.5 1592.31   4
  -4   8   5 41997.8 1639.81   6
   4   8  -5 39838.9 1805.86   3
  -4   8   4 28463.1 2049.88   5
   4   8  -4 27585.7 1169.00   4
  -4   8   4 28348.5 1274.72   6
   4   8  -4 24547.6 1327.97   3
  -4   8   3 37946.5 2495.01   5
   4   8  -3 39682.4 1411.71   4
  -4   8   3 40773.8 1598.12   6
   4   8  -3 39039.4 1650.61   3
   4   8  -2 21343.7 1098.59   3
  -4   8   2 23077.3 2181.24   5
  -4   8   2 18646.4 958.324  10
   4   8  -2 20487.1 896.429   4
   4   8  -1 64279.1 2110.92   3
   4   8  -1 60769.7 2456.40   5
  -4   8   1 63936.5 3242.78   5
  -4   8   1 60810.0 1961.68  10
   4   8  -1 62957.2 1858.19   4
   4   8   0 31650.1 1320.16   3
   4   8   0 32854.2 1658.69   5
  -4   8   0 33927.0 2089.58   5
  -4   8   0 29034.9 1209.77  10
   4   8   0 31458.9 1127.92   4
  -4   8   0 31656.7 1261.61   7
   4   8   1 53804.9 1800.65   3
   4   8   1 54124.2 2191.00   5
  -4   8  -1 51044.1 2406.45   5
  -4   8  -1 51390.8 1729.26  10
   4   8   1 51874.0 1601.25   4
  -4   8  -1 49578.2 1735.54   7
   4   8   2 19335.1 953.440   3
   4   8   2 18385.4 1205.07   5
  -4   8  -2 16010.2 1187.28   5
  -4   8  -2 18629.5 927.793  10
   4   8   2 18236.6 818.197   4
  -4   8  -2 17423.2 927.068   7
   4   8   3 51874.0 1769.85   3
   4   8   3 50092.7 2119.03   5
  -4   8  -3 53012.4 2076.84   5
  -4   8  -3 52256.0 1791.13  10
  -4   8  -3 50846.1 1798.97   7
   4   8   4 17689.0 931.948   3
   4   8   4 19140.6 1234.25   5
  -4   8  -4 18198.0 1018.12   5
  -4   8  -4 18653.3 995.611  10
   4   8   4 19032.6 974.350   1
  -4   8  -4 19061.5 1020.49   7
   4   8   5 39317.7 1495.80   3
   4   8   5 39814.4 1819.01   5
  -4   8  -5 37102.9 1406.15   5
  -4   8  -5 38146.2 1552.04  10
   4   8   5 37965.2 1583.85   1
  -4   8  -5 37234.1 1564.42   7
   4   8   6 10411.2 733.455   3
   4   8   6 9991.58 909.989   5
  -4   8  -6 9018.06 764.880  10
   4   8   6 9821.83 851.359   1
  -4   8  -6 8360.59 773.535   7
   4   8   7 21870.4 1108.00   3
   4   8   7 21286.5 1289.31   5
  -4   8  -7 20683.3 1187.05  10
   4   8   7 22250.6 1392.02   1
  -4   8  -7 22404.9 1257.44   7
   4   8   8 6716.63 653.056   3
   4   8   8 4719.06 664.658   5
  -4   8  -8 6048.87 698.844  10
   4   8   8 6581.58 890.839   1
  -4   8  -8 6102.04 749.543   7
   4   8   9 14887.7 965.070   3
   4   8   9 13945.7 1065.26   5
  -4   8  -9 11785.2 1020.86  10
   4   8   9 13339.3 1286.46   1
  -4   8  -9 12875.4 1077.78   7
  -4   8 -10 3010.41 637.486  10
   4   8  10 4687.62 926.145   1
   4   8  10 3497.89 562.690   5
  -4   8 -10 4115.67 766.286   7
  -4   8 -11 2659.08 688.845  10
   4   8  11 5272.53 1111.26   1
  -4   8 -11 4091.88 785.332   7
  -4   8 -12 1821.61 688.103  10
   4   8  12 1883.68 810.882   1
  -4   8 -12 1086.23 666.399   7
   4   9 -13 3483.89 977.131   4
   4   9 -12 8190.93 1289.42   3
  -4   9  12 6279.73 972.434   5
   4   9 -12 5224.37 1095.23   4
   4   9 -11 2101.94 773.884   3
  -4   9  11 2555.94 801.554   5
   4   9 -11 1039.59 658.366   4
   4   9 -10 10198.2 1329.52   3
  -4   9  10 8787.62 1145.25   5
   4   9 -10 7537.56 1095.27   4
  -4   9   9 5937.80 699.406   6
   4   9  -9 6180.98 1030.45   3
  -4   9   9 7337.69 1083.16   5
   4   9  -9 5912.19 888.028   4
  -4   9   8 15898.8 1492.18   5
   4   9  -8 14471.3 1175.31   4
   4   9  -8 16829.4 1456.58   3
  -4   9   8 15952.9 1046.38   6
  -4   9   7 1106.08 411.732   6
   4   9  -7 2066.27 665.199   3
  -4   9   7 2157.95 819.737   5
   4   9  -7 1439.41 486.691   4
  -4   9   6 11392.9 1297.66   5
   4   9  -6 12962.2 923.085   4
   4   9  -6 12608.4 1123.60   3
  -4   9   6 12390.4 880.989   6
  -4   9   5 5846.70 630.970   6
  -4   9   5 5287.54 1049.20   5
   4   9  -5 6799.43 641.997   4
   4   9  -5 5768.77 769.427   3
  -4   9   4 15912.6 1638.75   5
   4   9  -4 16043.4 884.419   4
  -4   9   4 15723.5 992.507   6
   4   9  -4 15063.2 1090.37   3
   4   9  -3 725.480 388.158   3
  -4   9   3 460.766 686.245   5
   4   9  -3 807.456 274.909   4
   4   9  -3 781.803 615.415   5
  -4   9   2 7552.62 1430.41   5
  -4   9   2 7391.07 623.999  10
   4   9  -2 8558.39 577.610   4
   4   9  -2 7125.30 899.174   5
   4   9  -2 8234.88 741.020   3
   4   9  -1 4950.14 593.752   3
   4   9  -1 4610.32 737.598   5
  -4   9   1 5057.33 1158.20   5
  -4   9   1 5412.31 533.792  10
   4   9  -1 5977.90 479.317   4
   4   9   0 9985.29 759.045   3
   4   9   0 9850.60 998.372   5
  -4   9   0 11896.3 1424.54   5
  -4   9   0 9748.76 681.531  10
   4   9   0 11244.0 615.718   4
  -4   9   0 9693.21 694.970   7
   4   9   1 458.162 488.909   5
  -4   9  -1 1421.77 698.497   5
  -4   9  -1 729.029 299.075  10
   4   9   1 532.164 231.259   4
  -4   9  -1 610.089 309.716   7
   4   9   1 446.619 330.182   3
   4   9   2 6819.92 591.340   3
   4   9   2 6210.21 829.906   5
  -4   9  -2 6233.42 854.146   5
  -4   9  -2 6811.87 608.543  10
   4   9   2 6578.15 486.236   4
  -4   9  -2 6286.20 600.127   7
   4   9   3 7790.81 631.110   3
   4   9   3 8430.08 905.381   5
  -4   9  -3 7938.99 835.675   5
  -4   9  -3 6863.63 630.814  10
   4   9   3 8200.61 561.055   4
  -4   9  -3 7800.69 667.323   7
   4   9   4 15121.5 874.105   3
   4   9   4 15929.2 1211.91   5
  -4   9  -4 16126.6 1031.31   5
  -4   9  -4 14461.1 915.255  10
  -4   9  -4 15758.3 963.833   7
   4   9   5 4147.30 708.316   5
   4   9   5 3551.13 474.499   3
  -4   9  -5 3845.11 538.950  10
  -4   9  -5 2031.76 458.843   7
   4   9   6 7718.57 649.437   3
   4   9   6 8484.53 911.197   5
  -4   9  -6 8891.28 768.115  10
   4   9   6 8685.88 803.110   1
  -4   9  -6 9239.98 818.863   7
   4   9   7 10150.5 748.214   3
   4   9   7 9083.79 910.798   5
  -4   9  -7 10266.7 870.880  10
   4   9   7 10470.1 945.672   1
  -4   9  -7 9862.30 864.728   7
   4   9   8 9041.33 917.750   5
   4   9   8 12039.3 1121.96   1
  -4   9  -8 10679.6 954.612  10
  -4   9  -8 11247.0 984.368   7
   4   9   9 6170.53 824.171   5
  -4   9  -9 6568.39 808.040  10
   4   9   9 4414.30 827.980   1
  -4   9  -9 6332.61 819.339   7
   4   9  10 6109.39 801.632   5
  -4   9 -10 5326.01 789.597  10
   4   9  10 5709.01 991.991   1
  -4   9 -10 8003.96 948.638   7
  -4   9 -11 7220.56 932.675  10
   4   9  11 7514.15 1149.59   1
  -4   9 -11 7474.44 960.397   7
   4   9  12 6038.19 1132.30   1
   4  10 -12 7320.19 1218.08   4
   4  10 -11 3665.58 812.354   5
   4  10 -11 2870.75 1020.79   3
  -4  10  11 3524.40 878.620   5
   4  10 -11 1261.95 785.356   4
   4  10 -10 8872.70 1238.63   3
   4  10 -10 9710.34 1205.32   5
  -4  10  10 9904.83 1266.95   5
   4  10 -10 11004.2 1368.90   4
   4  10  -9 7419.44 1127.62   3
  -4  10   9 7281.93 1156.84   5
   4  10  -9 3846.72 777.774   4
   4  10  -9 5590.82 1112.58   5
   4  10  -8 26843.6 2028.38   5
  -4  10   8 27289.6 1972.23   5
   4  10  -8 26106.3 1671.97   4
   4  10  -8 29484.0 2001.33   3
  -4  10   7 3362.75 541.633   6
   4  10  -7 3333.28 911.128   5
   4  10  -7 6138.56 981.125   3
  -4  10   7 4370.78 983.905   5
   4  10  -7 3581.35 649.157   4
   4  10  -6 28117.3 1958.08   5
  -4  10   6 27814.2 2061.92   5
   4  10  -6 27218.3 1443.52   4
   4  10  -6 29247.7 1802.96   3
  -4  10   6 27685.5 1411.11   6
   4  10  -5 6134.15 862.243   3
   4  10  -5 3524.97 857.696   5
  -4  10   5 5301.27 1097.81   5
   4  10  -5 5663.44 645.317   4
   4  10  -4 48561.1 2465.56   5
   4  10  -4 49661.4 1778.30   4
   4  10  -4 46073.1 2102.09   3
   4  10  -3 6465.25 990.374   5
   4  10  -3 5548.32 708.284   3
  -4  10   3 4632.20 1156.33   5
   4  10  -3 4784.30 488.812   4
   4  10  -2 31480.8 1879.90   5
  -4  10   2 29685.6 2525.54   5
  -4  10   2 30937.1 1365.50  10
   4  10  -2 32531.7 1250.18   4
   4  10  -2 34005.4 1594.85   3
   4  10  -1 3653.40 534.787   3
   4  10  -1 4175.21 777.510   5
  -4  10   1 4889.87 1343.25   5
  -4  10   1 3504.08 486.708  10
   4  10  -1 3998.22 402.179   4
   4  10   0 40612.6 2087.41   5
  -4  10   0 41985.4 2793.02   5
  -4  10   0 39391.9 1563.94  10
   4  10   0 42087.6 1405.44   4
   4  10   0 41373.5 1694.39   3
   4  10   1 7635.92 683.476   3
   4  10   1 6796.63 889.693   5
  -4  10  -1 8133.42 1214.77   5
  -4  10  -1 6443.94 614.460  10
   4  10   1 7274.48 507.560   4
  -4  10  -1 6931.18 628.311   7
   4  10   2 21224.5 1095.72   3
   4  10   2 21004.9 1444.02   5
  -4  10  -2 19809.3 1538.14   5
  -4  10  -2 19340.5 1053.13  10
   4  10   2 19696.5 871.995   4
  -4  10  -2 19241.0 1041.03   7
   4  10   3 3405.81 688.640   5
  -4  10  -3 3698.68 679.697   5
  -4  10  -3 4333.27 545.619  10
   4  10   3 3482.97 379.561   4
  -4  10  -3 3204.25 497.201   7
   4  10   3 3734.31 478.702   3
   4  10   4 17212.8 958.856   3
   4  10   4 15211.9 1252.89   5
  -4  10  -4 16746.5 1141.62   5
  -4  10  -4 14755.8 967.082  10
   4  10   4 16530.3 828.812   4
  -4  10  -4 16362.6 1002.17   7
   4  10   5 6622.75 610.928   3
   4  10   5 7485.48 939.717   5
  -4  10  -5 6679.47 702.299  10
  -4  10  -5 6968.52 707.729   7
   4  10   6 7155.15 877.464   5
  -4  10  -6 8280.85 796.735  10
  -4  10  -6 7957.78 777.311   7
   4  10   7 3115.26 662.465   5
  -4  10  -7 3502.25 599.928  10
  -4  10  -7 2697.15 561.572   7
   4  10   8 3918.54 706.159   5
  -4  10  -8 3227.28 619.943  10
   4  10   8 3730.41 729.129   1
  -4  10  -8 2759.21 597.434   7
   4  10   9 5074.99 751.092   5
  -4  10  -9 4416.39 765.464  10
   4  10   9 4535.60 836.585   1
  -4  10  -9 4523.60 709.312   7
   4  10  10 3350.84 691.584   5
  -4  10 -10 1882.17 634.693  10
   4  10  10 3265.38 821.965   1
  -4  10 -10 3112.90 718.788   7
   4  10  11 1894.65 824.994   1
   4  11 -11 470.512 561.196   5
   4  11 -10 2025.30 855.355   3
   4  11 -10 3010.99 880.036   5
  -4  11  10 2294.96 787.349   5
   4  11  -9 3194.57 916.337   3
  -4  11   9 3897.52 915.087   5
   4  11  -9 3914.64 1081.01   5
   4  11  -8 1753.57 822.072   3
   4  11  -8 2724.84 978.510   5
  -4  11   8 1194.80 701.981   5
   4  11  -7 2172.21 748.357   3
   4  11  -7 2189.31 838.924   5
  -4  11   7 2997.44 929.093   5
   4  11  -6 1588.55 719.357   3
  -4  11   6 1026.30 771.241   5
   4  11  -6 897.925 482.159   4
   4  11  -6 776.406 617.257   5
   4  11  -5 7199.98 1013.90   3
   4  11  -5 8355.87 1151.64   5
  -4  11   5 6750.03 1257.34   5
   4  11  -5 6765.96 706.740   4
   4  11  -4 1699.99 639.295   3
   4  11  -4 398.182 693.654   5
  -4  11   4 1159.07 882.996   5
   4  11  -4 1408.71 422.930   4
   4  11  -3 3026.45 628.499   3
   4  11  -3 3953.73 853.325   5
  -4  11   3 4316.27 1174.59   5
   4  11  -3 3302.28 434.220   4
   4  11  -2 1651.46 499.462   3
   4  11  -2 2388.90 805.437   5
  -4  11   2 2451.73 1106.75   5
  -4  11   2 2921.48 511.946  10
   4  11  -2 2120.18 353.663   4
   4  11  -1 10272.0 1138.76   5
  -4  11   1 11062.4 1909.59   5
  -4  11   1 10506.0 792.058  10
   4  11  -1 11407.5 675.844   4
   4  11  -1 10742.9 916.382   3
   4  11   0 10095.8 1145.61   5
  -4  11   0 10120.0 1617.99   5
  -4  11   0 8894.04 730.293  10
   4  11   0 10856.1 632.648   4
   4  11   0 9389.18 826.163   3
  -4  11  -1 6001.64 1120.43   5
   4  11   1 7354.05 1007.99   5
  -4  11  -1 6821.20 668.214  10
   4  11   1 7904.22 533.820   4
  -4  11  -1 6026.54 618.563   7
   4  11   1 8329.92 748.555   3
   4  11   2 13713.1 922.557   3
   4  11   2 12876.9 1228.82   5
  -4  11  -2 14563.6 1427.84   5
  -4  11  -2 12612.3 884.140  10
  -4  11  -2 12226.2 856.601   7
   4  11   3 10346.5 779.385   3
   4  11   3 9311.29 1091.71   5
  -4  11  -3 9534.07 1050.97   5
  -4  11  -3 9161.56 779.982  10
  -4  11  -3 9711.85 787.686   7
   4  11   4 20018.2 1492.92   5
  -4  11  -4 18400.0 1278.23   5
  -4  11  -4 17461.8 1085.86  10
  -4  11  -4 20952.4 1151.14   7
   4  11   5 5925.01 912.830   5
  -4  11  -5 5133.34 658.545  10
  -4  11  -5 4533.27 622.500   7
   4  11   6 15862.4 1292.85   5
  -4  11  -6 14987.8 1082.73  10
  -4  11  -6 15211.3 1075.45   7
   4  11   7 8069.21 993.598   5
  -4  11  -7 7609.29 851.712  10
  -4  11  -7 7188.77 783.803   7
   4  11   8 15837.6 1313.40   5
  -4  11  -8 17238.8 1251.09  10
  -4  11  -8 15587.8 1183.60   7
   4  11   9 2860.83 710.472   5
  -4  11  -9 2626.33 624.242  10
  -4  11  -9 1801.09 560.423   7
   4  11  10 9954.65 1071.56   5
   4  12 -10 6362.51 1085.56   5
   4  12  -9 2938.13 997.368   3
   4  12  -9 3731.62 1001.53   5
  -4  12   9 3409.21 901.490   5
   4  12  -8 9048.84 1310.98   3
   4  12  -8 9443.16 1358.08   5
  -4  12   8 10178.0 1366.76   5
   4  12  -7 6618.34 1074.29   3
   4  12  -7 5680.27 1144.99   5
  -4  12   7 5940.45 1164.41   5
   4  12  -6 15272.2 1609.39   5
  -4  12   6 14244.3 1658.16   5
   4  12  -6 14871.9 1483.70   3
   4  12  -5 11496.5 1293.36   3
   4  12  -5 10318.1 1312.19   5
  -4  12   5 9811.58 1498.14   5
   4  12  -4 20594.8 1774.61   5
  -4  12   4 21126.3 2093.43   5
   4  12  -4 21877.2 1636.52   3
   4  12  -3 15098.3 1474.95   5
  -4  12   3 14017.1 1874.41   5
   4  12  -3 13785.2 1241.40   3
   4  12  -2 24798.7 1863.50   5
   4  12  -2 23727.3 1533.69   3
   4  12  -1 15561.2 1474.94   5
  -4  12   1 14256.8 2275.85   5
  -4  12   1 12653.7 918.652  10
   4  12  -1 13286.1 1085.87   3
   4  12   0 23666.1 1757.41   5
  -4  12   0 23972.3 2417.20   5
  -4  12   0 23463.2 1248.63  10
   4  12   0 24994.8 1443.35   3
   4  12   1 15877.9 1464.02   5
  -4  12  -1 16818.4 1886.56   5
  -4  12  -1 14664.7 985.223  10
   4  12   1 16565.6 1115.44   3
   4  12   2 18319.6 1493.43   5
  -4  12  -2 17229.8 1646.42   5
  -4  12  -2 15098.5 1007.64  10
  -4  12  -2 16297.2 1009.07   7
   4  12   3 13926.9 1338.29   5
  -4  12  -3 14407.0 1341.54   5
  -4  12  -3 12690.5 940.112  10
  -4  12  -3 13834.8 958.709   7
   4  12   4 12773.1 1278.71   5
  -4  12  -4 12249.6 941.022  10
  -4  12  -4 12852.7 943.402   7
   4  12   5 9135.20 1108.96   5
  -4  12  -5 10500.9 910.608  10
  -4  12  -5 9426.15 840.581   7
  -4  12  -6 6748.86 825.618  10
   4  12   6 6209.74 947.196   5
  -4  12  -6 5528.11 730.571   7
   4  12   7 5196.79 852.910   5
  -4  12  -7 5501.93 787.274  10
  -4  12  -7 5852.56 778.817   7
   4  12   8 2867.15 766.734   5
  -4  12  -8 3278.76 668.198  10
  -4  12  -8 3227.69 655.426   7
   4  12   9 3540.05 802.446   5
   4  12  10 630.579 547.667   5
   4  13 -10 2272.74 761.415   5
   4  13  -9 786.364 785.906   5
   4  13  -8 1136.72 838.570   3
   4  13  -8 3536.14 1087.23   5
   4  13  -7 1206.82 811.017   3
  -4  13   7 917.259 868.017   5
   4  13  -7 1650.61 918.629   5
   4  13  -6 3034.31 954.030   3
  -4  13   6 2968.49 978.678   5
   4  13  -6 2264.33 884.856   5
   4  13  -5 2931.13 859.806   3
   4  13  -5 1505.18 846.855   5
  -4  13   5 2029.71 1008.26   5
   4  13  -4 5260.01 1008.42   3
   4  13  -4 4540.39 1105.23   5
  -4  13   4 4763.32 1309.56   5
   4  13  -3 2770.52 861.773   3
   4  13  -3 1315.51 749.775   5
  -4  13   3 934.765 977.442   5
   4  13  -2 4258.97 974.769   5
  -4  13   2 2315.09 1174.33   5
   4  13  -1 3762.24 745.358   3
   4  13  -1 2835.25 896.052   5
  -4  13   1 2035.19 1590.38   5
  -4  13   1 1790.32 465.029  10
   4  13   0 9740.22 1257.29   5
  -4  13   0 7197.80 1750.41   5
  -4  13   0 7581.62 783.880  10
   4  13   1 1432.44 788.655   5
  -4  13  -1 2188.94 1191.29   5
  -4  13  -1 1164.13 463.579  10
   4  13   2 7851.35 1151.42   5
  -4  13  -2 8949.66 1326.76   5
  -4  13  -2 8183.52 802.170  10
  -4  13  -2 9224.73 796.136   7
   4  13   3 4902.10 953.565   5
  -4  13  -3 2863.20 594.032  10
  -4  13  -3 3653.94 580.561   7
   4  13   4 8574.77 1083.48   5
  -4  13  -4 9298.42 878.401  10
  -4  13  -4 8651.44 817.067   7
   4  13   5 1904.54 753.876   5
  -4  13  -5 774.753 435.457  10
  -4  13  -5 922.885 462.596   7
  -4  13  -6 9367.69 926.624  10
  -4  13  -6 9741.32 904.682   7
   4  13   6 10589.0 1203.96   5
   4  13   7 3118.73 803.101   5
  -4  13  -7 2630.88 651.118  10
  -4  13  -7 2659.59 603.761   7
   4  13   8 8654.93 1094.68   5
   4  14  -7 1188.15 761.861   3
   4  14  -7 792.634 943.227   5
   4  14  -6 16424.0 1800.15   5
   4  14  -6 15368.1 1676.79   3
   4  14  -5 624.512 685.765   3
   4  14  -5 2016.86 960.613   5
  -4  14   5 990.662 1024.09   5
   4  14  -4 21457.4 1943.40   5
  -4  14   4 19084.6 2235.51   5
   4  14  -4 21089.9 1811.85   3
   4  14  -3 3617.81 1073.75   5
  -4  14   3 2466.75 1364.52   5
   4  14  -2 18905.1 1820.75   5
  -4  14   2 17264.6 2454.37   5
   4  14  -1 1247.37 755.615   5
  -4  14   1 1342.54 523.455  10
   4  14   0 17136.4 1681.46   5
  -4  14   0 17821.6 2521.29   5
  -4  14   0 17279.9 1160.06  10
   4  14   1 2975.51 903.030   5
  -4  14  -1 2558.41 1153.08   5
  -4  14  -1 1654.87 494.458  10
   4  14   2 14382.9 1493.94   5
  -4  14  -2 15121.4 1815.43   5
  -4  14  -2 12453.9 988.177  10
   4  14   3 1059.00 708.477   5
  -4  14  -3 22.6265 414.622  10
  -4  14  -3 1096.45 470.952   7
   4  14   4 8309.56 1215.70   5
  -4  14  -4 9269.68 924.354  10
  -4  14  -4 9280.88 872.063   7
   4  14   5 667.035 660.076   5
  -4  14  -5 657.962 416.698   7
  -4  14  -6 4154.72 666.750   7
  -4  15   3 2343.93 1194.99   5
  -4  15   2 1389.72 1226.61   5
  -4  15   1 591.025 1392.72   5
  -4  15   0 4797.10 1532.15   5
  -4  15  -1 835.575 1060.32   5
  -4  16   0 6172.15 1565.36   5
  -5 -15   1-467.240 629.178  11
  -5 -14   5 1194.46 470.007   8
  -5 -14   4 9942.50 860.427   8
   5 -14  -3 1482.34 927.456   2
   5 -14  -2 10276.8 1386.50   2
  -5 -14   2 9593.85 1105.44  11
   5 -14  -1-721.125 759.291   2
  -5 -14   1-412.692 612.197  11
   5 -14   0 7974.54 1086.90   2
  -5 -14   0 8919.23 1260.43  11
  -5 -14  -1 583.409 773.323  11
  -5 -14  -2 8804.47 1484.58  11
  -5 -13   6 1569.69 494.587   8
   5 -13  -5 1941.36 1071.99   2
  -5 -13   5 1671.78 443.130   8
   5 -13  -4 3174.81 1103.70   2
  -5 -13   3 395.675 486.595  11
   5 -13  -3 1604.69 922.489   2
   5 -13  -2 2658.36 890.634   2
  -5 -13   2 3522.12 765.778  11
   5 -13  -2 2766.09 594.137   1
  -5 -13   2 3708.91 965.417   2
   5 -13  -1 734.986 669.688   2
  -5 -13   1 1103.82 631.402  11
   5 -13  -1 911.594 445.906   1
  -5 -13   1 462.256 682.103   2
   5 -13   0 2222.61 749.643   2
  -5 -13   0 1900.54 747.985  11
   5 -13   0 2249.02 535.123   1
  -5 -13   0 3430.87 971.233   2
   5 -13   1 24.2708 581.918   2
  -5 -13  -1 621.960 723.151  11
   5 -13   1 695.958 483.818   1
  -5 -13  -1-163.997 782.144   2
  -5 -13  -2-341.630 832.671  11
   5 -13   2 1313.61 538.540   1
  -5 -13  -2 1835.94 800.725   2
  -5 -13  -3 430.248 867.301  11
  -5 -13  -3 2924.76 1151.62   2
   5 -13   3 2048.49 581.319   1
  -5 -13  -4 165.179 984.854  11
   5 -13   4 1223.08 504.223   1
  -5 -13  -4 1297.23 978.462   2
  -5 -13  -5 259.722 929.061   2
  -5 -12   9 2997.94 856.053   6
  -5 -12   8 7786.27 1062.17   6
  -5 -12   7 2856.81 673.466   6
   5 -12  -7 544.147 957.874   2
  -5 -12   6 10988.2 991.701   6
   5 -12  -6 7867.57 1506.92   2
  -5 -12   6 9769.45 806.341   8
   5 -12  -5 4984.24 1214.53   2
  -5 -12   5 5452.04 625.805   8
   5 -12  -4 10079.5 1481.84   2
   5 -12  -3 6481.32 1212.69   2
  -5 -12   3 6037.17 790.606  11
   5 -12  -2 11045.1 1407.37   2
  -5 -12   2 9788.01 1053.97  11
  -5 -12   2 10783.8 1258.01   2
   5 -12  -1 9509.25 1234.67   2
  -5 -12   1 9178.24 1051.67  11
   5 -12  -1 9909.40 879.264   1
  -5 -12   1 11306.8 1310.63   2
   5 -12   0 10546.3 1197.29   2
  -5 -12   0 7210.39 1045.03  11
   5 -12   0 10772.9 914.419   1
  -5 -12   0 10559.2 1327.20   2
   5 -12   1 9880.23 1123.71   2
  -5 -12  -1 8661.37 1190.67  11
   5 -12   1 9312.92 875.439   1
  -5 -12  -1 8603.79 1187.76   2
  -5 -12  -2 9213.00 1320.49  11
   5 -12   2 9690.13 912.265   1
  -5 -12  -2 11782.2 1455.19   2
  -5 -12  -3 8957.39 1522.20  11
  -5 -12  -3 8259.98 1362.67   2
   5 -12   3 7110.93 829.216   1
   5 -12   4 8557.92 889.367   1
  -5 -12  -4 7931.40 1369.75   2
   5 -12   5 4935.01 756.319   1
  -5 -12  -5 2405.90 1076.03  11
   5 -12   5 3900.74 753.359   8
  -5 -12  -5 5266.34 1243.94   2
   5 -12   6 8039.43 957.979   1
  -5 -12  -6 8157.71 1753.42  11
   5 -12   6 8075.57 1048.25   8
  -5 -12  -6 7977.46 1495.32   2
   5 -12   7 2361.18 751.836   8
  -5 -12  -7 3425.04 1227.04   2
   5 -12   8 3909.91 884.067   8
  -5 -12  -8 4567.89 1271.85   2
  -5 -11   9 1666.42 739.049   6
  -5 -11   8 1088.81 677.109   6
   5 -11  -8 1335.69 822.943   2
  -5 -11   7 1508.85 593.232   6
   5 -11  -7 483.036 880.204   2
  -5 -11   6 2499.03 609.812   6
   5 -11  -6 2310.02 1163.36   2
  -5 -11   6 1301.00 386.986   8
  -5 -11   5 1478.84 513.390   6
   5 -11  -5 479.819 943.761   2
  -5 -11   5 1016.32 368.941   8
  -5 -11   4 626.107 362.136   6
   5 -11  -4 312.336 734.539   2
  -5 -11   4 1218.18 443.851  11
  -5 -11   3 180.055 277.381   6
   5 -11  -3-238.030 811.405   2
  -5 -11   3-235.472 426.902  11
   5 -11  -2 2272.98 867.981   2
  -5 -11   2 1692.61 572.299  11
   5 -11  -1 458.566 379.828   1
   5 -11  -1 828.435 667.036   2
  -5 -11   1 1978.46 598.824  11
  -5 -11   1 1594.90 752.666   2
   5 -11   0 595.056 559.220   2
  -5 -11   0-34.0038 558.760  11
   5 -11   0 671.002 435.277   1
  -5 -11   0 1338.70 631.917   2
   5 -11   1 1231.21 584.151   2
  -5 -11  -1 385.182 625.701  11
   5 -11   1 1077.94 478.725   1
  -5 -11  -1-121.012 710.498   2
   5 -11   2 643.088 463.499   1
   5 -11   2 1071.21 530.360   2
  -5 -11  -2 704.506 733.424  11
  -5 -11  -2 1322.96 741.283   2
  -5 -11  -3 2117.41 869.645  11
   5 -11   3 3670.23 654.186   8
  -5 -11  -3 3946.23 1032.72   2
   5 -11   3 3163.37 599.416   1
  -5 -11  -4 1334.40 857.562  11
   5 -11   4 1886.98 557.653   1
   5 -11   4 2430.31 627.894   8
  -5 -11  -4 1679.02 883.173   2
   5 -11   5 3621.41 684.860   1
  -5 -11  -5 1680.44 996.082  11
   5 -11   5 2762.41 674.894   8
  -5 -11  -5 2554.69 890.178   2
   5 -11   6 3059.58 687.022   1
  -5 -11  -6 1217.17 1033.46  11
   5 -11   6 2219.93 676.382   8
  -5 -11  -6 2783.94 1046.71   2
  -5 -11  -7 5272.64 1307.70  11
   5 -11   7 4509.64 917.675   8
   5 -11   7 3675.53 714.990   1
  -5 -11  -7 3441.22 1153.07   2
   5 -11   8 2036.04 713.968   8
  -5 -11  -8 2230.06 999.719   2
   5 -11   9 2076.09 854.686   8
  -5 -11  -9 2169.10 809.743   2
  -5 -10  10 13267.3 1606.78   6
  -5 -10   9 5199.89 1021.55   6
   5 -10  -9 4286.83 931.880   2
  -5 -10   8 12680.5 1284.65   6
   5 -10  -8 13649.7 1529.46   2
  -5 -10   7 6397.44 896.722   6
   5 -10  -7 4678.99 1109.43   2
  -5 -10   7 5528.66 604.231   8
  -5 -10   6 13886.4 1102.36   6
   5 -10  -6 11706.4 1632.65   2
  -5 -10   6 13760.7 864.195   8
  -5 -10   5 7518.44 787.654   6
   5 -10  -5 7437.80 1409.57   2
  -5 -10   5 6687.32 586.146   8
  -5 -10   5 6449.17 643.728  11
  -5 -10   4 16336.4 1021.38   6
   5 -10  -4 16750.6 1769.43   2
  -5 -10   4 16550.7 1073.00  11
  -5 -10   3 5469.08 582.773   6
   5 -10  -3 6642.78 1210.71   2
  -5 -10   3 7174.13 753.697  11
  -5 -10   2 17068.8 891.271   6
  -5 -10   2 15732.6 1175.10  11
  -5 -10   1 5672.55 486.479   6
   5 -10  -1 4254.80 897.878   2
   5 -10  -1 5804.13 631.755   1
  -5 -10   1 4560.46 760.721  11
  -5 -10   1 5620.21 962.822   2
   5 -10   0 14921.4 775.785   3
  -5 -10   0 12828.9 1219.17  11
   5 -10   0 15725.2 1007.02   1
  -5 -10   0 14080.9 1356.29   2
   5 -10   0 13506.6 1310.95   2
   5 -10   1 7163.13 569.040   3
   5 -10   1 6343.25 853.602   2
  -5 -10  -1 6879.00 991.128  11
   5 -10   1 6023.41 687.641   1
  -5 -10  -1 6717.90 1021.74   2
  -5 -10  -2 13696.8 1379.15  11
   5 -10   2 12830.4 953.912   1
  -5 -10  -2 13550.9 1447.48   2
   5 -10   2 13664.3 1002.22   8
   5 -10   2 13376.8 1120.96   2
  -5 -10  -3 1459.96 758.420  11
   5 -10   3 3005.77 590.855   8
   5 -10   3 2939.76 553.646   1
   5 -10   4 12109.1 983.734   1
  -5 -10  -4 8870.17 1336.74  11
   5 -10   4 13623.0 1129.90   8
  -5 -10  -4 11017.7 1423.32   2
   5 -10   5 6294.50 782.419   1
  -5 -10  -5 2854.56 1058.60  11
   5 -10   5 4305.05 765.145   8
  -5 -10  -5 5685.79 1161.87   2
   5 -10   6 9239.46 922.693   1
  -5 -10  -6 7041.69 1407.35  11
   5 -10   6 7883.51 996.523   8
  -5 -10  -6 7734.52 1318.83   2
  -5 -10  -7 1068.45 939.911  11
   5 -10   7 1121.87 610.143   8
   5 -10   7 1611.29 609.901   1
  -5 -10  -7 1490.04 902.722   2
  -5 -10  -8 8507.74 1329.54  11
   5 -10   8 7779.10 976.571   1
   5 -10   8 5771.31 975.340   8
  -5 -10  -8 8528.91 1324.79   2
  -5 -10  -9 5257.05 1058.19  11
   5 -10   9 1928.37 766.827   8
  -5 -10  -9 3682.70 890.554   2
   5 -10  10 3852.16 843.647   8
  -5  -9  11 1743.01 968.786   6
  -5  -9  10 1756.02 917.672   6
   5  -9 -10 837.635 684.556   2
  -5  -9   9 1997.59 787.618   6
   5  -9  -9 2629.94 720.878   2
  -5  -9   8 1598.36 637.556   6
   5  -9  -8 1386.21 737.990   2
  -5  -9   7 1401.46 591.734   6
   5  -9  -7 1714.53 844.415   2
   5  -9  -7 1758.52 496.826   4
  -5  -9   7 1613.68 379.807   8
   5  -9  -6 213.387 779.312   2
  -5  -9   6 1090.28 336.801  11
   5  -9  -6 1151.83 387.356   4
  -5  -9   6 1688.02 381.512   8
  -5  -9   5 2267.28 524.144   6
   5  -9  -5 910.250 932.548   2
  -5  -9   5 962.874 365.575  11
   5  -9  -5 1783.18 438.158   4
  -5  -9   5 1827.14 368.149   8
  -5  -9   4 3597.40 522.657   6
   5  -9  -4 2905.69 944.759   2
  -5  -9   4 3677.78 511.695  11
   5  -9  -4 4521.14 495.327   4
  -5  -9   3 535.928 395.242  11
  -5  -9   3 392.847 286.326   6
   5  -9  -3-538.583 784.193   2
   5  -9  -3 581.112 276.634   4
  -5  -9   2 4291.45 470.710   6
   5  -9  -2 4005.76 386.491   3
   5  -9  -2 2716.65 760.718   2
  -5  -9   2 4382.40 662.577  11
   5  -9  -2 4051.25 431.533   4
   5  -9  -1 1704.53 413.709   1
  -5  -9   1 1696.35 322.559   6
   5  -9  -1 1536.69 630.703   2
  -5  -9   1 1679.50 531.118  11
   5  -9  -1 1730.60 297.931   3
   5  -9  -1 2644.27 359.982   4
   5  -9   0 6842.13 526.652   3
   5  -9   0 4789.71 840.250   2
  -5  -9   0 6911.36 895.877  11
   5  -9   0 6727.98 659.224   1
   5  -9   0 7001.11 518.005   4
  -5  -9   0 7451.93 1017.95   2
  -5  -9   0 7523.83 514.704   6
  -5  -9  -1 786.747 226.841   6
   5  -9   1 586.719 480.193   2
  -5  -9  -1 380.950 587.817  11
   5  -9   1 724.710 281.440   3
   5  -9   1 743.057 377.850   1
   5  -9   1 730.757 351.068   8
   5  -9   1 1216.90 278.668   4
  -5  -9  -1 949.907 664.597   2
   5  -9   2 4086.09 555.314   1
   5  -9   2 4435.45 713.252   2
  -5  -9  -2 4299.15 914.014  11
   5  -9   2 4918.91 451.131   4
   5  -9   2 5223.77 657.675   8
  -5  -9  -2 4348.54 908.208   2
   5  -9   3 7266.90 783.491   2
  -5  -9  -3 7508.73 1114.80  11
   5  -9   3 7694.99 574.518   4
   5  -9   3 6650.15 717.714   1
   5  -9   3 6981.89 798.610   8
  -5  -9  -3 8110.83 1134.99   2
  -5  -9  -4 2747.61 910.085  11
   5  -9   4 3622.37 580.489   1
   5  -9   4 3521.19 636.092   8
  -5  -9  -4 5069.26 1056.36   2
   5  -9   5 4318.52 699.050   1
  -5  -9  -5 3239.46 1003.19  11
   5  -9   5 2485.76 635.490   8
  -5  -9  -5 2367.00 828.121   2
  -5  -9  -6 2783.27 1096.94  11
   5  -9   6 1917.81 656.641   8
   5  -9   6 3715.48 672.207   1
  -5  -9  -6 3470.32 1052.98   2
   5  -9   7 11183.8 1043.50   1
  -5  -9  -7 9158.21 1576.90  11
   5  -9   7 7568.77 1052.52   8
  -5  -9  -7 10323.0 1437.07   2
  -5  -9  -8 3528.95 1044.57  11
   5  -9   8 3682.67 761.158   1
   5  -9   8 1931.97 726.223   8
  -5  -9  -8 2015.84 813.553   2
  -5  -9  -9 3140.94 830.438  11
   5  -9   9 1963.74 680.316   1
   5  -9   9 2816.46 784.174   8
  -5  -9  -9 4030.17 791.065   2
  -5  -9 -10 2323.64 806.129  11
   5  -9  10 1151.61 664.715   8
   5  -9  11 5028.33 948.574   8
   5  -8 -12 6203.11 1192.42   4
  -5  -8  11 4239.69 1169.23   6
   5  -8 -11 3313.57 850.428   2
   5  -8 -11 1538.88 659.911   4
  -5  -8  10 6921.66 1173.53   6
   5  -8 -10 7222.25 1089.90   2
  -5  -8   9 9531.50 1184.04   6
   5  -8  -9 11328.7 1073.80   4
   5  -8  -9 10127.9 1242.50   2
  -5  -8   8 12301.2 1218.24   6
   5  -8  -8 12248.1 1356.21   2
   5  -8  -8 10304.8 970.003   4
  -5  -8   7 11611.6 1100.20   6
   5  -8  -7 11323.1 1362.99   2
   5  -8  -7 12741.0 966.896   4
  -5  -8   7 12221.7 786.812   8
  -5  -8   6 12799.5 1037.29   6
  -5  -8   6 12368.0 791.385  11
   5  -8  -6 13795.2 1588.60   2
   5  -8  -6 14245.7 947.426   4
  -5  -8   6 13486.3 779.819   8
  -5  -8   5 25635.7 1338.28   6
  -5  -8   5 25100.8 1211.92  11
   5  -8  -5 24367.5 1179.25   4
  -5  -8   5 25866.4 1073.64   8
   5  -8  -5 22224.0 2049.17   2
  -5  -8   4 18430.0 1067.86   6
   5  -8  -4 19769.2 833.518   3
  -5  -8   4 19263.0 1094.98  11
   5  -8  -4 20648.1 1002.75   4
   5  -8  -4 21426.9 2078.53   2
  -5  -8   3 34251.1 1408.32   6
   5  -8  -3 33718.2 1177.72   3
   5  -8  -3 33609.7 1303.34   4
  -5  -8   3 32526.8 1528.47  11
   5  -8  -3 33675.7 2411.78   2
  -5  -8   2 24060.5 1071.91   6
   5  -8  -2 23779.1 953.358   3
  -5  -8   2 23218.1 1331.63  11
   5  -8  -2 23072.7 1005.57   4
   5  -8  -2 24324.6 1936.40   2
  -5  -8   1 41804.1 1442.66   6
   5  -8  -1 41473.3 1406.51   3
  -5  -8   1 38940.3 1874.10  11
   5  -8  -1 39426.5 1556.53   1
   5  -8  -1 40508.9 1410.06   4
   5  -8  -1 42313.3 2364.02   2
   5  -8   0 22713.7 997.918   3
  -5  -8   0 20368.3 1400.84  11
   5  -8   0 22928.8 1133.27   1
   5  -8   0 22486.1 958.286   4
   5  -8   0 22670.8 1130.00   8
  -5  -8   0 22808.6 942.154   6
  -5  -8  -1 37650.7 2016.89  11
   5  -8   1 36575.1 1400.31   3
   5  -8   1 36762.4 1534.32   1
  -5  -8  -1 35791.8 2062.40   2
   5  -8   1 36482.6 1320.42   4
   5  -8   1 38213.5 1613.26   8
   5  -8   1 34234.7 1916.29   2
  -5  -8  -1 39617.6 1280.18   6
  -5  -8  -2 21274.3 1590.61  11
   5  -8   2 19775.8 1113.77   1
  -5  -8  -2 21017.9 1592.30   2
   5  -8   2 20799.7 940.584   4
   5  -8   2 20980.5 1222.26   8
   5  -8   2 21040.0 1369.11   2
  -5  -8  -2 22225.6 855.176   6
   5  -8   3 32221.1 1501.12   1
  -5  -8  -3 31959.0 2067.39  11
  -5  -8  -3 33019.3 2021.97   2
   5  -8   3 31385.0 1633.54   8
   5  -8   3 34797.0 1653.14   2
   5  -8   4 14484.0 1005.54   1
  -5  -8  -4 11098.2 1354.78  11
  -5  -8  -4 14631.8 1424.06   2
   5  -8   4 10577.2 1014.35   8
   5  -8   5 24028.9 1372.31   1
  -5  -8  -5 24799.0 2007.09  11
  -5  -8  -5 22600.7 1802.24   2
   5  -8   5 23608.6 1548.74   8
   5  -8   6 10961.3 992.845   1
  -5  -8  -6 10070.3 1429.02  11
   5  -8   6 10334.0 1146.11   8
  -5  -8  -6 10677.1 1320.76   2
   5  -8   7 13017.4 1126.53   1
  -5  -8  -7 10665.7 1569.82  11
   5  -8   7 10267.9 1199.80   8
  -5  -8  -7 12821.9 1486.86   2
  -5  -8  -8 5511.53 1067.75  11
   5  -8   8 4511.15 818.816   1
   5  -8   8 3563.21 807.815   8
  -5  -8  -8 5849.09 1039.56   2
   5  -8   9 5932.09 863.955   1
  -5  -8  -9 7894.77 1164.50  11
   5  -8   9 7374.15 1033.63   8
  -5  -8  -9 7676.47 931.521   2
   5  -8  10 2850.79 794.804   1
  -5  -8 -10 4176.91 881.550  11
   5  -8  10 3217.57 770.967   8
  -5  -8 -11 1180.29 643.957  11
   5  -8  11 1648.56 712.274   8
   5  -7 -13-1192.58 1047.77   4
  -5  -7  12 1132.66 1009.54   6
   5  -7 -12 1852.19 730.471   2
   5  -7 -12 1205.60 771.064   4
  -5  -7  11 2845.05 987.680   6
   5  -7 -11 3087.40 776.908   2
   5  -7 -11 1493.89 617.605   4
  -5  -7  10 3297.70 938.267   6
   5  -7 -10 3156.21 774.805   2
   5  -7 -10 2486.62 657.608   4
   5  -7  -9 498.959 689.556   2
   5  -7  -9 377.984 461.475   4
  -5  -7   8 3766.59 779.344   6
   5  -7  -8 4149.77 913.336   2
   5  -7  -8 3897.95 628.218   4
  -5  -7   7 2544.28 620.367   6
   5  -7  -7 2991.46 830.445   2
  -5  -7   7 2273.50 359.294  11
  -5  -7   7 2968.60 415.469   8
   5  -7  -7 2786.28 533.389   4
   5  -7  -6 7008.84 506.370   3
  -5  -7   6 7054.60 806.082   6
  -5  -7   6 7180.12 602.790  11
   5  -7  -6 8403.24 1178.71   2
   5  -7  -6 6888.27 664.526   4
  -5  -7   6 7614.30 565.934   8
  -5  -7   5 363.947 412.533   6
  -5  -7   5 644.153 302.610  11
   5  -7  -5 182.237 196.799   3
   5  -7  -5 935.185 761.980   2
  -5  -7   5 17.9726 189.046   8
   5  -7  -5 1001.51 331.328   4
  -5  -7   4 2411.39 453.638   6
  -5  -7   4 2669.46 458.865  11
   5  -7  -4 3629.22 1042.31   2
   5  -7  -4 2898.28 330.993   3
  -5  -7   4 3791.30 374.397   8
   5  -7  -4 3089.74 412.029   4
   5  -7  -3 664.425 901.570   2
  -5  -7   3 249.093 287.374   6
  -5  -7   3 378.058 345.267  11
   5  -7  -3 494.635 220.190   3
   5  -7  -3 199.119 241.916   4
  -5  -7   2 4025.38 454.283   6
  -5  -7   2 4095.38 603.427  11
   5  -7  -2 3985.52 971.510   2
   5  -7  -2 2595.44 332.295   3
   5  -7  -2 3535.39 388.330   4
  -5  -7   1 3451.68 388.993   6
   5  -7  -1 3525.84 449.544   1
   5  -7  -1 3161.16 882.068   2
   5  -7  -1 3310.33 376.847   3
  -5  -7   1 3848.32 629.390  11
   5  -7  -1 3812.17 403.425   4
   5  -7   0 508.020 286.693   1
  -5  -7   0 531.587 232.862   6
  -5  -7   0 903.662 480.850  11
   5  -7   0 873.740 254.990   3
   5  -7   0 697.687 296.341   8
   5  -7   0 544.717 242.694   4
  -5  -7  -1 1705.79 287.064   6
   5  -7   1 1171.60 608.023   2
   5  -7   1 1809.60 397.158   1
   5  -7   1 1396.13 339.004   3
  -5  -7  -1 1469.10 605.659  11
   5  -7   1 1162.06 368.377   8
   5  -7   1 1027.61 265.856   4
  -5  -7  -2 527.941 205.156   6
   5  -7   2 445.411 377.315   2
  -5  -7  -2 224.450 492.840  11
   5  -7   2 87.6454 353.236   8
   5  -7   2 39.1885 313.485   1
   5  -7   2 471.147 242.095   4
  -5  -7  -2 184.037 550.696   2
   5  -7   3 8959.83 749.182   1
  -5  -7  -3 8509.72 1061.19  11
   5  -7   3 7946.39 838.801   8
   5  -7   3 9363.51 830.419   2
  -5  -7  -3 8150.17 1038.31   2
  -5  -7  -3 9429.93 527.916   6
   5  -7   4 7412.27 739.141   1
   5  -7   4 5400.11 617.808   2
  -5  -7  -4 5979.10 1020.96  11
   5  -7   4 5331.77 773.067   8
  -5  -7  -4 6570.53 968.410   2
  -5  -7  -5 4476.72 970.185  11
   5  -7   5 3591.52 711.229   8
  -5  -7  -5 4735.11 862.798   2
   5  -7   5 5282.55 697.717   1
  -5  -7  -6 3873.86 1065.99  11
   5  -7   6 5691.43 745.375   1
   5  -7   6 4678.24 867.331   8
  -5  -7  -6 5391.39 975.471   2
   5  -7   7 11589.6 1073.66   1
  -5  -7  -7 10277.5 1459.30  11
   5  -7   7 10419.5 1135.31   8
  -5  -7  -7 13003.9 1413.01   2
  -5  -7  -8 7642.26 1178.87  11
   5  -7   8 5957.92 859.597   1
   5  -7   8 4357.80 789.868   8
  -5  -7  -8 6921.59 952.712   2
   5  -7   9 4645.42 863.045   1
  -5  -7  -9 5194.90 981.727  11
   5  -7   9 4940.93 853.207   8
   5  -7  10 3726.45 841.950   1
  -5  -7 -10 3576.03 822.085  11
   5  -7  10 4952.24 849.263   8
  -5  -7 -11 7334.93 984.614  11
   5  -7  11 5649.26 886.960   8
   5  -7  11 7810.10 1048.73   1
  -5  -7 -12 3869.46 744.426  11
   5  -7  12 4123.46 807.995   8
   5  -6 -13 11794.0 1232.38   2
   5  -6 -13 8262.61 1282.78   4
  -5  -6  12 5478.29 1191.21   6
   5  -6 -12 3215.94 826.272   4
  -5  -6  11 7727.34 1212.69   6
   5  -6 -11 9464.66 1153.41   2
   5  -6 -11 8446.45 1091.23   4
  -5  -6  10 3910.59 966.930   6
   5  -6 -10 3350.97 745.228   2
   5  -6 -10 2681.99 670.534   4
  -5  -6   9 21050.6 1603.31   6
   5  -6  -9 18213.3 1302.72   4
   5  -6  -9 19440.0 1582.38   2
  -5  -6   8 13797.7 1199.46   6
  -5  -6   8 13500.4 742.827  11
   5  -6  -8 11936.4 1274.53   2
   5  -6  -8 13570.6 1016.42   4
   5  -6  -8 13236.5 804.917   3
  -5  -6   7 15535.0 1181.76   6
  -5  -6   7 16178.6 853.003  11
   5  -6  -7 16947.3 1049.57   4
  -5  -6   7 17976.3 913.667   8
   5  -6  -7 15814.4 1484.60   2
   5  -6  -7 17261.9 865.750   3
   5  -6  -6 16399.9 794.637   3
  -5  -6   6 14982.8 1079.03   6
  -5  -6   6 14766.9 846.474  11
   5  -6  -6 15253.8 921.597   4
  -5  -6   6 15458.1 783.601   8
   5  -6  -6 14481.7 1450.65   2
  -5  -6   5 27667.8 1356.93   6
   5  -6  -5 27320.4 1062.05   3
  -5  -6   5 28322.4 1241.10  11
   5  -6  -5 28275.8 1229.81   4
  -5  -6   5 28597.4 1048.91   8
  -5  -6   4 23839.8 1173.17   6
   5  -6  -4 23456.2 953.316   3
  -5  -6   4 20935.2 1110.81  11
   5  -6  -4 24501.2 1077.57   4
  -5  -6   4 23541.7 891.429   8
   5  -6  -4 21820.9 1914.29   2
  -5  -6   3 20489.8 1026.55   6
   5  -6  -3 20646.8 874.879   3
   5  -6  -3 20327.8 2032.48   2
  -5  -6   3 19483.4 1091.58  11
   5  -6  -3 20688.5 936.203   4
  -5  -6   2 26804.4 1133.64   6
   5  -6  -2 27554.7 1052.82   3
  -5  -6   2 24578.3 1308.66  11
   5  -6  -2 26191.9 1116.86   1
   5  -6  -2 26254.8 1066.57   4
   5  -6  -2 25289.0 2049.72   2
   5  -6  -1 24414.5 1003.58   3
   5  -6  -1 24627.4 1086.94   1
  -5  -6   1 24521.2 1346.78  11
   5  -6  -1 24385.0 999.068   4
   5  -6  -1 22380.3 1788.73   2
  -5  -6   1 24609.9 1028.53   6
   5  -6   0 28496.7 1138.31   3
  -5  -6   0 28241.1 1532.31  11
   5  -6   0 29748.6 1219.05   1
   5  -6   0 28991.7 1105.52   4
   5  -6   0 27876.7 1311.67   8
   5  -6   0 28623.4 1858.46   2
  -5  -6   0 28354.8 1088.85   6
   5  -6   1 25328.5 1081.70   3
  -5  -6  -1 24382.7 1492.29  11
   5  -6   1 24102.9 1126.95   1
   5  -6   1 22346.5 1263.32   8
   5  -6   1 23518.5 988.114   4
   5  -6   1 25241.8 1624.01   2
  -5  -6  -1 23977.7 951.820   6
   5  -6   2 24360.5 1177.57   1
  -5  -6  -2 21131.1 1477.85  11
   5  -6   2 23376.1 1384.27   8
   5  -6   2 25714.2 1509.89   2
  -5  -6  -2 24781.1 949.484   6
   5  -6   3 15469.6 974.845   1
  -5  -6  -3 17018.3 1387.74  11
  -5  -6  -3 14025.5 1234.88   2
   5  -6   3 14624.6 1182.60   8
   5  -6   3 16331.2 1101.11   2
  -5  -6  -3 15400.5 706.034   6
   5  -6   4 14273.8 979.291   1
  -5  -6  -4 13133.5 1330.00  11
  -5  -6  -4 13131.6 1217.54   2
   5  -6   4 16455.2 1354.14   8
   5  -6   4 15286.0 967.424   2
   5  -6   5 14419.1 1046.14   1
  -5  -6  -5 12111.0 1355.01  11
  -5  -6  -5 15054.6 1327.25   2
   5  -6   5 14741.1 1259.50   8
   5  -6   6 10917.0 979.833   1
  -5  -6  -6 9020.82 1229.35  11
   5  -6   6 8449.43 969.788   8
  -5  -6  -6 11244.7 1200.05   2
  -5  -6  -7 5986.89 1143.24  11
   5  -6   7 5239.69 778.180   1
   5  -6   7 6880.77 889.303   8
  -5  -6  -7 7068.78 1021.46   2
   5  -6   8 4233.19 776.956   1
  -5  -6  -8 4181.73 965.462  11
   5  -6   8 4519.69 774.809   8
  -5  -6  -8 5397.78 790.955   2
   5  -6   9 5745.42 925.791   1
  -5  -6  -9 6569.95 985.899  11
   5  -6   9 6224.00 904.994   8
  -5  -6 -10 2658.93 708.152  11
   5  -6  10 2431.48 661.387   8
   5  -6  10 2646.04 792.053   1
  -5  -6 -11 1671.28 614.649  11
   5  -6  11 2126.36 650.940   8
   5  -6  11 1365.62 653.393   1
  -5  -6 -12 696.757 555.747  11
   5  -6  12 1966.77 617.036   8
  -5  -6 -13 2516.53 630.354  11
  -5  -5  13 333.442 903.066   6
   5  -5 -13 2568.87 767.970   2
   5  -5 -13 637.421 754.924   4
  -5  -5  12 699.240 803.666   6
   5  -5 -12 2377.03 736.750   2
   5  -5 -12 245.059 703.832   4
  -5  -5  11 1480.41 810.129   6
   5  -5 -11 1582.86 730.656   2
   5  -5 -11 534.055 549.527   4
  -5  -5  10 2424.98 770.767   6
   5  -5 -10 1205.27 617.514   2
   5  -5 -10 1465.40 547.460   4
  -5  -5   9 878.747 592.030   6
   5  -5  -9-110.268 326.145   3
   5  -5  -9-840.921 589.034   2
   5  -5  -9 760.898 493.329   4
  -5  -5   8 1970.61 650.290   6
   5  -5  -8 764.559 322.887   3
  -5  -5   8 1120.98 292.352  11
   5  -5  -8 464.524 595.562   2
   5  -5  -8 1349.83 479.534   4
  -5  -5   7 2381.11 608.411   6
   5  -5  -7 1216.14 319.170   3
  -5  -5   7 961.908 282.507  11
   5  -5  -7 887.451 677.252   2
   5  -5  -7 1481.75 411.252   4
  -5  -5   6 2147.07 488.236   6
   5  -5  -6 2551.34 356.764   3
  -5  -5   6 1950.66 357.865  11
   5  -5  -6 1395.53 689.430   2
  -5  -5   6 2479.13 342.071   8
   5  -5  -6 1882.69 393.805   4
  -5  -5   5 428.037 380.855   6
  -5  -5   5 607.781 289.469  11
   5  -5  -5 747.034 239.136   3
   5  -5  -5 1080.12 727.973   2
  -5  -5   5 875.823 229.486   8
   5  -5  -5 473.495 299.786   4
  -5  -5   4 2961.62 464.026   6
   5  -5  -4 2779.82 336.290   3
   5  -5  -4 2448.46 843.113   2
  -5  -5   4 3191.49 481.503  11
  -5  -5   4 3479.73 310.894   8
   5  -5  -4 2977.28 395.897   4
  -5  -5   3 698.547 312.676   6
  -5  -5   3 356.883 316.875  11
   5  -5  -3 1064.12 279.405   3
   5  -5  -3 83.2074 791.393   2
   5  -5  -3 912.324 279.580   4
  -5  -5   2 7163.18 568.401   6
   5  -5  -2 7703.14 522.089   3
  -5  -5   2 5828.73 628.910  11
   5  -5  -2 6878.52 1382.07   2
   5  -5  -2 6964.04 522.049   1
   5  -5  -2 6681.72 506.936   4
   5  -5  -1 4935.97 440.262   3
  -5  -5   1 5748.63 694.008  11
   5  -5  -1 5313.42 1022.56   2
   5  -5  -1 5307.24 480.786   1
   5  -5  -1 5266.93 449.003   4
   5  -5  -1 4239.58 505.404   8
  -5  -5   1 4978.46 473.392   6
   5  -5   0 7981.22 573.917   3
  -5  -5   0 8768.46 832.971  11
   5  -5   0 8386.65 614.211   1
   5  -5   0 7521.43 1071.99   2
   5  -5   0 8146.82 550.302   4
   5  -5   0 9346.07 897.823   8
  -5  -5   0 8730.57 557.617   6
  -5  -5  -1 737.442 243.024   6
   5  -5   1 620.863 512.218   2
  -5  -5  -1 1381.72 518.186  11
   5  -5   1 513.340 273.163   3
   5  -5   1 694.894 284.213   1
   5  -5   1-123.694 447.595   8
   5  -5   1 632.423 254.372   4
   5  -5   2 7624.09 614.472   3
   5  -5   2 7249.62 626.776   1
  -5  -5  -2 7989.09 896.890  11
   5  -5   2 6749.62 845.683   2
   5  -5   2 7359.96 815.512   8
  -5  -5  -2 8085.80 510.921   6
   5  -5   3 12602.4 864.378   1
  -5  -5  -3 13714.8 1225.20  11
   5  -5   3 12574.3 1063.85   8
  -5  -5  -3 13014.3 507.389   7
   5  -5   3 12898.9 999.165   2
  -5  -5  -3 12401.5 642.254   6
   5  -5   4 10300.3 839.739   1
  -5  -5  -4 9910.91 1109.19  11
   5  -5   4 9843.83 960.893   8
   5  -5   4 10708.1 831.219   2
  -5  -5  -4 9998.46 471.444   7
   5  -5   5 4417.22 503.196   2
  -5  -5  -5 3593.20 879.691  11
   5  -5   5 5822.31 700.661   1
   5  -5   5 4821.57 746.624   8
  -5  -5  -6 3036.12 776.004  11
   5  -5   6 4035.00 678.224   1
   5  -5   6 4659.38 762.752   8
   5  -5   7 15018.8 1192.19   1
  -5  -5  -7 13987.6 1463.95  11
   5  -5   7 13913.1 1169.44   8
   5  -5   8 6266.41 883.231   1
  -5  -5  -8 6528.30 1063.06  11
   5  -5   8 7236.95 889.114   8
   5  -5   9 4835.39 845.893   1
  -5  -5  -9 5829.73 920.080  11
   5  -5   9 4629.99 781.768   8
  -5  -5 -10 1298.03 543.795  11
   5  -5  10 2055.60 640.216   8
   5  -5  10 661.507 581.502   1
  -5  -5 -11 10955.1 1073.66  11
   5  -5  11 12316.6 1152.92   8
   5  -5  11 11850.7 1337.49   1
  -5  -5 -12 4081.63 745.769  11
   5  -5  12 3434.02 928.488   1
   5  -5  12 4428.73 789.555   8
  -5  -5 -13 2383.31 593.176  11
   5  -5  13 3828.99 766.927   8
   5  -4 -14 226.410 536.290   2
   5  -4 -14 270.074 646.685  10
   5  -4 -14 121.141 889.800   4
  -5  -4  13 12940.6 1644.02   6
   5  -4 -13 14697.7 1346.72   2
  -5  -4  12 2336.85 918.035   6
   5  -4 -12 3319.29 813.813   2
   5  -4 -12 1333.86 662.523   4
  -5  -4  11 9281.98 1261.16   6
   5  -4 -11 11561.9 1208.31   2
   5  -4 -11 8239.92 996.376   4
   5  -4 -11 10999.5 988.494   3
  -5  -4  10 3782.04 881.104   6
   5  -4 -10 3787.58 580.011   3
   5  -4 -10 3018.02 718.730   2
   5  -4 -10 2785.32 640.693   4
  -5  -4   9 26457.6 1698.75   6
   5  -4  -9 27692.8 1497.95   4
   5  -4  -9 27386.7 1848.48   2
  -5  -4   9 26735.3 1123.75  11
   5  -4  -9 26246.4 1279.29   3
  -5  -4   8 8612.02 955.910   6
  -5  -4   8 7216.21 564.734  11
   5  -4  -8 6072.34 983.339   2
   5  -4  -8 7975.09 771.342   4
   5  -4  -8 6534.66 589.693   3
   5  -4  -7 26048.1 1125.44   3
  -5  -4   7 26983.7 1480.45   6
  -5  -4   7 26443.3 1137.14  11
   5  -4  -7 24385.2 1238.26   4
   5  -4  -7 24245.9 1781.07   2
   5  -4  -6 11697.2 692.439   3
  -5  -4   6 11606.9 908.706   6
  -5  -4   6 11690.6 742.313  11
   5  -4  -6 10140.4 1226.44   2
   5  -4  -6 11429.5 779.427   4
  -5  -4   6 11843.2 650.658   8
  -5  -4   5 46957.8 1858.67   6
   5  -4  -5 48581.8 1600.93   3
  -5  -4   5 50021.8 1755.49  11
   5  -4  -5 47773.8 1702.90   4
  -5  -4   5 53337.2 1499.59   8
   5  -4  -5 46226.2 2602.91   2
  -5  -4   4 18421.4 1012.01   6
   5  -4  -4 18007.7 839.430   3
  -5  -4   4 18112.7 992.127  11
   5  -4  -4 18706.2 906.874   4
  -5  -4   4 19220.6 698.067   8
   5  -4  -4 15929.6 1583.35   2
  -5  -4   3 46747.5 1671.96   6
   5  -4  -3 45859.4 1507.14   3
  -5  -4   3 47712.0 1775.72  11
   5  -4  -3 48130.0 1570.81   4
   5  -4  -3 42822.3 2661.26   2
  -5  -4   2 25857.2 1093.00   6
   5  -4  -2 25268.5 1011.26   3
  -5  -4   2 24797.2 1246.97  11
   5  -4  -2 25409.7 1012.38   1
   5  -4  -2 24822.6 1022.52   4
   5  -4  -1 70186.0 2068.86   3
  -5  -4   1 67174.4 2399.04  11
   5  -4  -1 71939.9 2093.37   1
   5  -4  -1 71763.1 2070.19   4
  -5  -4   1 71078.2 2109.21   6
   5  -4   0 22260.4 972.303   3
   5  -4   0 22120.0 994.626   1
  -5  -4   0 22564.6 1276.40  11
   5  -4   0 22454.8 906.118   8
   5  -4   0 21124.9 927.649   4
   5  -4   0 22245.5 1881.69   2
  -5  -4   0 22811.8 945.958   6
   5  -4   1 60341.5 1917.18   3
   5  -4   1 60869.2 1974.41   1
  -5  -4  -1 56710.9 2284.45  11
   5  -4   1 61978.8 2129.30   8
   5  -4   1 59881.5 1847.02   4
   5  -4   1 64191.7 2958.22   2
  -5  -4  -1 61111.9 1813.11   6
   5  -4   2 22225.7 1048.90   3
   5  -4   2 22284.9 1089.19   1
  -5  -4  -2 19872.6 1325.32  11
   5  -4   2 23452.4 1377.97   8
   5  -4   2 22542.0 1539.24   2
  -5  -4  -2 20687.1 887.931   6
   5  -4   3 63390.0 2209.83   1
  -5  -4  -3 59812.4 2558.82  11
   5  -4   3 68486.2 2677.55   8
  -5  -4  -3 63770.9 1688.42   7
   5  -4   3 64671.1 2535.31   2
  -5  -4  -3 62234.4 1849.67   6
   5  -4   4 11479.6 877.699   1
  -5  -4  -4 9744.88 1068.72  11
   5  -4   4 11695.7 1032.58   8
  -5  -4  -4 11098.2 542.244   7
   5  -4   4 10095.3 830.458   2
   5  -4   5 42569.1 1900.71   1
  -5  -4  -5 43974.2 2288.46  11
   5  -4   5 43289.5 2031.56   8
   5  -4   5 46165.7 1715.31   2
  -5  -4  -5 44187.2 1392.15   7
   5  -4   6 10176.7 949.519   1
  -5  -4  -6 10721.1 1224.02  11
   5  -4   6 8293.95 928.368   8
  -5  -4  -6 10648.5 625.486   7
  -5  -4  -7 35503.4 2214.85  11
   5  -4   7 37861.9 1874.93   8
  -5  -4  -7 34941.5 1371.87   7
   5  -4   7 33400.9 1835.88   1
   5  -4   8 1564.03 662.239   1
  -5  -4  -8 1170.43 696.478  11
   5  -4   8 2286.85 633.267   8
  -5  -4  -8 2596.15 463.869   7
  -5  -4  -9 17028.4 1409.78  11
   5  -4   9 17526.6 1288.15   8
  -5  -4  -9 18788.8 1177.57   7
   5  -4   9 15832.2 1403.07   1
   5  -4  10 3909.35 751.196   8
   5  -4  10 2473.63 806.222   1
  -5  -4 -10 2134.94 659.174  11
  -5  -4 -10 1519.45 516.487   7
  -5  -4 -11 7895.41 927.043  11
   5  -4  11 10163.2 1051.72   8
   5  -4  11 9115.67 1203.37   1
   5  -4  12 100.345 674.532   1
   5  -4  12 757.582 562.360   8
  -5  -4 -12 1127.94 487.251  11
  -5  -4 -13 5146.86 761.701  11
   5  -4  13 6800.83 923.130   8
   5  -3 -14 2839.33 752.791   2
   5  -3 -14 1473.84 649.433  10
   5  -3 -14 1624.17 876.621   4
   5  -3 -13 620.346 496.515   2
  -5  -3  13 1318.28 879.135   6
   5  -3 -13 952.926 694.540  10
   5  -3 -13-616.822 884.412   4
  -5  -3  12 3330.16 930.379   6
   5  -3 -12 3583.15 736.967   3
   5  -3 -12 3003.19 717.462   2
   5  -3 -12 2660.32 774.075   4
  -5  -3  11 2946.94 869.701   6
   5  -3 -11 2740.01 611.443   3
   5  -3 -11 2608.60 740.815   2
   5  -3 -11 2639.88 688.876   4
  -5  -3  10 6534.83 985.466   6
   5  -3 -10 5985.32 918.030   2
   5  -3 -10 6174.91 834.012   4
   5  -3 -10 7516.21 774.161   3
  -5  -3   9 1064.01 629.812   6
   5  -3  -9 419.082 318.160   3
  -5  -3   9 164.565 239.223  11
   5  -3  -9-196.411 635.955   2
   5  -3  -9 1118.46 475.707   4
  -5  -3   8 8690.56 916.176   6
   5  -3  -8 6852.07 1015.64   2
   5  -3  -8 8697.79 778.834   4
  -5  -3   8 6866.50 562.275  11
   5  -3  -8 6156.71 589.920   3
  -5  -3   7 2499.52 550.801   6
   5  -3  -7 2813.84 415.049   3
  -5  -3   7 2151.75 366.541  11
   5  -3  -7 2058.65 430.027   4
  -5  -3   6 12229.3 929.359   6
   5  -3  -6 12490.2 729.521   3
  -5  -3   6 12589.2 774.667  11
   5  -3  -6 12455.5 805.917   4
  -5  -3   5 3416.56 514.743   6
   5  -3  -5 2472.31 359.929   3
  -5  -3   5 3069.99 444.589  11
  -5  -3   5 2609.92 268.989   8
   5  -3  -5 2923.28 431.080   4
  -5  -3   4 6497.43 603.647   6
   5  -3  -4 6009.83 486.695   3
  -5  -3   4 5998.16 582.369  11
   5  -3  -4 7042.30 554.129   4
  -5  -3   4 6786.41 356.893   8
  -5  -3   3 1608.25 370.613   6
   5  -3  -3 1341.57 246.190   1
  -5  -3   3 1811.02 425.247  11
   5  -3  -3 1049.42 256.031   3
  -5  -3   3 1152.43 142.677   8
   5  -3  -3 941.934 298.670   4
   5  -3  -2 9251.17 587.048   3
   5  -3  -2 9188.76 547.719   1
   5  -3  -2 7810.91 555.705   4
  -5  -3   2 8109.53 707.375  11
  -5  -3   2 8366.15 607.491   6
   5  -3  -1 8186.27 561.352   3
   5  -3  -1 7185.73 518.858   1
  -5  -3   1 7466.01 689.258  11
  -5  -3   1 7674.75 530.689   8
   5  -3  -1 7329.46 527.948   4
  -5  -3   1 7886.21 561.365   6
  -5  -3   0 1208.92 293.443   6
  -5  -3   0 1010.70 400.081  11
   5  -3   0 1098.24 285.297   1
   5  -3   0 1195.85 294.775   3
   5  -3   0 1188.24 143.226   8
   5  -3   0 1126.52 284.644   4
  -5  -3  -1 710.384 254.982   6
   5  -3   1 1357.87 334.648   1
   5  -3   1 757.809 293.049   3
   5  -3   1 1101.37 226.706   8
   5  -3   1 587.075 260.244   4
  -5  -3  -1 1078.97 430.630  11
  -5  -3  -2-34.6686 227.428   6
  -5  -3  -2 91.0849 418.158  11
   5  -3   2-58.2068 283.094   3
   5  -3   2 766.136 329.692   8
   5  -3   2 259.101 316.488   1
  -5  -3  -2 197.603 150.688   7
   5  -3   3 9130.62 754.837   1
  -5  -3  -3 9516.75 935.182  11
   5  -3   3 9309.09 827.977   8
  -5  -3  -3 8960.67 477.648   7
  -5  -3  -3 8836.57 556.185   6
  -5  -3  -4 7151.56 873.528  11
   5  -3   4 6439.27 701.669   1
   5  -3   4 8461.52 901.706   8
  -5  -3  -4 7906.81 481.457   7
  -5  -3  -5 2276.71 674.335  11
   5  -3   5 1944.50 494.921   1
   5  -3   5 2202.39 412.684   2
   5  -3   5 2264.87 631.014   8
  -5  -3  -5 2264.65 309.937   7
   5  -3   6 2251.11 558.941   1
  -5  -3  -6 3119.18 736.964  11
   5  -3   6 3404.93 693.741   8
  -5  -3  -6 2710.93 375.048   7
  -5  -3  -7 11906.3 1280.50  11
   5  -3   7 13416.1 1119.68   8
  -5  -3  -7 13093.5 804.416   7
   5  -3   7 12298.0 1134.12   1
  -5  -3  -8 9126.66 1151.14  11
   5  -3   8 10936.7 1018.34   8
  -5  -3  -8 9971.16 786.927   7
   5  -3   8 9001.31 1058.83   1
  -5  -3  -9 3301.09 713.219  11
   5  -3   9 3801.73 699.670   8
   5  -3   9 3547.28 831.132   1
  -5  -3  -9 3788.12 593.134   7
  -5  -3 -10 2280.12 610.411  11
   5  -3  10 2473.61 837.023   1
   5  -3  10 3486.03 723.347   8
  -5  -3 -10 2654.56 602.521   7
  -5  -3 -11 10244.4 1017.23  11
   5  -3  11 12911.5 1417.46   1
   5  -3  11 11342.2 1075.24   8
  -5  -3 -11 8886.58 1050.94   7
  -5  -3 -12 3915.33 659.499  11
   5  -3  12 3693.26 896.992   1
   5  -3  12 5335.95 806.518   8
  -5  -3 -12 3005.65 804.609   7
  -5  -3 -13 3763.62 662.501  11
   5  -3  13 4369.03 857.244   1
   5  -3  13 3793.80 715.825   8
  -5  -3 -13 2406.55 844.659   7
   5  -2 -15 8741.57 1079.66   2
  -5  -2  14 2348.51 910.694   6
   5  -2 -14-246.216 689.891   3
   5  -2 -14 1124.79 609.656   2
   5  -2 -14 1055.42 603.825  10
   5  -2 -14 928.322 708.660   4
  -5  -2  13 22264.0 1968.79   6
   5  -2 -13 20036.8 1573.47  10
   5  -2 -13 19513.7 1734.65   4
   5  -2 -13 25716.3 1710.41   2
   5  -2 -13 20397.7 1580.62   3
  -5  -2  12 515.184 708.787   6
   5  -2 -12 800.175 570.396   3
   5  -2 -12 786.133 613.899   2
   5  -2 -12 246.429 622.361  10
   5  -2 -12-192.532 701.881   4
  -5  -2  11 18008.3 1545.58   6
   5  -2 -11 22175.7 1528.29   4
   5  -2 -11 21360.4 1591.72   2
   5  -2 -11 19648.0 1322.80   3
  -5  -2  10 2424.46 649.804   6
   5  -2 -10 1297.59 466.252   3
   5  -2 -10 1905.47 651.708   2
   5  -2 -10 2167.44 589.182   4
  -5  -2   9 41225.2 2026.21   6
   5  -2  -9 39353.6 1794.58   4
   5  -2  -9 39591.9 1672.52   3
  -5  -2   8 3616.54 628.921   6
   5  -2  -8 4260.97 540.695   3
  -5  -2   8 3739.10 459.827  11
   5  -2  -8 4787.92 619.727   4
   5  -2  -7 22288.5 1069.31   3
  -5  -2   7 21603.2 1282.87   6
   5  -2  -7 21922.0 1134.58   4
  -5  -2   7 22597.8 1074.57  11
  -5  -2   6 2926.31 503.613   6
   5  -2  -6 4203.88 455.530   3
  -5  -2   6 3373.15 451.858  11
   5  -2  -6 3235.21 451.378   4
  -5  -2   5 35268.4 1498.10   6
   5  -2  -5 32577.5 1267.50   3
   5  -2  -5 34126.8 1333.87   4
  -5  -2   5 36636.4 1426.67  11
  -5  -2   4 13502.2 838.646   6
   5  -2  -4 12426.0 699.548   3
  -5  -2   4 13602.5 844.445  11
   5  -2  -4 13038.1 598.093   1
   5  -2  -4 12718.3 734.546   4
  -5  -2   3 14689.9 838.995   6
   5  -2  -3 15222.7 766.811   3
  -5  -2   3 14734.0 901.138  11
   5  -2  -3 15116.1 665.268   1
   5  -2  -3 15274.1 778.876   4
   5  -2  -2 7955.77 556.042   3
  -5  -2   2 8357.99 697.308  11
   5  -2  -2 7627.18 485.444   1
   5  -2  -2 7308.15 531.501   4
  -5  -2   2 7310.90 496.059   8
  -5  -2   2 7920.20 282.383   8
  -5  -2   2 7944.35 605.782   6
   5  -2  -1 21424.9 938.046   3
   5  -2  -1 21870.7 907.741   1
  -5  -2   1 21957.8 1173.90  11
   5  -2  -1 20931.9 915.575   4
  -5  -2   1 19908.8 996.958   8
  -5  -2   1 20555.1 940.209   6
   5  -2   0 14543.8 766.497   3
   5  -2   0 14442.2 764.944   1
  -5  -2   0 13763.7 967.943  11
   5  -2   0 14192.9 413.920   8
  -5  -2   0 11473.5 844.851   8
   5  -2   0 13017.7 709.395   4
  -5  -2   0 12841.3 710.040   6
   5  -2   1 12742.1 765.103   1
   5  -2   1 11615.9 704.852   3
  -5  -2  -1 10293.5 866.422  11
   5  -2   1 12202.9 530.767   8
  -5  -2  -1 11839.0 557.960   7
  -5  -2  -1 11549.9 659.513   6
   5  -2   2 7993.15 672.595   1
  -5  -2  -2 7671.72 824.238  11
   5  -2   2 7661.88 608.766   3
   5  -2   2 8444.68 546.504   8
  -5  -2  -2 7879.87 450.563   7
  -5  -2  -2 7440.21 526.208   6
   5  -2   3 16618.8 1042.75   1
   5  -2   3 17200.2 939.292   3
  -5  -2  -3 17239.5 503.613  10
   5  -2   3 15826.3 910.215   8
  -5  -2  -3 15236.4 1128.10  11
  -5  -2  -3 17284.3 728.509   7
  -5  -2  -3 16136.3 797.714   6
   5  -2   4 6771.50 719.835   1
  -5  -2  -4 6253.14 810.133  11
  -5  -2  -4 6472.82 312.038  10
   5  -2   4 5686.71 654.500   8
  -5  -2  -4 7259.48 482.399   7
  -5  -2  -5 13652.3 553.684  10
  -5  -2  -5 14072.2 1196.47  11
   5  -2   5 14314.0 1121.87   8
  -5  -2  -5 13140.5 709.245   7
   5  -2   5 11888.6 1032.99   1
  -5  -2  -6 3861.04 345.203  10
   5  -2   6 2462.30 684.337   8
  -5  -2  -6 3752.68 749.518  11
  -5  -2  -6 3504.08 425.335   7
   5  -2   6 3231.31 675.694   1
  -5  -2  -7 16729.7 1416.65  11
  -5  -2  -7 15708.8 784.002  10
   5  -2   7 16376.1 1272.34   8
  -5  -2  -7 15979.8 923.180   7
   5  -2   7 14290.5 1268.00   1
  -5  -2  -8 799.489 307.373  10
   5  -2   8 418.855 486.948   8
   5  -2   8 1301.98 645.821   1
  -5  -2  -8 456.100 568.084  11
  -5  -2  -8 1060.40 400.616   7
  -5  -2  -9 11456.1 1130.04  11
  -5  -2  -9 11277.5 829.292  10
   5  -2   9 12402.8 1081.68   8
   5  -2   9 12967.7 1340.09   1
  -5  -2  -9 11423.7 963.271   7
  -5  -2 -10 1916.67 547.343  11
  -5  -2 -10 1937.76 500.254  10
   5  -2  10 2970.16 803.847   1
   5  -2  10 1963.77 625.493   8
  -5  -2 -10 1592.76 560.308   7
  -5  -2 -11 7153.04 848.105  11
   5  -2  11 10014.4 1146.97   1
   5  -2  11 9902.02 997.437   8
  -5  -2 -11 8272.91 991.980   7
  -5  -2 -12 1263.94 496.434  11
   5  -2  12 2157.04 762.918   1
   5  -2  12 1428.37 602.984   8
  -5  -2 -12 447.883 585.510   7
   5  -2  13 6198.57 1005.91   1
   5  -2  13 6043.54 862.986   8
  -5  -2 -14 188.625 709.245   7
   5  -1 -15 606.737 769.630   3
   5  -1 -15 1682.80 628.988   2
   5  -1 -15 1808.29 672.190  10
  -5  -1  14-36.8170 873.245   6
   5  -1 -14 785.876 652.816   3
   5  -1 -14 1636.03 640.600   2
   5  -1 -14 2086.93 641.789  10
   5  -1 -14 1677.43 773.593   4
  -5  -1  13-25.7191 744.778   6
   5  -1 -13 635.231 565.425   3
   5  -1 -13 1885.51 676.190   2
   5  -1 -13 228.015 530.759  10
   5  -1 -13-513.012 841.588   4
  -5  -1  12 3776.11 839.124   6
   5  -1 -12 3227.97 749.237   3
   5  -1 -12 3990.93 816.609   2
   5  -1 -12 4257.53 818.882  10
   5  -1 -12 3756.75 852.005   4
  -5  -1  11-129.206 633.537   6
   5  -1 -11 698.920 506.452   3
   5  -1 -11-535.846 593.894   2
   5  -1 -11 69.9361 576.782  10
   5  -1 -11-250.867 504.409   4
  -5  -1  10 3083.60 735.465   6
   5  -1 -10 3855.44 628.245   3
   5  -1 -10 5302.00 763.683   4
  -5  -1   9 228.014 487.359   6
   5  -1  -9 329.500 376.003   3
   5  -1  -9 1405.18 481.741   4
  -5  -1   8 4408.59 636.890   6
  -5  -1   8 4648.13 508.013  11
   5  -1  -8 5153.76 638.504   4
   5  -1  -8 4926.37 569.417   3
  -5  -1   7 415.830 404.542   6
   5  -1  -7 1050.96 335.287   3
  -5  -1   7 821.083 344.275  11
   5  -1  -7 331.353 314.276   4
  -5  -1   6 8438.34 763.700   6
   5  -1  -6 9048.39 653.323   3
  -5  -1   6 9456.62 705.934  11
   5  -1  -6 8821.95 680.756   4
  -5  -1   5 6965.85 661.376   6
   5  -1  -5 5587.22 513.534   3
  -5  -1   5 5991.80 575.484  11
   5  -1  -5 6237.33 366.559   1
   5  -1  -5 5591.14 534.348   4
  -5  -1   4 7316.59 636.742   6
   5  -1  -4 7225.85 548.440   3
  -5  -1   4 7084.91 632.586  11
   5  -1  -4 7849.18 418.810   1
   5  -1  -4 8546.94 608.295   4
  -5  -1   3 1489.08 351.741   6
  -5  -1   3 1078.71 379.035  11
   5  -1  -3 1249.55 315.247   3
   5  -1  -3 898.586 191.791   1
   5  -1  -3 1234.87 292.880   4
   5  -1  -2 8482.60 574.976   3
   5  -1  -2 7268.22 469.962   1
  -5  -1   2 7521.44 692.010  11
   5  -1  -2 8590.90 578.809   4
  -5  -1   2 9544.46 645.372   6
   5  -1  -1 6428.60 517.792   3
   5  -1  -1 6182.51 475.699   1
  -5  -1   1 7165.17 691.378  11
   5  -1  -1 6822.93 517.223   4
  -5  -1   1 5947.92 514.856   6
  -5  -1   0 5147.88 471.204   6
   5  -1   0 5521.61 509.307   1
   5  -1   0 5121.53 473.326   3
  -5  -1   0 4482.91 599.898  11
   5  -1   0 4865.09 442.670   4
  -5  -1   0 4687.78 399.083   8
  -5  -1  -1 620.493 267.906   6
  -5  -1  -1 517.977 388.239  11
   5  -1   1 414.401 299.411   3
   5  -1   1 742.652 319.601   1
   5  -1   1 634.605 150.763   8
  -5  -1  -1 384.938 301.815   8
  -5  -1  -1 201.700 173.315   7
  -5  -1  -2 3824.69 391.079   6
  -5  -1  -2 3852.80 599.557  11
   5  -1   2 4389.98 543.491   1
   5  -1   2 4408.80 491.391   3
  -5  -1  -2 4117.16 231.430  10
   5  -1   2 4208.31 367.248   8
  -5  -1  -2 3859.72 345.155   7
   5  -1   3 7174.63 728.414   1
  -5  -1  -3 7673.55 830.156  11
   5  -1   3 6813.63 615.077   3
  -5  -1  -3 8750.90 368.276  10
   5  -1   3 7145.78 552.848   8
  -5  -1  -3 7628.63 500.762   7
  -5  -1  -3 7302.10 543.246   6
   5  -1   4 8285.98 822.363   1
  -5  -1  -4 7466.28 863.477  11
  -5  -1  -4 8701.21 412.028  10
   5  -1   4 8252.67 681.407   8
  -5  -1  -4 8339.42 545.376   7
  -5  -1  -5 889.878 497.674  11
  -5  -1  -5 845.995 184.138  10
   5  -1   5 552.477 388.212   8
   5  -1   5 773.972 436.162   1
  -5  -1  -5 1362.22 326.444   7
  -5  -1  -6 261.961 458.510  11
  -5  -1  -6 777.959 234.329  10
   5  -1   6 205.425 468.515   8
   5  -1   6-291.355 545.859   1
  -5  -1  -6 1073.19 349.559   7
  -5  -1  -7 9295.92 1045.07  11
   5  -1   7 11198.8 1151.12   1
   5  -1   7 11408.9 1108.02   8
  -5  -1  -7 10280.8 757.443   7
  -5  -1  -7 10651.7 656.545  10
  -5  -1  -8 8265.75 647.163  10
  -5  -1  -8 8402.45 1055.94  11
   5  -1   8 7585.94 1067.38   1
   5  -1   8 8039.94 958.544   8
  -5  -1  -8 8133.41 748.401   7
  -5  -1  -9 2726.96 684.872  11
  -5  -1  -9 2225.17 449.799  10
   5  -1   9 2634.79 788.011   1
   5  -1   9 2645.90 613.359   8
  -5  -1  -9 2761.46 581.786   7
  -5  -1 -10 591.987 487.897  11
   5  -1  10 863.186 617.052   1
  -5  -1 -10 456.492 384.033  10
   5  -1  10 506.375 519.263   8
  -5  -1 -10 107.754 466.021   7
  -5  -1 -11 10575.6 968.218  11
  -5  -1 -11 11174.4 1015.22  10
   5  -1  11 12680.3 1155.80   8
   5  -1  11 13029.5 1246.86   1
  -5  -1 -11 11158.3 1163.89   7
   5  -1  12 6185.56 959.864   1
  -5  -1 -12 4799.55 681.437  11
   5  -1  12 5915.58 850.072   8
   5  -1  13 4386.76 850.028   1
   5  -1  13 4591.63 774.911   8
  -5  -1 -13 2503.78 783.740   7
  -5  -1 -14-776.390 787.063   7
   5   0 -15 5093.20 1038.26   3
   5   0 -15 7323.85 997.956   2
   5   0 -15 6179.31 898.411  10
  -5   0  14 1036.33 781.682   6
   5   0 -14 2426.39 830.566   3
   5   0 -14 2221.36 647.878   2
   5   0 -14 2562.17 662.494  10
   5   0 -14 2089.08 879.948   4
  -5   0  13 18640.6 1713.45   6
   5   0 -13 18249.6 1395.55  10
   5   0 -13 17146.0 1610.77   4
   5   0 -13 20945.4 1587.01   2
   5   0 -13 20297.7 1603.79   3
  -5   0  12-520.565 725.670   6
   5   0 -12 351.893 497.756   3
   5   0 -12 603.530 541.094  10
   5   0 -12-12.3534 612.717   4
  -5   0  11 15380.8 1354.36   6
   5   0 -11 15488.4 1266.13  10
   5   0 -11 14240.5 1240.64   4
   5   0 -11 17052.9 1292.64   3
  -5   0  10 4777.79 804.428   6
   5   0 -10 4752.19 695.117   3
   5   0 -10 5227.93 783.323  10
   5   0 -10 6316.05 784.916   4
  -5   0   9 39708.7 1950.93   6
   5   0  -9 40897.8 2093.96  10
   5   0  -9 43519.3 1874.12   4
   5   0  -9 40859.5 1763.78   3
  -5   0   8 1298.91 530.732   6
   5   0  -8 1425.62 408.699   3
   5   0  -8 1863.73 463.479   4
  -5   0   7 22743.0 1266.09   6
  -5   0   7 22650.0 1129.52  11
   5   0  -7 21610.2 1136.75   4
   5   0  -7 21452.4 1084.44   3
   5   0  -6 5952.82 567.280   3
  -5   0   6 6870.07 689.077   6
  -5   0   6 6924.45 638.733  11
   5   0  -6 5624.76 568.967   4
  -5   0   5 62659.2 2118.99   6
   5   0  -5 58360.6 1921.70   3
  -5   0   5 60516.2 2067.87  11
   5   0  -5 60142.6 1524.01   1
   5   0  -5 61071.6 1962.49   4
  -5   0   4 1720.21 400.186   6
   5   0  -4 2007.85 205.893   1
   5   0  -4 1703.41 350.531   3
  -5   0   4 2014.13 433.598  11
   5   0  -4 2362.53 386.613   4
   5   0  -3 34766.0 1285.29   3
   5   0  -3 33712.5 1071.64   1
  -5   0   3 34324.2 1453.29  11
   5   0  -3 32748.5 1252.86   4
  -5   0   3 35779.4 1376.33   6
  -5   0   2 2341.21 400.938   6
  -5   0   2 2678.41 483.717  11
   5   0  -2 2538.59 377.346   3
   5   0  -2 2336.07 305.754   1
   5   0  -2 2229.90 349.850   4
   5   0  -1 68548.8 2068.01   1
   5   0  -1 72207.4 2085.96   3
   5   0  -1 66291.6 1698.63  10
   5   0  -1 68479.4 2017.17   4
  -5   0   1 69371.7 2339.40  11
  -5   0   1 69852.3 2103.01   6
  -5   0   0 1700.66 338.192   6
   5   0   0 1829.38 377.567   1
  -5   0   0 2108.50 501.616  11
   5   0   0 2397.36 389.148   3
   5   0   0 1809.68 180.637  10
  -5   0   0 1971.87 157.871   8
   5   0   0 1909.72 340.655   4
   5   0   1 46102.3 1592.61   3
  -5   0  -1 43959.6 1855.57  11
   5   0   1 45280.3 1277.08  10
  -5   0  -1 47838.6 1256.59  10
  -5   0  -1 45675.8 1404.04   8
  -5   0  -1 46573.4 1423.91   7
   5   0   1 40701.9 1716.08   1
  -5   0  -1 44174.6 1533.63   6
  -5   0  -2 1849.57 317.078   6
  -5   0  -2 2126.84 519.762  11
   5   0   2 2237.39 393.951   3
  -5   0  -2 2416.27 214.603  10
   5   0   2 2427.46 278.338   8
  -5   0  -2 2276.88 308.770   7
   5   0   2 2081.40 476.258   1
   5   0   3 78278.1 2391.12   3
  -5   0  -3 76076.4 2746.62  11
  -5   0  -3 79164.0 1957.92  10
   5   0   3 78230.7 2221.55   8
  -5   0  -3 78042.4 2180.46   7
  -5   0  -3 73853.4 2242.91   6
  -5   0  -4 54.5724 445.210  11
   5   0   4-170.513 306.893   3
  -5   0  -4 187.944 147.412  10
   5   0   4 119.706 280.474   8
   5   0   4-94.7975 475.362   1
  -5   0  -4 93.9809 226.819   7
  -5   0  -5 42378.5 2028.68  11
  -5   0  -5 44837.2 1369.86  10
   5   0   5 45679.9 1793.55   8
  -5   0  -5 43241.5 1551.72   7
   5   0   5 48053.7 2296.53   1
  -5   0  -6 1510.56 576.827  11
  -5   0  -6 3216.39 356.184  10
   5   0   6 2224.99 677.602   1
   5   0   6 2521.19 521.110   8
  -5   0  -6 2592.16 410.002   7
  -5   0  -7 43694.4 2206.56  11
  -5   0  -7 47202.2 1611.51  10
   5   0   7 49383.2 2186.42   8
  -5   0  -7 44253.3 1747.00   7
   5   0   7 48809.7 2359.35   1
   5   0   8 1028.55 533.757   1
  -5   0  -8 1584.46 375.109  10
   5   0   8 1179.21 578.142   8
  -5   0  -8 1455.61 682.237  11
  -5   0  -8 1805.51 485.845   7
  -5   0  -9 28713.5 1686.47  11
  -5   0  -9 27838.6 1369.47  10
   5   0   9 30008.1 1845.91   8
   5   0   9 31930.8 1831.63   1
  -5   0  -9 26965.6 1493.25   7
  -5   0 -10 4671.46 703.191  11
   5   0  10 6351.94 920.032   1
  -5   0 -10 4775.24 660.658  10
   5   0  10 5205.71 817.453   8
  -5   0 -10 3864.57 712.346   7
  -5   0 -11 15454.3 1126.06  11
  -5   0 -11 15472.0 1185.24  10
   5   0  11 17024.7 1348.59   8
   5   0  11 19123.2 1454.12   1
  -5   0 -11 14333.8 1279.12   7
   5   0  12 1616.23 577.832   1
  -5   0 -12 2117.82 500.274  11
  -5   0 -12 1867.65 618.481  10
   5   0  12 2359.84 673.229   8
  -5   0 -12 707.498 608.337   7
   5   0  13 10345.1 1108.78   1
  -5   0 -13 7249.42 1006.83  10
   5   0  13 9071.99 1026.96   8
  -5   0 -13 6947.80 1126.62   7
  -5   0 -14 2799.90 982.391   7
   5   1 -15 1536.16 778.755   3
   5   1 -15 1244.15 649.590   2
   5   1 -15 2163.94 633.461  10
  -5   1  14 568.707 744.767   6
   5   1 -14 1058.33 668.458   3
   5   1 -14 1116.15 555.656   2
   5   1 -14 1332.13 566.353  10
   5   1 -14-658.216 1016.69   4
  -5   1  13-246.432 730.887   6
   5   1 -13 1017.97 636.070   3
   5   1 -13 1627.46 584.997  10
   5   1 -13-479.581 714.315   4
  -5   1  12 2120.64 702.660   6
   5   1 -12 3593.89 781.929   3
   5   1 -12 2908.00 658.475  10
   5   1 -12 3669.93 774.908   4
  -5   1  11-394.431 623.657   6
   5   1 -11 1262.92 600.949   3
   5   1 -11 19.6647 431.438  10
   5   1 -11 848.665 566.953   4
  -5   1  10 3566.26 689.009   6
   5   1 -10 3875.44 669.682   3
   5   1 -10 3201.15 620.215  10
  -5   1  10 4117.15 634.768   9
   5   1 -10 4912.14 724.736   4
  -5   1   9-42.0109 454.115   6
   5   1  -9-14.9674 394.264   3
   5   1  -9-209.742 444.154  10
  -5   1   9 953.616 491.026   9
   5   1  -9 1114.82 498.364   4
  -5   1   8 5484.70 706.489   6
   5   1  -8 4206.10 584.891   3
   5   1  -8 4476.29 692.383  10
   5   1  -8 5142.14 634.811   4
  -5   1   7 776.088 437.488   6
   5   1  -7 1318.55 408.862   3
   5   1  -7 370.193 406.574  10
   5   1  -7 616.882 369.760   4
  -5   1   6 9075.43 775.998   6
   5   1  -6 9465.48 707.659   3
  -5   1   6 8801.49 732.099  11
   5   1  -6 8381.88 671.674   4
  -5   1   5 6112.35 615.739   6
  -5   1   5 5420.51 594.015  11
   5   1  -5 5734.96 538.015   4
   5   1  -5 5192.38 512.948   3
   5   1  -4 7086.59 573.721   3
  -5   1   4 6514.91 643.580  11
   5   1  -4 7628.42 583.153   4
  -5   1   4 8781.77 686.698   6
  -5   1   3 1918.71 400.832   6
   5   1  -3 1171.53 315.776   3
  -5   1   3 1323.14 401.832  11
   5   1  -3 1217.54 182.106   1
   5   1  -3 1463.52 309.665   4
   5   1  -2 8227.89 596.902   3
  -5   1   2 7718.17 705.917  11
   5   1  -2 8178.36 335.733  10
   5   1  -2 8247.30 569.290   4
   5   1  -2 8633.27 614.022   1
  -5   1   2 8304.90 616.777   6
   5   1  -1 7110.86 563.442   3
  -5   1   1 7777.38 721.082  11
   5   1  -1 6150.52 278.159  10
   5   1  -1 6473.09 508.905   4
   5   1  -1 7224.36 729.854   1
  -5   1   1 6375.72 551.128   6
  -5   1   0 5071.70 482.575   6
   5   1   0 5103.17 484.217   3
  -5   1   0 4761.27 628.400  11
   5   1   0 4876.75 253.888  10
   5   1   0 5518.02 478.216   4
   5   1   0 4656.33 652.811   1
  -5   1   0 5170.26 423.157   7
  -5   1  -1 156.298 270.150   6
  -5   1  -1 638.626 427.576  11
   5   1   1 521.635 304.205   3
   5   1   1 102.002 113.022  10
  -5   1  -1 311.946 150.358  10
   5   1   1 352.332 430.446   1
  -5   1  -1 240.288 118.478   8
  -5   1  -1 541.785 236.923   7
  -5   1  -2 4130.45 464.210   6
  -5   1  -2 4627.35 676.072  11
   5   1   2 4755.29 502.979   3
  -5   1  -2 5137.79 339.848  10
   5   1   2 5022.56 368.871   8
   5   1   2 4294.77 727.399   1
  -5   1  -2 5448.09 450.439   7
  -5   1  -3 6748.92 771.231  11
   5   1   3 5855.82 557.660   3
  -5   1  -3 7070.31 413.476  10
   5   1   3 6232.47 850.387   1
   5   1   3 7152.14 499.860   8
  -5   1  -3 6765.14 520.009   7
   5   1   4 9098.78 710.544   3
  -5   1  -4 8668.98 901.114  11
  -5   1  -4 9252.17 506.927  10
   5   1   4 8988.73 965.019   1
   5   1   4 9171.69 649.279   8
  -5   1  -4 8251.80 589.966   7
  -5   1  -5 273.174 481.044  11
   5   1   5-19.2724 339.241   3
   5   1   5 737.299 510.083   1
  -5   1  -5 105.121 189.917  10
   5   1   5 778.257 378.663   8
  -5   1  -5 745.605 326.356   7
   5   1   6 1458.26 289.410   5
  -5   1  -6 715.897 526.131  11
   5   1   6 1813.96 591.255   1
  -5   1  -6 603.227 229.911  10
   5   1   6 679.976 368.660   8
  -5   1  -6 698.234 361.607   7
   5   1   7 9640.22 589.388   5
  -5   1  -7 10397.2 686.207  10
  -5   1  -7 10443.8 1067.39  11
   5   1   7 10693.0 947.548   8
   5   1   7 10411.3 1015.46   1
  -5   1  -7 9668.87 766.562   7
   5   1   8 8327.17 970.332   1
  -5   1  -8 9994.57 1105.10  11
  -5   1  -8 7756.33 672.264  10
  -5   1  -8 8474.67 906.124   9
   5   1   8 10308.0 1006.34   8
  -5   1  -8 7943.32 770.617   7
  -5   1  -9 2069.53 585.099  11
   5   1   9 2961.95 720.673   1
  -5   1  -9 2291.07 479.165  10
  -5   1  -9 1616.26 528.754   9
   5   1   9 1966.40 626.984   8
  -5   1  -9 2208.10 543.120   7
   5   1  10 283.255 483.013   1
  -5   1 -10 952.977 460.972  11
  -5   1 -10 637.443 417.893  10
   5   1  10 199.977 595.283   8
  -5   1 -10 45.7577 467.819   7
  -5   1 -11 11185.0 946.927  11
  -5   1 -11 12081.4 1065.67  10
   5   1  11 13077.5 1235.12   8
   5   1  11 11247.2 1105.79   1
  -5   1 -11 13221.3 1204.47   7
   5   1  12 3787.43 787.712   1
  -5   1 -12 4717.97 794.365  10
   5   1  12 4301.97 793.954   8
  -5   1 -12 4726.17 896.886   7
   5   1  13 5128.62 820.447   1
  -5   1 -13 2956.74 720.788  10
   5   1  13 3774.66 724.509   8
  -5   1 -13 2384.70 749.851   7
  -5   1 -14-478.204 649.764  10
   5   2 -15 7612.82 999.228   2
   5   2 -15 8096.84 945.566  10
  -5   2  14 1712.82 780.017   6
   5   2 -14 820.443 660.279   3
   5   2 -14 873.084 551.279  10
  -5   2  13 22305.6 1759.42   6
   5   2 -13 20683.5 1417.11  10
   5   2 -13 19486.2 1707.51   4
   5   2 -13 19759.3 1669.26   3
  -5   2  12 185.432 561.053   6
   5   2 -12 1559.26 663.651   3
   5   2 -12 1761.79 557.245  10
   5   2 -12 377.720 610.617   4
  -5   2  11 20365.8 1476.58   6
   5   2 -11 19910.2 1334.64  10
   5   2 -11 21676.5 1510.52   4
   5   2 -11 22138.2 1503.51   3
  -5   2  10 2226.69 592.825   6
   5   2 -10 3761.19 698.015   3
   5   2 -10 2609.58 584.239  10
  -5   2  10 2539.37 549.839   9
   5   2 -10 2518.71 612.146   4
  -5   2   9 38645.4 1853.93   6
   5   2  -9 39496.3 1848.22  10
   5   2  -9 40209.7 1815.34   4
  -5   2   9 39392.5 1910.25   9
   5   2  -9 39398.6 1800.52   3
   5   2  -8 3942.75 592.054   3
  -5   2   8 3624.02 615.448   6
   5   2  -8 3498.78 608.802  10
  -5   2   8 3702.47 680.883   9
   5   2  -8 5061.07 622.702   4
  -5   2   7 21753.8 1224.24   6
   5   2  -7 25424.7 1347.29  10
  -5   2   7 20588.2 1461.88   9
   5   2  -7 21693.8 1139.32   4
   5   2  -7 21431.9 1156.25   3
  -5   2   6 4248.66 579.759   6
   5   2  -6 5056.17 586.983   3
   5   2  -6 4593.81 619.993  10
   5   2  -6 4151.94 514.355   4
   5   2  -5 33417.5 1349.47   3
   5   2  -5 33240.5 1510.64  10
  -5   2   5 30131.2 1426.66  11
   5   2  -5 30935.7 1283.15   4
  -5   2   5 31933.7 1395.19   6
   5   2  -4 11806.1 749.670   3
  -5   2   4 11813.2 867.031  11
   5   2  -4 12845.4 871.772  10
   5   2  -4 12680.8 737.190   4
  -5   2   4 12234.3 809.197   6
   5   2  -3 11323.3 713.416   3
  -5   2   3 10672.5 813.865  11
   5   2  -3 11399.2 782.979  10
   5   2  -3 11346.8 681.917   4
  -5   2   3 11464.4 750.562   6
   5   2  -2 8707.50 629.963   3
  -5   2   2 10183.8 817.185  11
   5   2  -2 9071.76 551.170  10
   5   2  -2 8999.10 302.484  10
   5   2  -2 8962.57 601.061   4
  -5   2   2 8571.96 653.744   6
   5   2  -1 16912.8 884.023   3
  -5   2   1 17784.4 1079.62  11
   5   2  -1 18384.9 853.601   4
   5   2  -1 18295.9 698.156   1
  -5   2   1 18128.9 926.434   6
   5   2   0 12628.0 751.677   3
  -5   2   0 12615.9 926.050  11
  -5   2   0 13461.5 601.201  10
   5   2   0 11814.5 683.808   4
   5   2   0 12948.6 767.146   1
  -5   2   0 12693.9 670.564   7
  -5   2   0 12976.4 770.178   6
  -5   2  -1 5790.52 532.117   6
   5   2   1 6269.48 554.344   3
   5   2   1 7194.00 729.499   1
  -5   2  -1 6924.76 728.658  11
  -5   2  -1 7166.34 418.648  10
  -5   2  -1 6617.37 500.813   7
   5   2   1 5842.99 491.823   4
   5   2   2 8291.78 641.271   3
  -5   2  -2 8338.31 816.689  11
  -5   2  -2 8532.59 476.893  10
  -5   2  -2 9127.01 582.743   7
   5   2   2 9071.82 986.604   1
  -5   2  -2 8529.10 637.949   6
   5   2   3 14015.2 841.409   3
  -5   2  -3 15435.5 1105.93  11
  -5   2  -3 15103.0 668.244  10
   5   2   3 15100.3 729.808   8
   5   2   3 16306.7 1239.16   1
  -5   2  -3 13800.7 762.529   7
   5   2   4 6780.77 862.569   1
  -5   2  -4 7116.90 826.336  11
   5   2   4 6007.49 591.367   3
  -5   2  -4 6437.84 449.415  10
   5   2   4 5948.67 526.107   8
  -5   2  -4 6308.33 537.255   7
   5   2   5 10488.8 788.971   3
  -5   2  -5 10030.3 957.695  11
  -5   2  -5 10169.4 598.642  10
   5   2   5 10431.2 753.912   8
   5   2   5 10471.9 1015.59   1
  -5   2  -5 9124.73 678.799   7
   5   2   6 4098.78 706.118   1
   5   2   6 4096.92 434.937   5
  -5   2  -6 4114.35 756.265  11
   5   2   6 3380.01 541.627   3
  -5   2  -6 2823.93 373.018  10
  -5   2  -6 3009.26 682.947   9
   5   2   6 4472.81 591.205   8
  -5   2  -6 4285.98 532.866   7
   5   2   7 16700.6 845.152   5
  -5   2  -7 16763.2 1324.18  11
  -5   2  -7 16909.8 907.117  10
  -5   2  -7 15454.8 1276.20   9
   5   2   7 18163.1 1186.10   8
   5   2   7 15240.1 1199.33   1
  -5   2  -7 16178.3 1005.50   7
   5   2   8 355.716 475.640   1
  -5   2  -8 687.517 520.593  11
  -5   2  -8 1121.99 384.085  10
  -5   2  -8 81.2328 489.795   9
   5   2   8 842.237 516.065   8
  -5   2  -8 448.857 384.919   7
  -5   2  -9 11025.0 1021.35  11
  -5   2  -9 11652.7 893.228  10
  -5   2  -9 11471.4 1032.30   9
   5   2   9 11506.5 1111.90   8
   5   2   9 12161.9 1099.94   1
  -5   2  -9 11603.2 1022.18   7
   5   2  10 2727.92 693.850   1
  -5   2 -10 1272.93 479.299  11
  -5   2 -10 2648.37 529.328  10
   5   2  10 1936.28 701.959   8
  -5   2 -10 1944.52 602.663   7
   5   2  11 10154.6 1048.62   1
  -5   2 -11 8682.23 826.745  11
  -5   2 -11 10046.3 999.365  10
   5   2  11 10122.4 1189.73   8
  -5   2 -11 11186.3 1141.45   7
   5   2  12 1180.04 589.921   1
  -5   2 -12 309.210 469.641  10
   5   2  12 2001.48 702.584   8
  -5   2 -12 302.383 622.442   7
   5   2  13 6698.36 938.244   1
  -5   2 -13 4234.98 842.880  10
   5   2  13 4915.18 867.678   8
  -5   2 -13 6510.49 1020.78   7
  -5   2 -14 1109.36 714.853  10
  -5   3  14 472.975 709.969   6
   5   3 -14 1344.46 681.504   3
   5   3 -14 2775.92 638.610  10
  -5   3  13 945.996 624.545   6
   5   3 -13 467.547 693.401   3
   5   3 -13 1941.01 602.734  10
   5   3 -13 407.549 740.599   4
  -5   3  12 3525.19 761.131   6
   5   3 -12 3821.68 694.142  10
   5   3 -12 3435.10 809.711   4
  -5   3  11 1515.02 554.419   6
   5   3 -11 2698.47 712.799   3
   5   3 -11 1229.72 491.094  10
   5   3 -11 2117.15 613.454   4
  -5   3  10 7399.72 866.664   6
   5   3 -10 8132.38 941.851   3
   5   3 -10 7366.08 835.031  10
  -5   3  10 6044.76 763.267   9
   5   3 -10 7313.43 871.777   4
  -5   3   9 705.663 468.700   6
   5   3  -9-388.685 482.832   3
  -5   3   9 791.958 694.375   5
   5   3  -9 314.502 442.296  10
  -5   3   9-338.687 438.611   9
   5   3  -9 1126.68 492.326   4
  -5   3   8 6830.15 751.704   6
   5   3  -8 6407.08 725.708   3
  -5   3   8 7695.15 1048.20   5
   5   3  -8 8097.13 830.003  10
   5   3  -8 9129.68 825.959   4
  -5   3   8 8515.34 930.410   9
  -5   3   7 2509.96 544.246   6
   5   3  -7 2810.78 546.439   3
  -5   3   7 2492.24 792.375   5
   5   3  -7 2277.62 546.168  10
  -5   3   7 1697.80 629.952   9
   5   3  -7 2699.56 480.015   4
   5   3  -6 14356.1 922.794   3
   5   3  -6 13902.7 971.047  10
  -5   3   6 14865.1 1522.25   5
  -5   3   6 13924.7 1280.24   9
   5   3  -6 14221.1 874.945   4
  -5   3   6 15569.4 986.746   6
  -5   3   5 2976.63 487.992   6
   5   3  -5 3479.59 512.448   3
  -5   3   5 2653.64 833.608   5
   5   3  -5 3545.27 449.760  10
  -5   3   5 2094.17 657.083   9
   5   3  -5 3031.29 437.130   4
   5   3  -4 6816.61 604.184   3
  -5   3   4 6662.36 715.618  11
   5   3  -4 7113.99 460.196  10
  -5   3   4 8054.75 1077.97   5
  -5   3   4 6070.62 1006.36   9
   5   3  -4 7538.81 584.019   4
  -5   3   4 8041.25 679.206   6
  -5   3   3 1156.47 343.808   6
   5   3  -3 1654.98 360.677   3
  -5   3   3 1083.26 403.199  11
  -5   3   3 1826.85 691.076   5
   5   3  -3 1474.26 149.467  10
  -5   3   3 1404.84 821.032   9
   5   3  -3 1124.16 293.931   4
   5   3  -2 8760.00 636.902   3
  -5   3   2 9361.75 804.617  11
   5   3  -2 8702.32 594.000   4
  -5   3   2 8761.70 667.476   6
   5   3  -1 8634.97 633.514   3
  -5   3   1 7906.43 740.124  11
   5   3  -1 8235.01 273.463   1
   5   3  -1 7755.58 562.298   4
  -5   3   1 7779.69 616.128   6
  -5   3   0 793.253 298.746   6
  -5   3   0 1113.04 456.813  11
   5   3   0 1214.77 357.709   3
  -5   3   0 1452.21 252.104  10
   5   3   0 1017.18 292.801   4
  -5   3   0 1474.06 330.805   7
   5   3   0 1501.41 223.562   1
   5   3   1 353.588 241.987   1
  -5   3  -1 389.241 295.687   6
  -5   3  -1 508.370 448.190  11
   5   3   1 525.746 333.381   3
  -5   3  -1 249.602 182.230  10
   5   3   1 79.6462 268.669   4
  -5   3  -1 619.340 289.011   7
   5   3   2 473.712 333.826   1
  -5   3  -2 531.275 461.270  11
   5   3   2 305.674 294.320   3
  -5   3  -2 193.830 194.736  10
  -5   3  -2 444.381 889.299   9
  -5   3  -2 451.743 281.567   7
   5   3   3 8422.22 665.067   3
   5   3   3 8498.45 828.599   1
  -5   3  -3 7806.24 842.925  11
  -5   3  -3 8633.43 521.540  10
  -5   3  -3 8631.61 1275.25   9
  -5   3  -3 7709.62 597.531   7
   5   3   4 9335.49 713.374   3
   5   3   4 9174.63 974.796   1
  -5   3  -4 8578.13 895.241  11
  -5   3  -4 9324.21 572.533  10
  -5   3  -4 7475.13 1117.98   9
   5   3   4 9296.84 635.820   8
  -5   3  -4 8034.56 628.385   7
   5   3   5 1671.63 642.143   1
   5   3   5 1176.85 347.308   5
  -5   3  -5 1516.15 554.070  11
   5   3   5 1299.16 381.220   3
  -5   3  -5 1255.32 303.935  10
  -5   3  -5 1341.36 683.558   9
   5   3   5 1686.57 390.022   8
  -5   3  -5 590.193 327.001   7
   5   3   6 3790.95 701.243   1
  -5   3  -6 3980.91 721.374  11
   5   3   6 4292.79 584.692   3
  -5   3  -6 3698.53 432.784  10
  -5   3  -6 3551.83 794.586   9
   5   3   6 2792.87 515.212   8
   5   3   6 4490.14 480.294   5
  -5   3  -6 4344.68 557.144   7
   5   3   7 12778.9 771.703   5
   5   3   7 10557.9 876.828   3
  -5   3  -7 11132.2 1126.64  11
  -5   3  -7 11311.7 769.093  10
  -5   3  -7 10024.1 1075.43   9
   5   3   7 12289.1 938.919   8
   5   3   7 12149.0 1113.87   1
  -5   3  -7 11251.7 862.413   7
  -5   3  -8 12753.2 1243.54  11
  -5   3  -8 11888.0 835.349  10
  -5   3  -8 10428.4 1050.71   9
   5   3   8 12155.6 1050.41   8
   5   3   8 10998.7 1078.28   1
  -5   3  -8 11295.9 922.521   7
   5   3   9 2916.32 695.001   1
  -5   3  -9 2635.81 633.485  11
  -5   3  -9 3191.58 552.523  10
  -5   3  -9 2767.72 659.914   9
   5   3   9 3565.46 711.935   8
  -5   3  -9 3428.49 649.355   7
   5   3  10 3412.07 737.114   1
  -5   3 -10 2629.93 545.506  11
  -5   3 -10 4434.95 668.102  10
   5   3  10 3716.02 776.128   8
  -5   3 -10 3653.86 714.216   7
  -5   3 -11 10598.9 1037.08  10
   5   3  11 12038.6 1119.16   1
   5   3  11 10059.6 1190.19   8
  -5   3 -11 10402.2 1099.80   7
   5   3  12 5068.48 831.839   1
  -5   3 -12 3916.08 730.303  10
   5   3  12 5914.28 986.021   8
  -5   3 -13 3234.90 745.132  10
   5   3  13 2646.88 769.106   8
  -5   3 -13 3462.46 840.082   7
   5   3  13 4005.46 794.222   1
  -5   3 -14-55.1735 654.439  10
  -5   4  14 413.488 694.818   6
  -5   4  13 9629.99 1147.16   6
   5   4 -13 13078.1 1411.99   3
   5   4 -13 14016.0 1504.74   4
  -5   4  12 1694.10 670.646   6
   5   4 -12 1774.36 747.188   3
   5   4 -12 430.203 648.580   4
  -5   4  11 10201.0 1052.36   6
   5   4 -11 11048.6 1200.52   3
   5   4 -11 10868.5 1007.87  10
  -5   4  11 9430.40 1091.11   5
   5   4 -11 9088.46 1034.79   4
  -5   4  10 4542.77 739.866   6
   5   4 -10 5452.16 865.201   3
  -5   4  10 3777.09 807.450   5
   5   4 -10 3389.64 636.661  10
  -5   4  10 2690.20 584.734   9
   5   4 -10 4757.84 764.196   4
  -5   4   9 28089.4 1835.81   5
   5   4  -9 32655.9 1736.11  10
   5   4  -9 28907.1 1538.07   4
  -5   4   9 26688.1 1622.59   9
   5   4  -9 26259.6 1540.85   3
  -5   4   9 27810.8 1513.17   6
  -5   4   8 7660.65 772.683   6
   5   4  -8 6712.11 732.508   3
  -5   4   8 6959.95 1009.85   5
   5   4  -8 6947.14 751.949  10
   5   4  -8 7416.51 759.806   4
  -5   4   8 6761.36 887.170   9
  -5   4   7 26188.1 1844.11   5
   5   4  -7 23993.9 1216.63  10
  -5   4   7 24049.8 1625.05   9
   5   4  -7 24182.7 1239.05   4
   5   4  -7 25353.4 1338.45   3
  -5   4   7 24788.5 1310.49   6
  -5   4   6 14530.9 1490.96   5
   5   4  -6 13626.6 772.829  10
  -5   4   6 14297.9 1311.89   9
   5   4  -6 14866.7 905.707   4
  -5   4   6 14892.7 964.618   6
   5   4  -6 14802.4 958.596   3
   5   4  -5 50307.1 1867.20   3
  -5   4   5 54456.8 2943.25   5
   5   4  -5 51845.3 1516.38  10
  -5   4   5 45756.3 2481.62   9
   5   4  -5 48112.5 1739.86   4
  -5   4   5 50137.2 1878.14   6
   5   4  -4 20376.1 1058.84   3
  -5   4   4 20770.1 1689.18   5
  -5   4   4 19645.9 1672.75   9
   5   4  -4 19296.2 954.747   4
  -5   4   4 19020.5 1041.92   6
   5   4  -3 43519.0 1603.07   3
  -5   4   3 41465.3 2215.16   5
  -5   4   3 42964.1 1830.75  11
  -5   4   3 40255.6 2558.78   9
   5   4  -3 41031.8 1471.27   4
  -5   4   3 41824.9 1609.46   6
   5   4  -2 30330.0 1260.26   3
  -5   4   2 27546.4 1657.97   5
  -5   4   2 28950.0 1461.46  11
  -5   4   2 28446.0 2324.22   9
   5   4  -2 27775.1 1128.77   4
  -5   4   2 28050.3 1250.98   6
   5   4  -1 70840.2 2221.00   3
  -5   4   1 68400.5 2676.03   5
  -5   4   1 71313.4 2538.35  11
   5   4  -1 70174.9 2106.73   4
  -5   4   1 72901.2 2275.07   6
   5   4   0 24886.7 1123.90   3
  -5   4   0 23207.8 1318.83   5
  -5   4   0 23650.6 1337.39  11
  -5   4   0 24965.5 969.831  10
   5   4   0 25051.4 751.979   1
   5   4   0 23823.0 1020.70   4
  -5   4   0 26159.2 1067.56   7
  -5   4   0 24668.5 1150.40   6
   5   4   1 58369.2 1954.39   3
  -5   4  -1 56206.8 2248.12  11
  -5   4  -1 58944.0 1756.07  10
   5   4   1 60738.4 1708.41   1
   5   4   1 58622.4 1849.77   4
  -5   4  -1 58962.8 1868.63   7
  -5   4  -1 56580.5 1972.92   6
   5   4   2 25434.1 1156.76   3
  -5   4  -2 24695.5 1404.94  11
  -5   4  -2 23315.2 958.678  10
  -5   4  -2 25287.0 2126.87   9
   5   4   2 26172.9 1109.83   1
  -5   4  -2 22702.2 1042.96   7
   5   4   3 65688.8 2142.41   3
  -5   4  -3 63247.8 2499.76  11
  -5   4  -3 65266.9 1925.78  10
  -5   4  -3 60461.4 3201.09   9
   5   4   3 68352.4 2288.15   1
  -5   4  -3 62711.6 2038.40   7
   5   4   4 10482.7 767.023   3
   5   4   4 11351.1 787.286   5
  -5   4  -4 12041.7 685.641  10
  -5   4  -4 10263.0 1286.97   9
   5   4   4 9883.59 884.516   1
  -5   4  -4 10833.3 1001.51  11
  -5   4  -4 11516.9 766.597   7
   5   4   5 42888.0 1689.63   3
   5   4   5 43094.7 1657.46   5
  -5   4  -5 42219.5 2058.36  11
  -5   4  -5 43322.5 1523.04  10
  -5   4  -5 40297.5 2324.77   9
   5   4   5 47773.8 2178.79   1
  -5   4  -5 42772.1 1650.70   7
   5   4   6 10979.2 832.470   3
   5   4   6 11220.1 779.952   5
  -5   4  -6 12510.4 1138.16  11
  -5   4  -6 10724.8 729.576  10
  -5   4  -6 9255.82 1112.02   9
   5   4   6 11907.3 859.486   8
   5   4   6 12458.8 1215.19   1
  -5   4  -6 11073.4 821.365   7
   5   4   7 34793.3 1606.25   3
   5   4   7 37198.7 1500.25   5
  -5   4  -7 38493.5 2048.89  11
  -5   4  -7 33474.8 1455.03  10
  -5   4  -7 36257.6 2053.32   9
   5   4   7 38163.3 1707.20   8
  -5   4  -7 34973.0 1592.16   7
   5   4   8 1557.89 565.871   1
   5   4   8 2314.72 414.607   5
  -5   4  -8 2318.00 671.531  11
   5   4   8 1741.82 508.845   3
  -5   4  -8 1445.33 410.893  10
  -5   4  -8 1740.57 621.019   9
   5   4   8 2220.77 555.751   8
  -5   4  -8 2459.18 562.286   7
   5   4   9 17162.8 1227.91   3
  -5   4  -9 20752.9 1387.56  11
  -5   4  -9 19966.5 1200.51  10
  -5   4  -9 20132.3 1421.51   9
   5   4   9 19745.1 1407.58   8
   5   4   9 18803.7 1417.12   1
  -5   4  -9 18389.1 1283.74   7
  -5   4 -10 2980.51 574.225  11
  -5   4 -10 3680.50 697.216  10
   5   4  10 2982.05 729.602   8
  -5   4 -10 4799.33 795.981   7
   5   4  10 3125.89 698.399   1
  -5   4 -11 9639.39 999.668  10
   5   4  11 9495.36 1177.16   8
  -5   4 -11 9502.64 1081.34   7
   5   4  11 10474.4 1074.73   1
  -5   4 -12 1895.06 675.563  10
   5   4  12 627.237 692.984   8
  -5   4 -12 1533.04 683.650   7
   5   4  12 887.873 600.016   1
  -5   4 -13 4687.85 893.282  10
   5   4  13 3483.68 861.520   8
  -5   5  14 1258.18 692.051   6
  -5   5  13 1355.53 640.246   6
   5   5 -13 894.221 669.961   3
  -5   5  13 1496.82 681.287   5
   5   5 -13-949.171 915.417   4
  -5   5  12 1241.38 583.470   6
   5   5 -12 1492.58 743.184   3
  -5   5  12 2777.22 761.203   5
   5   5 -12 1885.09 734.129   4
  -5   5  11 821.693 527.419   6
   5   5 -11 672.278 591.605   3
  -5   5  11 806.040 639.622   5
   5   5 -11 415.662 520.922   4
  -5   5  10 1881.73 550.068   6
   5   5 -10 2324.28 664.419   3
  -5   5  10 1431.83 653.312   5
   5   5 -10 1839.21 585.560   4
  -5   5   9 273.176 422.566   6
   5   5  -9 452.245 567.430   3
  -5   5   9 556.794 655.973   5
   5   5  -9 344.239 466.399   4
  -5   5   8 532.911 410.704   6
   5   5  -8 856.368 459.523   3
  -5   5   8 1076.62 656.845   5
  -5   5   8 1456.42 614.787   9
   5   5  -8 1458.16 471.685   4
  -5   5   7 381.624 355.285   6
   5   5  -7 1473.73 451.329   3
  -5   5   7 1576.26 679.725   5
  -5   5   7 1492.00 626.846   9
   5   5  -7 58.7398 396.439   4
  -5   5   6 2039.67 463.676   6
   5   5  -6 2055.58 527.556   3
  -5   5   6 1404.81 726.121   5
  -5   5   6 1492.04 622.443   9
   5   5  -6 2399.52 450.307   4
  -5   5   5 428.360 315.088   6
   5   5  -5 1549.81 436.487   3
  -5   5   5 2209.98 986.926   5
  -5   5   5 842.931 713.129   9
   5   5  -5 1345.48 363.249   4
  -5   5   4 2514.68 458.659   6
   5   5  -4 3493.87 524.081   3
  -5   5   4 3478.38 972.281   5
  -5   5   4 2005.34 805.057   9
   5   5  -4 2465.14 406.545   4
  -5   5   3 1321.29 391.549   6
   5   5  -3 823.396 334.236   3
  -5   5   3 1213.51 702.290   5
  -5   5   3 881.820 775.330   9
   5   5  -3 1473.89 360.948   4
   5   5  -2 7089.33 635.796   3
  -5   5   2 7582.65 822.442  11
  -5   5   2 6470.65 927.079   5
  -5   5   2 6305.49 1282.96   9
   5   5  -2 6345.26 533.081   4
  -5   5   2 7055.00 652.670   6
  -5   5   1 3832.97 522.589   6
   5   5  -1 4040.29 497.287   3
  -5   5   1 2760.96 672.442   5
  -5   5   1 3186.72 382.405  10
  -5   5   1 4615.04 1293.77   9
   5   5  -1 3569.08 416.099   4
   5   5   0 9597.87 700.699   3
  -5   5   0 8375.08 857.796   5
  -5   5   0 8342.89 839.985  11
  -5   5   0 7976.46 551.376  10
  -5   5   0 9889.92 1741.36   9
   5   5   0 8305.09 590.637   4
  -5   5   0 7942.01 603.692   7
  -5   5   0 8109.69 684.826   6
   5   5   1 1421.50 405.546   3
  -5   5  -1 678.999 427.786   5
  -5   5  -1 799.265 275.735  10
  -5   5  -1 583.201 985.132   9
   5   5   1 717.256 185.261   1
   5   5   1 731.532 290.370   4
  -5   5  -1 319.358 407.986  11
  -5   5  -1 473.171 296.123   7
   5   5   2 9937.84 726.134   3
  -5   5  -2 8712.39 887.651  11
  -5   5  -2 9436.82 599.784  10
   5   5   2 9021.05 576.151   1
  -5   5  -2 9783.44 1483.31   9
  -5   5  -2 9506.27 679.246   7
   5   5   3 13230.7 836.999   3
  -5   5  -3 10043.5 970.506  11
  -5   5  -3 12612.1 714.754  10
  -5   5  -3 12546.8 1521.28   9
   5   5   3 12152.7 774.231   1
  -5   5  -3 12101.9 782.383   7
   5   5   4 12713.9 833.578   3
   5   5   4 11754.6 857.952   5
  -5   5  -4 10095.3 998.565  11
  -5   5  -4 12115.1 728.935  10
  -5   5  -4 10646.2 1400.38   9
   5   5   4 11425.2 853.306   1
  -5   5  -4 11305.4 785.656   7
   5   5   5 3488.97 539.499   5
  -5   5  -5 4272.45 736.112  11
   5   5   5 3981.21 553.938   3
  -5   5  -5 3500.67 446.626  10
  -5   5  -5 4346.58 959.405   9
   5   5   5 4110.76 680.231   1
  -5   5  -5 2814.88 454.079   7
   5   5   6 5890.81 627.553   5
  -5   5  -6 5566.96 825.885  11
   5   5   6 6140.81 645.420   3
  -5   5  -6 5942.42 570.960  10
  -5   5  -6 6356.94 1002.45   9
   5   5   6 5227.18 795.569   1
  -5   5  -6 4793.89 587.999   7
   5   5   7 14599.6 991.421   3
   5   5   7 14572.2 945.603   5
  -5   5  -7 14400.8 1294.30  11
  -5   5  -7 13226.8 896.377  10
  -5   5  -7 13548.5 1299.52   9
   5   5   7 15969.5 1070.39   8
   5   5   7 15397.0 1340.03   1
  -5   5  -7 14895.9 1025.46   7
   5   5   8 7177.88 678.814   5
  -5   5  -8 8850.40 994.777  11
   5   5   8 8441.04 794.465   3
  -5   5  -8 6092.95 663.239  10
  -5   5  -8 7220.85 952.983   9
   5   5   8 7396.55 849.938   8
  -5   5  -8 7361.94 811.965   7
   5   5   8 7216.78 1040.56   1
  -5   5  -9 4455.05 716.844  11
   5   5   9 3606.63 643.547   3
  -5   5  -9 3806.55 604.619  10
   5   5   9 5813.13 840.417   8
  -5   5  -9 3636.68 672.006   7
   5   5   9 3187.70 788.840   1
   5   5  10 2125.60 599.806   3
  -5   5 -10 2364.30 610.780  10
   5   5  10 2454.18 715.979   8
   5   5  10 2272.10 674.380   1
  -5   5 -10 2592.68 661.519   7
  -5   5 -11 12605.9 1136.28  10
   5   5  11 9113.28 975.201   3
   5   5  11 11554.8 1168.74   1
   5   5  11 12485.1 1254.35   8
  -5   5 -11 10670.3 1141.91   7
   5   5  12 3770.16 712.285   3
  -5   5 -12 4617.42 849.016  10
   5   5  12 5659.30 1011.63   8
   5   5  12 3672.84 762.995   1
  -5   5 -12 4013.29 820.481   7
   5   5  13 2538.78 707.133   3
  -5   5 -13 2879.23 770.551  10
  -5   6  13 8401.84 1036.01   6
   5   6 -13 7771.00 1221.21   4
  -5   6  12 5533.81 865.024   6
   5   6 -12 3470.40 888.017   3
  -5   6  12 5590.03 938.275   5
   5   6 -12 2986.45 787.972   4
  -5   6  11 9121.11 985.864   6
   5   6 -11 10887.4 1268.80   3
  -5   6  11 9871.53 1145.91   5
   5   6 -11 9125.29 1113.38   4
  -5   6  10 3808.92 664.875   6
   5   6 -10 5359.82 931.563   3
  -5   6  10 3895.76 848.217   5
   5   6 -10 4318.55 780.300   4
  -5   6   9 19662.9 1590.58   5
   5   6  -9 21588.9 1372.26   4
   5   6  -9 23050.3 1549.84   3
  -5   6   9 19182.9 1263.82   6
  -5   6   8 13928.6 1374.14   5
   5   6  -8 15912.9 1108.49   4
   5   6  -8 13574.1 1116.04   3
  -5   6   8 12820.4 996.880   6
  -5   6   7 15455.8 1489.05   5
   5   6  -7 13884.4 983.927   4
  -5   6   7 15431.1 1389.40   9
   5   6  -7 14852.4 1111.81   3
  -5   6   7 14623.2 1018.76   6
  -5   6   6 17336.9 1556.31   5
   5   6  -6 17128.2 1013.38   4
  -5   6   6 13456.1 1373.42   9
  -5   6   6 17002.8 1059.19   6
   5   6  -6 18363.6 1167.24   3
  -5   6   5 27220.8 2086.51   5
  -5   6   5 25717.9 1912.98   9
   5   6  -5 25803.9 1215.69   4
  -5   6   5 27262.9 1324.29   6
   5   6  -5 26813.1 1368.42   3
   5   6  -4 26048.4 1294.09   3
  -5   6   4 26057.4 2122.97   5
  -5   6   4 24348.8 1963.29   9
   5   6  -4 25361.7 1141.29   4
  -5   6   4 23517.6 1219.49   6
   5   6  -3 17296.0 1012.95   3
  -5   6   3 17376.9 1641.13   5
  -5   6   3 15200.5 1706.85   9
   5   6  -3 16643.2 875.586   4
  -5   6   3 17979.7 1017.46   6
   5   6  -2 30796.1 1351.65   3
  -5   6   2 29196.2 1897.58   5
  -5   6   2 26734.3 2291.66   9
   5   6  -2 30500.6 1208.62   4
  -5   6   2 31241.4 1388.42   6
   5   6  -1 21067.5 1079.08   3
  -5   6   1 21525.2 1503.36   5
  -5   6   1 21382.8 976.317  10
  -5   6   1 23553.3 2311.46   9
   5   6  -1 21327.9 967.756   4
  -5   6   1 20699.6 1117.20   6
   5   6   0 32240.2 1354.01   3
  -5   6   0 29676.8 1665.04   5
  -5   6   0 29996.1 1626.30  11
  -5   6   0 30777.1 1216.22  10
  -5   6   0 34980.6 2978.98   9
   5   6   0 30504.9 1207.80   4
  -5   6   0 32196.4 1286.27   7
   5   6   1 19027.0 1016.45   3
  -5   6  -1 18330.1 1181.41   5
  -5   6  -1 19951.4 1324.63  11
  -5   6  -1 18269.5 899.998  10
  -5   6  -1 17849.6 2036.56   9
   5   6   1 18380.9 895.665   4
  -5   6  -1 18402.6 946.988   7
   5   6   2 27276.1 1250.98   3
  -5   6  -2 27665.0 1371.50   5
  -5   6  -2 25059.0 1536.56  11
  -5   6  -2 26964.3 1137.98  10
   5   6   2 29496.9 1051.99   1
  -5   6  -2 27776.3 2296.21   9
   5   6   2 27143.8 1146.98   4
  -5   6  -2 28208.2 1227.99   7
   5   6   3 14852.4 908.178   3
   5   6   3 13555.2 991.154   5
  -5   6  -3 12702.9 1113.96  11
  -5   6  -3 13548.7 791.981  10
   5   6   3 14647.5 808.311   1
  -5   6  -3 13250.5 1594.11   9
  -5   6  -3 14916.4 887.041   7
   5   6   4 14605.1 927.180   3
   5   6   4 15247.6 1032.64   5
  -5   6  -4 15251.3 1225.14  11
  -5   6  -4 14708.9 855.104  10
   5   6   4 14773.5 926.770   1
  -5   6  -4 15871.9 1606.52   9
  -5   6  -4 15756.7 945.732   7
   5   6   5 11674.3 839.292   3
   5   6   5 11404.8 893.005   5
  -5   6  -5 10890.0 1082.58  11
  -5   6  -5 11188.0 772.242  10
   5   6   5 11536.0 914.661   1
  -5   6  -5 11354.6 1362.10   9
  -5   6  -5 10638.1 809.715   7
   5   6   6 11317.7 844.437   3
   5   6   6 11314.3 882.588   5
  -5   6  -6 10079.7 1097.41  11
  -5   6  -6 11396.4 813.449  10
   5   6   6 10349.2 974.028   1
  -5   6  -6 9796.91 1196.84   9
  -5   6  -6 10978.6 857.255   7
   5   6   7 7895.57 767.710   5
  -5   6  -7 6196.89 924.142  11
   5   6   7 6525.09 699.794   3
  -5   6  -7 7731.67 720.319  10
   5   6   7 7669.64 930.489   1
  -5   6  -7 6726.51 755.028   7
   5   6   8 5193.18 635.927   5
  -5   6  -8 3518.88 702.046  11
   5   6   8 4552.79 635.681   3
  -5   6  -8 3981.34 603.774  10
   5   6   8 5021.78 939.076   1
  -5   6  -8 4650.07 688.538   7
   5   6   9 5493.88 730.279   3
  -5   6  -9 4708.76 685.596  10
   5   6   9 7429.90 1117.37   1
  -5   6  -9 7575.78 905.201   7
   5   6  10 2661.83 630.089   3
  -5   6 -10 2867.38 660.215  10
   5   6  10 3906.23 796.744   8
   5   6  10 2705.93 759.938   1
  -5   6 -10 3610.02 741.655   7
   5   6  11 1725.47 559.389   3
  -5   6 -11 2481.15 637.188  10
   5   6  11 2164.57 717.208   8
   5   6  11 3192.84 776.842   1
  -5   6 -11 3205.84 740.743   7
   5   6  12 689.212 479.144   3
  -5   6 -12-577.529 577.653  10
   5   6  12 350.629 614.239   8
   5   6  12-57.4739 565.982   1
  -5   6 -12 1096.57 708.681   7
  -5   7  12 1692.10 597.324   6
   5   7 -12 1425.84 779.123   3
  -5   7  12 2591.00 756.240   5
   5   7 -12 674.839 683.844   4
  -5   7  11 1694.43 542.121   6
   5   7 -11 1931.07 753.417   3
  -5   7  11 3185.09 830.940   5
   5   7 -11 1434.89 676.056   4
  -5   7  10 3179.13 645.117   6
   5   7 -10 5898.32 970.129   3
  -5   7  10 3865.04 850.590   5
   5   7 -10 4017.54 781.681   4
  -5   7   9 807.800 495.489   6
   5   7  -9 2157.74 756.661   3
  -5   7   9 522.073 569.063   5
   5   7  -9 1672.46 601.828   4
  -5   7   8 4046.72 632.235   6
   5   7  -8 3145.11 670.754   3
  -5   7   8 5267.73 1005.37   5
   5   7  -8 3683.03 651.096   4
  -5   7   7 1644.56 500.566   6
   5   7  -7 1533.89 567.922   3
  -5   7   7 2861.40 904.645   5
  -5   7   6 7782.32 755.454   6
   5   7  -6 8585.61 867.836   3
  -5   7   6 8576.28 1229.46   5
   5   7  -6 6900.82 689.121   4
  -5   7   5-6.33281 335.660   6
   5   7  -5 459.538 430.172   3
  -5   7   5 737.920 709.607   5
   5   7  -5 258.054 329.053   4
  -5   7   4 3214.37 528.798   6
   5   7  -4 4101.29 611.918   3
  -5   7   4 2236.02 1044.02   5
  -5   7   4 2154.46 808.613   9
   5   7  -4 3517.26 462.358   4
  -5   7   3 347.707 342.569   6
   5   7  -3 1097.22 405.173   3
  -5   7   3 816.771 859.749   5
  -5   7   3 689.631 776.198   9
   5   7  -3 390.574 283.541   4
  -5   7   2 3916.54 544.641   6
   5   7  -2 4326.00 573.126   3
  -5   7   2 3578.26 894.334   5
  -5   7   2 3157.17 1024.13   9
   5   7  -2 4257.42 473.850   4
   5   7  -1 3471.71 522.571   3
  -5   7   1 3484.17 813.004   5
  -5   7   1 3966.24 479.734  10
  -5   7   1 3140.97 1219.79   9
   5   7  -1 3042.10 394.834   4
   5   7   0 243.524 340.052   3
  -5   7   0 570.814 492.391   5
  -5   7   0 485.496 304.441  10
  -5   7   0 843.922 1112.75   9
   5   7   0 254.924 251.787   4
  -5   7   0 505.669 316.415   7
   5   7   1 1814.48 549.587   5
   5   7   1 2366.01 462.350   3
  -5   7  -1 1464.59 506.637   5
  -5   7  -1 1935.75 379.803  10
  -5   7  -1 459.069 962.949   9
   5   7   1 1899.10 348.722   4
  -5   7  -1 1573.85 412.937   7
   5   7   2 1028.13 365.085   3
  -5   7  -2 1068.79 455.342   5
  -5   7  -2 845.970 331.163  10
  -5   7  -2 94.0053 886.260   9
   5   7   2 991.852 497.691   5
   5   7   2 1008.98 321.392   4
  -5   7  -2 1165.87 389.352   7
   5   7   3 8915.42 733.008   3
   5   7   3 9174.10 874.475   5
  -5   7  -3 8874.47 726.382   5
  -5   7  -3 8377.04 964.937  11
  -5   7  -3 9168.75 684.374  10
   5   7   3 8905.73 606.025   1
  -5   7  -3 8693.74 1363.06   9
  -5   7  -3 7710.46 679.653   7
  -5   7  -4 7256.15 906.794  11
   5   7   4 6073.76 636.249   3
   5   7   4 6558.83 758.879   5
  -5   7  -4 7504.30 635.575  10
   5   7   4 8084.20 661.988   1
  -5   7  -4 6270.44 1157.31   9
  -5   7  -4 7260.77 688.417   7
   5   7   5 4751.88 651.618   5
  -5   7  -5 3556.05 772.732  11
   5   7   5 4794.12 603.298   3
  -5   7  -5 5049.95 581.731  10
   5   7   5 4759.39 592.803   1
  -5   7  -5 3508.81 553.573   7
   5   7   6 7174.21 715.717   3
   5   7   6 7048.91 777.705   5
  -5   7  -6 6983.54 986.274  11
  -5   7  -6 6776.81 669.049  10
   5   7   6 4668.96 678.490   1
  -5   7  -6 6355.81 708.523   7
   5   7   7 11476.2 893.147   3
   5   7   7 11756.2 960.086   5
  -5   7  -7 10688.7 1099.70  11
  -5   7  -7 10673.4 866.916  10
   5   7   7 11384.0 1067.06   1
  -5   7  -7 10998.2 939.142   7
   5   7   8 7620.23 786.534   5
  -5   7  -8 7871.54 883.367  11
   5   7   8 8057.00 787.761   3
  -5   7  -8 7383.19 791.003  10
   5   7   8 7678.02 974.838   1
  -5   7  -8 7437.93 850.650   7
   5   7   9 5290.68 706.452   3
  -5   7  -9 4337.58 681.110  10
   5   7   9 4479.77 879.453   1
  -5   7  -9 6074.54 814.980   7
   5   7  10 5358.05 736.307   3
  -5   7 -10 4656.98 713.318  10
   5   7  10 6091.20 1101.25   1
  -5   7 -10 5671.42 841.669   7
  -5   7 -11 6598.22 914.906  10
   5   7  11 6033.74 979.501   1
  -5   7 -11 7348.65 991.558   7
  -5   7 -12 3374.62 764.177  10
   5   7  12 4654.74 910.527   1
   5   8 -12 2312.99 804.467   4
   5   8 -11 4345.07 996.781   3
  -5   8  11 2603.33 780.917   5
   5   8 -11 2161.77 723.062   4
  -5   8  10 5682.85 793.461   6
   5   8 -10 7486.32 1087.73   3
  -5   8  10 7082.93 1038.64   5
   5   8 -10 5750.69 888.410   4
  -5   8   9 11068.9 1312.42   5
   5   8  -9 10759.4 1062.46   4
   5   8  -9 12055.7 1246.04   3
  -5   8   9 11682.7 1017.02   6
  -5   8   8 12247.6 1364.08   5
   5   8  -8 12796.9 1077.07   4
   5   8  -8 15452.7 1334.18   3
  -5   8   8 11011.2 971.089   6
   5   8  -7 10400.4 1014.61   3
  -5   8   7 11417.7 1353.21   5
   5   8  -7 11024.1 929.927   4
  -5   8   7 11033.3 922.690   6
  -5   8   6 15591.7 1597.03   5
   5   8  -6 14573.8 980.790   4
  -5   8   6 13970.3 1019.24   6
   5   8  -6 16549.8 1203.65   3
  -5   8   5 25970.8 2072.76   5
   5   8  -5 25801.3 1264.61   4
  -5   8   5 26311.8 1369.67   6
   5   8  -5 27651.4 1498.75   3
  -5   8   4 21157.2 2064.98   5
   5   8  -4 22178.8 1110.26   4
  -5   8   4 23272.4 1262.27   6
   5   8  -4 23172.8 1326.65   3
  -5   8   3 34593.0 2593.08   5
   5   8  -3 33776.4 1356.24   4
  -5   8   3 33137.0 1543.47   6
   5   8  -3 32413.6 1546.84   3
   5   8  -2 30985.2 1461.56   3
  -5   8   2 28539.0 2159.56   5
   5   8  -2 29341.0 1239.50   4
   5   8  -1 43796.3 1760.47   3
  -5   8   1 42113.9 2405.65   5
  -5   8   1 44031.8 1638.87  10
   5   8  -1 42856.6 1537.55   4
   5   8   0 26419.3 1286.19   3
   5   8   0 25136.0 1534.95   5
  -5   8   0 25825.9 1713.87   5
  -5   8   0 23659.0 1142.11  10
   5   8   0 26587.4 1119.58   4
   5   8   1 40703.7 1629.05   3
   5   8   1 40799.6 1944.26   5
  -5   8  -1 38136.8 1949.29   5
  -5   8  -1 38150.0 1501.65  10
   5   8   1 37730.7 1418.68   4
  -5   8  -1 38387.5 1533.49   7
   5   8   2 27143.1 1287.85   3
   5   8   2 25806.8 1514.77   5
  -5   8  -2 25935.5 1450.16   5
  -5   8  -2 24505.6 1170.75  10
   5   8   2 26234.0 1131.22   4
  -5   8  -2 25534.3 1236.29   7
   5   8   3 37240.6 1567.61   3
   5   8   3 36162.3 1804.56   5
  -5   8  -3 37061.5 1650.99   5
  -5   8  -3 35324.0 1468.98  10
   5   8   3 37930.6 1436.11   4
  -5   8  -3 34192.8 1514.45   7
   5   8   4 17442.3 1038.92   3
   5   8   4 15961.8 1177.67   5
  -5   8  -4 15355.3 939.511   5
  -5   8  -4 16057.9 958.870  10
   5   8   4 17418.8 947.975   1
  -5   8  -4 15906.5 1012.77   7
   5   8   5 26695.8 1313.88   3
   5   8   5 25108.0 1465.08   5
  -5   8  -5 23422.7 1222.46  10
   5   8   5 26165.6 1288.26   1
  -5   8  -5 24558.0 1307.58   7
   5   8   6 12445.2 920.385   3
   5   8   6 12027.9 1040.32   5
  -5   8  -6 12607.6 921.640  10
   5   8   6 14231.4 1019.28   1
  -5   8  -6 11999.1 942.900   7
   5   8   7 15025.2 1027.59   3
   5   8   7 13617.0 1080.98   5
  -5   8  -7 12404.0 968.173  10
   5   8   7 12636.1 1097.98   1
  -5   8  -7 13015.8 1012.04   7
   5   8   8 5290.41 714.283   5
   5   8   8 5393.69 681.242   3
  -5   8  -8 4703.40 684.529  10
   5   8   8 5016.30 826.344   1
  -5   8  -8 4654.86 720.835   7
   5   8   9 8908.99 857.693   3
  -5   8  -9 6921.42 848.394  10
   5   8   9 8841.06 1093.60   1
  -5   8  -9 8516.50 985.668   7
  -5   8 -10 4453.34 783.281  10
   5   8  10 4198.76 864.315   1
  -5   8 -10 6048.79 919.814   7
  -5   8 -11 2227.46 667.264  10
   5   8  11 3082.07 906.576   1
   5   9 -12-54.2726 768.811   4
   5   9 -11 635.777 679.780   4
   5   9 -10 1195.24 788.323   3
  -5   9  10-174.288 692.396   5
   5   9 -10 642.885 581.685   4
  -5   9   9 2486.12 611.483   6
   5   9  -9 3901.21 908.383   3
  -5   9   9 2416.98 804.598   5
   5   9  -9 2504.30 692.940   4
  -5   9   8 1171.04 507.481   6
   5   9  -8 2158.65 756.147   3
  -5   9   8 2710.46 935.520   5
   5   9  -8 1786.40 601.933   4
  -5   9   7 2127.97 531.651   6
   5   9  -7 2497.64 725.471   3
  -5   9   7 1013.59 773.745   5
   5   9  -7 1329.98 517.873   4
  -5   9   6 1363.44 472.472   6
  -5   9   6 1288.20 797.208   5
   5   9  -6 1998.57 520.699   4
   5   9  -6 1062.39 493.272   3
  -5   9   5 1337.25 476.527   6
   5   9  -5 1285.80 552.643   3
  -5   9   5-47.0941 810.432   5
   5   9  -5 712.523 340.077   4
  -5   9   4 3183.05 578.045   6
   5   9  -4 4370.44 697.226   3
  -5   9   4 3404.20 1088.37   5
   5   9  -4 3531.58 504.003   4
   5   9  -3 253.693 389.722   3
  -5   9   3 940.282 936.093   5
   5   9  -3 392.753 312.103   4
   5   9  -2 4084.08 799.690   5
   5   9  -2 4199.47 632.443   3
   5   9  -2 5512.46 540.208   4
   5   9  -1 1100.58 572.087   5
   5   9  -1 1288.27 449.268   3
  -5   9   1 2197.35 440.159  10
   5   9  -1 1864.66 359.646   4
   5   9   0 7166.69 729.251   3
   5   9   0 8563.71 960.742   5
  -5   9   0 7117.04 1039.38   5
  -5   9   0 7352.57 668.403  10
   5   9   0 7974.65 607.282   4
   5   9   1 1598.74 630.171   5
   5   9   1 1282.15 429.640   3
  -5   9  -1 517.148 483.803   5
  -5   9  -1 371.059 329.465  10
   5   9   1 1239.78 338.160   4
  -5   9  -1 544.006 334.013   7
   5   9   2 6398.44 855.583   5
   5   9   2 5936.03 636.390   3
  -5   9  -2 5865.58 761.963   5
  -5   9  -2 5519.44 600.582  10
   5   9   2 5659.36 532.120   4
  -5   9  -2 6232.69 634.803   7
   5   9   3 8134.64 747.425   3
   5   9   3 7849.78 911.888   5
  -5   9  -3 7285.36 755.144   5
  -5   9  -3 7286.37 674.185  10
   5   9   3 8180.90 636.407   4
  -5   9  -3 8650.23 759.303   7
   5   9   4 5726.58 791.061   5
   5   9   4 5080.91 608.631   3
  -5   9  -4 5253.18 624.068  10
   5   9   4 5409.68 556.196   4
  -5   9  -4 5017.83 619.547   7
   5   9   5 3872.28 730.756   5
   5   9   5 3225.73 539.077   3
  -5   9  -5 3994.27 584.260  10
  -5   9  -5 4043.87 611.148   7
   5   9   6 3318.99 677.617   5
   5   9   6 3884.18 575.374   3
  -5   9  -6 4345.11 649.314  10
   5   9   6 3157.57 575.679   1
  -5   9  -6 2778.93 558.986   7
   5   9   7 9509.53 834.363   3
   5   9   7 11448.7 1041.24   5
  -5   9  -7 10513.9 934.113  10
   5   9   7 11389.3 1009.99   1
  -5   9  -7 11128.7 1006.42   7
   5   9   8 4284.82 698.510   5
  -5   9  -8 4550.96 706.426  10
   5   9   8 5154.79 841.503   1
  -5   9  -8 4473.27 712.615   7
   5   9   9 3366.14 663.438   5
  -5   9  -9 4621.90 738.579  10
   5   9   9 3579.76 775.463   1
  -5   9  -9 3362.88 725.360   7
  -5   9 -10 1824.77 630.342  10
   5   9  10 1417.05 721.249   1
   5   9  11 5310.61 1044.63   1
   5  10 -11 123.103 799.384   4
   5  10 -10 8773.94 1258.01   3
   5  10 -10 10165.9 1194.84   4
  -5  10   9 3007.30 838.714   5
   5  10  -9 4051.02 811.383   4
  -5  10   8 14885.2 1587.35   5
   5  10  -8 15386.6 1288.68   4
   5  10  -8 16351.6 1545.67   3
  -5  10   7 5682.30 757.576   6
   5  10  -7 8022.71 1083.20   3
  -5  10   7 6734.64 1199.74   5
   5  10  -7 6849.19 849.616   4
  -5  10   6 14422.3 1600.88   5
   5  10  -6 15906.3 1116.35   4
  -5  10   6 14338.0 1102.19   6
   5  10  -6 16454.4 1356.66   3
   5  10  -5 7493.88 1135.06   5
   5  10  -5 5377.87 842.116   3
  -5  10   5 4847.31 1191.28   5
   5  10  -5 8047.28 757.027   4
   5  10  -4 18815.9 1588.59   5
  -5  10   4 16612.4 1875.75   5
   5  10  -4 17389.7 1025.95   4
   5  10  -4 17485.1 1296.75   3
   5  10  -3 6182.53 988.376   5
   5  10  -3 6435.17 826.497   3
  -5  10   3 5793.89 1472.80   5
   5  10  -3 8014.50 680.967   4
   5  10  -2 18434.0 1508.92   5
  -5  10   2 17699.8 1945.18   5
   5  10  -2 18313.2 967.385   4
   5  10  -2 18110.5 1223.04   3
   5  10  -1 6677.34 981.084   5
   5  10  -1 5908.27 717.323   3
  -5  10   1 5410.34 1146.39   5
  -5  10   1 6036.82 633.947  10
   5  10  -1 5475.47 539.540   4
   5  10   0 14417.0 1031.13   3
   5  10   0 15555.0 1352.24   5
  -5  10   0 12881.3 1409.15   5
  -5  10   0 14757.7 956.879  10
   5  10   0 16635.9 887.266   4
   5  10   1 6818.33 936.822   5
   5  10   1 5979.30 701.116   3
  -5  10  -1 4908.41 869.078   5
  -5  10  -1 5322.44 619.618  10
   5  10   1 6247.94 546.053   4
  -5  10  -1 6003.18 655.119   7
   5  10   2 16930.0 1079.35   3
   5  10   2 18249.1 1406.59   5
  -5  10  -2 16366.5 1292.96   5
  -5  10  -2 16241.1 1012.21  10
   5  10   2 16480.7 888.676   4
  -5  10  -2 16536.2 1038.54   7
   5  10   3 2275.03 660.064   5
  -5  10  -3 3346.62 612.382   5
  -5  10  -3 2771.65 502.399  10
   5  10   3 2645.42 505.922   3
   5  10   3 3231.49 446.000   4
  -5  10  -3 3003.58 539.666   7
   5  10   4 12856.6 938.902   3
   5  10   4 12698.5 1192.65   5
  -5  10  -4 12463.1 921.926  10
   5  10   4 12276.8 798.683   4
  -5  10  -4 12098.7 938.430   7
   5  10   5 4102.33 805.400   5
   5  10   5 4407.08 600.382   3
  -5  10  -5 4742.66 634.942  10
   5  10   5 4100.89 514.991   4
  -5  10  -5 3881.60 610.179   7
   5  10   6 9745.15 1047.35   5
  -5  10  -6 10645.0 921.379  10
  -5  10  -6 11653.0 990.897   7
   5  10   7 1147.13 518.434   5
  -5  10  -7 1454.88 524.565  10
  -5  10  -7 1476.81 559.573   7
   5  10   8 6909.32 885.965   5
  -5  10  -8 7465.45 879.107  10
   5  10   8 9203.31 979.722   1
  -5  10  -8 7010.49 851.966   7
   5  10   9 3303.63 685.999   5
  -5  10  -9 2066.45 599.650  10
   5  10   9 3166.11 770.727   1
   5  10  10 3692.93 808.415   1
   5  11 -10 1460.32 776.931   5
   5  11  -9 2072.16 872.395   3
   5  11  -9 2028.37 1068.55   5
   5  11  -8 2114.65 840.694   3
   5  11  -8 2518.70 975.404   5
  -5  11   8 940.138 825.427   5
   5  11  -7 1398.66 746.784   3
   5  11  -7 761.212 764.829   5
  -5  11   7-437.845 782.486   5
   5  11  -6 1293.77 774.826   5
   5  11  -6 3048.55 833.769   3
  -5  11   6 1577.12 840.541   5
   5  11  -5 1767.01 640.886   3
   5  11  -5 751.460 700.637   5
  -5  11   5 1324.07 871.920   5
   5  11  -4 593.072 496.073   3
   5  11  -4 945.679 773.939   5
  -5  11   4 175.909 899.032   5
   5  11  -3 373.586 652.680   5
   5  11  -3-580.676 559.487   3
  -5  11   3 108.066 1319.55   5
   5  11  -2 1193.31 683.565   5
   5  11  -2 730.045 525.868   3
  -5  11   2 2238.44 1124.55   5
   5  11  -1 897.689 638.815   5
   5  11  -1 2513.89 596.165   3
  -5  11   1 388.102 938.332   5
  -5  11   1 1263.05 426.797  10
   5  11   0-21.1869 571.412   5
   5  11   0 1052.96 496.819   3
  -5  11   0-704.168 796.763   5
  -5  11   0 1071.80 398.673  10
   5  11   1 1879.15 680.427   5
   5  11   1 1792.98 514.745   3
  -5  11  -1 562.897 620.732   5
  -5  11  -1 1767.74 444.463  10
   5  11   2 197.248 610.593   5
   5  11   2 788.614 438.300   3
  -5  11  -2-386.787 519.182   5
  -5  11  -2 852.583 440.574  10
  -5  11  -2 1052.61 474.489   7
   5  11   3 4717.95 664.133   3
   5  11   3 4059.76 819.078   5
  -5  11  -3 4069.18 613.771  10
  -5  11  -3 3725.31 620.837   7
   5  11   4 1598.70 700.476   5
  -5  11  -4 1982.03 509.303  10
  -5  11  -4 3088.05 609.961   7
   5  11   5 2747.29 759.578   5
  -5  11  -5 2699.33 598.885   7
   5  11   6 2589.96 703.452   5
  -5  11  -6 1717.30 516.075  10
  -5  11  -6 3211.32 656.134   7
   5  11   7 2994.47 726.052   5
  -5  11  -7 4187.85 696.461  10
  -5  11  -7 5336.00 772.052   7
   5  11   8 1556.65 618.852   5
  -5  11  -8 3251.79 694.799  10
   5  11   9 2801.08 696.672   5
   5  12  -8 10636.9 1388.67   3
   5  12  -8 8651.51 1446.21   5
   5  12  -7 3936.66 1008.28   3
   5  12  -7 3477.05 1097.84   5
  -5  12   7 1682.73 967.621   5
   5  12  -6 10037.9 1242.63   3
   5  12  -6 10976.6 1467.41   5
  -5  12   6 9508.26 1474.59   5
   5  12  -5 7793.57 1054.03   3
   5  12  -5 5196.79 1103.57   5
  -5  12   5 6008.55 1297.44   5
   5  12  -4 12106.3 1455.09   5
  -5  12   4 9692.29 1566.53   5
   5  12  -4 10714.0 1196.60   3
   5  12  -3 6631.66 898.685   3
   5  12  -3 7886.50 1220.76   5
  -5  12   3 6776.76 1555.79   5
   5  12  -2 11620.6 1361.35   5
  -5  12   2 11743.4 1932.68   5
   5  12  -2 13293.3 1193.46   3
   5  12  -1 10269.5 1019.71   3
   5  12  -1 12708.6 1372.93   5
  -5  12   1 11552.9 1722.38   5
  -5  12   1 11722.7 926.684  10
   5  12   0 14694.6 1474.63   5
  -5  12   0 10759.9 1475.59   5
  -5  12   0 10807.1 900.480  10
   5  12   0 12048.2 1069.13   3
   5  12   1 11233.5 1293.90   5
  -5  12  -1 9329.28 1281.64   5
  -5  12  -1 9795.09 863.214  10
   5  12   1 9577.56 926.760   3
   5  12   2 12031.7 1313.09   5
  -5  12  -2 12016.3 1268.44   5
  -5  12  -2 11888.1 965.267  10
  -5  12  -2 13924.4 993.043   7
   5  12   3 7567.72 1096.06   5
  -5  12  -3 7551.94 810.240  10
  -5  12  -3 7687.70 789.912   7
   5  12   4 8720.11 1103.81   5
  -5  12  -4 9713.35 920.760  10
  -5  12  -4 9359.75 880.471   7
   5  12   5 6649.84 974.375   5
  -5  12  -5 5202.72 710.107  10
  -5  12  -5 7019.68 812.673   7
   5  12   6 8571.84 1064.63   5
  -5  12  -6 8146.70 873.857  10
  -5  12  -6 8724.92 935.956   7
   5  12   7 2978.15 792.750   5
   5  12   8 4653.80 828.458   5
   5  13  -7 2033.95 902.297   3
   5  13  -6 3291.28 984.559   3
   5  13  -5 2278.60 787.457   3
   5  13  -5 1332.76 840.361   5
  -5  13   5 1691.93 962.766   5
   5  13  -4 3769.66 895.628   3
  -5  13   4 2209.12 1124.78   5
   5  13  -4 2157.10 911.101   5
   5  13  -3 663.490 622.447   3
  -5  13   3-366.841 1024.86   5
   5  13  -3 457.825 793.390   5
   5  13  -2 3089.81 749.174   3
   5  13  -2 4626.12 1085.26   5
  -5  13   2 2076.48 1173.73   5
   5  13  -1 6.78856 740.329   5
  -5  13   1 153.261 1073.97   5
   5  13   0 3555.86 921.688   5
  -5  13   0 2803.79 559.169  10
   5  13   1 1060.24 793.515   5
  -5  13  -1 234.062 696.575   5
  -5  13  -1 447.049 488.357  10
   5  13   2 1863.72 741.035   5
  -5  13  -2 1771.05 552.446  10
   5  13   3 1537.26 709.542   5
  -5  13  -3 1663.47 527.053  10
  -5  13  -3 2021.84 570.644   7
   5  13   4 2869.99 857.693   5
  -5  13  -4 2109.44 533.820  10
  -5  13  -4 2491.31 560.668   7
   5  13   5 1213.82 637.096   5
   5  14  -5 429.455 677.620   3
  -5  14   3 1189.37 1373.80   5
  -5  14   2 9025.42 2044.06   5
  -5  14   1-1193.74 1201.08   5
  -5  14   0 10354.0 1652.17   5
   6 -13  -2 1174.60 839.762   2
  -6 -13   2 910.513 576.271  11
   6 -13  -1 2303.97 934.090   2
  -6 -13   1 350.491 533.227  11
  -6 -13   0 532.170 687.150  11
   6 -12  -4 9279.53 1419.45   2
   6 -12  -4 9507.10 931.072   1
   6 -12  -3 5416.97 1098.08   2
  -6 -12   3 5537.95 795.639  11
   6 -12  -3 5166.20 747.361   1
   6 -12  -2 13296.8 1608.90   2
  -6 -12   2 14405.6 1246.35  11
   6 -12  -2 13947.1 1104.90   1
   6 -12  -1 3653.74 941.561   2
  -6 -12   1 4733.52 872.234  11
   6 -12  -1 4405.88 687.545   1
  -6 -12   0 14111.4 1427.01  11
   6 -12   0 15424.3 1166.68   1
   6 -12   0 17079.7 1554.15   2
   6 -12   1 5510.94 793.796   1
  -6 -12  -1 7396.23 1186.75  11
   6 -12   2 13584.1 1137.05   1
  -6 -12  -2 10900.2 1417.74  11
  -6 -12  -2 14218.8 1698.60   2
  -6 -11   7 737.051 509.312   6
  -6 -11   6 3723.44 671.504   6
  -6 -11   5 1770.25 482.284   6
   6 -11  -5 1058.71 1018.22   2
   6 -11  -4 2100.09 1040.05   2
  -6 -11   4 3780.98 617.792  11
  -6 -11   3 3034.28 610.733  11
   6 -11  -3 4174.97 652.615   1
   6 -11  -2 2668.78 845.717   2
  -6 -11   2 3867.78 740.492  11
   6 -11  -2 3896.54 626.644   1
   6 -11  -1 3621.59 929.596   2
  -6 -11   1 4750.01 845.544  11
   6 -11  -1 4380.12 674.279   1
   6 -11   0 2703.22 781.332   2
  -6 -11   0 2711.11 747.113  11
   6 -11   0 2813.79 558.857   1
   6 -11   1 3645.22 652.860   1
  -6 -11  -1 3959.37 915.986  11
  -6 -11  -2 2838.32 932.850  11
   6 -11   2 4510.65 692.682   1
  -6 -11  -3 2617.41 954.572  11
   6 -11   3 3740.14 723.873   1
  -6 -11  -3 3755.32 1031.07   2
   6 -11   4 4731.38 779.168   1
  -6 -11  -4 3064.41 993.349  11
   6 -11   4 3071.76 535.089   3
  -6 -11  -4 3231.91 1114.69   2
  -6 -11  -5 1453.47 985.202   2
   6 -11   5 2566.68 686.404   1
  -6 -11  -6 5144.36 1262.24   2
  -6 -11  -7 173.862 905.114   2
  -6 -10   8 6929.86 990.431   6
  -6 -10   7 7828.66 945.870   6
   6 -10  -7 9037.94 1485.92   2
  -6 -10   6 7918.24 889.835   6
   6 -10  -6 10087.9 1647.43   2
  -6 -10   5 10542.8 924.940   6
   6 -10  -5 10833.2 1706.41   2
  -6 -10   4 11158.7 883.503   6
   6 -10  -4 9388.51 1561.19   2
  -6 -10   4 12403.6 976.490  11
  -6 -10   3 8085.97 696.119   6
   6 -10  -3 5096.48 1141.47   2
  -6 -10   3 5994.79 767.702  11
   6 -10  -3 9295.01 830.918   1
   6 -10  -2 11137.2 1424.59   2
  -6 -10   2 14962.1 1198.71  11
   6 -10  -2 13149.3 996.787   1
   6 -10  -1 4737.29 965.940   2
  -6 -10   1 5623.67 848.855  11
   6 -10  -1 5547.59 693.874   1
  -6 -10   0 15028.9 1357.82  11
   6 -10   0 16010.7 1108.74   1
   6 -10   0 16042.2 1509.48   2
   6 -10   1 6470.67 748.944   1
   6 -10   1 6600.43 945.326   2
  -6 -10  -1 6901.09 1030.63  11
   6 -10   2 12332.6 859.548   3
  -6 -10  -2 13286.4 1410.72  11
   6 -10   2 12286.7 1015.62   1
  -6 -10  -3 3539.08 1029.79  11
   6 -10   3 2605.35 593.994   1
   6 -10   3 3469.20 555.700   3
   6 -10   4 12147.1 1081.81   1
  -6 -10  -4 11177.2 1486.22  11
  -6 -10  -4 9955.06 1434.29   2
  -6 -10  -5 3841.30 1132.90  11
  -6 -10  -5 3589.14 1015.67   2
   6 -10   5 5602.89 829.981   1
  -6 -10  -6 6344.39 1294.26  11
   6 -10   6 8700.47 1003.42   1
  -6 -10  -6 8097.70 1417.41   2
  -6 -10  -7 811.178 812.318   2
  -6  -9   9-1147.67 760.849   6
  -6  -9   8 1436.37 642.883   6
   6  -9  -8 2324.23 896.924   2
  -6  -9   7 374.952 488.555   6
   6  -9  -7-884.522 799.689   2
  -6  -9   6 520.430 454.451   6
   6  -9  -6 2521.70 1035.47   2
  -6  -9   5 634.717 426.439   6
  -6  -9   5 802.584 373.652  11
  -6  -9   4 2170.35 518.651   6
   6  -9  -4 572.859 837.937   2
  -6  -9   4 1321.21 412.332  11
   6  -9  -4 1419.00 387.575   4
  -6  -9   3 994.236 364.095   6
   6  -9  -3 437.416 857.020   2
  -6  -9   3 510.487 430.597  11
   6  -9  -3 1458.17 434.153   1
   6  -9  -3 858.227 320.973   4
  -6  -9   2 1020.13 345.137   6
   6  -9  -2-374.035 895.669   2
  -6  -9   2 861.777 483.803  11
   6  -9  -2 518.977 381.460   1
   6  -9  -2 516.739 288.932   4
  -6  -9   1 4204.68 467.847   6
   6  -9  -1 2313.29 788.961   2
  -6  -9   1 3775.37 722.137  11
   6  -9  -1 3468.29 424.209   3
   6  -9  -1 3341.96 548.756   1
   6  -9  -1 3644.46 451.434   4
   6  -9   0 1044.81 433.533   1
   6  -9   0 154.473 691.076   2
  -6  -9   0 1346.95 613.958  11
   6  -9   0 1500.60 361.086   3
   6  -9   0 1225.40 344.973   4
   6  -9   1 2326.57 652.529   2
  -6  -9  -1 3859.99 874.147  11
   6  -9   1 2409.48 425.747   3
   6  -9   1 2165.45 383.882   4
   6  -9   1 1740.25 460.503   1
   6  -9   2 1973.93 627.156   2
  -6  -9  -2 3035.47 907.527  11
   6  -9   2 2070.78 428.790   3
   6  -9   2 1565.93 528.193   1
   6  -9   2 2574.98 419.033   4
   6  -9   3 3825.35 642.735   1
  -6  -9  -3 4900.97 1013.17  11
   6  -9   3 3196.25 526.331   3
   6  -9   3 4442.98 511.380   4
   6  -9   4 6736.75 839.441   1
  -6  -9  -4 4982.48 1116.27  11
   6  -9   4 4822.54 557.238   4
  -6  -9  -5 860.522 846.404  11
   6  -9   5 3276.84 717.103   1
  -6  -9  -6 3880.04 1083.44  11
   6  -9   6 4555.22 834.406   1
  -6  -9  -7 4927.90 1274.85  11
   6  -9   7 3560.00 748.743   1
   6  -8 -10 3248.96 753.210   4
  -6  -8   9 9527.88 1189.43   6
   6  -8  -9 10446.6 1337.82   2
   6  -8  -9 10441.8 1079.59   4
  -6  -8   8 6777.31 949.860   6
   6  -8  -8 10088.8 1342.66   2
   6  -8  -8 9644.34 964.187   4
  -6  -8   7 12409.6 1118.97   6
   6  -8  -7 10602.2 1442.64   2
   6  -8  -7 14291.8 1069.99   4
  -6  -8   6 7937.11 860.011   6
  -6  -8   6 8757.20 743.427  11
   6  -8  -6 9902.84 860.877   4
  -6  -8   5 15015.5 1076.52   6
  -6  -8   5 15992.7 1037.40  11
   6  -8  -5 17269.3 1950.75   2
   6  -8  -5 15513.8 991.130   4
  -6  -8   4 16998.9 1063.23   6
  -6  -8   4 15207.1 1067.77  11
   6  -8  -4 16060.4 1999.09   2
   6  -8  -4 16270.2 963.077   4
  -6  -8   3 17144.9 1004.76   6
   6  -8  -3 16272.0 846.067   3
  -6  -8   3 17729.0 1186.81  11
   6  -8  -3 15889.4 1853.03   2
   6  -8  -3 16084.5 994.635   1
   6  -8  -3 16224.1 939.294   4
   6  -8  -2 14954.4 825.692   3
  -6  -8   2 15631.9 1166.11  11
   6  -8  -2 15105.1 1693.87   2
   6  -8  -2 15556.4 977.640   1
   6  -8  -2 15106.9 884.543   4
  -6  -8   2 16198.3 930.567   6
   6  -8  -1 20541.3 996.044   3
  -6  -8   1 18572.2 1330.70  11
   6  -8  -1 18028.7 1088.53   1
   6  -8  -1 19084.6 981.862   4
   6  -8  -1 19281.9 1765.26   2
  -6  -8   1 19803.6 993.631   6
   6  -8   0 18763.4 977.783   3
  -6  -8   0 18201.9 1374.06  11
   6  -8   0 17339.1 1079.80   1
   6  -8   0 17469.3 939.949   4
   6  -8   0 18957.3 1634.59   2
  -6  -8   0 18146.6 908.100   6
   6  -8   1 17123.5 974.455   3
  -6  -8  -1 17565.4 1446.39  11
   6  -8   1 15750.1 1066.84   1
   6  -8   1 18231.1 956.471   4
   6  -8   1 19245.8 1525.32   2
  -6  -8  -1 18330.3 876.539   6
   6  -8   2 12609.3 876.174   3
   6  -8   2 12720.2 971.397   1
  -6  -8  -2 14136.6 1367.58  11
   6  -8   2 13373.5 821.965   4
   6  -8   2 13008.6 1177.20   2
   6  -8   3 12702.0 921.484   3
   6  -8   3 14421.5 1074.15   1
  -6  -8  -3 12875.3 1406.66  11
   6  -8   3 12171.3 806.433   4
   6  -8   4 11374.3 1029.35   1
  -6  -8  -4 9115.22 1274.37  11
   6  -8   5 10659.9 1024.30   1
  -6  -8  -5 11336.4 1493.82  11
  -6  -8  -6 6109.46 1227.12  11
   6  -8   6 6642.96 902.772   1
  -6  -8  -7 6088.18 1311.46  11
   6  -8   7 7649.68 967.668   1
   6  -8   8 3916.15 842.715   1
  -6  -8  -8 3197.46 1060.21  11
   6  -7 -11 1190.14 675.008   4
  -6  -7  10 2301.12 854.273   6
   6  -7 -10 3083.55 810.893   2
   6  -7 -10 2066.05 648.128   4
  -6  -7   9 64.6322 583.078   6
   6  -7  -9 279.223 653.081   2
   6  -7  -9 776.155 486.739   4
   6  -7  -8 918.913 684.699   2
  -6  -7   8 1849.99 616.924   6
   6  -7  -8 2425.46 598.418   4
  -6  -7   7 641.107 496.340   6
   6  -7  -7 152.257 645.123   2
  -6  -7   6 3785.09 678.525   6
   6  -7  -6 3222.19 902.585   2
  -6  -7   6 4099.04 544.703  11
   6  -7  -6 3882.88 575.211   4
  -6  -7   5 555.916 430.000   6
   6  -7  -5 254.518 244.714   3
  -6  -7   5 840.057 386.505  11
   6  -7  -5 1170.42 975.636   2
   6  -7  -5 791.595 368.263   4
   6  -7  -4 3288.58 492.708   1
  -6  -7   4 2641.49 517.714   6
  -6  -7   4 3220.15 545.960  11
   6  -7  -4 3604.50 1230.46   2
   6  -7  -4 2977.10 398.259   3
   6  -7  -4 2761.03 451.800   4
  -6  -7   3 605.418 354.312   6
  -6  -7   3 892.851 420.159  11
   6  -7  -3 1806.04 1025.52   2
   6  -7  -3 1103.43 281.363   3
   6  -7  -3 1389.66 337.436   4
   6  -7  -3 1125.69 381.452   1
  -6  -7   2 4757.94 529.118   6
   6  -7  -2 4338.86 539.041   1
  -6  -7   2 4187.18 656.335  11
   6  -7  -2 4063.31 1106.90   2
   6  -7  -2 4198.93 457.786   3
   6  -7  -2 5153.96 523.916   4
  -6  -7   1 5158.37 520.377   6
   6  -7  -1 4026.33 899.889   2
  -6  -7   1 4353.75 729.837  11
   6  -7  -1 4771.46 497.796   3
   6  -7  -1 5011.77 582.383   1
   6  -7  -1 4040.47 469.124   4
   6  -7   0 8687.82 666.634   3
   6  -7   0 8076.84 727.697   1
   6  -7   0 7544.86 1108.59   2
  -6  -7   0 9456.46 994.559  11
   6  -7   0 8016.42 624.641   4
  -6  -7   0 7648.24 592.342   6
  -6  -7  -1 3600.58 418.567   6
   6  -7   1 3834.77 789.978   2
  -6  -7  -1 3264.71 702.283  11
   6  -7   1 3296.16 479.989   3
   6  -7   1 3095.82 536.693   1
   6  -7   1 3599.83 450.326   4
   6  -7   2 9027.37 738.113   3
   6  -7   2 7994.20 756.773   1
   6  -7   2 7976.47 985.006   2
  -6  -7  -2 9064.93 1072.22  11
   6  -7   2 8568.85 660.233   4
  -6  -7  -2 9174.39 610.402   6
   6  -7   3 8441.80 765.512   3
   6  -7   3 8339.33 831.825   1
  -6  -7  -3 7918.48 1092.76  11
   6  -7   3 8245.31 659.779   4
   6  -7   4 13234.7 1064.08   1
  -6  -7  -4 11762.1 1383.68  11
  -6  -7  -5 3510.08 955.547  11
   6  -7   5 3935.27 713.064   1
  -6  -7  -6 8193.86 1280.73  11
   6  -7   6 7697.70 944.312   1
  -6  -7  -7 6272.10 1240.80  11
   6  -7   7 6326.94 951.294   1
   6  -7   8 8548.01 1079.62   1
  -6  -7  -8 7129.71 1223.34  11
   6  -7   9 1427.29 689.189   1
  -6  -7  -9 2242.99 749.978  11
   6  -7   9 1715.21 599.012   8
   6  -7  10 4341.90 758.657   8
   6  -6 -12 2182.96 762.850   4
  -6  -6  11 11327.2 1417.46   6
   6  -6 -11 11459.6 1241.96   4
  -6  -6  10 3776.40 882.270   6
   6  -6 -10 3079.35 713.634   4
  -6  -6   9 23813.2 1694.38   6
   6  -6  -9 23331.9 1493.66   4
   6  -6  -9 27990.4 2014.71   2
  -6  -6   8 7786.13 951.477   6
   6  -6  -8 8101.08 1176.79   2
   6  -6  -8 8673.57 871.874   4
   6  -6  -7 24184.8 1137.58   3
  -6  -6   7 23843.3 1472.64   6
  -6  -6   7 24694.1 1210.92  11
   6  -6  -7 22206.8 1286.07   4
   6  -6  -6 6406.98 566.184   3
  -6  -6   6 6420.96 777.030   6
  -6  -6   6 6735.42 651.502  11
   6  -6  -6 7072.65 1182.55   2
   6  -6  -6 5677.30 643.228   4
  -6  -6   5 34302.5 1606.22   6
   6  -6  -5 33542.2 1315.48   3
  -6  -6   5 32767.2 1500.52  11
   6  -6  -5 33008.3 1452.65   4
   6  -6  -5 31678.8 2346.55   2
  -6  -6   4 12781.2 909.617   6
   6  -6  -4 12138.9 744.926   3
  -6  -6   4 10507.3 862.241  11
   6  -6  -4 13093.7 1712.60   2
   6  -6  -4 11807.3 773.180   1
   6  -6  -4 12301.0 816.068   4
  -6  -6   3 28609.4 1308.55   6
   6  -6  -3 27817.6 1165.94   3
  -6  -6   3 26924.8 1424.48  11
   6  -6  -3 27226.5 1226.83   1
   6  -6  -3 26464.4 1207.53   4
   6  -6  -3 29202.6 2720.31   2
   6  -6  -2 7399.91 588.298   3
  -6  -6   2 7436.05 797.022  11
   6  -6  -2 7138.97 1422.99   2
   6  -6  -2 7711.50 655.889   1
   6  -6  -2 6945.26 591.510   4
  -6  -6   2 7514.20 656.535   6
   6  -6  -1 25467.8 1139.18   3
  -6  -6   1 24387.4 1444.53  11
   6  -6  -1 24714.6 1200.66   1
   6  -6  -1 25824.0 1142.89   4
   6  -6  -1 28325.3 2197.26   2
  -6  -6   1 24195.8 1118.17   6
   6  -6   0 10351.9 721.851   3
   6  -6   0 10758.1 793.954   1
  -6  -6   0 8929.24 942.990  11
   6  -6   0 11487.2 1363.36   2
   6  -6   0 9931.74 691.454   4
  -6  -6   0 10810.2 701.482   6
   6  -6   1 16350.8 941.958   3
   6  -6   1 17125.8 1043.21   1
  -6  -6  -1 17876.3 1342.69  11
   6  -6   1 16442.0 902.621   4
   6  -6   1 17082.2 1473.00   2
  -6  -6  -1 17601.5 875.967   6
  -6  -6  -2 4839.65 474.574   6
   6  -6   2 5112.84 655.868   1
  -6  -6  -2 5693.00 911.664  11
   6  -6   2 4701.76 803.411   2
   6  -6   2 5260.63 592.321   3
   6  -6   2 4946.04 520.823   4
   6  -6   3 12226.7 961.814   1
   6  -6   3 12229.5 893.456   3
  -6  -6  -3 11380.2 1226.56  11
   6  -6   3 14408.6 1173.23   2
  -6  -6  -3 12213.8 710.308   6
  -6  -6  -4 5416.11 1010.44  11
   6  -6   4 5604.94 742.541   1
  -6  -6  -5 8319.42 1190.32  11
   6  -6   5 8683.28 905.366   1
  -6  -6  -6 4297.10 990.776  11
   6  -6   6 1696.88 565.029   1
   6  -6   7 6176.39 927.697   1
  -6  -6  -7 4976.65 1096.25  11
   6  -6   7 4224.28 742.999   8
   6  -6   8 837.754 613.867   1
  -6  -6  -8 705.091 749.699  11
   6  -6   8 1932.94 613.679   8
   6  -6   9 5345.09 982.713   1
  -6  -6  -9 5133.41 976.907  11
   6  -6   9 5263.95 817.128   8
  -6  -6 -10 2792.74 725.072  11
   6  -6  10 2764.00 706.920   8
   6  -6  10 1653.06 743.424   1
   6  -6  11 2192.83 662.529   8
   6  -5 -12 707.696 606.504   4
  -6  -5  11 3263.31 889.723   6
   6  -5 -11 4174.07 909.500   2
   6  -5 -11 4187.27 824.534   4
  -6  -5  10-160.096 686.198   6
   6  -5 -10 438.544 721.215   2
   6  -5 -10 140.327 450.688   4
  -6  -5   9 1083.14 653.455   6
   6  -5  -9 1665.03 757.364   2
   6  -5  -9 2696.18 619.518   4
  -6  -5   8 471.219 516.926   6
   6  -5  -8 1457.07 396.669   3
  -6  -5   8 1140.53 348.295  11
   6  -5  -8 1343.51 678.737   2
   6  -5  -8 2254.56 583.965   4
  -6  -5   7 3158.80 603.310   6
   6  -5  -7 2678.38 426.288   3
  -6  -5   7 2726.48 451.134  11
   6  -5  -7 3370.99 960.089   2
   6  -5  -7 2153.69 497.838   4
  -6  -5   6 1947.91 513.689   6
   6  -5  -6 1867.91 384.054   3
  -6  -5   6 2117.26 448.416  11
   6  -5  -6 1643.15 787.320   2
   6  -5  -6 1918.42 437.412   4
  -6  -5   5 1118.69 458.307   6
   6  -5  -5 707.445 279.236   3
  -6  -5   5 1747.07 431.045  11
   6  -5  -5 1175.95 734.270   2
   6  -5  -5 890.116 352.776   4
  -6  -5   4 5713.51 631.575   6
  -6  -5   4 7174.50 722.850  11
   6  -5  -4 5430.00 513.885   3
   6  -5  -4 6204.80 1258.60   2
   6  -5  -4 6830.72 574.341   1
   6  -5  -4 6532.27 607.199   4
   6  -5  -3 433.658 280.223   1
  -6  -5   3 836.461 362.481   6
  -6  -5   3 663.196 403.127  11
   6  -5  -3 201.887 253.989   3
   6  -5  -3 977.587 822.550   2
   6  -5  -3 974.838 347.655   4
  -6  -5   2 3061.31 463.894   6
  -6  -5   2 3662.77 630.883  11
   6  -5  -2 3322.01 453.910   1
   6  -5  -2 3215.43 433.633   3
   6  -5  -2 3837.77 1248.03   2
   6  -5  -2 3633.89 468.901   4
  -6  -5   1 2548.39 400.175   6
  -6  -5   1 3988.42 634.846  11
   6  -5  -1 2863.28 419.174   3
   6  -5  -1 1466.93 806.432   2
   6  -5  -1 2987.42 419.376   4
   6  -5  -1 2534.70 413.715   1
   6  -5   0 9957.69 698.132   3
   6  -5   0 11504.7 804.809   1
  -6  -5   0 8280.82 893.407  11
   6  -5   0 9261.34 1330.53   2
   6  -5   0 9500.26 679.444   4
  -6  -5   0 9162.83 655.096   6
  -6  -5  -1 1228.48 356.460   6
   6  -5   1 1266.26 383.036   1
  -6  -5  -1 325.567 443.483  11
   6  -5   1 1072.68 595.539   2
   6  -5   1 1038.61 357.673   3
   6  -5   1 646.481 291.152   4
  -6  -5  -2 4410.66 447.949   6
  -6  -5  -2 6275.47 912.239  11
   6  -5   2 4375.61 769.888   2
   6  -5   2 5104.26 578.519   3
   6  -5   2 4050.59 489.721   4
   6  -5   2 5049.28 624.512   1
   6  -5   3 9059.01 846.357   1
   6  -5   3 8437.26 758.735   3
  -6  -5  -3 9740.48 1095.86  11
   6  -5   3 9347.04 963.274   2
  -6  -5  -3 8744.07 607.154   6
   6  -5   4 13464.0 1055.39   1
   6  -5   4 12940.5 971.359   3
  -6  -5  -4 12774.1 1324.05  11
  -6  -5  -5 3875.19 931.279  11
   6  -5   5 2596.10 625.913   1
   6  -5   6 5661.39 856.337   1
  -6  -5  -6 6255.06 1107.91  11
   6  -5   6 7310.33 912.647   8
   6  -5   7 9928.84 1119.11   1
  -6  -5  -7 9026.67 1308.82  11
   6  -5   7 11168.3 1077.02   8
   6  -5   8 11696.7 1268.94   1
   6  -5   8 13414.5 1168.33   8
  -6  -5  -9 308.888 655.332  11
   6  -5   9 2660.11 651.908   8
   6  -5   9 2608.44 833.442   1
  -6  -5 -10 3595.30 763.148  11
   6  -5  10 4624.35 800.559   8
   6  -5  10 4001.41 918.060   1
  -6  -5 -11 5943.44 881.860  11
   6  -5  11 5822.58 842.758   8
   6  -5  12 4722.61 781.675   8
   6  -4 -12 4902.51 911.219   2
   6  -4 -12 4522.10 924.010   4
  -6  -4  11 6096.37 1054.75   6
   6  -4 -11 6873.85 1076.21   2
   6  -4 -11 7863.65 1017.95   4
  -6  -4  10 1306.11 699.253   6
   6  -4 -10 2872.61 504.369   3
   6  -4 -10 3344.02 847.541   2
   6  -4 -10 3444.21 682.010   4
  -6  -4   9 19337.5 1495.56   6
   6  -4  -9 21307.0 1363.64   4
   6  -4  -9 21079.3 1726.51   2
   6  -4  -9 19031.0 1136.55   3
  -6  -4   8 10910.0 1074.84   6
  -6  -4   8 10132.2 757.405  11
   6  -4  -8 9390.38 1243.36   2
   6  -4  -8 11507.6 959.568   4
   6  -4  -8 9823.72 782.681   3
   6  -4  -7 19654.4 1049.90   3
  -6  -4   7 18833.5 1281.39   6
  -6  -4   7 22129.0 1144.26  11
   6  -4  -7 21058.1 1197.98   4
   6  -4  -7 19637.3 1725.54   2
   6  -4  -6 5888.11 559.402   3
  -6  -4   6 6362.67 779.585   6
  -6  -4   6 4997.70 585.345  11
   6  -4  -6 3895.24 954.495   2
   6  -4  -6 5873.06 620.000   4
  -6  -4   5 44752.9 1846.48   6
   6  -4  -5 43279.9 1598.99   3
  -6  -4   5 45519.7 1802.48  11
   6  -4  -5 44207.8 1528.54   1
   6  -4  -5 44631.2 1702.58   4
   6  -4  -5 44385.7 2756.96   2
  -6  -4   4 13125.0 908.959   6
   6  -4  -4 12896.0 776.527   3
  -6  -4   4 11887.9 887.757  11
   6  -4  -4 13422.3 749.538   1
   6  -4  -4 11306.5 1442.94   2
   6  -4  -4 12217.9 809.216   4
   6  -4  -3 44985.2 1609.55   3
   6  -4  -3 45677.4 1586.58   1
  -6  -4   3 45077.1 1873.76  11
   6  -4  -3 44888.4 1643.38   4
   6  -4  -3 42814.4 2900.74   2
  -6  -4   3 43786.8 1706.49   6
  -6  -4   2 3782.86 501.799   6
  -6  -4   2 3720.90 606.200  11
   6  -4  -2 3429.64 441.057   3
   6  -4  -2 3395.44 448.138   4
   6  -4  -2 3157.90 424.142   1
   6  -4  -1 70434.6 2210.02   3
   6  -4  -1 70092.2 2237.03   1
  -6  -4   1 71305.9 2610.49  11
   6  -4  -1 68234.3 2172.35   4
  -6  -4   1 69474.4 2206.45   6
   6  -4   0 8727.61 671.083   3
   6  -4   0 10450.5 757.556   1
  -6  -4   0 7929.42 858.539  11
   6  -4   0 9120.47 1382.56   2
   6  -4   0 9364.00 678.004   4
  -6  -4   0 8631.98 647.283   6
   6  -4   1 54418.9 1909.02   3
   6  -4   1 56354.5 2031.80   1
  -6  -4  -1 52902.8 2318.01  11
   6  -4   1 51952.3 1822.19   4
   6  -4   1 54759.2 2932.50   2
  -6  -4  -1 54151.0 1793.51   6
  -6  -4  -2 1376.79 314.357   6
  -6  -4  -2 1082.58 601.856  11
   6  -4   2 1516.28 423.480   3
   6  -4   2 1062.29 646.151   2
   6  -4   2 1267.87 429.534   1
   6  -4   2 1376.63 360.801   4
   6  -4   3 58086.1 2279.61   1
   6  -4   3 58087.7 2112.36   3
  -6  -4  -3 55455.9 2549.77  11
   6  -4   3 61240.7 2631.90   2
  -6  -4  -3 56004.6 1846.63   6
  -6  -4  -4 2001.37 707.995  11
   6  -4   4 1968.03 532.228   2
   6  -4   4 2101.77 507.943   3
   6  -4   4 1504.89 486.759   1
   6  -4   5 35187.8 1868.94   1
  -6  -4  -5 35569.2 2138.41  11
   6  -4   5 39942.1 2017.22   8
   6  -4   6 175.320 554.662   1
  -6  -4  -6 561.942 566.469  11
   6  -4   6 1904.91 637.423   8
  -6  -4  -7 23498.8 1888.48  11
   6  -4   7 25127.4 1614.19   8
   6  -4   7 22141.3 1620.04   1
  -6  -4  -8 1363.02 807.835  11
   6  -4   8 1396.71 564.912   8
   6  -4   8 870.302 623.236   1
  -6  -4  -9 11671.0 1281.36  11
   6  -4   9 15019.2 1248.80   8
   6  -4   9 12015.8 1351.13   1
  -6  -4 -10 2693.78 701.798  11
   6  -4  10 2989.72 904.114   1
   6  -4  10 3396.16 712.601   8
  -6  -4 -11 4613.17 783.558  11
   6  -4  11 4615.09 1047.66   1
   6  -4  11 6204.45 902.915   8
  -6  -4 -12 1691.56 613.565  11
   6  -4  12 3408.31 722.954   8
   6  -3 -13 4039.54 902.429  10
  -6  -3  12 172.363 799.560   6
   6  -3 -12 947.552 699.127   2
   6  -3 -12 242.075 540.718   4
  -6  -3  11 4458.80 926.799   6
   6  -3 -11 5598.03 788.051   3
   6  -3 -11 7419.62 1098.16   2
   6  -3 -11 6028.17 885.342   4
  -6  -3  10 1466.07 691.086   6
   6  -3 -10 497.164 420.123   3
   6  -3 -10 2199.35 794.935   2
   6  -3 -10 1139.85 528.944   4
  -6  -3   9 3295.23 781.169   6
   6  -3  -9 3921.74 570.725   3
  -6  -3   9 4112.15 514.382  11
   6  -3  -9 3721.53 873.410   2
   6  -3  -9 5320.17 755.590   4
  -6  -3   8 489.562 510.278   6
   6  -3  -8 1275.05 404.959   3
  -6  -3   8 1168.29 381.097  11
   6  -3  -8 1326.73 753.686   2
   6  -3  -8 1748.03 477.754   4
   6  -3  -7 7400.64 662.278   3
  -6  -3   7 6173.17 794.774   6
  -6  -3   7 6092.29 634.502  11
   6  -3  -7 8158.68 757.545   4
  -6  -3   6 3412.65 615.299   6
   6  -3  -6 3095.76 453.048   3
  -6  -3   6 3119.05 502.837  11
   6  -3  -6 3467.02 535.548   4
  -6  -3   5 1418.93 462.995   6
   6  -3  -5 538.244 296.862   3
  -6  -3   5 1546.00 451.927  11
   6  -3  -5 1546.33 382.192   4
  -6  -3   4 8922.08 773.378   6
   6  -3  -4 7737.31 619.090   3
  -6  -3   4 8101.51 754.434  11
   6  -3  -4 8339.72 565.625   1
   6  -3  -4 9300.05 698.390   4
  -6  -3   3 3249.08 484.614   6
  -6  -3   3 3079.32 565.131  11
   6  -3  -3 2141.38 388.789   3
   6  -3  -3 2311.82 405.338   4
   6  -3  -3 2652.26 365.593   1
   6  -3  -2 10163.1 700.376   3
   6  -3  -2 10775.2 690.036   1
  -6  -3   2 10977.8 910.101  11
   6  -3  -2 9621.68 688.343   4
  -6  -3   2 10056.9 747.825   6
  -6  -3   1 1145.54 347.509   6
   6  -3  -1 1782.27 377.155   1
  -6  -3   1 1131.11 464.119  11
   6  -3  -1 981.725 329.841   3
   6  -3  -1 778.739 309.411   4
   6  -3   0 19075.9 1009.84   3
   6  -3   0 20184.0 1062.45   1
  -6  -3   0 19973.9 1292.09  11
   6  -3   0 19593.9 983.738   4
  -6  -3   0 19365.1 970.225   6
  -6  -3  -1 1403.24 322.171   6
  -6  -3  -1 1337.56 552.808  11
   6  -3   1 1749.35 400.316   3
   6  -3   1 1919.17 430.953   1
   6  -3   1 1821.91 369.336   4
   6  -3   2 10968.0 877.463   1
   6  -3   2 11616.8 825.128   3
  -6  -3  -2 11864.0 1102.25  11
   6  -3   2 11989.5 785.734   4
  -6  -3  -2 11983.4 732.448   6
   6  -3   3 11923.9 968.735   1
   6  -3   3 11900.6 871.233   3
  -6  -3  -3 10403.0 1092.39  11
  -6  -3  -3 12088.2 625.643   7
  -6  -3  -3 10722.7 706.528   6
   6  -3   4 17934.6 1118.07   3
  -6  -3  -4 16435.6 1361.05  11
  -6  -3  -4 19778.6 848.791   7
   6  -3   4 16955.0 1225.20   1
   6  -3   5 4850.47 747.023   1
  -6  -3  -5 4945.77 891.516  11
   6  -3   5 5156.08 701.302   8
  -6  -3  -5 6490.73 504.665   7
   6  -3   6 8598.07 993.976   1
  -6  -3  -6 7044.59 1068.42  11
   6  -3   6 8431.57 940.352   8
  -6  -3  -6 8856.79 630.616   7
  -6  -3  -7 13380.2 1404.88  11
   6  -3   7 16931.2 1402.21   8
   6  -3   7 13516.9 1270.93   1
  -6  -3  -8 10837.6 1322.93  11
   6  -3   8 13227.2 1214.12   8
   6  -3   8 9384.96 1171.45   1
  -6  -3  -9 5893.22 968.342  11
   6  -3   9 5467.47 1022.75   1
   6  -3   9 4534.34 782.457   8
  -6  -3 -10 4349.23 783.183  11
   6  -3  10 3120.28 873.415   1
   6  -3  10 3844.73 762.623   8
  -6  -3 -11 9134.20 1012.63  11
   6  -3  11 7736.70 1149.35   1
   6  -3  11 7465.83 930.733   8
  -6  -3 -12 5122.04 776.045  11
   6  -3  12 6070.45 884.602   8
   6  -2 -13 12074.3 1243.90  10
   6  -2 -13 13504.7 1322.19   3
  -6  -2  12 2601.84 892.332   6
   6  -2 -12 4387.25 818.049   3
   6  -2 -12 2504.23 749.253   2
   6  -2 -12 2527.81 754.364  10
   6  -2 -12 3652.67 804.144   4
  -6  -2  11 12758.2 1360.81   6
   6  -2 -11 14623.1 1467.02   2
   6  -2 -11 12672.5 1187.35   4
   6  -2 -11 13052.3 1110.65   3
  -6  -2  10 285.372 640.023   6
   6  -2 -10 764.004 422.810   3
   6  -2 -10 2051.69 640.015   4
  -6  -2   9 36696.4 1963.14   6
   6  -2  -9 37223.9 1792.52   4
   6  -2  -9 34408.3 1621.06   3
  -6  -2   8 6518.13 825.767   6
  -6  -2   8 7381.18 694.990  11
   6  -2  -8 6606.05 722.898   4
   6  -2  -8 7695.75 719.231   3
   6  -2  -7 33065.8 1447.35   3
  -6  -2   7 34900.2 1724.46   6
   6  -2  -7 34958.3 1554.40   4
  -6  -2   7 31930.2 1466.01  11
  -6  -2   6 1537.65 475.796   6
   6  -2  -6 2196.78 425.468   3
  -6  -2   6 1900.35 459.738  11
   6  -2  -6 2039.27 447.042   4
  -6  -2   5 65320.0 2348.34   6
   6  -2  -5 64713.7 2132.25   3
  -6  -2   5 67176.2 2335.07  11
   6  -2  -5 67470.6 2216.15   4
   6  -2  -4 6671.81 578.453   3
  -6  -2   4 7155.88 716.428  11
   6  -2  -4 7266.25 632.805   4
  -6  -2   4 7476.06 687.474   6
   6  -2  -3 54921.3 1880.90   3
   6  -2  -3 59172.0 1803.42   1
  -6  -2   3 55965.9 2138.23  11
   6  -2  -3 54703.8 1880.91   4
  -6  -2   3 55286.4 1986.69   6
   6  -2  -2 1118.06 335.911   1
  -6  -2   2 633.336 326.503   6
  -6  -2   2 887.162 423.938  11
   6  -2  -2 949.469 317.218   3
   6  -2  -2 262.433 306.374   4
   6  -2  -1 80384.4 2436.63   3
   6  -2  -1 81056.7 2457.06   1
  -6  -2   1 76864.7 2757.82  11
   6  -2  -1 77510.1 2383.28   4
  -6  -2   1 78201.2 2429.77   6
  -6  -2   0 2603.05 417.723   6
  -6  -2   0 2339.02 583.830  11
   6  -2   0 1727.97 399.797   3
   6  -2   0 2379.03 472.622   1
   6  -2   0 1965.44 366.382   4
   6  -2   1 52818.8 2021.54   1
   6  -2   1 54431.1 1900.96   3
  -6  -2  -1 51170.4 2230.30  11
   6  -2   1 53826.3 1829.27   4
  -6  -2  -1 50954.8 1778.29   6
  -6  -2  -2 794.751 294.350   6
   6  -2   2 1186.02 373.410   1
  -6  -2  -2 604.629 524.932  11
   6  -2   2 1155.23 414.960   3
  -6  -2  -2 1188.31 260.773   7
   6  -2   3 46214.4 1817.86   3
  -6  -2  -3 43815.1 2183.94  11
  -6  -2  -3 50288.1 1550.63   7
  -6  -2  -3 46265.2 1654.14   6
   6  -2   3 46477.8 2076.03   1
  -6  -2  -4 423.965 478.851  11
   6  -2   4 525.686 368.623   3
   6  -2   4 810.528 307.720   8
  -6  -2  -4 524.000 258.390   7
   6  -2   5 24625.0 1387.50   3
  -6  -2  -5 23558.7 1647.19  11
   6  -2   5 27331.5 1393.84   8
  -6  -2  -5 26404.7 1106.32   7
   6  -2   5 23842.1 1580.37   1
  -6  -2  -6 1296.09 619.928  11
   6  -2   6 1354.16 500.801   8
   6  -2   6 580.066 505.491   1
  -6  -2  -6 1288.85 332.104   7
  -6  -2  -7 16135.1 1492.69  11
   6  -2   7 17260.5 1335.87   8
  -6  -2  -7 16830.7 973.742   7
   6  -2   7 16512.4 1470.97   1
  -6  -2  -8 770.188 722.917  11
   6  -2   8 1799.17 819.933   1
   6  -2   8 345.751 602.172   8
  -6  -2  -8 1299.44 419.465   7
  -6  -2  -9 7814.98 1065.76  11
   6  -2   9 10671.9 1269.71   1
   6  -2   9 9575.36 1089.17   8
  -6  -2  -9 8713.51 842.125   7
  -6  -2 -10 1659.63 610.071  11
   6  -2  10 1942.35 775.520   1
   6  -2  10 804.492 583.812   8
  -6  -2 -10 2608.28 660.359   7
  -6  -2 -11 3386.40 667.131  11
   6  -2  11 4876.94 980.829   1
   6  -2  11 3804.35 788.688   8
  -6  -2 -12 93.6034 427.382  11
   6  -2  12 842.009 567.624   8
   6  -1 -13 4731.75 894.764   3
   6  -1 -13 4256.36 942.246   2
   6  -1 -13 3843.46 814.847  10
  -6  -1  12-201.035 658.181   6
   6  -1 -12 1023.42 608.124   3
   6  -1 -12 972.005 696.461   2
   6  -1 -12-239.106 570.468  10
   6  -1 -12 271.386 582.618   4
  -6  -1  11 8087.73 1107.56   6
   6  -1 -11 7152.30 934.951   4
   6  -1 -11 8121.18 948.079   3
  -6  -1  10 92.4958 564.902   6
   6  -1 -10 45.2800 409.193   3
   6  -1 -10 283.478 548.907  10
   6  -1 -10 1023.56 515.547   4
  -6  -1   9 6505.35 884.322   6
   6  -1  -9 6192.94 719.258   3
   6  -1  -9 7473.39 830.913   4
  -6  -1   8 3859.14 733.399   6
   6  -1  -8 2959.64 509.439   3
  -6  -1   8 2682.27 471.681  11
   6  -1  -8 2137.00 501.896   4
  -6  -1   7 10203.0 942.494   6
   6  -1  -7 10057.2 785.419   3
  -6  -1   7 9524.45 799.869  11
   6  -1  -7 10638.8 850.556   4
  -6  -1   6 5973.68 706.326   6
   6  -1  -6 4961.60 563.199   3
  -6  -1   6 4470.85 601.933  11
   6  -1  -6 4790.02 583.045   4
  -6  -1   5 4705.73 616.673   6
   6  -1  -5 4528.77 527.308   3
  -6  -1   5 4935.49 626.616  11
   6  -1  -5 4477.67 548.660   4
   6  -1  -4 15210.3 881.122   3
  -6  -1   4 16301.0 1058.93  11
   6  -1  -4 15010.6 892.174   4
  -6  -1   4 16278.1 1003.26   6
   6  -1  -3 5599.64 552.356   3
  -6  -1   3 5471.32 656.671  11
   6  -1  -3 5786.80 555.867   4
  -6  -1   3 6055.59 619.836   6
   6  -1  -2 11708.9 725.872   1
   6  -1  -2 12291.4 786.150   3
  -6  -1   2 11423.8 926.531  11
   6  -1  -2 11406.1 745.876   4
  -6  -1   2 11592.1 793.851   6
  -6  -1   1 1433.00 374.430   6
  -6  -1   1 1191.14 501.258  11
   6  -1  -1 1675.20 422.088   3
   6  -1  -1 396.340 279.724   1
   6  -1  -1 1490.20 389.378   4
   6  -1   0 22876.3 1215.01   1
   6  -1   0 23814.7 1151.11   3
  -6  -1   0 24058.2 1403.45  11
   6  -1   0 23612.9 1107.56   4
  -6  -1   0 25418.6 1150.33   6
  -6  -1  -1 381.225 305.588   6
   6  -1   1-245.843 431.834   1
  -6  -1  -1 789.687 499.756  11
   6  -1   1 524.296 353.662   3
   6  -1   1 758.002 341.500   4
   6  -1   2 8180.42 821.808   1
   6  -1   2 9398.09 742.709   3
  -6  -1  -2 9310.94 969.531  11
  -6  -1  -2 9897.44 601.315   7
  -6  -1  -2 8746.84 662.801   6
   6  -1   3 10653.6 820.532   3
  -6  -1  -3 10750.5 1071.62  11
  -6  -1  -3 12690.2 702.724   7
   6  -1   3 9902.79 959.600   1
  -6  -1  -3 10944.0 737.634   6
   6  -1   4 18486.5 1109.97   3
  -6  -1  -4 17057.5 1337.29  11
   6  -1   4 19703.8 983.807   8
  -6  -1  -4 18150.0 899.018   7
   6  -1   4 16235.5 1282.39   1
  -6  -1  -5 4986.39 863.713  11
   6  -1   5 5301.42 683.529   3
   6  -1   5 5744.60 638.094   8
   6  -1   5 4946.51 818.023   1
  -6  -1  -5 5294.55 520.823   7
  -6  -1  -6 3104.77 796.114  11
   6  -1   6 4264.03 663.871   3
   6  -1   6 4739.30 898.486   1
   6  -1   6 4253.55 620.063   8
  -6  -1  -6 4756.98 523.190   7
  -6  -1  -7 17097.9 1494.94  11
   6  -1   7 21259.0 1405.82   8
  -6  -1  -7 18799.3 1081.79   7
   6  -1   7 19667.3 1628.43   1
   6  -1   8 11279.7 1249.07   1
   6  -1   8 11408.2 1159.44   8
  -6  -1  -8 10667.6 1269.06  11
  -6  -1  -8 12698.7 948.691   7
  -6  -1  -9 5724.66 905.892  11
   6  -1   9 4244.32 806.776   1
   6  -1   9 5764.99 940.322   8
  -6  -1  -9 5968.58 742.360   7
  -6  -1 -10 2464.58 657.356  11
   6  -1  10 3135.68 746.032   1
   6  -1  10 3392.70 783.022   8
  -6  -1 -10 1569.14 565.711   7
   6  -1  11 10293.9 1182.05   1
  -6  -1 -11 9852.94 1017.55  11
   6  -1  11 12090.4 1194.13   8
  -6  -1 -11 9580.47 1058.88   7
   6  -1  12 6258.19 956.030   1
  -6  -1 -12 4838.05 727.242  11
   6  -1  12 6498.88 934.562   8
  -6  -1 -12 6335.15 1000.58   7
   6   0 -13 6533.20 1018.68   3
   6   0 -13 6843.60 1107.60   2
  -6   0  12 2684.77 813.242   6
   6   0 -12 4145.93 811.329   3
   6   0 -12 3224.13 822.401   4
  -6   0  11 5653.74 981.328   6
   6   0 -11 7279.85 910.478   3
   6   0 -11 6598.35 930.732   4
  -6   0  10 1200.12 650.832   6
   6   0 -10 508.464 457.587   3
   6   0 -10 1022.33 511.971  10
  -6   0  10 980.500 525.940   9
   6   0 -10 2018.41 631.489   4
  -6   0   9 19930.3 1416.40   6
   6   0  -9 19091.8 1382.57  10
   6   0  -9 19477.8 1280.72   4
   6   0  -9 20365.6 1246.32   3
  -6   0   8 8431.66 903.296   6
   6   0  -8 7715.13 917.463  10
   6   0  -8 8543.50 801.854   4
   6   0  -8 8435.37 780.558   3
  -6   0   7 21963.3 1344.30   6
   6   0  -7 24212.7 1233.55   3
  -6   0   7 23679.5 1278.21  11
   6   0  -7 24309.1 1272.99   4
  -6   0   6 2933.73 608.607   6
   6   0  -6 2599.54 484.149   3
  -6   0   6 2012.81 488.407  11
   6   0  -6 2075.44 452.406   4
   6   0  -5 62630.1 2117.09   3
  -6   0   5 62044.4 2281.56  11
   6   0  -5 62970.6 2126.86   4
  -6   0   5 61963.7 2257.77   6
   6   0  -4 9105.54 703.812   3
  -6   0   4 7876.22 776.733  11
   6   0  -4 9263.88 704.097   4
  -6   0   4 8945.31 773.255   6
   6   0  -3 70253.0 2214.31   3
  -6   0   3 67968.2 2454.71  11
   6   0  -3 65214.4 2151.38   4
  -6   0   3 67294.2 2272.28   6
  -6   0   2 491.543 357.071   6
  -6   0   2 720.061 454.768  11
   6   0  -2 893.027 364.606   3
   6   0  -2 164.274 318.119   4
   6   0  -1 116054. 3244.40   3
  -6   0   1 112366. 3576.14  11
   6   0  -1 114120. 3172.74   4
   6   0  -1 111000. 3409.16   1
  -6   0   1 113922. 3243.93   6
  -6   0   0 4319.68 522.654   6
  -6   0   0 3424.98 637.718  11
   6   0   0 4946.30 567.855   3
   6   0   0 3320.28 459.104   4
   6   0   0 3109.83 583.132   1
   6   0   1 96323.1 2879.09   3
  -6   0  -1 94246.1 3287.81  11
   6   0   1 99776.5 2831.47   4
   6   0   1 91267.9 3249.05   1
  -6   0  -1 95079.0 2812.11   6
  -6   0  -2 2331.89 438.664   6
  -6   0  -2 1762.58 630.456  11
   6   0   2 2107.13 474.972   3
   6   0   2 1393.14 522.891   1
  -6   0  -2 2113.71 340.364   7
   6   0   3 98603.3 3035.52   3
   6   0   3 102294. 2659.21   8
  -6   0  -3 100206. 2779.56   7
  -6   0  -3 96270.6 3485.18  11
   6   0   3 95657.9 3609.58   1
  -6   0  -4 604.957 568.224  11
   6   0   4 658.172 398.594   3
   6   0   4 451.229 561.356   1
   6   0   4 1278.88 326.356   8
  -6   0  -4 577.136 311.149   7
   6   0   5 57340.5 2227.25   3
  -6   0  -5 58134.6 2644.51  11
   6   0   5 61281.8 2112.09   8
  -6   0  -5 60846.6 2017.86   7
   6   0   5 59614.2 2733.63   1
  -6   0  -6 2708.56 755.324  11
   6   0   6 3154.37 574.035   3
   6   0   6 3419.36 741.986   1
   6   0   6 3293.51 581.112   8
  -6   0  -6 3022.25 480.439   7
   6   0   7 38979.1 1890.28   3
  -6   0  -7 38134.5 2210.33  11
   6   0   7 41709.2 1932.90   8
  -6   0  -7 39321.0 1668.41   7
   6   0   7 37563.3 2066.28   1
  -6   0  -8 1277.91 637.522  11
   6   0   8 1098.68 608.584   1
   6   0   8 1269.56 543.776   8
  -6   0  -8 2551.20 562.359   7
  -6   0  -9 16815.5 1403.35  11
   6   0   9 18218.5 1470.50   8
   6   0   9 17844.4 1413.62   1
  -6   0  -9 17566.6 1222.16   7
   6   0  10 3111.01 757.005   1
  -6   0 -10 1017.92 533.765  11
   6   0  10 904.895 604.268   8
  -6   0 -10 3240.80 708.761   7
   6   0  11 7655.82 1013.29   1
  -6   0 -11 7560.96 894.800  11
   6   0  11 7098.00 1003.62   8
  -6   0 -11 6446.37 916.405   7
   6   0  12 28.4094 564.478   1
   6   0  12 1496.59 611.591   8
  -6   0 -12 1572.48 685.094   7
   6   1 -13 3801.54 814.857   3
  -6   1  12 491.899 690.434   6
   6   1 -12 738.772 594.398   3
   6   1 -12 369.163 658.792   4
  -6   1  11 7462.38 1035.12   6
   6   1 -11 7010.38 932.782   3
   6   1 -11 7554.25 993.622   4
  -6   1  10 1228.69 666.276   6
   6   1 -10-52.6202 499.537   3
  -6   1  10 1058.77 533.897   9
   6   1 -10 1946.20 682.932   4
  -6   1   9 6883.18 911.680   6
   6   1  -9 6315.76 763.014   3
   6   1  -9 8923.23 899.964   4
  -6   1   9 7116.52 951.234   9
  -6   1   8 4522.03 728.293   6
   6   1  -8 3569.91 592.940   3
   6   1  -8 3370.40 576.245   4
   6   1  -7 11798.7 890.848   3
  -6   1   7 10837.6 898.123  11
   6   1  -7 10730.1 864.988   4
  -6   1   7 11997.2 984.652   6
  -6   1   6 5165.81 676.851   6
   6   1  -6 6032.58 637.057   3
  -6   1   6 4733.86 616.871  11
   6   1  -6 5586.36 625.192   4
  -6   1   5 4600.97 624.448   6
   6   1  -5 3906.96 527.323   3
  -6   1   5 4798.83 651.126  11
   6   1  -5 5488.91 603.401   4
   6   1  -4 15592.9 926.222   3
  -6   1   4 16517.1 1102.71  11
   6   1  -4 16185.1 942.069   4
  -6   1   4 16869.0 1025.94   6
   6   1  -3 6532.96 608.148   3
  -6   1   3 6563.24 654.833   6
  -6   1   3 6208.66 733.630  11
   6   1  -3 5955.59 562.936   4
   6   1  -2 14368.7 869.941   3
  -6   1   2 14101.7 1036.61  11
   6   1  -2 12388.3 783.887   4
  -6   1   2 14585.2 916.262   6
  -6   1   1 1531.67 408.228   6
  -6   1   1 1444.48 503.327  11
   6   1  -1 1128.22 390.912   3
   6   1  -1 1021.19 331.913   4
   6   1   0 25182.8 1210.39   3
  -6   1   0 24595.3 1430.76  11
   6   1   0 26406.6 1171.29   4
   6   1   0 28482.7 1607.61   1
  -6   1   0 27384.8 1237.97   6
  -6   1  -1 200.864 313.666   6
  -6   1  -1 646.380 503.424  11
   6   1   1 875.372 373.147   3
   6   1   1-154.741 488.770   1
   6   1   1 398.840 302.765   4
  -6   1  -1 488.385 275.766   7
   6   1   2 10252.0 793.980   3
  -6   1  -2 10868.7 1023.12  11
  -6   1  -2 10903.3 537.244  10
   6   1   2 9111.48 948.231   1
  -6   1  -2 11154.4 691.304   7
  -6   1  -2 11311.9 776.012   6
   6   1   3 12214.0 887.400   3
  -6   1  -3 11623.4 1109.95  11
  -6   1  -3 12361.4 590.236  10
  -6   1  -3 12801.0 766.560   7
   6   1   3 12098.0 1096.92   1
   6   1   4 20105.8 1158.25   3
  -6   1  -4 19711.1 1425.86  11
  -6   1  -4 19258.9 802.137  10
   6   1   4 20192.0 952.333   8
  -6   1  -4 20650.3 1021.28   7
   6   1   4 18997.6 1353.95   1
  -6   1  -5 5097.54 823.339  11
   6   1   5 5637.03 827.165   1
   6   1   5 5176.07 652.470   3
  -6   1  -5 5861.55 452.734  10
   6   1   5 5271.92 576.958   8
  -6   1  -5 5800.55 591.378   7
  -6   1  -6 4417.40 808.443  11
   6   1   6 4048.60 727.714   1
   6   1   6 4317.38 635.421   3
  -6   1  -6 5262.55 468.409  10
   6   1   6 6357.53 681.533   8
  -6   1  -6 4688.36 578.873   7
   6   1   7 18846.0 1263.76   3
  -6   1  -7 16971.7 1481.29  11
   6   1   7 19645.4 1255.21   8
   6   1   7 19295.1 1384.04   1
  -6   1  -7 16736.1 1064.90   7
  -6   1  -8 10288.7 1253.73  11
   6   1   8 10391.0 1007.56   3
  -6   1  -8 11173.8 1131.23   9
   6   1   8 10449.5 1029.29   8
   6   1   8 10594.3 1073.32   1
  -6   1  -8 11432.4 948.291   7
   6   1   9 6239.24 927.428   1
  -6   1  -9 5292.00 884.406  11
  -6   1  -9 5242.88 807.022   9
   6   1   9 5566.50 877.369   8
  -6   1  -9 6004.55 771.152   7
   6   1  10 2270.90 631.991   1
  -6   1 -10 2080.01 603.307  11
   6   1  10 2425.38 741.767   8
  -6   1 -10 3136.91 696.172   7
   6   1  11 9952.83 1084.99   1
  -6   1 -11 8302.07 914.534  11
   6   1  11 8131.47 1120.57   8
  -6   1 -11 6895.43 924.773   7
   6   1  12 5168.04 870.634   1
   6   1  12 5425.70 946.482   8
  -6   1 -12 6841.39 1049.82   7
  -6   2  12 4955.96 939.286   6
   6   2 -12 4141.60 825.868   3
   6   2 -12 4230.35 824.669   4
  -6   2  11 12555.4 1230.50   6
   6   2 -11 11097.3 1127.23   4
   6   2 -11 13607.6 1238.50   3
  -6   2  10 1318.30 580.065   6
   6   2 -10 494.142 487.655   3
  -6   2  10 647.577 466.925   9
   6   2 -10 2053.14 587.684   4
  -6   2   9 34083.7 1843.74   6
   6   2  -9 39683.1 1846.72   4
  -6   2   9 35004.2 2008.27   9
   6   2  -9 37454.8 1805.12   3
  -6   2   8 7291.22 839.490   6
   6   2  -8 7883.22 794.298   3
  -6   2   8 5960.77 906.002   9
   6   2  -8 7449.11 777.570   4
  -6   2   7 35562.6 2117.45   9
   6   2  -7 33453.9 1543.56   4
  -6   2   7 33270.7 1660.26   6
   6   2  -7 32919.3 1552.98   3
  -6   2   6 2153.26 558.426   6
   6   2  -6 1977.44 487.268   3
  -6   2   6 1959.43 520.474  11
   6   2  -6 1511.26 401.792   4
   6   2  -5 70286.1 2348.97   3
  -6   2   5 67094.9 2513.82  11
   6   2  -5 69208.1 2292.54   4
  -6   2   5 72070.8 2479.49   6
  -6   2   4 6589.46 695.305   6
   6   2  -4 6631.60 629.346   3
  -6   2   4 6672.19 771.627  11
   6   2  -4 6453.48 619.564   4
   6   2  -3 54954.3 1951.27   3
  -6   2   3 55507.6 2209.85  11
   6   2  -3 54053.4 1881.37   4
  -6   2   3 55835.1 2032.88   6
  -6   2   2 1586.67 434.800   6
  -6   2   2 273.955 380.270  11
   6   2  -2 538.143 313.538   3
   6   2  -2 489.301 331.415   4
   6   2  -1 87012.5 2617.10   3
  -6   2   1 78673.8 2878.59  11
   6   2  -1 82121.9 2490.51   4
  -6   2   1 81419.3 2604.97   6
  -6   2   0 1349.21 404.363   6
  -6   2   0 1994.05 622.749  11
   6   2   0 1941.65 445.077   3
   6   2   0 1017.77 336.802   4
   6   2   1 55160.0 1974.48   3
  -6   2  -1 51998.2 2263.12  11
  -6   2  -1 57110.9 1640.93  10
   6   2   1 52640.2 1852.64   4
   6   2   1 52444.0 2013.41   1
  -6   2  -1 52756.0 1780.96   7
  -6   2  -1 53322.8 1934.51   6
  -6   2  -2 1536.24 408.315   6
   6   2   2 517.012 434.821   1
  -6   2  -2 1055.65 573.446  11
   6   2   2 1020.67 411.560   3
  -6   2  -2 1048.09 242.733  10
   6   2   2 1378.42 376.300   4
  -6   2  -2 1388.93 356.873   7
   6   2   3 49217.9 1918.51   3
  -6   2  -3 49589.6 2318.12  11
  -6   2  -3 51725.1 1581.48  10
  -6   2  -3 50822.4 1783.99   7
   6   2   4 836.584 475.346   1
  -6   2  -4 775.164 577.796  11
   6   2   4 876.895 377.438   3
  -6   2  -4 860.229 239.199  10
  -6   2  -4 806.880 355.656   7
   6   2   5 27541.7 1421.30   3
  -6   2  -5 28955.6 1806.09  11
  -6   2  -5 28490.4 1123.85  10
   6   2   5 29509.1 1291.62   8
   6   2   5 26971.2 1656.20   1
  -6   2  -5 27214.2 1288.96   7
   6   2   6 1466.25 584.486   1
   6   2   6 2021.07 399.314   5
  -6   2  -6 2292.90 731.312  11
   6   2   6 2111.59 502.249   3
  -6   2  -6 1792.37 344.338  10
  -6   2  -6 1826.65 780.677   9
   6   2   6 1545.99 454.158   8
  -6   2  -6 1677.56 440.736   7
   6   2   7 17813.6 1242.32   3
  -6   2  -7 18351.2 1533.36  11
  -6   2  -7 19441.6 978.315  10
  -6   2  -7 14844.9 1375.25   9
   6   2   7 17521.2 1184.99   8
   6   2   7 17470.0 1324.98   1
  -6   2  -7 15680.6 1058.02   7
   6   2   8 413.043 513.417   1
  -6   2  -8 906.642 642.160  11
   6   2   8 408.600 435.971   3
  -6   2  -8 12.7462 275.806  10
  -6   2  -8 1221.41 601.963   9
   6   2   8 970.294 458.351   8
  -6   2  -8 901.226 463.205   7
   6   2   9 8603.11 984.114   1
  -6   2  -9 8275.00 1007.04  11
   6   2   9 8638.56 960.110   3
  -6   2  -9 8679.29 1010.74   9
   6   2   9 10648.8 1103.55   8
  -6   2  -9 8114.34 903.400   7
   6   2  10 1731.77 642.308   1
  -6   2 -10 1571.65 551.248  11
   6   2  10 299.667 626.946   3
   6   2  10 1009.59 594.199   8
  -6   2 -10 2446.25 653.821   7
   6   2  11 4702.94 850.669   1
   6   2  11 2789.38 758.448   8
  -6   2 -11 3478.38 742.089   7
   6   2  12 728.342 573.540   1
   6   2  12 1438.65 729.209   8
  -6   2 -12-313.120 573.068   7
  -6   3  12 1405.29 727.782   6
   6   3 -12 1659.76 717.065   3
   6   3 -12 650.565 666.006   4
  -6   3  11 6617.85 962.842   6
   6   3 -11 4937.49 855.372   3
   6   3 -11 5916.28 943.354   4
  -6   3  10 1409.74 627.404   6
   6   3 -10 1229.91 556.798   3
  -6   3  10 1048.46 539.643   9
   6   3 -10 1792.57 620.881   4
  -6   3   9 4791.58 781.249   6
   6   3  -9 3402.27 625.595   3
  -6   3   9 4191.29 784.073   9
   6   3  -9 5561.55 768.863   4
  -6   3   8 1633.79 548.131   6
   6   3  -8 2110.58 560.545   3
  -6   3   8 1628.04 644.554   9
   6   3  -8 1638.39 484.180   4
  -6   3   7 8527.40 854.970   6
   6   3  -7 7299.34 761.040   3
  -6   3   7 6803.41 998.313   9
   6   3  -7 7335.38 731.991   4
  -6   3   6 2617.38 553.530   6
   6   3  -6 2849.09 542.646   3
  -6   3   6 4300.81 936.598   9
   6   3  -6 3655.46 561.034   4
  -6   3   5 1123.85 468.401   6
   6   3  -5 1918.92 438.833   3
  -6   3   5 2427.72 614.789  11
  -6   3   5 994.202 699.999   9
   6   3  -5 1871.50 451.450   4
   6   3  -4 8670.64 750.984   3
  -6   3   4 6697.70 792.770  11
  -6   3   4 8913.96 1361.29   9
   6   3  -4 8726.42 706.193   4
  -6   3   4 9429.02 809.217   6
  -6   3   3 2242.82 484.857   6
   6   3  -3 2480.81 463.979   3
  -6   3   3 2060.49 560.384  11
  -6   3   3 1999.12 1071.09   9
   6   3  -3 3090.32 477.655   4
   6   3  -2 10298.2 778.579   3
  -6   3   2 10351.2 936.806  11
  -6   3   2 11911.3 1777.21   9
   6   3  -2 9085.84 691.863   4
  -6   3   2 11108.8 829.727   6
  -6   3   1 632.900 408.007   6
  -6   3   1 1324.48 515.110  11
   6   3  -1 1418.25 432.731   3
  -6   3   1 1354.54 1152.01   9
   6   3  -1 588.818 327.138   4
   6   3   0 19070.7 1062.82   3
  -6   3   0 18177.6 1260.89  11
   6   3   0 18903.5 989.281   4
  -6   3   0 19769.5 1086.39   6
  -6   3  -1 1498.61 423.601   6
  -6   3  -1 1547.77 561.432  11
   6   3   1 2003.22 455.483   3
  -6   3  -1 1703.01 276.547  10
   6   3   1 2338.61 421.449   4
  -6   3  -1 1747.92 374.619   7
   6   3   2 12136.3 863.062   3
  -6   3  -2 11877.7 1082.78  11
  -6   3  -2 10865.3 623.170  10
  -6   3  -2 11647.2 1726.44   9
   6   3   2 9761.91 732.505   4
   6   3   2 10193.7 795.689   1
  -6   3  -2 10194.9 720.717   7
   6   3   3 13360.8 927.445   3
  -6   3  -3 11031.3 1100.05  11
  -6   3  -3 12691.4 682.706  10
  -6   3  -3 14179.5 1692.04   9
   6   3   3 12164.7 983.535   1
  -6   3  -3 12191.3 812.099   7
   6   3   4 18520.2 1112.24   3
  -6   3  -4 18670.9 1424.50  11
  -6   3  -4 18667.0 879.135  10
  -6   3  -4 21479.4 1875.60   9
   6   3   4 18391.8 1335.48   1
  -6   3  -4 18014.3 1016.75   7
   6   3   5 7912.02 1035.06   1
   6   3   5 6608.89 641.405   5
  -6   3  -5 6466.15 942.673  11
   6   3   5 6752.62 717.777   3
  -6   3  -5 6952.80 557.230  10
  -6   3  -5 5159.83 1071.62   9
  -6   3  -5 5474.75 604.610   7
   6   3   6 7523.13 970.415   1
   6   3   6 9515.67 870.456   3
   6   3   6 8333.04 682.436   5
  -6   3  -6 8279.86 1112.50  11
  -6   3  -6 8439.28 644.404  10
  -6   3  -6 7898.14 1091.02   9
   6   3   6 8594.48 762.609   8
  -6   3  -6 7444.30 734.674   7
   6   3   7 14922.5 1123.99   3
  -6   3  -7 16988.6 1501.39  11
  -6   3  -7 15793.9 931.738  10
  -6   3  -7 15764.2 1435.72   9
   6   3   7 15811.0 1098.30   8
   6   3   7 16975.7 1331.91   1
  -6   3  -7 14349.6 1032.32   7
  -6   3  -8 10147.6 1209.90  11
  -6   3  -8 9757.47 777.811  10
   6   3   8 10126.0 982.908   3
  -6   3  -8 9980.36 1157.28   9
   6   3   8 11136.2 997.268   8
   6   3   8 12570.8 1169.57   1
  -6   3  -8 8761.40 879.855   7
   6   3   9 6091.12 879.289   1
  -6   3  -9 4660.52 803.390  11
   6   3   9 5138.24 781.882   3
  -6   3  -9 6080.00 686.510  10
  -6   3  -9 4073.95 787.746   9
   6   3   9 5910.20 848.029   8
  -6   3  -9 5675.81 778.162   7
   6   3  10 3625.29 789.753   1
  -6   3 -10 3354.75 672.129  11
   6   3  10 3094.59 668.269   3
  -6   3 -10 2889.18 540.103  10
   6   3  10 2061.86 637.140   8
  -6   3 -10 3418.89 738.550   7
   6   3  11 9523.05 1057.19   1
   6   3  11 7459.78 1013.48   3
   6   3  11 7969.22 1083.82   8
  -6   3 -11 8933.38 1091.25   7
   6   3  12 5249.28 876.315   1
   6   3  12 5085.36 942.763   3
   6   3  12 5499.68 1026.66   8
  -6   4  12 4922.23 893.161   6
   6   4 -12 4597.12 935.730   3
  -6   4  11 8423.06 1054.39   6
   6   4 -11 7722.06 1036.83   3
   6   4 -11 7307.35 970.635   4
  -6   4  10 4288.70 748.647   6
   6   4 -10 2936.77 677.919   3
  -6   4  10 1590.08 615.289   9
   6   4 -10 4144.65 771.914   4
   6   4  -9 19990.8 1308.18   4
  -6   4   9 18926.3 1524.49   9
   6   4  -9 16002.3 1239.29   3
  -6   4   9 20137.2 1379.38   6
   6   4  -8 9808.31 877.864   4
  -6   4   8 7963.09 1084.14   9
   6   4  -8 9289.62 899.677   3
  -6   4   8 11508.8 997.960   6
  -6   4   7 17162.9 1548.49   9
   6   4  -7 19385.5 1165.65   4
  -6   4   7 18531.0 1234.23   6
   6   4  -7 21208.7 1284.16   3
  -6   4   6 5062.46 661.416   6
   6   4  -6 5294.49 693.938   3
  -6   4   6 5569.48 1053.52   9
   6   4  -6 5070.36 623.226   4
   6   4  -5 46320.7 1862.57   3
  -6   4   5 42221.3 2610.04   9
   6   4  -5 44168.5 1729.50   4
  -6   4   5 46854.0 1930.59   6
   6   4  -4 10259.6 833.291   3
  -6   4   4 9988.45 954.326  11
  -6   4   4 9310.25 1354.36   9
   6   4  -4 9985.09 746.938   4
  -6   4   4 10867.6 869.094   6
   6   4  -3 45129.5 1803.54   3
  -6   4   3 47879.7 2099.66  11
  -6   4   3 49138.4 3117.74   9
   6   4  -3 46108.3 1708.86   4
  -6   4   3 47156.8 1867.97   6
  -6   4   2 3363.23 555.422   6
   6   4  -2 3741.33 543.519   3
  -6   4   2 3054.93 649.253  11
  -6   4   2 3866.35 1315.11   9
   6   4  -2 2741.44 423.183   4
   6   4  -1 76201.0 2455.43   3
  -6   4   1 71533.3 2767.49  11
   6   4  -1 72035.4 2289.21   4
  -6   4   1 70518.0 2437.60   6
  -6   4   0 7111.56 680.334   6
   6   4   0 8353.21 730.489   3
  -6   4   0 8297.18 954.392  11
   6   4   0 6939.83 620.477   4
   6   4   1 56598.5 2066.28   3
  -6   4  -1 54874.3 2413.32  11
  -6   4  -1 57399.2 1803.07  10
  -6   4  -1 60534.0 3857.95   9
   6   4   1 56124.0 1940.68   4
  -6   4  -1 57591.9 1945.89   7
  -6   4  -2 994.183 544.860  11
   6   4   2 1494.50 442.722   3
  -6   4  -2 1020.48 282.424  10
  -6   4  -2 469.296 1052.58   9
   6   4   2 1293.12 361.200   4
  -6   4  -2 1509.18 377.567   7
   6   4   3 64646.4 2265.89   3
  -6   4  -3 60321.5 2650.98  11
  -6   4  -3 63090.0 1966.94  10
  -6   4  -3 67655.9 3580.68   9
  -6   4  -3 60168.4 2108.93   7
  -6   4  -4 1503.36 649.223  11
   6   4   4 1970.17 509.139   3
  -6   4  -4 1890.69 343.667  10
  -6   4  -4 1015.70 819.487   9
  -6   4  -4 1231.18 401.675   7
   6   4   4 2074.79 534.840   1
   6   4   5 37876.5 1705.44   3
   6   4   5 35015.8 1570.15   5
  -6   4  -5 36972.3 2111.76  11
  -6   4  -5 38540.6 1464.88  10
  -6   4  -5 38556.1 2471.27   9
   6   4   5 41565.7 2000.12   1
  -6   4  -5 37438.8 1613.35   7
   6   4   6 1888.53 444.462   5
  -6   4  -6 1800.50 681.868  11
   6   4   6 1278.56 505.689   3
  -6   4  -6 1937.30 398.433  10
  -6   4  -6 1360.73 677.950   9
  -6   4  -6 1147.42 418.243   7
   6   4   6 2113.67 669.028   1
   6   4   7 24662.1 1428.79   3
  -6   4  -7 27284.7 1950.68  11
  -6   4  -7 23327.3 1206.37  10
  -6   4  -7 21960.7 1739.41   9
   6   4   7 26862.7 1795.84   1
  -6   4  -7 23426.0 1337.63   7
  -6   4  -8 1557.16 718.397  11
   6   4   8 857.670 495.305   3
  -6   4  -8 1629.52 442.272  10
  -6   4  -8 355.711 598.245   9
   6   4   8 2151.90 596.786   8
  -6   4  -8 647.621 484.016   7
   6   4   8 1999.01 724.272   1
   6   4   9 12642.6 1125.52   3
  -6   4  -9 12912.6 1180.39  11
  -6   4  -9 12467.0 965.586  10
  -6   4  -9 13708.8 1303.13   9
   6   4   9 14161.5 1207.37   8
  -6   4  -9 13651.4 1126.60   7
   6   4   9 12130.0 1178.69   1
   6   4  10 2405.44 672.421   3
  -6   4 -10 2192.01 547.374  10
   6   4  10 2781.69 726.327   8
  -6   4 -10 2780.65 677.095   7
   6   4  10 1980.94 620.268   1
   6   4  11 6509.35 950.348   3
  -6   4 -11 5482.18 813.489  10
   6   4  11 5401.18 957.275   8
  -6   4 -11 5308.27 881.214   7
   6   4  11 7777.93 985.771   1
   6   4  12 876.556 628.713   3
  -6   5  12 1293.06 708.129   6
  -6   5  11 3613.33 758.842   6
   6   5 -11 4697.48 931.360   3
   6   5 -11 3731.79 798.288   4
   6   5 -10 2231.82 760.580   3
   6   5 -10 1338.89 641.818   4
  -6   5   9 1995.94 593.139   6
   6   5  -9 1935.01 536.114   3
  -6   5   9 3157.87 883.751   5
  -6   5   9 1744.59 648.882   9
   6   5  -9 3500.95 672.152   4
  -6   5   8 844.096 479.627   6
   6   5  -8 1093.56 477.090   3
  -6   5   8 1775.02 854.717   5
  -6   5   8 2752.20 804.068   9
   6   5  -8 1459.00 500.112   4
  -6   5   7 2561.71 576.385   6
   6   5  -7 2837.17 601.810   3
  -6   5   7 3152.82 909.461   5
  -6   5   7 1943.82 784.288   9
   6   5  -7 3380.57 566.394   4
  -6   5   6 1810.59 520.969   6
   6   5  -6 1654.29 506.786   3
  -6   5   6 120.311 871.202   5
  -6   5   6 1227.80 770.944   9
   6   5  -6 959.662 344.994   4
  -6   5   5 1189.96 435.316   6
   6   5  -5 3200.47 591.113   3
  -6   5   5 1468.40 895.025   5
  -6   5   5 773.481 778.379   9
   6   5  -5 1549.93 430.254   4
   6   5  -4 9396.59 821.898   3
  -6   5   4 7690.17 769.309   6
  -6   5   4 8286.49 1236.11   5
  -6   5   4 6199.67 1220.95   9
   6   5  -4 8319.88 705.461   4
  -6   5   3 3140.29 556.419   6
   6   5  -3 1187.11 439.232   3
  -6   5   3 1239.33 684.474   5
  -6   5   3 910.365 988.041   9
   6   5  -3 1215.47 395.969   4
  -6   5   2 4918.69 630.881   6
   6   5  -2 3908.22 572.200   3
  -6   5   2 3452.83 697.468  11
  -6   5   2 4492.67 1348.02   9
   6   5  -2 4132.67 515.377   4
  -6   5   1 2690.81 501.525   6
   6   5  -1 2401.12 471.945   3
  -6   5   1 3308.63 692.928  11
  -6   5   1 2753.17 1458.28   9
   6   5  -1 2151.85 414.922   4
   6   5   0 12281.3 889.314   3
  -6   5   0 9626.13 1010.45  11
  -6   5   0 11708.7 728.611  10
  -6   5   0 13289.5 2208.34   9
   6   5   0 11539.9 781.719   4
  -6   5   0 12717.3 928.881   6
  -6   5  -1 1039.46 574.692  11
   6   5   1 881.867 379.246   3
  -6   5  -1 642.181 304.963  10
  -6   5  -1 882.744 1159.30   9
   6   5   1 993.069 355.277   4
  -6   5  -1 723.108 378.594   7
  -6   5  -2 5468.27 845.213  11
   6   5   2 6156.90 690.839   3
  -6   5  -2 5763.52 521.753  10
  -6   5  -2 6560.51 1433.44   9
   6   5   2 6086.77 600.935   4
  -6   5  -2 5765.44 597.963   7
  -6   5  -3 7870.64 1006.50  11
   6   5   3 7941.27 757.311   3
  -6   5  -3 7665.72 615.436  10
  -6   5  -3 7340.21 1343.08   9
  -6   5  -3 8824.12 711.977   7
   6   5   4 15129.0 1023.13   3
   6   5   4 14085.3 987.031   5
  -6   5  -4 12674.8 1212.31  11
  -6   5  -4 12126.2 779.252  10
  -6   5  -4 11119.0 1520.30   9
  -6   5  -4 12629.4 901.741   7
   6   5   5 3978.64 572.519   5
  -6   5  -5 3957.06 859.876  11
   6   5   5 3857.00 596.360   3
  -6   5  -5 3779.75 494.863  10
  -6   5  -5 3236.38 976.136   9
   6   5   5 4349.14 672.630   1
  -6   5  -5 4154.21 581.344   7
   6   5   6 6910.72 723.279   5
  -6   5  -6 4925.78 938.137  11
   6   5   6 6002.33 720.372   3
  -6   5  -6 5968.86 619.117  10
  -6   5  -6 5218.52 1020.45   9
   6   5   6 6545.91 873.574   1
  -6   5  -6 5991.20 699.712   7
   6   5   7 9975.17 937.276   3
   6   5   7 9769.55 820.251   5
  -6   5  -7 10076.6 1291.40  11
  -6   5  -7 9649.22 793.474  10
  -6   5  -7 8067.23 1171.40   9
  -6   5  -7 9664.24 891.439   7
   6   5   7 10422.4 1152.83   1
  -6   5  -8 11663.3 1252.19  11
   6   5   8 10107.4 965.714   3
  -6   5  -8 10104.3 861.117  10
  -6   5  -8 9982.43 1230.54   9
  -6   5  -8 10288.0 961.999   7
   6   5   8 10769.9 1282.04   1
  -6   5  -9 3346.05 714.100  11
   6   5   9 3525.70 682.420   3
  -6   5  -9 2632.54 562.853  10
  -6   5  -9 2120.18 696.305   9
   6   5   9 3789.45 839.114   1
  -6   5  -9 2932.87 606.797   7
   6   5  10 3969.74 772.853   3
  -6   5 -10 2895.01 587.480  10
   6   5  10 4093.76 847.656   1
  -6   5 -10 5220.88 858.836   7
   6   5  11 6147.39 900.471   3
  -6   5 -11 5351.99 794.211  10
   6   5  11 6541.56 963.621   8
   6   5  11 5572.63 898.834   1
  -6   5 -12 3340.46 682.484  10
  -6   6  12 2871.58 753.034   6
  -6   6  11 11956.8 1211.14   6
   6   6 -11 11335.1 1209.04   4
  -6   6  10 3792.63 737.713   6
   6   6 -10 6459.30 1003.17   3
  -6   6  10 5743.98 1022.99   5
   6   6 -10 4848.53 826.212   4
  -6   6   9 25454.8 1925.84   5
   6   6  -9 25645.3 1547.53   4
   6   6  -9 26018.8 1678.24   3
  -6   6   9 23026.6 1507.16   6
  -6   6   8 8096.27 891.281   6
   6   6  -8 7355.43 903.261   3
  -6   6   8 8629.54 1215.71   5
   6   6  -8 9125.10 898.643   4
  -6   6   8 8146.75 1178.27   9
  -6   6   7 25731.2 2054.08   5
   6   6  -7 23241.7 1337.58   4
  -6   6   7 21660.7 1837.14   9
  -6   6   7 23936.0 1428.16   6
   6   6  -7 25665.3 1513.93   3
  -6   6   6 5461.92 699.326   6
   6   6  -6 7348.83 812.846   3
  -6   6   6 7467.19 1334.17   5
  -6   6   6 5578.42 1060.61   9
   6   6  -6 5576.16 641.911   4
  -6   6   5 34234.7 2620.58   5
  -6   6   5 36975.5 2510.50   9
   6   6  -5 38095.8 1609.15   4
  -6   6   5 37551.8 1741.94   6
   6   6  -5 36539.8 1734.97   3
   6   6  -4 11021.7 922.805   3
  -6   6   4 10959.0 1471.12   5
  -6   6   4 11766.7 1564.30   9
   6   6  -4 11605.9 822.694   4
  -6   6   4 10556.1 898.753   6
   6   6  -3 27949.2 1411.64   3
  -6   6   3 28022.1 2004.63   5
  -6   6   3 26277.8 2372.93   9
   6   6  -3 27339.1 1266.16   4
  -6   6   3 26916.3 1408.96   6
  -6   6   2 6725.15 730.758   6
   6   6  -2 6238.75 675.356   3
  -6   6   2 7012.38 1032.74   5
  -6   6   2 5687.89 1439.43   9
   6   6  -2 6717.27 622.955   4
   6   6  -1 25756.5 1326.81   3
  -6   6   1 25483.1 1687.21   5
  -6   6   1 26944.8 2811.72   9
   6   6  -1 27712.5 1239.39   4
  -6   6   1 26804.2 1382.62   6
   6   6   0 7895.93 746.728   3
  -6   6   0 8559.09 999.553  11
  -6   6   0 7747.66 627.016  10
  -6   6   0 7786.01 1861.54   9
   6   6   0 7301.60 633.469   4
   6   6   1 18296.7 1113.71   3
  -6   6  -1 19664.9 1453.15  11
  -6   6  -1 18950.5 974.297  10
  -6   6  -1 16545.5 2162.03   9
   6   6   1 19603.5 1032.50   4
  -6   6  -1 19295.6 1062.32   7
  -6   6  -2 4163.25 808.386  11
   6   6   2 3696.53 580.305   3
  -6   6  -2 3550.00 466.743  10
  -6   6  -2 5876.82 1480.73   9
   6   6   2 4259.51 526.162   4
  -6   6  -2 4753.32 587.100   7
   6   6   3 14311.3 1004.02   3
   6   6   3 12420.8 1017.13   5
  -6   6  -3 11673.2 1213.88  11
  -6   6  -3 13093.2 826.433  10
  -6   6  -3 12834.4 1738.89   9
   6   6   3 13936.0 904.190   4
  -6   6  -3 12599.0 884.380   7
   6   6   4 4418.83 682.720   5
  -6   6  -4 3433.47 765.815  11
   6   6   4 3432.85 579.711   3
  -6   6  -4 3467.32 459.020  10
  -6   6  -4 4196.11 1068.28   9
  -6   6  -4 4788.41 612.347   7
   6   6   5 10161.3 895.740   3
   6   6   5 8751.81 836.667   5
  -6   6  -5 8197.88 1104.75  11
  -6   6  -5 10649.5 787.623  10
  -6   6  -5 10332.4 1421.67   9
  -6   6  -5 10628.8 893.017   7
   6   6   6 2986.96 577.712   5
  -6   6  -6 4118.33 954.126  11
   6   6   6 4136.20 678.583   3
  -6   6  -6 3352.75 525.981  10
  -6   6  -6 2633.04 857.696   9
  -6   6  -6 2769.16 542.256   7
   6   6   7 5784.89 717.014   5
  -6   6  -7 5821.66 1067.17  11
   6   6   7 6219.03 776.689   3
  -6   6  -7 4515.82 617.548  10
  -6   6  -7 5237.61 1026.88   9
   6   6   7 5018.83 785.902   1
  -6   6  -7 4954.76 686.457   7
  -6   6  -8 1868.99 679.074  11
   6   6   8 2446.55 573.314   3
  -6   6  -8 2814.27 585.870  10
   6   6   8 1814.32 695.818   1
  -6   6  -8 1596.42 529.105   7
   6   6   9 5557.55 808.634   3
  -6   6  -9 4862.34 710.190  10
   6   6   9 6214.33 1075.23   1
  -6   6  -9 3741.82 726.521   7
   6   6  10 2198.22 576.111   3
  -6   6 -10 3286.98 693.354  10
   6   6  10 3259.42 782.555   1
  -6   6 -10 1303.45 581.437   7
   6   6  11 3290.71 748.767   3
  -6   6 -11 2168.75 649.360  10
   6   6  11 3602.71 808.265   1
  -6   7  11 1687.03 651.209   6
   6   7 -11 1792.45 719.358   4
  -6   7  10 2509.65 659.841   6
   6   7 -10 3469.06 872.516   3
  -6   7  10 3380.66 901.111   5
   6   7 -10 2555.52 666.304   4
  -6   7   9 310.735 492.578   6
  -6   7   9 1246.80 753.887   5
   6   7  -9 1274.98 542.662   4
  -6   7   8 2039.03 590.434   6
   6   7  -8 1563.37 580.378   3
  -6   7   8 2049.35 810.184   5
   6   7  -8 2438.76 619.461   4
  -6   7   7 1243.51 526.288   6
   6   7  -7 581.454 506.972   3
  -6   7   7 1405.82 863.642   5
   6   7  -7 435.747 419.176   4
  -6   7   6 2504.84 578.614   6
   6   7  -6 3277.35 639.139   3
  -6   7   6 3362.81 1064.56   5
   6   7  -6 3191.99 538.927   4
  -6   7   5 836.944 462.863   6
   6   7  -5 740.483 492.758   3
  -6   7   5 1352.71 1097.53   5
  -6   7   5 323.389 823.650   9
   6   7  -5 1282.52 459.002   4
  -6   7   4 2658.18 568.585   6
   6   7  -4 3965.78 650.091   3
  -6   7   4 2757.87 1013.11   5
  -6   7   4 3706.89 1123.74   9
   6   7  -4 3264.03 513.417   4
  -6   7   3 859.863 413.780   6
   6   7  -3 1000.58 452.774   3
  -6   7   3 262.507 679.517   5
  -6   7   3 390.782 928.399   9
   6   7  -3 1414.73 388.056   4
  -6   7   2 4463.55 646.959   6
   6   7  -2 5031.84 659.105   3
  -6   7   2 3052.29 856.375   5
  -6   7   2 3970.11 1341.56   9
   6   7  -2 4407.38 553.278   4
   6   7  -1 3282.94 543.838   3
  -6   7   1 4581.49 845.579   5
   6   7  -1 3610.70 512.117   4
   6   7   0 8440.37 785.740   3
  -6   7   0 8877.74 1010.07   5
  -6   7   0 7734.32 669.367  10
  -6   7   0 6948.23 1783.76   9
   6   7   0 6908.22 638.563   4
   6   7   1 3796.40 586.563   3
  -6   7  -1 2890.54 622.460   5
  -6   7  -1 3614.64 499.186  10
   6   7   1 4101.11 529.658   4
  -6   7  -1 3835.95 567.825   7
   6   7   2 6843.86 841.948   5
   6   7   2 8158.46 778.338   3
  -6   7  -2 7253.24 1006.20  11
  -6   7  -2 7317.59 650.602  10
  -6   7  -2 7846.76 1525.59   9
   6   7   2 7996.78 693.730   4
  -6   7  -2 9762.32 795.203   7
   6   7   3 6948.18 837.969   5
   6   7   3 8005.33 826.483   3
  -6   7  -3 7362.69 1035.96  11
  -6   7  -3 6976.53 650.495  10
  -6   7  -3 5892.63 1272.95   9
   6   7   3 7752.63 704.422   4
  -6   7  -3 8744.36 786.180   7
   6   7   4 11457.4 942.845   3
   6   7   4 11625.2 1009.31   5
  -6   7  -4 8646.34 1124.95  11
  -6   7  -4 10559.2 799.483  10
  -6   7  -4 12350.0 1669.99   9
  -6   7  -4 11429.9 906.056   7
   6   7   5 4885.27 718.067   5
  -6   7  -5 4353.13 931.016  11
   6   7   5 5034.40 711.031   3
  -6   7  -5 5050.99 606.920  10
  -6   7  -5 4187.68 1060.50   9
  -6   7  -5 4995.79 682.682   7
   6   7   6 9893.94 888.333   3
   6   7   6 6915.47 809.007   5
  -6   7  -6 11285.2 1373.84  11
  -6   7  -6 8349.82 767.606  10
  -6   7  -6 7951.99 829.915   7
   6   7   7 7886.80 838.230   5
  -6   7  -7 8069.44 1112.57  11
   6   7   7 7825.84 865.829   3
  -6   7  -7 7266.81 774.601  10
  -6   7  -7 7217.61 833.722   7
   6   7   8 9808.92 965.585   3
  -6   7  -8 10722.3 1140.99  11
  -6   7  -8 9436.40 904.296  10
  -6   7  -8 8590.15 919.806   7
   6   7   9 3669.18 700.309   3
  -6   7  -9 3640.45 663.896  10
   6   7   9 3147.56 794.546   1
  -6   7  -9 2314.77 619.260   7
   6   7  10 4546.17 782.315   3
  -6   7 -10 3805.15 712.757  10
   6   7  10 3817.03 907.700   1
  -6   8  10 4919.24 849.902   6
   6   8 -10 3371.47 766.873   4
  -6   8   9 8394.25 1232.33   5
   6   8  -9 10880.4 1094.72   4
  -6   8   9 11152.7 1083.04   6
  -6   8   8 8736.53 942.986   6
   6   8  -8 7844.42 1014.70   3
  -6   8   8 7824.90 1232.09   5
   6   8  -8 8124.75 902.712   4
  -6   8   7 13796.9 1580.89   5
   6   8  -7 12427.2 1030.20   4
  -6   8   7 11566.1 1056.31   6
   6   8  -7 12671.6 1147.67   3
  -6   8   6 8437.67 909.014   6
   6   8  -6 9643.48 988.366   3
  -6   8   6 9039.81 1410.71   5
   6   8  -6 9583.09 859.732   4
  -6   8   5 18004.5 2069.20   5
   6   8  -5 16278.1 1062.23   4
  -6   8   5 16088.0 1176.73   6
   6   8  -5 18312.3 1293.46   3
  -6   8   4 14202.1 1763.82   5
   6   8  -4 14755.8 996.474   4
  -6   8   4 13938.3 1095.11   6
   6   8  -4 16187.2 1169.33   3
   6   8  -3 18130.0 1209.00   3
  -6   8   3 17028.9 1772.62   5
   6   8  -3 15760.9 977.745   4
  -6   8   3 16467.5 1169.43   6
   6   8  -2 15676.5 1106.47   3
  -6   8   2 13292.0 1449.88   5
   6   8  -2 14103.4 918.908   4
   6   8  -1 20839.5 1261.45   3
  -6   8   1 19138.8 1571.99   5
   6   8  -1 21861.3 1121.10   4
   6   8   0 15151.2 1071.32   3
   6   8   0 16287.0 1294.83   5
  -6   8   0 14747.0 1292.86   5
  -6   8   0 16649.9 1004.37  10
  -6   8   0 18181.6 2497.21   9
   6   8   0 15583.4 945.413   4
   6   8   1 17074.8 1123.44   3
   6   8   1 17007.4 1300.95   5
  -6   8  -1 15874.3 1249.69   5
  -6   8  -1 16327.3 996.513  10
   6   8   1 16846.9 987.653   4
  -6   8  -1 18579.1 1085.54   7
   6   8   2 11618.4 954.474   3
   6   8   2 12213.7 1105.75   5
  -6   8  -2 11956.6 999.342   5
  -6   8  -2 10401.4 804.410  10
   6   8   2 13036.7 867.419   4
  -6   8  -2 11775.2 889.777   7
   6   8   3 15544.9 1090.26   3
   6   8   3 14350.7 1185.84   5
  -6   8  -3 13710.8 925.719  10
   6   8   3 14232.5 926.672   4
  -6   8  -3 14356.7 1002.59   7
   6   8   4 9430.15 884.843   3
   6   8   4 9444.54 944.517   5
  -6   8  -4 8021.45 751.577  10
   6   8   4 8028.69 732.125   4
  -6   8  -4 9112.24 828.237   7
   6   8   5 10673.8 948.334   3
   6   8   5 10454.4 1024.24   5
  -6   8  -5 10343.7 852.177  10
  -6   8  -5 11421.5 963.938   7
   6   8   6 4790.45 763.935   5
   6   8   6 5728.21 741.066   3
  -6   8  -6 6862.90 734.608  10
  -6   8  -6 6549.97 779.109   7
   6   8   7 7970.61 896.973   5
   6   8   7 8641.64 898.651   3
  -6   8  -7 8257.88 853.099  10
  -6   8  -7 9028.90 926.577   7
   6   8   8 3494.96 663.151   3
  -6   8  -8 4063.10 682.970  10
  -6   8  -8 2319.85 621.890   7
  -6   8  -9 5931.86 777.701  10
  -6   8 -10 4194.19 791.514  10
   6   9 -10 396.163 589.485   4
  -6   9   9 655.282 544.189   6
   6   9  -9 549.187 551.047   4
  -6   9   8 2184.06 627.960   6
   6   9  -8 2489.24 793.846   3
  -6   9   8 1941.27 902.086   5
   6   9  -8 2302.18 638.316   4
  -6   9   7 216.192 478.950   6
   6   9  -7-424.120 544.388   3
  -6   9   7 260.822 792.757   5
   6   9  -7 1614.15 555.038   4
  -6   9   6 1189.91 552.646   6
   6   9  -6 72.0774 496.816   3
  -6   9   6 585.064 769.606   5
   6   9  -6 908.737 472.852   4
  -6   9   5 806.600 490.383   6
   6   9  -5 320.054 454.623   3
  -6   9   5 596.324 961.335   5
   6   9  -5 749.370 379.159   4
   6   9  -4 1536.03 537.350   3
   6   9  -4 1165.17 430.581   4
   6   9  -3 1059.42 494.568   3
  -6   9   3 826.518 887.484   5
   6   9  -3 1232.09 431.432   4
   6   9  -2 519.881 614.119   5
   6   9  -2 1282.28 563.869   3
  -6   9   2 152.374 770.627   5
   6   9  -2 937.389 379.268   4
   6   9  -1 3541.07 800.403   5
   6   9  -1 3035.21 648.108   3
  -6   9   1 3406.35 878.807   5
   6   9  -1 4811.10 577.041   4
   6   9   0 1919.76 716.432   5
   6   9   0 1539.12 530.548   3
  -6   9   0 1841.60 710.171   5
  -6   9   0 1940.63 479.742  10
   6   9   0 1636.59 404.124   4
   6   9   1 2466.30 685.477   5
   6   9   1 1376.12 496.171   3
  -6   9  -1 1971.17 637.581   5
  -6   9  -1 2054.60 463.689  10
   6   9   1 2112.24 440.394   4
   6   9   2 2171.74 654.911   5
   6   9   2 2328.27 570.475   3
  -6   9  -2 1961.46 566.533   5
  -6   9  -2 2230.73 507.605  10
   6   9   2 2162.37 465.615   4
  -6   9  -2 2593.42 527.088   7
   6   9   3 3807.48 738.532   5
   6   9   3 3642.12 651.479   3
  -6   9  -3 4233.15 585.592  10
   6   9   3 4143.69 567.895   4
  -6   9  -3 4542.66 666.509   7
   6   9   4 5796.16 839.566   5
   6   9   4 6092.64 765.080   3
  -6   9  -4 5478.63 670.483  10
   6   9   4 5271.01 629.835   4
  -6   9  -4 7595.80 800.561   7
   6   9   5 1156.01 571.990   5
   6   9   5 2050.44 559.705   3
  -6   9  -5 2018.58 521.451  10
   6   9   5 2497.44 510.684   4
  -6   9  -5 1958.66 564.364   7
   6   9   6 5863.27 833.825   5
   6   9   6 4882.63 715.616   3
  -6   9  -6 4290.77 655.561  10
  -6   9  -6 5234.80 742.466   7
   6   9   7 4143.05 737.994   5
   6   9   7 3509.37 648.916   3
  -6   9  -7 3980.58 668.014  10
  -6   9  -7 4119.86 710.085   7
  -6   9  -8 7360.21 861.049  10
   6  10  -9 9305.63 1107.56   4
  -6  10   8 5437.61 848.832   6
   6  10  -8 6703.68 909.048   4
  -6  10   7 8903.83 984.339   6
  -6  10   7 9423.36 1403.75   5
   6  10  -7 8278.90 926.186   4
   6  10  -7 11021.9 1249.11   3
  -6  10   6 9085.89 998.569   6
   6  10  -6 8158.15 1049.01   3
  -6  10   6 8361.18 1411.03   5
   6  10  -6 10264.4 983.033   4
   6  10  -5 8052.04 983.303   3
  -6  10   5 10762.6 1730.50   5
   6  10  -5 10067.7 889.003   4
   6  10  -4 10138.2 1277.48   5
  -6  10   4 11415.4 1922.82   5
   6  10  -4 9158.71 836.142   4
   6  10  -4 12019.5 1128.09   3
   6  10  -3 7601.31 1096.20   5
   6  10  -3 7491.96 890.503   3
  -6  10   3 9583.29 1542.49   5
   6  10  -3 8650.77 764.772   4
   6  10  -2 13212.7 1348.37   5
  -6  10   2 12775.1 1622.61   5
   6  10  -2 13926.1 950.565   4
   6  10  -2 12605.6 1113.42   3
   6  10  -1 6896.41 1052.83   5
   6  10  -1 7304.19 850.941   3
  -6  10   1 7983.89 1245.05   5
   6  10  -1 6723.04 673.655   4
   6  10   0 17759.2 1232.45   3
   6  10   0 15504.7 1395.27   5
  -6  10   0 15049.8 1445.50   5
  -6  10   0 15815.5 1042.39  10
   6  10   0 14978.3 961.800   4
   6  10   1 4439.49 821.535   5
   6  10   1 6115.16 785.603   3
  -6  10  -1 4752.66 832.733   5
  -6  10  -1 4987.35 645.662  10
   6  10   1 5083.87 596.759   4
   6  10   2 13862.2 1085.88   3
   6  10   2 13841.7 1307.08   5
  -6  10  -2 12934.9 967.007  10
   6  10   2 13402.2 911.088   4
  -6  10  -2 13421.3 1015.41   7
   6  10   3 3092.46 754.071   5
   6  10   3 2767.88 596.258   3
  -6  10  -3 2701.93 555.421  10
   6  10   3 2604.09 492.763   4
  -6  10  -3 2836.74 607.144   7
   6  10   4 10341.0 950.294   3
   6  10   4 7975.98 1005.94   5
  -6  10  -4 9276.71 864.389  10
   6  10   4 9685.80 799.614   4
  -6  10  -4 10213.5 923.183   7
   6  10   5 5291.88 837.116   5
   6  10   5 4288.54 707.716   3
  -6  10  -5 4295.63 665.215  10
   6  10   5 3864.42 555.456   4
  -6  10  -5 4565.74 750.122   7
   6  10   6 7038.73 969.521   5
  -6  10  -6 7093.18 819.499  10
   6  10   6 7557.19 751.257   4
  -6  10  -6 7809.98 905.401   7
   6  10   7 943.771 576.525   5
  -6  10  -7 3694.33 663.077  10
   6  11  -6 6968.18 1051.12   3
  -6  11   6 3852.66 1111.29   5
   6  11  -5 945.797 586.384   3
   6  11  -5 2458.43 1025.10   5
  -6  11   5 1328.49 1075.83   5
   6  11  -4 2898.08 899.085   5
   6  11  -4 2566.01 671.026   3
  -6  11   4 4419.93 1532.33   5
   6  11  -3 3868.22 996.723   5
   6  11  -3 3310.61 661.334   3
  -6  11   3 2588.30 1149.55   5
   6  11  -2 5574.85 1084.83   5
   6  11  -2 4729.27 792.762   3
  -6  11   2 5367.54 1251.72   5
   6  11  -1 4870.43 979.336   5
   6  11  -1 4283.72 761.585   3
  -6  11   1 2343.54 891.703   5
   6  11   0 4415.79 982.580   5
   6  11   0 4201.93 748.000   3
  -6  11   0 3532.30 911.524   5
  -6  11   0 2855.04 540.792  10
   6  11   1 4203.66 863.615   5
   6  11   1 3828.15 699.149   3
  -6  11  -1 2431.42 654.819   5
  -6  11  -1 2471.76 543.739  10
   6  11   2 4737.00 948.351   5
   6  11   2 4719.11 738.121   3
  -6  11  -2 3317.77 579.214  10
   6  11   3 5659.59 984.177   5
   6  11   3 4487.93 686.097   3
  -6  11  -3 4624.06 651.045  10
  -6  11  -3 5499.48 748.898   7
   6  11   4 3929.62 871.850   5
  -6  11  -4 3126.84 590.518  10
  -6  11  -4 4140.58 704.437   7
   6  11   5 2767.89 783.768   5
  -6  11  -5 1737.96 525.358  10
   6  11   6 4355.50 870.157   5
   6  11   7 2493.36 699.494   5
   6  12  -5 5188.50 977.395   3
   6  12  -4 12151.5 1267.32   3
  -6  12   4 11374.8 2190.06   5
   6  12  -3 3510.85 773.583   3
  -6  12   3 3048.29 1336.74   5
  -6  12   2 15254.0 1869.18   5
   6  12  -2 13452.0 1257.43   3
   6  12  -1 4859.57 822.618   3
  -6  12   1 5350.64 1206.80   5
   6  12   0 15339.5 1561.15   5
  -6  12   0 12783.6 1500.79   5
  -6  12   0 15636.2 1128.53  10
   6  12   0 14799.6 1231.22   3
   6  12   1 6856.19 1123.59   5
  -6  12  -1 4625.43 706.732  10
   6  12   2 14000.0 1427.45   5
  -6  12  -2 14370.0 1108.12  10
  -6  12  -3 3161.52 592.038  10
   6  13  -3 963.103 690.615   3
   6  13  -2 340.019 591.440   3
  -6  13   2-237.923 1008.66   5
  -6  13   1 1089.90 824.533   5
  -7 -11   3 1545.98 582.105  11
   7 -11  -3 1768.75 598.855   1
   7 -11  -2 2575.66 1029.64   2
  -7 -11   2 2078.94 642.307  11
   7 -11  -2 2377.03 583.989   1
   7 -11  -1 2520.51 661.281   1
   7 -11  -1 1443.66 773.955   2
   7 -11   0 2506.86 632.736   1
   7 -10  -4 3085.24 1210.09   2
  -7 -10   4 4897.71 737.649  11
   7 -10  -3 2339.19 1033.81   2
  -7 -10   3 3742.99 720.271  11
   7 -10  -3 3819.26 636.413   1
   7 -10  -2 3085.12 600.084   1
   7 -10  -2 3761.80 1108.52   2
  -7 -10   2 4532.26 780.571  11
   7 -10  -1 4340.03 705.426   1
   7 -10  -1 3478.96 926.906   2
  -7 -10   1 3672.41 778.406  11
  -7 -10   0 1241.37 633.454  11
   7 -10   0 2302.74 599.612   1
  -7 -10  -1 5471.13 980.295  11
   7 -10   1 3240.06 643.081   1
   7 -10   2 3692.43 704.358   1
   7 -10   3 2305.11 680.173   1
   7 -10   4 1140.64 451.707   3
  -7  -9   6 1961.39 569.969   6
  -7  -9   5 1330.75 497.652   6
   7  -9  -5 2440.36 1161.02   2
  -7  -9   4 1038.68 428.824   6
   7  -9  -4 575.147 995.664   2
  -7  -9   4 917.834 487.925  11
  -7  -9   3 3590.52 556.256   6
  -7  -9   3 3367.72 701.655  11
   7  -9  -3 4900.49 688.047   1
   7  -9  -2 1020.39 416.718   1
   7  -9  -2-58.2820 946.848   2
  -7  -9   2 733.542 541.862  11
   7  -9  -1 1105.70 718.491   2
  -7  -9   1 2056.15 671.303  11
   7  -9  -1 2448.05 573.192   1
   7  -9   0-242.781 837.473   2
  -7  -9   0 818.082 527.167  11
   7  -9   0 393.966 416.517   1
   7  -9   1 2889.94 606.002   1
  -7  -9  -1 2849.04 866.971  11
   7  -9   1 2715.77 480.191   3
   7  -9   2 1495.65 557.128   1
  -7  -9  -2 2596.69 891.497  11
   7  -9   2 1722.79 492.107   3
  -7  -9  -3 2189.51 817.964  11
   7  -9   3 1244.48 447.643   3
   7  -9   3 2634.49 652.485   1
   7  -9   4 1221.78 526.621   3
   7  -9   4 1650.53 626.059   1
   7  -9   5 1057.93 473.153   3
   7  -9   5 2212.16 740.553   1
  -7  -8   7 550.103 541.245   6
   7  -8  -7 1230.54 542.407   4
  -7  -8   6 4703.30 757.987   6
   7  -8  -6 5758.78 1282.85   2
   7  -8  -6 5412.99 707.933   4
  -7  -8   5 2453.32 568.097   6
   7  -8  -5 1485.99 1066.06   2
  -7  -8   5 1626.29 483.625  11
   7  -8  -5 2162.87 526.205   4
  -7  -8   4 7493.02 770.457   6
   7  -8  -4 5295.09 1528.29   2
  -7  -8   4 8099.29 879.569  11
   7  -8  -4 6696.63 706.973   4
  -7  -8   3 2360.37 495.625   6
   7  -8  -3 3062.93 1155.91   2
  -7  -8   3 2944.57 644.224  11
   7  -8  -3 2029.90 508.014   1
   7  -8  -3 2224.40 473.499   4
   7  -8  -2 7294.22 791.919   1
   7  -8  -2 7205.06 647.814   3
  -7  -8   2 6578.17 681.861   6
   7  -8  -2 7415.20 1446.05   2
  -7  -8   2 5270.72 806.512  11
   7  -8  -2 7210.95 692.133   4
  -7  -8   1 5369.19 596.852   6
   7  -8  -1 4088.88 1015.48   2
  -7  -8   1 5211.48 822.772  11
   7  -8  -1 4613.45 556.753   3
   7  -8  -1 4137.13 628.622   1
   7  -8  -1 4588.53 568.219   4
   7  -8   0 7792.16 1179.30   2
  -7  -8   0 4317.55 803.734  11
   7  -8   0 5735.31 728.399   1
   7  -8   0 6193.76 646.146   3
   7  -8   0 6828.18 669.385   4
   7  -8   1 4915.96 716.911   1
  -7  -8  -1 5192.13 956.384  11
   7  -8   1 6703.73 686.883   3
   7  -8   1 5873.30 624.793   4
  -7  -8  -2 6964.86 1096.89  11
   7  -8   2 5856.70 685.393   3
   7  -8   2 5503.86 614.380   4
   7  -8   2 6624.81 809.771   1
   7  -8   3 6703.62 742.653   3
   7  -8   3 7180.75 692.880   4
   7  -8   3 6471.51 849.497   1
   7  -8   4 4131.56 642.033   3
   7  -8   4 3274.87 706.410   1
   7  -8   4 5324.44 638.371   4
   7  -8   5 6083.92 807.240   3
   7  -8   5 6768.24 954.428   1
   7  -8   5 7671.99 758.112   4
   7  -8   6 2768.55 745.428   1
   7  -8   6 2744.12 691.761   3
   7  -7  -9 1254.83 637.344   4
  -7  -7   8 3550.58 803.337   6
   7  -7  -8 3867.73 700.965   4
  -7  -7   7 4197.06 755.493   6
   7  -7  -7 4181.80 1116.78   2
   7  -7  -7 3810.25 663.913   4
  -7  -7   6 7719.06 885.099   6
   7  -7  -6 6352.04 1212.58   2
  -7  -7   6 7596.18 769.287  11
   7  -7  -6 7483.65 794.072   4
  -7  -7   5 3596.24 641.799   6
  -7  -7   5 3168.13 596.068  11
   7  -7  -5 3510.39 1180.42   2
   7  -7  -5 3258.47 574.817   4
   7  -7  -4 9088.21 706.953   3
  -7  -7   4 9557.49 918.040  11
   7  -7  -4 10422.9 1804.50   2
   7  -7  -4 10517.6 832.517   4
  -7  -7   4 8806.39 821.512   6
   7  -7  -3 6926.53 634.704   3
  -7  -7   3 6568.43 713.366   6
  -7  -7   3 7760.30 876.811  11
   7  -7  -3 6985.72 1482.65   2
   7  -7  -3 5932.07 663.858   4
   7  -7  -2 11843.6 835.476   3
  -7  -7   2 12535.1 1103.37  11
   7  -7  -2 12236.9 953.779   1
   7  -7  -2 11254.7 1620.49   2
   7  -7  -2 13918.1 923.932   4
  -7  -7   2 12101.6 884.459   6
  -7  -7   1 6161.66 631.722   6
  -7  -7   1 4860.98 794.979  11
   7  -7  -1 5316.30 1156.89   2
   7  -7  -1 6072.94 636.815   3
   7  -7  -1 5442.37 664.742   1
   7  -7  -1 6538.42 648.180   4
   7  -7   0 11712.8 866.375   3
   7  -7   0 10572.5 913.658   1
  -7  -7   0 11974.0 1176.71  11
   7  -7   0 12987.3 1467.60   2
   7  -7   0 11990.6 861.468   4
  -7  -7   0 12172.7 823.403   6
   7  -7   1 7462.04 818.184   1
   7  -7   1 7021.87 1083.83   2
  -7  -7  -1 6121.04 959.567  11
   7  -7   1 6914.62 713.219   3
   7  -7   1 6474.41 658.724   4
  -7  -7  -1 7256.89 627.357   6
   7  -7   2 7692.95 765.776   3
  -7  -7  -2 9585.99 1174.27  11
   7  -7   2 8297.85 734.536   4
   7  -7   2 7817.10 868.443   1
  -7  -7  -3 5511.43 1029.26  11
   7  -7   3 5850.56 720.562   3
   7  -7   3 7500.95 903.412   1
   7  -7   3 6245.11 655.072   4
  -7  -7  -4 7973.38 1241.76  11
   7  -7   4 5730.01 762.155   3
   7  -7   4 5796.17 842.043   1
   7  -7   4 5492.55 642.705   4
   7  -7   5 3647.76 683.892   3
   7  -7   5 3383.22 735.401   1
   7  -7   5 3054.91 544.484   4
   7  -7   6 2837.87 705.961   1
  -7  -7  -6 3583.93 1026.33  11
   7  -7   6 2448.84 643.081   3
   7  -7   7 2734.20 763.816   1
   7  -6  -9 8615.61 970.384   4
  -7  -6   8 1541.38 643.920   6
   7  -6  -8 1902.00 839.037   2
   7  -6  -8 2943.39 651.828   4
  -7  -6   7 7688.65 939.949   6
   7  -6  -7 7268.83 1324.07   2
   7  -6  -7 5392.11 716.773   4
  -7  -6   6 792.142 488.083   6
  -7  -6   6 830.643 408.688  11
   7  -6  -6 2117.95 961.053   2
   7  -6  -6 1171.45 465.183   4
   7  -6  -5 11115.7 808.586   3
  -7  -6   5 11127.6 942.663  11
   7  -6  -5 11217.8 1614.46   2
   7  -6  -5 11197.5 893.935   4
  -7  -6   5 11234.5 981.326   6
  -7  -6   4 2178.60 508.051   6
  -7  -6   4 2089.58 568.892  11
   7  -6  -4 2096.36 423.302   3
   7  -6  -4 2349.91 484.824   4
   7  -6  -3 7656.08 678.127   3
  -7  -6   3 7102.70 852.894  11
   7  -6  -3 8736.67 1767.35   2
   7  -6  -3 7949.97 736.855   4
  -7  -6   3 7914.87 755.220   6
  -7  -6   2 2605.63 506.858   6
  -7  -6   2 1364.74 531.756  11
   7  -6  -2 3195.61 487.572   3
   7  -6  -2 2999.41 497.655   4
   7  -6  -1 9946.45 785.850   3
   7  -6  -1 11163.0 893.694   1
  -7  -6   1 10639.5 1074.50  11
   7  -6  -1 12850.0 1634.42   2
   7  -6  -1 10875.3 815.166   4
  -7  -6   1 10080.3 784.539   6
  -7  -6   0 3818.32 513.512   6
   7  -6   0 4390.38 630.651   1
  -7  -6   0 3036.31 713.271  11
   7  -6   0 3128.03 913.429   2
   7  -6   0 3638.25 548.041   3
   7  -6   0 3471.35 517.851   4
   7  -6   1 8573.69 767.473   3
   7  -6   1 8771.63 866.290   1
  -7  -6  -1 7257.87 958.700  11
   7  -6   1 8051.50 1163.95   2
   7  -6   1 8031.83 721.805   4
  -7  -6  -1 8772.54 695.400   6
  -7  -6  -2 5482.68 556.521   6
  -7  -6  -2 4710.44 862.713  11
   7  -6   2 5632.79 673.528   3
   7  -6   2 6247.25 791.546   1
   7  -6   2 5943.11 637.581   4
  -7  -6  -3 5956.82 1021.06  11
   7  -6   3 7538.59 793.668   3
   7  -6   3 7780.73 911.611   1
   7  -6   3 8263.35 752.016   4
  -7  -6  -4 2234.77 756.901  11
   7  -6   4 3172.85 637.925   3
   7  -6   4 2933.90 695.271   1
   7  -6   4 2469.96 487.795   4
  -7  -6  -5 5621.31 1030.43  11
   7  -6   5 6431.38 927.489   1
   7  -6   5 7079.21 843.636   3
   7  -6   6 3275.13 756.245   1
  -7  -6  -6 3820.71 1044.32  11
   7  -6   6 3855.51 757.333   3
   7  -6   7 2765.05 816.735   1
  -7  -6  -7 3650.42 1024.19  11
   7  -6   8 2573.37 845.270   1
  -7  -5   9 1825.44 699.188   6
   7  -5  -9 2966.11 667.051   4
  -7  -5   8 1332.08 614.666   6
   7  -5  -8 2939.34 972.880   2
   7  -5  -8 2320.98 618.953   4
  -7  -5   7 5262.49 797.730   6
   7  -5  -7 6179.47 663.115   3
  -7  -5   7 4756.15 637.523  11
   7  -5  -7 5597.61 1188.52   2
   7  -5  -7 4712.52 699.225   4
  -7  -5   6 2576.75 625.130   6
   7  -5  -6 2830.38 490.125   3
  -7  -5   6 2140.02 500.210  11
   7  -5  -6 2390.55 911.282   2
   7  -5  -6 2668.60 532.915   4
  -7  -5   5 4166.55 665.286   6
   7  -5  -5 4404.36 541.979   3
  -7  -5   5 3606.24 581.762  11
   7  -5  -5 2287.75 941.213   2
   7  -5  -5 4510.09 632.414   4
  -7  -5   4 3360.99 573.336   6
  -7  -5   4 3364.82 630.158  11
   7  -5  -4 3404.73 509.957   3
   7  -5  -4 2836.19 985.039   2
   7  -5  -4 3774.10 553.845   4
   7  -5  -3 9187.56 740.059   3
  -7  -5   3 8214.11 883.374  11
   7  -5  -3 7438.51 1540.41   2
   7  -5  -3 9784.76 786.486   4
  -7  -5   3 8439.04 773.335   6
  -7  -5   2 3035.64 539.519   6
  -7  -5   2 2934.78 657.117  11
   7  -5  -2 2769.71 476.621   3
   7  -5  -2 2090.02 1056.67   2
   7  -5  -2 2449.34 457.725   4
  -7  -5   1 4138.60 583.571   6
   7  -5  -1 5483.85 665.965   1
  -7  -5   1 3394.36 706.940  11
   7  -5  -1 3265.94 509.312   3
   7  -5  -1 3953.63 1030.06   2
   7  -5  -1 4855.83 592.599   4
  -7  -5   0 3916.70 546.564   6
  -7  -5   0 3805.84 770.912  11
   7  -5   0 4967.07 603.044   3
   7  -5   0 2790.36 884.087   2
   7  -5   0 3626.13 507.665   4
   7  -5   0 5144.27 656.108   1
  -7  -5  -1 4065.66 506.357   6
  -7  -5  -1 5563.76 880.384  11
   7  -5   1 4305.50 902.093   2
   7  -5   1 4729.41 609.005   3
   7  -5   1 5222.31 700.694   1
   7  -5   1 4993.00 586.980   4
  -7  -5  -2 3835.37 507.200   6
  -7  -5  -2 3308.66 776.111  11
   7  -5   2 4178.95 875.504   2
   7  -5   2 4026.85 597.107   3
   7  -5   2 3402.46 625.622   1
   7  -5   2 4042.49 554.318   4
  -7  -5  -3 1350.16 359.434   6
  -7  -5  -3 3026.01 815.336  11
   7  -5   3 1774.24 483.951   3
   7  -5   3 1942.45 590.239   1
   7  -5   3 1566.91 453.287   4
  -7  -5  -4 5333.64 941.337  11
   7  -5   4 5053.41 786.468   1
   7  -5   4 4294.18 645.874   3
   7  -5   4 4671.68 623.712   4
   7  -5   5 405.635 538.124   1
  -7  -5  -5 1322.59 702.581  11
   7  -5   5 586.008 433.480   3
   7  -5   6 1339.59 653.577   1
  -7  -5  -6 3288.26 899.947  11
   7  -5   6 3318.59 707.579   3
  -7  -5  -7 1267.07 870.457  11
   7  -5   7-183.685 656.697   3
   7  -5   7 697.779 519.820   1
  -7  -5  -8 6486.89 1232.06  11
   7  -5   8 4654.29 993.287   1
   7  -4 -10 1289.93 634.695   4
  -7  -4   9 5103.09 861.522   6
   7  -4  -9 4607.56 658.254   3
   7  -4  -9 5156.28 1054.54   2
   7  -4  -9 7614.60 902.081   4
  -7  -4   8 2471.69 569.732   6
   7  -4  -8 2320.51 515.301   3
  -7  -4   8 2686.57 513.483  11
   7  -4  -8 3780.54 1034.27   2
   7  -4  -8 2295.98 553.564   4
  -7  -4   7 2628.79 637.071   6
   7  -4  -7 2960.76 527.624   3
  -7  -4   7 3088.48 582.120  11
   7  -4  -7 1171.86 749.584   2
   7  -4  -7 2313.94 543.926   4
  -7  -4   6 1486.89 557.990   6
   7  -4  -6 1585.29 429.919   3
  -7  -4   6 1341.28 468.962  11
   7  -4  -6 1457.57 889.162   2
   7  -4  -6 1762.90 500.172   4
  -7  -4   5 5873.38 717.832   6
   7  -4  -5 6813.30 669.039   3
  -7  -4   5 7138.41 778.701  11
   7  -4  -5 6715.00 1319.19   2
   7  -4  -5 6948.97 712.902   4
  -7  -4   4 4663.18 642.861   6
  -7  -4   4 4072.78 683.507  11
   7  -4  -4 4081.78 546.965   3
   7  -4  -4 4187.09 1194.17   2
   7  -4  -4 4115.85 575.868   4
  -7  -4   3 4413.37 605.076   6
  -7  -4   3 4707.71 731.494  11
   7  -4  -3 5439.55 589.805   3
   7  -4  -3 4356.96 1195.03   2
   7  -4  -3 6018.08 623.470   4
  -7  -4   2 4000.43 568.934   6
  -7  -4   2 4474.06 691.656  11
   7  -4  -2 3523.00 515.895   3
   7  -4  -2 3656.42 1343.66   2
   7  -4  -2 3422.75 527.731   4
   7  -4  -1 7617.83 703.580   3
  -7  -4   1 7234.88 914.253  11
   7  -4  -1 6470.68 1458.79   2
   7  -4  -1 7996.82 700.256   4
  -7  -4   1 7535.95 704.525   6
  -7  -4   0 5029.98 571.355   6
  -7  -4   0 5717.30 839.035  11
   7  -4   0 5601.72 630.022   3
   7  -4   0 4901.01 1199.22   2
   7  -4   0 6602.04 729.986   1
   7  -4   0 6045.09 634.447   4
   7  -4   1 8751.59 850.835   1
   7  -4   1 9382.81 798.437   3
  -7  -4  -1 8238.75 992.220  11
   7  -4   1 8722.40 1282.63   2
   7  -4   1 7964.30 715.865   4
  -7  -4  -1 9383.08 728.375   6
  -7  -4  -2 6211.24 606.170   6
  -7  -4  -2 6422.41 932.946  11
   7  -4   2 6762.39 731.059   3
   7  -4   2 7347.37 1069.73   2
   7  -4   2 6297.89 797.517   1
   7  -4   2 6338.09 664.807   4
   7  -4   3 10416.6 899.387   3
   7  -4   3 7682.99 901.580   1
  -7  -4  -3 8178.24 1113.62  11
   7  -4   3 8427.10 761.537   4
  -7  -4  -3 9415.44 731.327   6
   7  -4   4 4534.93 777.349   1
  -7  -4  -4 4313.16 841.208  11
   7  -4   4 5183.10 713.463   3
   7  -4   5 9428.47 1073.54   1
   7  -4   5 10120.5 968.459   3
  -7  -4  -5 10249.8 1257.61  11
  -7  -4  -6 1636.46 772.841  11
   7  -4   6 3166.57 659.903   3
   7  -4   6 3786.29 821.118   1
  -7  -4  -7 6511.70 1165.84  11
   7  -4   7 6178.45 907.738   3
   7  -4   7 6842.49 1046.08   1
  -7  -4  -8 822.719 818.446  11
   7  -4   8 1612.78 749.162   1
   7  -4   9 4331.17 1010.14   1
   7  -3 -10 770.452 468.676   3
   7  -3 -10 1934.82 612.397   4
  -7  -3   9 1851.65 695.190   6
   7  -3  -9 1909.52 534.393   3
   7  -3  -9 2371.41 896.380   2
   7  -3  -9 2394.86 627.929   4
  -7  -3   8 4382.69 829.894   6
   7  -3  -8 3433.39 582.040   3
  -7  -3   8 3913.20 610.726  11
   7  -3  -8 4599.03 1104.41   2
   7  -3  -8 3630.52 613.123   4
  -7  -3   7 3169.10 654.946   6
   7  -3  -7 4439.49 614.198   3
  -7  -3   7 4249.12 636.355  11
   7  -3  -7 2676.22 892.489   2
   7  -3  -7 4690.20 680.060   4
  -7  -3   6 7118.99 835.583   6
   7  -3  -6 6562.31 673.424   3
  -7  -3   6 6580.77 757.813  11
   7  -3  -6 6676.42 706.596   4
  -7  -3   5 2996.56 603.534   6
   7  -3  -5 2143.33 453.505   3
  -7  -3   5 2734.72 587.926  11
   7  -3  -5 2910.37 519.627   4
   7  -3  -4 10688.3 805.057   3
  -7  -3   4 11446.3 974.718  11
   7  -3  -4 10328.2 815.597   4
  -7  -3   4 10654.6 885.669   6
  -7  -3   3 5169.68 646.351   6
  -7  -3   3 4747.22 699.560  11
   7  -3  -3 4383.13 553.305   3
   7  -3  -3 5404.49 623.288   4
   7  -3  -2 11167.6 828.715   3
  -7  -3   2 11728.1 1020.58  11
   7  -3  -2 10462.6 803.346   4
  -7  -3   2 12173.0 886.738   6
  -7  -3   1 5740.32 634.809   6
  -7  -3   1 4824.66 748.058  11
   7  -3  -1 5146.88 612.393   3
   7  -3  -1 5715.81 619.524   4
   7  -3   0 13037.0 934.210   3
  -7  -3   0 13975.3 1203.31  11
   7  -3   0 14787.8 947.963   4
  -7  -3   0 12983.7 888.565   6
  -7  -3  -1 5170.61 579.471   6
  -7  -3  -1 5843.38 863.066  11
   7  -3   1 5638.18 742.996   1
   7  -3   1 5695.04 667.517   3
   7  -3   1 5932.08 630.289   4
   7  -3   2 9541.41 817.479   3
   7  -3   2 8017.81 887.890   1
  -7  -3  -2 8211.78 1032.50  11
   7  -3   2 9544.92 795.051   4
  -7  -3  -2 8884.70 723.693   6
  -7  -3  -3 3274.35 495.347   6
   7  -3   3 2453.80 617.852   1
  -7  -3  -3 3329.94 772.836  11
   7  -3   3 3919.49 600.989   3
   7  -3   3 3404.78 526.651   4
   7  -3   4 8752.38 1030.21   1
  -7  -3  -4 9444.57 1155.88  11
  -7  -3  -5 3298.87 866.778  11
   7  -3   5 2764.27 602.005   3
   7  -3   5 2960.08 765.543   1
  -7  -3  -6 5845.11 1063.63  11
   7  -3   6 6016.37 823.397   3
   7  -3   6 6038.77 959.148   1
  -7  -3  -7 2014.05 816.401  11
   7  -3   7 861.704 535.704   3
   7  -3   7 1540.90 723.469   1
  -7  -3  -8 10944.7 1409.93  11
   7  -3   8 9348.29 1083.43   3
   7  -3   8 7523.36 1143.03   1
  -7  -3  -9 1338.57 715.198  11
   7  -3   9 390.603 705.174   1
   7  -2 -11 6393.20 879.502   3
  -7  -2  10-85.1112 571.405   6
   7  -2 -10 111.405 429.679   3
   7  -2 -10 655.849 501.291   4
  -7  -2   9 18189.9 1450.93   6
   7  -2  -9 15875.0 1668.07   2
   7  -2  -9 16393.5 1236.88   4
   7  -2  -9 15511.0 1118.17   3
  -7  -2   8 949.432 596.062   6
   7  -2  -8 844.894 469.236   3
  -7  -2   8 426.308 416.645  11
   7  -2  -8-243.549 448.237   4
   7  -2  -7 15479.3 1031.82   3
  -7  -2   7 16066.6 1109.50  11
   7  -2  -7 13253.7 1029.85   4
  -7  -2   7 15196.2 1192.55   6
  -7  -2   6 546.094 523.779   6
   7  -2  -6 1341.60 451.223   3
  -7  -2   6 795.360 454.683  11
   7  -2  -6 77.5077 344.578   4
   7  -2  -5 21801.7 1179.96   3
  -7  -2   5 20725.0 1298.69  11
   7  -2  -5 21638.6 1209.26   4
  -7  -2   5 22515.3 1336.60   6
  -7  -2   4-215.573 392.576   6
   7  -2  -4-167.870 351.668   3
  -7  -2   4-129.356 463.997  11
   7  -2  -4 500.851 363.647   4
   7  -2  -3 12463.6 875.546   3
  -7  -2   3 14421.3 1116.56  11
   7  -2  -3 12339.3 882.645   4
  -7  -2   3 11805.9 903.507   6
  -7  -2   2 1353.40 443.630   6
  -7  -2   2 1685.32 573.111  11
   7  -2  -2 843.934 392.906   3
   7  -2  -2 1072.14 420.996   4
   7  -2  -1 14437.4 960.508   3
  -7  -2   1 14721.9 1181.22  11
   7  -2  -1 13671.6 900.620   4
  -7  -2   1 13094.3 919.562   6
  -7  -2   0 956.697 411.627   6
  -7  -2   0 768.311 496.741  11
   7  -2   0 1944.43 490.105   3
   7  -2   0 757.146 364.263   4
  -7  -2  -1 5983.01 633.664   6
  -7  -2  -1 6566.76 921.227  11
   7  -2   1 6514.44 709.008   3
   7  -2   1 6926.58 678.902   4
   7  -2   2 1006.77 462.669   1
  -7  -2  -2 1665.37 443.573   6
  -7  -2  -2 1048.59 610.138  11
   7  -2   2 1794.37 534.476   3
   7  -2   2 1584.65 429.268   4
  -7  -2  -3 6513.96 999.062  11
   7  -2   3 7994.25 808.285   3
   7  -2   3 7941.54 770.910   4
   7  -2   3 5563.04 820.443   1
  -7  -2  -4 2439.81 769.625  11
   7  -2   4 1904.16 518.553   3
   7  -2   4 1327.51 575.922   1
  -7  -2  -5 3606.27 819.678  11
   7  -2   5 5945.66 783.775   3
   7  -2   5 3664.56 807.574   1
  -7  -2  -6 2326.28 851.670  11
   7  -2   6 663.609 481.096   3
   7  -2   6 755.631 651.284   1
  -7  -2  -7 2267.75 791.598  11
   7  -2   7 2112.03 626.099   3
   7  -2   7 3293.05 894.440   1
  -7  -2  -8 1274.41 767.567  11
   7  -2   8 402.450 591.436   3
   7  -2   8 223.195 593.360   1
  -7  -2  -9 3154.65 811.190  11
   7  -2   9 3456.56 873.137   1
  -7  -2 -10 390.392 628.439  11
   7  -2  10 1294.32 714.337   1
   7  -1 -11 4228.03 732.589   3
  -7  -1  10 1241.58 700.412   6
   7  -1 -10 836.080 492.117   3
   7  -1 -10 1474.05 640.401   4
  -7  -1   9 2417.00 692.135   6
   7  -1  -9 2018.97 557.104   3
   7  -1  -9 3792.59 714.112   4
  -7  -1   8 2575.19 688.310   6
   7  -1  -8 1610.63 477.706   3
  -7  -1   8 709.390 442.210  11
   7  -1  -8 1544.03 461.216   4
  -7  -1   7 3172.57 616.335   6
   7  -1  -7 3979.53 613.319   3
  -7  -1   7 3167.45 594.901  11
   7  -1  -7 4035.83 615.979   4
  -7  -1   6 1896.20 566.547   6
   7  -1  -6 1397.06 458.618   3
  -7  -1   6 875.856 477.673  11
   7  -1  -6 1414.31 494.456   4
  -7  -1   5 608.670 453.379   6
   7  -1  -5 425.812 382.166   3
  -7  -1   5 112.624 421.110  11
   7  -1  -5-95.1176 326.450   4
  -7  -1   4 2168.41 544.246   6
   7  -1  -4 2440.82 495.329   3
  -7  -1   4 2644.67 599.217  11
   7  -1  -4 1944.37 472.020   4
  -7  -1   3 2307.36 501.486   6
  -7  -1   3 1896.38 547.188  11
   7  -1  -3 2312.65 476.353   3
   7  -1  -3 2123.53 476.500   4
  -7  -1   2 996.560 439.654   6
  -7  -1   2 870.584 514.228  11
   7  -1  -2 896.604 393.251   3
   7  -1  -2 969.250 416.180   4
  -7  -1   1 526.575 371.155   6
  -7  -1   1 119.203 490.574  11
   7  -1  -1 725.422 391.852   3
   7  -1  -1 557.270 392.430   4
  -7  -1   0 5154.70 587.640   6
  -7  -1   0 6472.09 847.957  11
   7  -1   0 5025.46 619.939   3
   7  -1   0 4741.33 584.204   4
  -7  -1  -1 1096.29 419.410   6
  -7  -1  -1 683.810 555.422  11
   7  -1   1 1882.65 508.745   3
   7  -1   1 1013.66 387.227   4
  -7  -1  -2 1533.50 406.106   6
   7  -1   2 2860.91 540.786   3
   7  -1   2 3340.70 565.628   4
  -7  -1  -3-242.154 543.023  11
   7  -1   3 814.657 473.954   3
   7  -1   3 375.712 360.414   4
  -7  -1  -3 63.2259 273.252   7
   7  -1   4 9874.39 907.544   3
  -7  -1  -4 8464.28 1116.82  11
   7  -1   4 8451.09 1093.11   1
  -7  -1  -4 10566.8 730.345   7
  -7  -1  -5 936.547 722.231  11
   7  -1   5 563.540 480.651   3
   7  -1   5 736.121 582.268   1
  -7  -1  -5 1471.35 376.943   7
  -7  -1  -6 6852.25 1081.82  11
   7  -1   6 5200.87 772.978   3
   7  -1   6 6156.40 1000.61   1
  -7  -1  -6 6621.23 652.407   7
  -7  -1  -7 1030.08 738.010  11
   7  -1   7-298.681 558.677   3
   7  -1   7 492.069 604.992   1
  -7  -1  -8 13857.8 1530.26  11
   7  -1   8 11753.3 1236.81   1
   7  -1   8 10483.6 1132.58   3
  -7  -1  -9 390.884 575.054  11
   7  -1   9 1708.28 658.183   1
   7  -1   9-249.575 702.734   3
   7  -1  10 6586.59 982.414   1
  -7  -1 -10 5664.34 942.148  11
   7   0 -11 1958.94 621.486   3
  -7   0  10 1051.98 652.493   6
   7   0 -10-179.171 518.586   3
  -7   0  10 309.211 556.995   9
   7   0 -10 1247.48 557.902   4
  -7   0   9 11199.7 1155.58   6
   7   0  -9 10509.6 1007.65   4
   7   0  -9 9814.63 938.271   3
  -7   0   8 1670.34 608.940   6
   7   0  -8 831.735 476.241   3
   7   0  -8 413.527 440.308   4
  -7   0   7 6416.77 846.179   6
   7   0  -7 4618.59 624.058   3
  -7   0   7 4762.70 687.826  11
   7   0  -7 5160.65 714.836   4
  -7   0   6 519.699 469.245   6
   7   0  -6 308.694 392.781   3
  -7   0   6 175.723 417.289  11
   7   0  -6-5.90897 369.456   4
   7   0  -5 10783.4 850.125   3
  -7   0   5 10650.9 970.593  11
   7   0  -5 11281.2 873.362   4
  -7   0   5 12079.1 991.081   6
  -7   0   4 2181.46 527.774   6
   7   0  -4 2321.74 466.866   3
  -7   0   4 1839.03 576.840  11
   7   0  -4 1824.25 475.690   4
  -7   0   3 6320.01 722.102   6
   7   0  -3 6051.22 654.216   3
  -7   0   3 5372.62 771.117  11
   7   0  -3 7000.99 677.573   4
  -7   0   2 423.239 373.937   6
  -7   0   2 412.214 515.030  11
   7   0  -2 733.342 397.500   3
   7   0  -2 873.655 414.161   4
   7   0  -1 10273.6 816.686   3
  -7   0   1 9827.92 1004.50  11
   7   0  -1 9367.97 776.403   4
  -7   0   1 10093.6 822.512   6
  -7   0   0 3159.33 531.011   6
  -7   0   0 4079.22 771.507  11
   7   0   0 3729.04 545.616   3
   7   0   0 2979.08 494.443   4
  -7   0  -1 3800.94 547.306   6
  -7   0  -1 4971.21 820.267  11
   7   0   1 6066.20 696.095   3
   7   0   1 5675.45 630.605   4
  -7   0  -2 1426.66 432.800   6
  -7   0  -2 1894.65 627.165  11
   7   0   2 2495.52 556.178   3
   7   0   2 1856.12 466.541   4
  -7   0  -3 7039.22 996.073  11
   7   0   3 8243.31 838.491   3
  -7   0  -3 6886.11 616.320   7
   7   0   3 6699.00 704.498   4
  -7   0  -4 2724.49 764.067  11
   7   0   4 2505.24 564.051   3
  -7   0  -4 2563.53 444.555   7
  -7   0  -5 5244.20 983.511  11
   7   0   5 6920.78 820.101   3
   7   0   5 5519.73 868.479   1
  -7   0  -5 7626.61 677.076   7
  -7   0  -6 4.02391 582.463  11
   7   0   6 1141.36 614.933   1
   7   0   6-3.91124 452.201   3
  -7   0  -6 755.139 393.682   7
  -7   0  -7 5665.61 1072.57  11
   7   0   7 4858.47 838.275   1
   7   0   7 4341.42 773.229   3
  -7   0  -7 4764.54 651.032   7
   7   0   8 869.220 665.756   1
  -7   0  -8 9.12817 714.150  11
   7   0   8-245.830 574.793   3
  -7   0  -8-183.300 456.317   7
   7   0   9 5169.21 908.334   1
  -7   0  -9 3124.13 809.736  11
   7   0   9 3331.52 792.855   3
  -7   0  -9 3950.86 694.028   7
   7   0  10 603.237 587.858   1
  -7   0 -10 141.995 493.527  11
   7   1 -11 3683.96 787.322   3
  -7   1  10 878.321 645.352   6
   7   1 -10 479.342 475.258   3
  -7   1  10-157.426 533.744   9
   7   1 -10 1114.85 588.081   4
  -7   1   9 2226.39 666.978   6
   7   1  -9 1742.41 556.109   3
  -7   1   9 2971.30 810.267   9
   7   1  -9 3478.17 688.628   4
  -7   1   8 2687.29 694.035   6
   7   1  -8 2168.61 555.727   3
  -7   1   8 2891.03 859.769   9
   7   1  -8 1323.52 523.602   4
  -7   1   7 4541.61 772.960   6
   7   1  -7 3827.44 619.533   3
  -7   1   7 3895.36 694.833  11
   7   1  -7 3665.37 633.568   4
  -7   1   6 771.307 507.145   6
   7   1  -6 1301.68 459.785   3
  -7   1   6 1092.28 447.627  11
   7   1  -6 599.564 389.589   4
  -7   1   5-286.970 464.359   6
   7   1  -5 271.930 410.349   3
  -7   1   5 454.559 486.316  11
   7   1  -5 67.7315 345.747   4
  -7   1   4 3551.01 631.326   6
   7   1  -4 3811.70 564.077   3
  -7   1   4 3048.99 654.122  11
   7   1  -4 3594.28 561.705   4
  -7   1   3 1373.54 476.522   6
   7   1  -3 1520.37 429.153   3
  -7   1   3 1132.89 501.161  11
   7   1  -3 2148.34 440.890   4
  -7   1   2 1745.85 482.068   6
  -7   1   2 1076.59 579.390  11
   7   1  -2 2282.53 490.364   3
   7   1  -2 1302.49 419.973   4
  -7   1   1 523.901 406.328   6
  -7   1   1-10.9076 487.666  11
   7   1  -1 571.655 376.837   3
   7   1  -1 408.564 400.436   4
  -7   1   0 6963.90 718.572   6
  -7   1   0 5578.79 835.844  11
   7   1   0 5900.56 688.296   3
   7   1   0 6470.55 683.147   4
  -7   1  -1 1353.71 430.123   6
  -7   1  -1 1155.12 624.995  11
   7   1   1 2306.16 507.592   3
   7   1   1 653.897 385.005   4
  -7   1  -2 3418.98 578.036   6
  -7   1  -2 4489.46 857.700  11
   7   1   2 3924.51 596.746   3
   7   1   2 3931.33 573.927   4
  -7   1  -3 471.433 592.323  11
   7   1   3-3.13141 368.837   3
   7   1   3 167.529 392.713   4
  -7   1  -3 247.318 334.388   7
   7   1   4 11217.8 974.568   3
  -7   1  -4 13184.9 1317.05  11
  -7   1  -4 10597.9 796.424   7
  -7   1  -5 1122.03 717.236  11
   7   1   5 1186.17 542.343   3
  -7   1  -5 1148.97 418.338   7
   7   1   6 6871.53 902.096   1
  -7   1  -6 8171.14 1171.00  11
   7   1   6 7460.62 881.410   3
  -7   1  -6 7041.31 732.436   7
   7   1   7 207.098 554.374   1
  -7   1  -7 142.429 618.922  11
   7   1   7-881.754 541.673   3
  -7   1  -7-426.699 602.970   9
  -7   1  -7 290.551 407.501   7
   7   1   8 12032.1 1160.16   3
   7   1   8 11633.2 1144.27   1
  -7   1  -8 12695.6 1412.92  11
  -7   1  -8 11716.7 1265.93   9
  -7   1  -8 11182.5 994.141   7
   7   1   9-103.812 516.152   1
  -7   1  -9 220.532 649.298  11
   7   1   9-44.7379 580.468   3
  -7   1  -9 156.259 515.403   7
   7   1  10 5617.53 875.080   1
  -7   1 -10 5859.44 884.446  11
  -7   1 -10 5528.97 859.135   7
  -7   2  10 384.872 560.626   6
   7   2 -10-246.367 574.938   3
  -7   2  10 651.753 598.263   9
   7   2 -10 606.698 558.548   4
   7   2  -9 19236.2 1350.58   4
  -7   2   9 17130.9 1560.49   9
   7   2  -9 17637.3 1293.80   3
  -7   2   9 20866.4 1503.75   6
  -7   2   8 1264.08 592.161   6
   7   2  -8 689.021 495.258   3
  -7   2   8-143.602 685.138   9
   7   2  -8 424.299 403.989   4
   7   2  -7 14419.1 1062.25   4
  -7   2   7 12751.6 1457.58   9
  -7   2   7 14572.6 1180.25   6
  -7   2   6 65.6604 494.077   6
   7   2  -6 1121.43 482.826   3
  -7   2   6 610.633 446.083  11
  -7   2   6 819.599 772.686   9
   7   2  -6 1003.35 461.218   4
   7   2  -5 24113.4 1332.89   3
  -7   2   5 22266.7 1442.86  11
  -7   2   5 24089.3 2104.92   9
   7   2  -5 23793.3 1285.81   4
  -7   2   5 22809.9 1381.83   6
  -7   2   4 463.952 478.809   6
   7   2  -4 386.512 364.369   3
  -7   2   4 438.133 479.246  11
   7   2  -4 767.744 379.344   4
   7   2  -3 13626.5 962.773   3
  -7   2   3 12913.1 1138.39  11
   7   2  -3 12887.9 909.076   4
  -7   2   3 12669.0 977.681   6
  -7   2   2 1809.92 485.596   6
   7   2  -2 1561.66 454.881   3
  -7   2   2 1730.70 617.732  11
   7   2  -2 1307.99 413.748   4
   7   2  -1 15203.6 1028.10   3
  -7   2   1 13704.2 1184.44  11
   7   2  -1 12093.3 873.684   4
  -7   2   1 13147.5 968.905   6
  -7   2   0 1827.68 477.937   6
  -7   2   0 1633.48 673.136  11
   7   2   0 1339.31 448.514   3
   7   2   0 1254.09 402.569   4
  -7   2  -1 5800.17 666.181   6
  -7   2  -1 6288.13 926.396  11
   7   2   1 5596.30 690.505   3
   7   2   1 6044.55 645.621   4
  -7   2  -2 1791.12 701.797  11
   7   2   2 1987.08 540.665   3
   7   2   2 1537.64 468.663   4
  -7   2  -2 1364.20 375.310   7
  -7   2  -3 6566.25 987.077  11
   7   2   3 6843.96 775.955   3
   7   2   3 6236.29 679.985   4
  -7   2  -3 6485.38 630.193   7
  -7   2  -4 2079.82 721.910  11
   7   2   4 2204.40 571.971   3
  -7   2  -4 2398.13 908.986   9
  -7   2  -4 2125.18 453.009   7
  -7   2  -5 2930.66 818.069  11
   7   2   5 3966.65 671.422   3
  -7   2  -5 3739.70 972.832   9
  -7   2  -5 3950.05 590.933   7
  -7   2  -6 1444.35 799.410  11
   7   2   6 1634.11 568.425   3
  -7   2  -6 1010.60 760.556   9
  -7   2  -6 2383.81 554.914   7
  -7   2  -7 3876.84 920.122  11
   7   2   7 3997.64 738.374   3
  -7   2  -7 3368.05 849.743   9
  -7   2  -7 2702.22 562.185   7
   7   2   8 1092.81 580.577   1
  -7   2  -8 419.314 558.461  11
   7   2   8 451.275 540.511   3
  -7   2  -8 918.719 646.837   9
  -7   2  -8 227.442 418.794   7
   7   2   9 3188.77 755.799   1
  -7   2  -9 2451.97 761.667  11
   7   2   9 2559.72 666.926   3
  -7   2  -9 2263.85 611.972   7
   7   2  10-1.60375 499.969   1
  -7   2 -10 594.116 540.043  11
  -7   2 -10-760.343 593.377   7
  -7   3  10 1700.62 638.876   6
   7   3 -10 704.361 491.037   3
  -7   3  10 1745.88 689.002   9
  -7   3   9 1964.78 657.499   6
   7   3  -9 2912.37 662.840   3
  -7   3   9 2155.46 708.854   9
   7   3  -9 3447.12 700.658   4
  -7   3   8 3030.00 700.230   6
   7   3  -8 3077.24 635.230   3
  -7   3   8 4813.26 970.044   9
   7   3  -8 2619.27 587.728   4
  -7   3   7 4551.09 702.134   6
   7   3  -7 4588.63 700.148   3
  -7   3   7 4584.78 1065.75   9
   7   3  -7 3964.59 643.428   4
  -7   3   6 4477.34 732.638   6
   7   3  -6 6290.93 745.943   3
  -7   3   6 7010.82 1240.24   9
   7   3  -6 5894.43 712.339   4
  -7   3   5 2112.91 592.971   6
   7   3  -5 3411.15 619.739   3
  -7   3   5 4040.58 757.023  11
  -7   3   5 1285.28 841.490   9
   7   3  -5 1996.07 479.784   4
   7   3  -4 9296.04 863.084   3
  -7   3   4 9759.28 1026.61  11
  -7   3   4 8687.30 1531.02   9
   7   3  -4 9613.48 807.709   4
  -7   3   4 11173.9 965.847   6
  -7   3   3 5532.17 725.579   6
   7   3  -3 5915.01 693.761   3
  -7   3   3 6086.93 820.502  11
  -7   3   3 7228.84 1538.67   9
   7   3  -3 4167.63 586.059   4
   7   3  -2 8652.29 823.944   3
  -7   3   2 10173.8 1062.92  11
  -7   3   2 9547.69 1788.86   9
   7   3  -2 9207.70 770.493   4
  -7   3   2 9485.24 861.157   6
  -7   3   1 4862.80 671.999   6
   7   3  -1 5009.63 643.855   3
  -7   3   1 4891.17 780.728  11
  -7   3   1 4947.58 1615.90   9
   7   3  -1 4742.71 566.353   4
   7   3   0 12471.7 970.592   3
  -7   3   0 14696.9 1287.57  11
  -7   3   0 15359.2 2447.05   9
   7   3   0 13720.8 915.019   4
  -7   3   0 10783.5 908.336   6
  -7   3  -1 6156.03 715.642   6
  -7   3  -1 7644.95 968.828  11
   7   3   1 6742.19 747.863   3
  -7   3  -1 9083.06 1770.79   9
   7   3   1 7500.38 722.169   4
  -7   3  -2 8147.78 1052.80  11
   7   3   2 6880.34 753.640   3
  -7   3  -2 7793.44 1525.45   9
  -7   3  -2 6880.56 682.760   7
   7   3   2 6793.18 711.890   4
  -7   3  -3 4453.04 913.934  11
   7   3   3 4572.82 705.272   3
  -7   3  -3 4742.46 1212.17   9
   7   3   3 4153.75 632.987   4
  -7   3  -3 5515.89 636.854   7
   7   3   4 11374.3 990.741   3
  -7   3  -4 9950.03 1228.31  11
  -7   3  -4 12723.6 1588.65   9
  -7   3  -4 11059.6 861.952   7
   7   3   5 4356.91 513.799   5
  -7   3  -5 4017.59 898.463  11
   7   3   5 4375.35 703.661   3
  -7   3  -5 4417.86 1001.82   9
  -7   3  -5 3822.31 603.368   7
  -7   3  -6 5961.43 1058.75  11
   7   3   6 5073.26 767.632   3
  -7   3  -6 6226.83 1109.44   9
  -7   3  -6 5569.43 692.176   7
  -7   3  -7 3351.35 962.252  11
   7   3   7 3264.24 684.247   3
  -7   3  -7 2197.83 787.156   9
  -7   3  -7 1322.90 519.842   7
  -7   3  -8 11150.4 1338.17  11
   7   3   8 10607.2 1087.07   3
  -7   3  -8 8460.82 1146.53   9
  -7   3  -8 9849.68 978.996   7
  -7   3  -9 1214.91 641.151  11
   7   3   9 1253.98 573.358   3
  -7   3  -9 610.782 480.813   7
  -7   4  10-599.178 673.153   6
  -7   4  10 672.494 612.006   9
  -7   4   9 6805.89 918.403   6
   7   4  -9 4817.81 810.535   3
  -7   4   9 6564.75 1048.90   9
   7   4  -9 7538.81 926.901   4
  -7   4   8 2645.53 650.884   6
   7   4  -8 2713.38 648.367   3
  -7   4   8 1086.71 712.605   9
   7   4  -8 1481.05 548.016   4
  -7   4   7 2771.93 672.957   6
   7   4  -7 3200.90 632.456   3
  -7   4   7 1950.67 864.382   9
   7   4  -7 3290.01 618.159   4
  -7   4   6 2415.18 599.701   6
   7   4  -6 1418.49 505.928   3
  -7   4   6 2238.90 956.989   9
   7   4  -6 1373.32 510.672   4
  -7   4   5 5583.07 759.880   6
   7   4  -5 8061.62 847.136   3
  -7   4   5 8045.87 1350.11   9
   7   4  -5 7194.77 725.969   4
  -7   4   4 3820.61 651.019   6
   7   4  -4 4119.31 641.573   3
  -7   4   4 3018.31 709.696  11
  -7   4   4 3918.08 1169.36   9
   7   4  -4 3942.20 566.248   4
  -7   4   3 4833.83 722.340   6
   7   4  -3 5420.19 681.864   3
  -7   4   3 5197.06 831.969  11
  -7   4   3 4287.19 1318.65   9
   7   4  -3 5349.51 651.903   4
  -7   4   2 4361.40 668.357   6
   7   4  -2 3850.27 637.129   3
  -7   4   2 4217.35 799.835  11
  -7   4   2 3323.63 1316.35   9
   7   4  -2 3921.64 563.510   4
   7   4  -1 8072.05 803.673   3
  -7   4   1 7115.95 792.591   6
  -7   4   1 7813.08 975.857  11
  -7   4   1 8702.58 2035.69   9
   7   4  -1 8705.36 751.551   4
  -7   4   0 6450.24 754.329   6
  -7   4   0 4957.23 852.095  11
   7   4   0 6193.11 745.831   3
  -7   4   0 7611.42 1901.91   9
   7   4   0 6511.63 666.796   4
   7   4   1 10212.3 910.713   3
  -7   4  -1 8890.38 1057.50  11
  -7   4  -1 10545.8 1993.29   9
   7   4   1 8459.20 762.938   4
  -7   4  -2 7306.21 1013.51  11
   7   4   2 6779.76 775.183   3
  -7   4  -2 8201.05 1643.31   9
  -7   4  -2 7512.12 715.218   7
   7   4   2 6551.85 712.779   4
   7   4   3 9170.85 881.989   3
  -7   4  -3 9831.87 1171.59  11
  -7   4  -3 10080.5 1603.17   9
   7   4   3 9260.26 827.454   4
  -7   4  -3 9033.88 798.994   7
  -7   4  -4 5555.68 1016.23  11
   7   4   4 6264.71 786.927   3
  -7   4  -4 4711.67 1163.17   9
   7   4   4 5486.42 679.453   4
  -7   4  -4 5469.23 658.806   7
   7   4   5 10088.3 965.029   3
   7   4   5 8280.48 802.318   5
  -7   4  -5 7254.55 1172.07  11
  -7   4  -5 9504.75 1410.85   9
  -7   4  -5 9168.95 835.492   7
  -7   4  -6 5774.30 1037.98  11
   7   4   6 6386.69 840.159   3
  -7   4  -6 4124.06 1009.52   9
  -7   4  -6 3830.76 651.798   7
  -7   4  -7 7283.52 1175.44  11
   7   4   7 6414.17 863.183   3
  -7   4  -7 5895.08 1046.47   9
  -7   4  -7 7139.83 849.749   7
  -7   4  -8 2388.20 811.028  11
   7   4   8 1217.43 515.403   3
  -7   4  -8 1141.16 663.494   9
  -7   4  -8 1924.76 609.712   7
  -7   4  -9 4387.88 831.386  11
  -7   4  -9 3767.54 713.259   7
  -7   5   9 2125.68 641.553   6
  -7   5   9 3659.74 885.428   9
   7   5  -9 3253.61 694.018   4
  -7   5   8 1543.70 629.625   6
   7   5  -8 1093.82 578.118   3
  -7   5   8 1463.94 772.278   9
   7   5  -8 1015.67 477.081   4
  -7   5   7 5905.25 862.618   6
   7   5  -7 5845.04 810.493   3
  -7   5   7 5392.50 1113.72   9
   7   5  -7 4310.45 660.837   4
  -7   5   6 2527.88 627.414   6
   7   5  -6 2756.08 635.162   3
  -7   5   6 754.236 776.701   9
   7   5  -6 2699.62 572.999   4
  -7   5   5 3284.83 680.164   6
   7   5  -5 4450.97 659.606   3
  -7   5   5 2190.87 1005.53   9
   7   5  -5 4079.61 637.357   4
  -7   5   4 2964.63 618.108   6
   7   5  -4 4633.78 719.239   3
  -7   5   4 4409.19 1245.34   9
   7   5  -4 4627.18 626.477   4
   7   5  -3 9954.43 902.912   3
  -7   5   3 9360.24 899.190   6
  -7   5   3 9254.78 1619.96   9
   7   5  -3 9386.58 810.600   4
  -7   5   2 3471.24 604.815   6
   7   5  -2 3941.83 665.117   3
  -7   5   2 3110.84 710.601  11
  -7   5   2 4132.82 1541.38   9
   7   5  -2 3083.78 519.485   4
  -7   5   1 4266.29 635.987   6
   7   5  -1 4098.58 620.490   3
  -7   5   1 5570.57 953.942  11
  -7   5   1 4299.62 1685.97   9
   7   5  -1 4502.77 602.936   4
   7   5   0 4600.58 636.491   3
  -7   5   0 3173.60 780.945  11
  -7   5   0 4241.97 1719.85   9
   7   5   0 4730.42 600.593   4
   7   5   1 7255.85 793.638   3
  -7   5  -1 6267.34 943.173  11
  -7   5  -1 8999.95 1967.66   9
   7   5   1 6239.31 673.670   4
  -7   5  -2 3644.47 827.001  11
   7   5   2 3307.42 613.962   3
  -7   5  -2 4288.40 490.990  10
  -7   5  -2 4241.23 1402.50   9
   7   5   2 3906.36 569.226   4
  -7   5  -2 4101.28 596.752   7
  -7   5  -3 2757.20 808.656  11
   7   5   3 2610.86 595.091   3
  -7   5  -3 2083.21 397.006  10
  -7   5  -3 1442.50 1021.49   9
   7   5   3 2445.09 485.337   4
  -7   5  -3 2971.88 538.904   7
   7   5   4 5764.22 739.818   5
  -7   5  -4 4864.83 953.923  11
   7   5   4 6162.28 759.696   3
  -7   5  -4 4839.00 1200.20   9
   7   5   4 6324.69 706.984   4
  -7   5  -4 7501.91 764.879   7
   7   5   5 1750.84 523.323   5
  -7   5  -5 2135.12 798.791  11
   7   5   5 1644.06 536.504   3
  -7   5  -5 1385.14 781.342   9
  -7   5  -5 712.900 453.088   7
  -7   5  -6 2927.46 911.454  11
   7   5   6 5692.42 800.559   3
  -7   5  -6 3886.33 1020.32   9
  -7   5  -6 4766.66 708.521   7
  -7   5  -7 2576.60 1012.02  11
   7   5   7 1685.91 600.637   3
  -7   5  -7 864.534 731.119   9
  -7   5  -7 1687.45 573.386   7
  -7   5  -8 6949.05 1106.14  11
   7   5   8 6569.85 888.536   3
  -7   5  -8 6223.62 1079.09   9
  -7   5  -8 4728.05 790.336   7
  -7   6   9 9992.76 1123.04   6
  -7   6   8 2091.44 631.187   6
   7   6  -8 1930.14 645.655   3
  -7   6   8 1969.70 824.535   9
   7   6  -8 4054.39 739.442   4
  -7   6   7 7552.61 933.798   6
   7   6  -7 7872.51 933.977   3
  -7   6   7 4906.01 1136.60   9
   7   6  -7 7119.98 836.646   4
  -7   6   6 1245.68 568.447   6
   7   6  -6 1287.12 498.627   3
  -7   6   6 2068.86 919.237   9
   7   6  -6 273.332 429.089   4
   7   6  -5 14123.5 1155.82   3
   7   6  -5 12479.4 967.791   4
  -7   6   5 10972.6 1610.83   9
  -7   6   5 12750.4 1113.79   6
  -7   6   4 3214.17 704.962   6
   7   6  -4 2769.63 610.557   3
  -7   6   4 2753.18 1086.01   9
   7   6  -4 1734.26 468.895   4
   7   6  -3 10467.3 936.720   3
  -7   6   3 7958.66 852.672   6
  -7   6   3 7127.98 1515.94   9
   7   6  -3 8745.90 778.641   4
  -7   6   2 5382.56 755.908   6
   7   6  -2 4339.93 686.920   3
   7   6  -2 5435.02 646.478   4
   7   6  -1 11733.4 994.685   3
   7   6  -1 11522.0 889.666   4
   7   6   0 5137.58 739.998   3
  -7   6   0 4046.93 848.819  11
   7   6   0 4185.34 592.341   4
   7   6   1 8360.12 874.521   3
  -7   6  -1 8696.95 1155.76  11
  -7   6  -1 7813.50 685.682  10
  -7   6  -1 6897.72 1788.55   9
   7   6   1 7555.80 730.941   4
   7   6   2 8203.23 851.245   3
  -7   6  -2 6199.48 1075.69  11
  -7   6  -2 7580.42 674.077  10
  -7   6  -2 8272.32 1677.24   9
   7   6   2 7274.11 733.257   4
  -7   6  -2 7554.92 737.384   7
   7   6   3 9766.34 926.126   3
   7   6   3 7321.31 857.893   5
  -7   6  -3 8702.10 1182.18  11
  -7   6  -3 7834.59 714.323  10
  -7   6  -3 7601.63 1562.53   9
   7   6   3 8592.06 782.938   4
  -7   6  -3 8669.30 831.171   7
   7   6   4 4247.79 685.984   5
  -7   6  -4 3606.49 903.977  11
   7   6   4 4713.69 695.669   3
  -7   6  -4 4120.60 563.484  10
  -7   6  -4 3083.57 1164.51   9
   7   6   4 4443.13 627.088   4
  -7   6  -4 5303.33 707.457   7
   7   6   5 7525.72 838.172   5
  -7   6  -5 5534.48 1072.03  11
   7   6   5 7811.87 882.760   3
  -7   6  -5 6043.13 654.500  10
  -7   6  -5 7494.57 1395.81   9
   7   6   5 4974.74 684.552   4
  -7   6  -5 7746.68 832.768   7
  -7   6  -6 4944.59 1032.00  11
   7   6   6 6472.12 854.445   3
  -7   6  -6 4167.08 1033.08   9
  -7   6  -6 5560.00 758.716   7
  -7   6  -7 2849.29 947.189  11
   7   6   7 4407.62 766.619   3
  -7   6  -7 4704.97 1068.19   9
  -7   6  -7 4012.86 714.981   7
  -7   6  -8 2130.63 796.559  11
   7   6   8 3520.55 745.251   3
  -7   7   8 3316.30 769.847   6
   7   7  -8 5696.47 823.808   4
  -7   7   7 4015.59 791.928   6
   7   7  -7 3919.78 758.748   3
   7   7  -7 3514.42 674.461   4
  -7   7   6 10085.7 1035.93   6
   7   7  -6 8356.99 968.002   3
   7   7  -6 8780.36 883.509   4
  -7   7   5 3382.35 681.375   6
   7   7  -5 2996.37 686.584   3
  -7   7   5 2956.17 1043.31   9
   7   7  -5 2171.88 526.731   4
   7   7  -4 10859.5 1019.00   3
  -7   7   4 9821.90 988.501   6
   7   7  -4 8654.06 810.141   4
  -7   7   4 8319.41 1533.28   9
  -7   7   3 6860.73 844.808   6
   7   7  -3 7867.76 870.091   3
  -7   7   3 7935.71 1635.13   9
   7   7  -3 6788.63 713.339   4
   7   7  -2 13226.5 1068.77   3
  -7   7   2 14622.7 2197.66   9
   7   7  -2 12360.8 921.157   4
   7   7  -1 8080.32 857.432   3
  -7   7   1 5802.63 1717.10   9
   7   7  -1 6531.26 706.940   4
   7   7   0 12160.6 1029.21   3
  -7   7   0 15090.4 2487.60   9
   7   7   0 11814.9 895.395   4
   7   7   1 9402.00 924.229   3
  -7   7  -1 8743.70 767.404  10
  -7   7  -1 7564.39 1789.90   9
   7   7   1 9125.40 805.284   4
   7   7   2 8229.46 978.318   5
   7   7   2 9390.29 923.519   3
  -7   7  -2 7991.25 733.044  10
  -7   7  -2 8901.83 1786.80   9
   7   7   2 7078.59 741.636   4
  -7   7  -2 7855.20 797.395   7
   7   7   3 7208.41 884.385   5
   7   7   3 6340.88 803.943   3
  -7   7  -3 7047.97 1121.29  11
  -7   7  -3 6240.48 672.920  10
  -7   7  -3 6674.55 1533.89   9
   7   7   3 6843.32 737.291   4
  -7   7  -3 8315.75 833.829   7
   7   7   4 6060.03 797.764   5
   7   7   4 7386.84 864.040   3
  -7   7  -4 6993.33 1131.08  11
  -7   7  -4 5414.36 647.850  10
  -7   7  -4 9108.50 1565.21   9
   7   7   4 6025.55 702.406   4
  -7   7  -4 6243.44 751.876   7
   7   7   5 6363.85 820.636   5
  -7   7  -5 3350.56 955.491  11
   7   7   5 4906.93 768.849   3
  -7   7  -5 5612.52 676.974  10
  -7   7  -5 6756.51 1364.83   9
   7   7   5 4866.21 700.964   4
  -7   7  -5 5363.65 753.445   7
  -7   7  -6 5188.06 1144.80  11
   7   7   6 2897.79 661.272   3
  -7   7  -6 3053.66 571.959  10
  -7   7  -6 3399.18 653.487   7
  -7   7  -7 3675.57 946.349  11
   7   7   7 3972.04 738.184   3
   7   7   8 4628.01 811.112   3
  -7   8   8 4495.54 801.716   6
  -7   8   7 1431.84 623.000   6
   7   8  -7 1725.14 593.896   4
  -7   8   6 6009.83 883.679   6
   7   8  -6 6588.37 912.877   3
  -7   8   6 7946.76 1658.12   5
   7   8  -6 5723.35 754.536   4
  -7   8   5 2451.61 636.535   6
   7   8  -5 2563.33 684.296   3
  -7   8   5 3269.71 1239.71   5
   7   8  -5 2268.91 563.595   4
  -7   8   4 6463.45 864.313   6
   7   8  -4 8810.05 975.857   3
  -7   8   4 7567.46 1353.06   5
   7   8  -4 6660.07 750.489   4
   7   8  -3 3986.76 755.084   3
  -7   8   3 3582.93 1047.73   5
   7   8  -3 2779.82 553.984   4
   7   8  -2 10092.8 993.785   3
  -7   8   2 7073.97 1789.06   9
   7   8  -2 7444.00 759.991   4
   7   8  -1 5725.10 779.403   3
   7   8  -1 5899.78 689.702   4
   7   8   0 6963.11 963.482   5
   7   8   0 6917.49 829.657   3
  -7   8   0 9388.23 2163.43   9
   7   8   0 6651.53 722.376   4
   7   8   1 7297.07 975.092   5
   7   8   1 6858.41 844.513   3
  -7   8  -1 6260.77 697.707  10
  -7   8  -1 5867.57 1680.93   9
   7   8   1 5707.50 665.191   4
   7   8   2 7851.38 984.357   5
   7   8   2 7461.81 872.530   3
  -7   8  -2 6441.23 718.242  10
  -7   8  -2 9121.37 1752.20   9
   7   8   2 7660.45 764.156   4
   7   8   3 7134.02 942.571   5
   7   8   3 7716.16 889.074   3
  -7   8  -3 6657.94 712.591  10
   7   8   3 6486.31 727.194   4
  -7   8  -3 8309.18 842.265   7
   7   8   4 6150.64 877.052   5
   7   8   4 5261.80 781.841   3
  -7   8  -4 5608.74 684.769  10
   7   8   4 6487.72 731.686   4
  -7   8  -4 6306.20 787.881   7
   7   8   5 7465.42 925.754   5
   7   8   5 7218.90 878.693   3
  -7   8  -5 6644.85 749.954  10
   7   8   5 7037.06 769.322   4
  -7   8  -5 7667.68 841.936   7
   7   8   6 4474.65 787.042   5
   7   8   6 4582.13 779.930   3
  -7   8  -6 4060.48 636.812  10
   7   8   6 3193.09 597.404   4
   7   8   7 4229.36 732.263   3
  -7   8  -7 2666.14 595.009  10
  -7   9   7 1906.99 644.743   6
   7   9  -7 3661.38 702.381   4
  -7   9   6 1498.13 634.270   6
   7   9  -6 1113.84 519.039   4
  -7   9   5 1576.41 641.757   6
  -7   9   5 2461.04 1278.48   5
   7   9  -5 1051.55 481.616   4
   7   9  -4 3321.91 719.160   3
  -7   9   4 3541.85 1203.88   5
   7   9  -4 1115.59 463.076   4
   7   9  -3 4783.42 798.823   3
  -7   9   3 6698.15 1273.76   5
   7   9  -3 4320.76 645.607   4
   7   9  -2 2047.61 811.044   5
   7   9  -2 3448.43 716.634   3
  -7   9   2 2156.63 895.818   5
   7   9  -2 1818.59 503.389   4
   7   9  -1 2479.84 855.650   5
   7   9  -1 3732.53 717.970   3
  -7   9   1 4055.68 927.458   5
   7   9  -1 3302.19 584.452   4
   7   9   0 2857.69 810.739   5
   7   9   0 2306.81 611.226   3
   7   9   0 1831.54 484.112   4
   7   9   1 4729.37 892.791   5
   7   9   1 3749.24 695.461   3
  -7   9  -1 2793.72 551.636  10
   7   9   1 3706.65 595.653   4
   7   9   2 2618.15 758.554   5
   7   9   2 2067.47 607.203   3
  -7   9  -2 1598.38 464.474  10
   7   9   2 1689.07 470.273   4
   7   9   3 2721.62 738.080   5
   7   9   3 2202.82 641.061   3
  -7   9  -3 3327.49 603.637  10
   7   9   3 3158.11 549.403   4
  -7   9  -3 2630.56 587.446   7
   7   9   4 1501.13 630.621   5
   7   9   4 1721.52 586.361   3
  -7   9  -4 1472.09 493.606  10
   7   9   4 2507.46 533.632   4
   7   9   5 1454.03 615.915   5
   7   9   5 2312.74 610.701   3
  -7   9  -5 2288.76 573.864  10
   7   9   5 1690.22 461.472   4
   7   9   6 1621.14 625.867   5
   7   9   6 2062.28 648.331   3
  -7   9  -6 1688.26 500.172  10
   7   9   6 1623.76 535.655   4
   7  10  -5 3832.61 663.664   4
  -7  10   4 4851.44 1361.42   5
   7  10  -4 3417.19 594.609   4
   7  10  -3 4482.26 803.075   3
  -7  10   3 3066.41 1088.05   5
   7  10  -3 3630.52 618.677   4
   7  10  -2 5385.47 857.695   3
  -7  10   2 7167.58 1213.08   5
   7  10  -2 4985.47 673.112   4
   7  10  -1 5200.18 822.253   3
  -7  10   1 4858.38 1025.70   5
   7  10  -1 5468.07 689.480   4
   7  10   0 5527.60 855.015   3
  -7  10   0 4207.43 850.825   5
   7  10   0 3699.95 598.055   4
   7  10   1 4750.06 935.829   5
   7  10   1 5744.05 865.155   3
  -7  10  -1 4841.36 702.059  10
   7  10   1 4360.50 634.916   4
   7  10   2 4939.59 949.636   5
   7  10   2 4276.56 749.804   3
  -7  10  -2 4590.55 701.435  10
   7  10   2 4139.78 629.456   4
   7  10   3 4595.05 760.335   3
  -7  10  -3 3688.04 664.241  10
   7  10   3 3738.02 615.363   4
   7  10   4 1318.83 620.288   3
  -7  10  -4 2534.97 590.050  10
  -7  11   2 2185.82 865.375   5
   7  11  -1 2746.89 706.295   3
  -7  11   1 2996.55 926.988   5
   7  11   0 2162.03 695.493   3
   7  11   1 4865.34 844.791   3
   8  -8  -2 5161.47 1254.29   2
   8  -8  -1 5174.84 1238.72   2
   8  -8   1 3666.71 606.585   3
  -8  -7   5 781.237 525.775  11
   8  -7  -5 44.3792 434.208   4
  -8  -7   4 2611.36 597.989   6
  -8  -7   4 1519.64 593.662  11
   8  -7  -4 2270.06 541.870   4
  -8  -7   3 580.208 437.332   6
   8  -7  -3 754.684 1088.48   2
  -8  -7   3 431.402 507.599  11
   8  -7  -3 639.244 410.672   4
  -8  -7   2 2993.82 566.074   6
   8  -7  -2 3877.49 1253.21   2
  -8  -7   2 2746.22 750.627  11
   8  -7  -2 2658.68 528.456   3
   8  -7  -2 2510.99 558.476   4
  -8  -7   1 2220.57 503.915   6
   8  -7  -1 3235.29 1005.52   2
  -8  -7   1 975.565 629.328  11
   8  -7  -1 1567.21 471.770   3
   8  -7  -1 2430.16 560.390   4
   8  -7   0 4701.00 641.878   3
   8  -7   0 3892.43 610.452   4
   8  -7   1 2982.88 616.840   3
   8  -7   1 1523.66 483.770   4
   8  -7   2 5293.19 749.850   3
   8  -7   2 4654.45 636.193   4
   8  -7   3 3183.62 583.884   4
  -8  -6   6 3169.35 634.058  11
  -8  -6   5 9724.53 993.607  11
   8  -6  -5 11298.2 993.726   4
  -8  -6   5 13043.6 1109.88   6
  -8  -6   4 2383.05 566.387   6
   8  -6  -4 3760.80 570.261   3
  -8  -6   4 4435.41 758.580  11
   8  -6  -4 2756.84 1045.24   2
   8  -6  -4 3530.97 600.116   4
   8  -6  -3 10729.0 886.325   3
  -8  -6   3 9989.60 1051.17  11
   8  -6  -3 11567.4 1964.27   2
   8  -6  -3 12457.3 992.963   4
  -8  -6   3 10711.9 947.162   6
  -8  -6   2 2943.29 554.679   6
  -8  -6   2 1608.61 667.559  11
   8  -6  -2 2714.43 526.909   3
   8  -6  -2 2218.73 1124.44   2
   8  -6  -2 2685.41 549.258   4
   8  -6  -1 9866.51 889.692   3
  -8  -6   1 8725.99 1095.07  11
   8  -6  -1 9295.34 1480.73   2
   8  -6  -1 10652.7 904.221   4
  -8  -6   1 9316.43 822.719   6
  -8  -6   0 2533.30 514.103   6
  -8  -6   0 2141.37 713.390  11
   8  -6   0 3186.76 979.635   2
   8  -6   0 2397.23 556.881   3
   8  -6   0 2607.11 568.604   4
  -8  -6  -1 6836.89 1015.37  11
   8  -6   1 7900.16 846.266   3
   8  -6   1 7336.02 794.299   4
   8  -6   2 1394.56 537.559   3
   8  -6   2 449.103 432.248   4
   8  -6   3 5668.19 791.145   3
   8  -6   3 5170.99 693.937   4
   8  -6   4 936.861 441.788   4
   8  -5  -6 2057.14 527.875   3
  -8  -5   6 1633.16 525.631  11
   8  -5  -6 1534.92 495.508   4
  -8  -5   5 1155.99 478.972   6
   8  -5  -5 680.478 406.657   3
  -8  -5   5 951.224 496.842  11
   8  -5  -5 857.913 875.995   2
   8  -5  -5 1862.59 543.578   4
  -8  -5   4 2379.11 607.041   6
   8  -5  -4 2625.63 538.691   3
  -8  -5   4 2486.78 615.680  11
   8  -5  -4 820.294 874.280   2
   8  -5  -4 3157.43 592.624   4
  -8  -5   3 1831.61 520.152   6
  -8  -5   3 1982.77 638.199  11
   8  -5  -3 1304.42 454.127   3
   8  -5  -3 1122.03 458.254   4
  -8  -5   2 4308.09 628.650   6
  -8  -5   2 3824.29 754.224  11
   8  -5  -2 3219.69 551.689   3
   8  -5  -2 2140.43 991.251   2
   8  -5  -2 4989.52 671.201   4
  -8  -5   1 428.781 409.983   6
  -8  -5   1 1452.01 668.919  11
   8  -5  -1 590.829 403.977   3
   8  -5  -1 3.35982 806.782   2
   8  -5  -1 887.812 462.515   4
  -8  -5   0 8298.55 1086.78  11
   8  -5   0 7250.24 780.508   3
   8  -5   0 6150.69 1224.50   2
   8  -5   0 6657.23 748.928   4
  -8  -5   0 7964.31 764.879   6
  -8  -5  -1 781.516 433.363   6
  -8  -5  -1-555.422 709.263  11
   8  -5   1 731.031 444.711   3
   8  -5   1 12.7396 413.270   4
  -8  -5  -2 6100.60 660.730   6
  -8  -5  -2 7282.38 1114.85  11
   8  -5   2 6730.01 791.814   3
   8  -5   2 5689.24 720.072   4
   8  -5   3 1754.99 546.843   3
   8  -5   3 1796.52 512.144   4
   8  -5   4 9479.45 928.612   4
   8  -4  -7 1885.49 521.301   3
  -8  -4   7 1712.35 516.859  11
   8  -4  -6 8975.56 849.038   3
  -8  -4   6 7730.01 878.662  11
   8  -4  -6 7686.88 849.929   4
  -8  -4   5 5967.44 822.830   6
   8  -4  -5 3950.65 628.394   3
  -8  -4   5 4226.74 680.907  11
   8  -4  -5 5000.82 1284.23   2
   8  -4  -5 4237.67 692.670   4
   8  -4  -4 10515.9 889.527   3
  -8  -4   4 12692.7 1121.91  11
   8  -4  -4 9477.84 1563.35   2
   8  -4  -4 13487.5 1038.79   4
  -8  -4   4 14576.6 1117.54   6
  -8  -4   3 4493.75 669.950   6
  -8  -4   3 4386.67 772.647  11
   8  -4  -3 4752.81 647.889   3
   8  -4  -3 2812.00 1189.47   2
   8  -4  -3 5183.95 714.319   4
   8  -4  -2 9918.04 875.697   3
  -8  -4   2 11263.5 1106.55  11
   8  -4  -2 10276.8 1953.23   2
   8  -4  -2 12382.1 985.383   4
  -8  -4   2 10877.3 923.494   6
  -8  -4   1 5834.59 695.292   6
  -8  -4   1 6353.33 894.559  11
   8  -4  -1 6365.09 749.675   3
   8  -4  -1 6684.54 737.993   4
   8  -4   0 9136.02 867.261   3
  -8  -4   0 10951.0 1195.16  11
   8  -4   0 10336.9 1554.28   2
   8  -4   0 10433.2 913.630   4
  -8  -4   0 11012.9 891.568   6
  -8  -4  -1 4683.23 610.752   6
  -8  -4  -1 3004.78 778.941  11
   8  -4   1 5566.11 761.528   3
   8  -4   1 3885.88 1025.51   2
   8  -4   1 4541.27 641.303   4
  -8  -4  -2 6093.22 685.687   6
  -8  -4  -2 6113.29 1059.04  11
   8  -4   2 6771.57 826.550   3
   8  -4   2 5522.93 711.454   4
  -8  -4  -3 4004.30 974.372  11
   8  -4   3 5164.16 754.532   3
   8  -4   3 4414.45 668.133   4
   8  -4   4 4190.21 740.990   3
   8  -4   4 3346.04 624.448   4
   8  -3  -8 1758.14 544.565   3
   8  -3  -7 2725.37 565.956   3
  -8  -3   7 2426.21 614.441  11
  -8  -3   6 2770.62 646.897   6
   8  -3  -6 3919.73 638.964   3
  -8  -3   6 2717.44 616.533  11
   8  -3  -6 3223.97 1108.98   2
   8  -3  -6 3468.69 640.224   4
  -8  -3   5 1095.75 507.130   6
   8  -3  -5 695.281 406.008   3
  -8  -3   5 1473.29 537.584  11
   8  -3  -5-608.327 1028.20   2
   8  -3  -5 867.404 442.961   4
  -8  -3   4 5465.52 740.800   6
   8  -3  -4 6788.50 744.943   3
  -8  -3   4 6287.17 843.493  11
   8  -3  -4 6735.62 754.933   4
  -8  -3   3 787.037 437.937   6
  -8  -3   3 3053.19 726.536  11
   8  -3  -3 754.896 412.353   3
   8  -3  -3 2764.53 575.436   4
   8  -3  -2 9328.33 859.150   3
  -8  -3   2 8486.21 849.259   6
  -8  -3   2 11357.6 1104.17  11
   8  -3  -2 9237.81 864.507   4
  -8  -3   1-80.7638 389.934   6
  -8  -3   1 383.925 550.542  11
   8  -3  -1-139.674 388.188   3
   8  -3  -1 450.781 454.372   4
   8  -3   0 15656.7 1122.22   3
  -8  -3   0 14773.2 1364.20  11
   8  -3   0 14794.2 1073.04   4
  -8  -3   0 16062.7 1088.44   6
  -8  -3  -1 267.872 368.346   6
  -8  -3  -1 699.401 728.456  11
   8  -3   1 386.919 486.012   3
   8  -3   1 177.813 378.650   4
   8  -3   2 16014.4 1184.65   3
  -8  -3  -2 14113.9 1432.98  11
   8  -3   2 16186.1 1130.90   4
  -8  -3  -2 14296.5 1004.52   6
  -8  -3  -3 797.824 660.078  11
   8  -3   3 1484.37 552.615   3
   8  -3   3-191.501 456.490   4
   8  -3   4 18284.5 1310.76   3
  -8  -3  -4 17619.6 1677.93  11
   8  -3   4 16068.2 1185.17   4
   8  -3   5 825.300 549.946   4
   8  -2  -8 6975.36 834.132   3
  -8  -2   8 8372.10 911.762  11
   8  -2  -7 5801.93 753.449   3
  -8  -2   7 6337.24 837.665  11
  -8  -2   6 8280.38 959.340   6
   8  -2  -6 6649.17 774.882   3
  -8  -2   6 6062.96 821.045  11
   8  -2  -6 6959.41 815.717   4
   8  -2  -5 10068.6 902.067   3
  -8  -2   5 10349.1 1021.41  11
   8  -2  -5 10801.1 945.598   4
  -8  -2   5 11583.7 1043.32   6
   8  -2  -4 10243.3 900.449   3
  -8  -2   4 9185.62 987.548  11
   8  -2  -4 10283.7 910.178   4
  -8  -2   4 10071.2 975.408   6
   8  -2  -3 12090.9 969.647   3
  -8  -2   3 11532.4 1156.06  11
   8  -2  -3 13848.1 1045.38   4
  -8  -2   3 11512.1 990.740   6
  -8  -2   2 6214.83 741.210   6
  -8  -2   2 5164.11 854.888  11
   8  -2  -2 4885.13 676.258   3
   8  -2  -2 4864.66 677.077   4
   8  -2  -1 11898.7 967.054   3
  -8  -2   1 11357.1 1192.46  11
   8  -2  -1 12192.7 970.263   4
  -8  -2   1 13208.3 995.968   6
  -8  -2   0 3670.24 578.884   6
  -8  -2   0 4969.88 857.530  11
   8  -2   0 3457.92 622.324   3
   8  -2   0 3725.35 621.181   4
   8  -2   1 11380.7 1002.27   3
  -8  -2  -1 11255.9 1243.87  11
   8  -2   1 10469.7 901.733   4
  -8  -2  -1 11400.1 911.863   6
  -8  -2  -2 716.746 405.073   6
  -8  -2  -2 1885.06 778.744  11
   8  -2   2 1335.88 496.490   3
   8  -2   2 1980.14 510.404   4
  -8  -2  -3 8454.28 1211.65  11
   8  -2   3 9004.90 953.473   3
   8  -2   3 8330.23 849.988   4
  -8  -2  -4 941.008 631.323  11
   8  -2   4 995.035 544.924   3
   8  -2   4 44.4947 446.685   4
  -8  -2  -5 4704.50 1001.57  11
   8  -2   5 5784.07 767.419   4
   8  -1  -8 2186.68 614.267   3
  -8  -1   8 1798.69 566.334  11
   8  -1  -7 3501.94 614.253   3
  -8  -1   7 3699.05 705.518  11
  -8  -1   6 2415.29 686.278   6
   8  -1  -6 3354.69 650.084   3
  -8  -1   6 2755.57 584.203  11
   8  -1  -6 2854.80 625.875   4
  -8  -1   5 1760.51 594.441   6
   8  -1  -5 2604.67 603.479   3
  -8  -1   5 1778.26 577.496  11
   8  -1  -5 2309.15 547.430   4
  -8  -1   4 9434.54 956.115   6
   8  -1  -4 8702.52 865.230   3
  -8  -1   4 9796.35 1030.13  11
   8  -1  -4 10560.4 913.542   4
  -8  -1   3 4290.81 678.596   6
   8  -1  -3 3466.85 606.495   3
  -8  -1   3 5138.18 806.390  11
   8  -1  -3 4029.80 618.411   4
   8  -1  -2 13100.1 1019.94   3
  -8  -1   2 13707.8 1241.38  11
   8  -1  -2 12315.8 975.804   4
  -8  -1   2 11652.1 977.443   6
  -8  -1   1 238.781 380.366   6
  -8  -1   1 589.674 483.773  11
   8  -1  -1 746.145 441.749   3
   8  -1  -1 378.145 438.657   4
   8  -1   0 22992.6 1350.64   3
  -8  -1   0 20150.1 1566.21  11
   8  -1   0 22816.5 1325.87   4
  -8  -1   0 20898.7 1265.82   6
  -8  -1  -1 1741.65 461.977   6
  -8  -1  -1 2187.94 796.807  11
   8  -1   1 1893.70 550.456   3
   8  -1   1 2101.74 541.285   4
   8  -1   2 17868.1 1258.23   3
  -8  -1  -2 20457.2 1657.42  11
   8  -1   2 18712.8 1219.65   4
  -8  -1  -3 224.711 616.228  11
   8  -1   3 325.812 439.416   3
   8  -1   3 574.165 494.395   4
   8  -1   4 22177.6 1466.14   3
  -8  -1  -4 23797.2 1899.53  11
   8  -1   4 23061.4 1421.40   4
  -8  -1  -5 692.609 782.703  11
   8  -1   5 352.355 461.173   3
   8  -1   5-693.008 563.531   4
  -8   0   9 1084.03 750.334   9
   8   0  -7 1561.56 565.379   3
  -8   0   7 486.225 506.901  11
   8   0  -6 12883.3 1067.88   3
  -8   0   6 12585.1 1155.16  11
   8   0  -6 14366.6 1113.73   4
  -8   0   6 12775.3 1159.02   6
  -8   0   5 3502.86 702.932   6
   8   0  -5 3408.63 629.259   3
  -8   0   5 4145.34 802.844  11
   8   0  -5 4701.64 715.779   4
   8   0  -4 18777.4 1231.05   3
  -8   0   4 17008.3 1331.28  11
   8   0  -4 20777.3 1283.19   4
  -8   0   4 20084.1 1346.40   6
  -8   0   3 2639.10 594.262   6
   8   0  -3 3602.76 616.024   3
  -8   0   3 3610.08 775.218  11
   8   0  -3 3256.26 604.471   4
   8   0  -2 16340.0 1163.04   3
  -8   0   2 13291.5 1261.20  11
   8   0  -2 16974.3 1137.43   4
  -8   0   2 17307.4 1192.72   6
  -8   0   1 5381.95 711.446   6
  -8   0   1 4900.48 867.301  11
   8   0  -1 6006.00 747.562   3
   8   0  -1 5202.09 707.791   4
   8   0   0 12924.3 1030.18   3
  -8   0   0 13663.7 1338.81  11
   8   0   0 14087.0 1041.78   4
  -8   0   0 12895.4 1009.06   6
  -8   0  -1 5718.70 717.852   6
  -8   0  -1 6302.29 1001.16  11
   8   0   1 6806.36 805.673   3
   8   0   1 7194.98 794.410   4
  -8   0  -2 4945.85 954.646  11
   8   0   2 6575.57 817.399   3
   8   0   2 5431.35 744.075   4
  -8   0  -3 7232.42 1121.16  11
   8   0   3 7011.12 830.465   3
   8   0   3 7613.88 844.974   4
  -8   0  -4 3544.55 931.934  11
   8   0   4 3766.08 740.589   3
   8   0   4 2999.96 605.489   4
  -8   0  -5 5949.82 1164.02  11
   8   0   5 6856.45 889.697   3
   8   0   5 5743.13 841.269   4
  -8   1   9 2726.76 853.577   9
  -8   1   8 1682.51 829.625   9
   8   1  -7 5045.10 765.600   3
  -8   1   7 3925.32 1051.20   9
  -8   1   6 2217.99 614.556   6
   8   1  -6 3602.02 655.728   3
  -8   1   6 2532.67 690.639  11
  -8   1   6 2441.45 1031.94   9
   8   1  -6 3335.70 667.889   4
  -8   1   5 1668.12 557.939   6
   8   1  -5 1774.56 537.739   3
  -8   1   5 1573.09 577.108  11
   8   1  -5 1621.10 536.472   4
   8   1  -4 9986.56 929.792   3
  -8   1   4 9073.23 944.444   6
  -8   1   4 10674.2 1119.47  11
   8   1  -4 11000.2 943.727   4
  -8   1   3 4427.38 738.821   6
   8   1  -3 3824.75 644.255   3
  -8   1   3 3732.73 766.386  11
   8   1  -3 4703.13 676.416   4
   8   1  -2 13849.0 1086.31   3
  -8   1   2 14282.2 1306.97  11
   8   1  -2 14561.8 1058.34   4
  -8   1   2 14055.7 1090.07   6
  -8   1   1 912.996 470.241   6
  -8   1   1 391.139 630.620  11
   8   1  -1 881.715 444.450   3
   8   1  -1 797.070 507.088   4
   8   1   0 22872.4 1377.69   3
  -8   1   0 22393.6 1680.37  11
   8   1   0 21736.9 1289.24   4
  -8   1   0 22080.9 1327.42   6
  -8   1  -1 1479.97 502.391   6
  -8   1  -1 1669.86 700.615  11
   8   1   1 2592.20 580.426   3
   8   1   1 2574.22 542.240   4
   8   1   2 20080.1 1351.36   3
  -8   1  -2 20406.8 1685.11  11
   8   1   2 22250.4 1339.93   4
  -8   1  -3-413.622 657.879  11
   8   1   3 844.138 543.766   3
   8   1   3 442.859 427.901   4
   8   1   4 24796.6 1539.67   3
  -8   1  -4 23499.4 1869.83  11
   8   1   4 23414.8 1432.58   4
  -8   1  -4 22077.4 1247.33   7
  -8   1  -5-34.2236 745.625  11
   8   1   5 510.068 521.001   3
  -8   1  -5 470.173 746.277   9
   8   1   5-284.654 459.033   4
  -8   1  -6 12425.3 1484.10  11
  -8   1  -6 12691.4 1485.60   9
  -8   1  -7 1017.73 767.029   9
  -8   2   8 7898.86 1258.98   9
  -8   2   7 5469.94 1148.30   9
  -8   2   6 8912.96 1003.97   6
   8   2  -6 8186.83 893.922   3
  -8   2   6 6037.43 1246.77   9
   8   2  -6 9217.89 936.634   4
   8   2  -5 10701.9 986.888   3
  -8   2   5 10154.7 1041.13   6
  -8   2   5 11494.8 1178.17  11
  -8   2   5 9467.15 1578.64   9
   8   2  -5 10804.3 941.880   4
   8   2  -4 11385.4 997.845   3
  -8   2   4 9987.43 1010.38   6
  -8   2   4 9644.74 1094.26  11
  -8   2   4 10225.1 1743.66   9
   8   2  -4 9114.33 873.907   4
   8   2  -3 10319.9 958.225   3
  -8   2   3 10029.2 1100.02  11
  -8   2   3 8829.86 1740.28   9
   8   2  -3 11268.3 949.949   4
  -8   2   3 10750.7 991.902   6
  -8   2   2 6563.91 819.518   6
   8   2  -2 4494.70 670.310   3
  -8   2   2 4497.18 815.087  11
  -8   2   2 3843.63 1529.39   9
   8   2  -2 5771.70 733.492   4
   8   2  -1 15536.1 1137.02   3
  -8   2   1 12671.8 1306.98  11
  -8   2   1 12844.8 2304.73   9
   8   2  -1 14063.3 1050.02   4
  -8   2   1 14254.7 1114.26   6
  -8   2   0 4344.89 690.330   6
  -8   2   0 5063.16 915.577  11
   8   2   0 4131.87 679.894   3
  -8   2   0 5472.19 1750.39   9
   8   2   0 3738.81 640.331   4
   8   2   1 9482.14 955.288   3
  -8   2  -1 10346.9 1242.26  11
  -8   2  -1 11819.9 2003.03   9
   8   2   1 9976.17 913.820   4
  -8   2  -2 835.252 712.629  11
   8   2   2 884.373 536.951   3
  -8   2  -2 1881.90 1103.68   9
   8   2   2 416.575 420.856   4
  -8   2  -3 8732.42 1177.05  11
   8   2   3 9480.15 978.749   3
  -8   2  -3 8753.83 1487.87   9
   8   2   3 9675.28 930.152   4
  -8   2  -4-721.792 633.949  11
   8   2   4 674.117 555.580   3
  -8   2  -4 1217.33 925.388   9
   8   2   4 133.826 439.939   4
  -8   2  -4 833.635 437.545   7
  -8   2  -5 5001.43 984.234  11
   8   2   5 7757.40 959.357   3
  -8   2  -5 5663.02 1137.21   9
  -8   2  -5 6642.21 777.789   7
  -8   2  -6-108.482 777.668  11
  -8   2  -6-198.900 662.532   9
  -8   2  -6 692.338 446.067   7
  -8   2  -7 4073.44 945.835   9
  -8   2  -7 3511.10 690.935   7
  -8   3   8 949.122 758.864   9
  -8   3   7 2743.24 1014.17   9
  -8   3   6 2601.10 1058.68   9
  -8   3   5 1457.17 613.669   6
   8   3  -5 2392.78 656.984   3
  -8   3   5 669.902 890.198   9
   8   3  -5 496.266 475.490   4
  -8   3   4 6933.75 866.930   6
   8   3  -4 7082.74 840.330   3
  -8   3   4 6954.60 994.811  11
  -8   3   4 8746.52 1680.53   9
   8   3  -4 7204.48 799.664   4
  -8   3   3 2727.14 684.055   6
   8   3  -3 2120.81 579.582   3
  -8   3   3 2911.23 737.404  11
  -8   3   3 2051.47 1297.96   9
   8   3  -3 2516.02 567.513   4
   8   3  -2 10309.4 996.667   3
  -8   3   2 8434.06 905.031   6
  -8   3   2 8676.36 1138.43  11
  -8   3   2 10717.6 2044.97   9
   8   3  -2 11225.3 941.266   4
  -8   3   1 34.4640 458.344   6
   8   3  -1-366.665 508.307   3
  -8   3   1 244.048 592.347  11
  -8   3   1-1254.77 1272.82   9
   8   3  -1 325.130 391.878   4
   8   3   0 18629.8 1291.96   3
  -8   3   0 14699.9 1469.10  11
  -8   3   0 18868.7 2718.58   9
   8   3   0 17017.5 1154.19   4
  -8   3   0 16193.1 1203.76   6
  -8   3  -1 755.569 779.273  11
   8   3   1 1176.27 484.316   3
  -8   3  -1 918.640 1407.84   9
   8   3   1 359.743 415.961   4
   8   3   2 17257.8 1263.78   3
  -8   3  -2 17289.6 1585.68  11
  -8   3  -2 16446.0 2104.87   9
   8   3   2 16681.4 1153.19   4
  -8   3  -3 1944.87 860.247  11
   8   3   3 499.885 479.568   3
  -8   3  -3 997.226 924.721   9
   8   3   3 71.3348 422.151   4
   8   3   4 18658.8 1351.04   3
  -8   3  -4 15580.5 1595.37  11
  -8   3  -4 15897.6 1827.69   9
   8   3   4 15663.5 1179.00   4
  -8   3  -4 15918.9 1125.68   7
  -8   3  -5 466.250 754.833  11
  -8   3  -5 556.849 785.996   9
  -8   3  -5 987.427 532.102   7
  -8   3  -6 10189.0 1418.77   9
  -8   3  -6 12524.2 1062.34   7
  -8   3  -7 1925.38 607.041   7
  -8   4   7 1330.81 873.450   9
  -8   4   6 11421.9 1695.50   9
  -8   4   5 5802.66 881.290   6
  -8   4   5 3904.30 1177.41   9
   8   4  -5 4920.19 751.362   4
   8   4  -4 15291.5 1187.34   3
  -8   4   4 14229.2 1973.32   9
   8   4  -4 15187.1 1122.45   4
  -8   4   4 14029.4 1196.96   6
  -8   4   3 3600.72 711.083   6
   8   4  -3 4433.44 731.156   3
  -8   4   3 3306.17 805.444  11
  -8   4   3 3376.10 1518.62   9
   8   4  -3 3908.70 631.969   4
   8   4  -2 11489.0 1019.07   3
  -8   4   2 10570.7 1245.02  11
  -8   4   2 11522.0 2148.45   9
   8   4  -2 12464.8 1008.47   4
  -8   4   2 11413.8 1048.50   6
  -8   4   1 5986.42 813.075   6
   8   4  -1 6767.64 819.140   3
  -8   4   1 6401.80 991.506  11
  -8   4   1 7310.72 1985.18   9
   8   4  -1 6338.16 733.761   4
   8   4   0 11849.7 1044.41   3
  -8   4   0 11458.8 1301.73  11
  -8   4   0 14776.0 2625.74   9
   8   4   0 11586.4 986.024   4
  -8   4  -1 3782.82 878.584  11
   8   4   1 5978.73 845.663   3
  -8   4  -1 3036.14 1513.24   9
   8   4   1 4791.87 697.608   4
  -8   4  -2 7240.58 1172.70  11
   8   4   2 4817.67 748.726   3
  -8   4  -2 7221.75 1554.99   9
   8   4   2 6087.19 750.240   4
  -8   4  -3 6602.71 1107.35  11
   8   4   3 5025.12 760.965   3
  -8   4  -3 3356.18 1129.31   9
   8   4   3 5736.69 779.763   4
  -8   4  -4 2228.72 829.564  11
   8   4   4 3482.22 691.308   3
  -8   4  -4 2328.58 966.438   9
   8   4   4 3481.95 660.946   4
  -8   4  -4 3511.36 640.235   7
  -8   4  -5 3856.65 978.210  11
  -8   4  -5 4051.78 1133.04   9
  -8   4  -5 3887.73 673.891   7
  -8   4  -6 1693.74 558.543   7
  -8   5   5 2450.65 1086.78   9
  -8   5   4 3327.72 708.504   6
  -8   5   4 2343.61 1180.32   9
   8   5  -4 3476.66 613.612   4
  -8   5   3 2505.25 709.129   6
   8   5  -3 2940.15 709.397   3
  -8   5   3 1888.11 1275.80   9
   8   5  -3 1524.31 522.089   4
  -8   5   2 4269.74 725.382   6
   8   5  -2 5566.66 820.029   3
  -8   5   2 3651.49 914.932  11
  -8   5   2 6532.85 1976.96   9
   8   5  -2 5232.67 691.388   4
   8   5  -1 531.518 502.433   3
  -8   5   1 309.189 685.433  11
  -8   5   1 1162.32 1626.99   9
   8   5  -1 167.344 416.439   4
   8   5   0 8919.64 955.970   3
  -8   5   0 9567.81 1253.40  11
  -8   5   0 9046.38 2118.61   9
   8   5   0 9879.65 895.943   4
   8   5   1 534.058 567.404   3
  -8   5  -1-619.232 795.310  11
  -8   5  -1 1471.07 1317.83   9
   8   5   1 437.845 464.830   4
   8   5   2 7991.02 900.819   3
  -8   5  -2 6093.26 1073.75  11
   8   5   2 7124.12 793.382   4
   8   5   3 1720.23 596.472   5
  -8   5  -3 1342.31 720.010  11
   8   5   3 924.624 565.029   3
  -8   5  -3 202.037 1025.19   9
   8   5   3 2442.22 592.791   4
  -8   5  -4 9333.32 1337.27  11
  -8   5  -4 10605.0 979.578   7
   8   6  -3 10637.2 958.509   4
   8   6  -2 3399.03 635.779   4
   8   6  -1 10003.9 1029.10   3
   8   6  -1 10849.1 948.535   4
   8   6   0 2617.89 657.780   3
   8   6   0 3019.27 613.749   4
   8   6   1 8383.35 958.216   3
   8   6   1 8939.38 901.480   4
   8   6   2 219.815 534.406   5
   8   6   2 1421.60 541.129   4
   8   6   3 4697.47 816.164   5
   8   6   4 3135.83 714.662   5
   8   7  -2 2860.89 600.725   4
   8   7  -1 1508.50 489.329   4
   8   7   0 5235.23 734.258   4
   8   7   1 1843.59 702.561   5
   8   7   1 2501.37 587.396   4
   8   7   2 4171.41 827.956   5
   8   7   3 2927.41 727.035   5
   0   0   0    0.00    0.00   0

TITL MHy_PbBr3_1503-abs in P2(1)
REM P2(1) (#4 in standard setting)
CELL 0.71073   5.970132  11.829124  11.858154  90.0000  92.3613  90.0000
ZERR    2.00   0.000097   0.000211   0.000191   0.0000   0.0016   0.0000
LATT -1
SYMM -x, y+1/2,-z
SFAC C H N Br Pb
UNIT 8.00 56.00 16.00 24.00 8.00
TREF
HKLF 4
END
;
_shelx_hkl_checksum              78943
loop_
_space_group_symop_operation_xyz
'x, y, z'
'-x, y+1/2, -z'
loop_
_atom_site_label
_atom_site_type_symbol
_atom_site_fract_x
_atom_site_fract_y
_atom_site_fract_z
_atom_site_U_iso_or_equiv
_atom_site_adp_type
_atom_site_occupancy
_atom_site_site_symmetry_order
_atom_site_calc_flag
_atom_site_refinement_flags_posn
_atom_site_refinement_flags_adp
Pb1 Pb 0.51011(5) 0.49392(2) 0.51204(2) 0.01929(8) Uani 1 1 d . .
Pb2 Pb 0.40829(5) 0.46484(3) 1.00298(3) 0.02524(10) Uani 1 1 d . .
Br1 Br 0.90506(13) 0.53960(8) 1.03297(8) 0.0305(2) Uani 1 1 d . .
Br2 Br 0.61874(15) 0.24115(9) 0.98517(9) 0.0355(2) Uani 1 1 d . .
Br3 Br 0.50251(15) 0.47941(13) 0.25838(7) 0.0424(2) Uani 1 1 d . .
Br4 Br 0.01271(13) 0.47763(11) 0.51776(10) 0.0478(3) Uani 1 1 d . .
Br5 Br 0.47598(19) 0.24502(11) 0.52319(11) 0.0493(3) Uani 1 1 d . .
Br6 Br 0.54241(19) 0.50914(12) 0.76128(8) 0.0500(3) Uani 1 1 d . .
C1 C -0.007(2) 0.2064(10) 0.7038(10) 0.044(3) Uani 1 1 d . .
H1A H -0.116664 0.170101 0.748313 0.067 Uiso 1 1 calc R U
H1B H 0.059241 0.151728 0.655464 0.067 Uiso 1 1 calc R U
H1C H -0.077640 0.264700 0.658641 0.067 Uiso 1 1 calc R U
N1 N 0.1679(13) 0.2565(8) 0.7786(7) 0.038(2) Uani 1 1 d . .
H1D H 0.223174 0.202674 0.824209 0.046 Uiso 1 1 calc R U
H1E H 0.278825 0.280140 0.736538 0.046 Uiso 1 1 calc R U
N2 N 0.0982(15) 0.3486(7) 0.8460(8) 0.041(2) Uani 1 1 d . .
H2A H -0.010250 0.383830 0.809544 0.049 Uiso 1 1 d R U
H2B H 0.047040 0.325539 0.909677 0.049 Uiso 1 1 d R U
C2 C -0.056(2) 0.2353(10) 1.2977(10) 0.049(3) Uani 1 1 d . .
H20A H -0.151759 0.184733 1.254466 0.073 Uiso 1 1 calc R U
H20B H -0.139568 0.269012 1.356561 0.073 Uiso 1 1 calc R U
H20C H 0.068529 0.194000 1.330539 0.073 Uiso 1 1 calc R U
N3 N 0.0262(15) 0.3243(8) 1.2237(8) 0.046(2) Uani 1 1 d . .
H3A H -0.091260 0.361994 1.194259 0.055 Uiso 1 1 calc R U
H3B H 0.107606 0.372680 1.265644 0.055 Uiso 1 1 calc R U
N4 N 0.1587(15) 0.2861(7) 1.1333(7) 0.043(2) Uani 1 1 d . .
H4A H 0.275730 0.249445 1.160103 0.052 Uiso 1 1 d R U
H4B H 0.081348 0.240828 1.088710 0.052 Uiso 1 1 d R U
loop_
_atom_site_aniso_label
_atom_site_aniso_U_11
_atom_site_aniso_U_22
_atom_site_aniso_U_33
_atom_site_aniso_U_23
_atom_site_aniso_U_13
_atom_site_aniso_U_12
Pb1 0.02011(14) 0.01828(16) 0.01950(15) 0.00071(12) 0.00110(10) -0.00018(11)
Pb2 0.02709(17) 0.02573(19) 0.02276(17) -0.00176(12) -0.00048(12) 0.00234(13)
Br1 0.0200(4) 0.0287(5) 0.0427(5) -0.0034(4) 0.0015(4) -0.0008(3)
Br2 0.0276(4) 0.0202(5) 0.0592(7) 0.0003(5) 0.0078(4) 0.0024(4)
Br3 0.0476(5) 0.0606(7) 0.0190(4) -0.0027(5) 0.0004(4) -0.0071(6)
Br4 0.0198(4) 0.0439(8) 0.0799(8) 0.0093(6) 0.0030(4) 0.0015(4)
Br5 0.0477(6) 0.0184(5) 0.0825(10) -0.0004(6) 0.0113(5) -0.0009(5)
Br6 0.0598(6) 0.0727(9) 0.0176(4) 0.0024(5) 0.0030(4) -0.0056(6)
C1 0.053(7) 0.049(7) 0.030(6) -0.006(5) -0.006(5) -0.009(5)
N1 0.035(4) 0.051(5) 0.030(5) -0.009(4) 0.004(3) 0.004(4)
N2 0.040(5) 0.038(5) 0.045(5) -0.010(4) 0.001(4) 0.002(4)
C2 0.060(7) 0.044(6) 0.043(6) 0.004(5) 0.015(5) -0.010(6)
N3 0.041(5) 0.048(5) 0.049(5) -0.001(4) 0.013(4) 0.004(4)
N4 0.046(5) 0.042(5) 0.043(5) -0.007(4) 0.014(4) -0.003(4)
loop_
_atom_type_symbol
_atom_type_description
_atom_type_scat_dispersion_real
_atom_type_scat_dispersion_imag
_atom_type_scat_source
C C 0.0033 0.0016 'International Tables Vol C Tables 4.2.6.8 and 6.1.1.4'
H H 0.0000 0.0000 'International Tables Vol C Tables 4.2.6.8 and 6.1.1.4'
N N 0.0061 0.0033 'International Tables Vol C Tables 4.2.6.8 and 6.1.1.4'
Br Br -0.2901 2.4595 'International Tables Vol C Tables 4.2.6.8 and 6.1.1.4'
Pb Pb -3.3944 10.1111 'International Tables Vol C Tables 4.2.6.8 and 6.1.1.4'
loop_
_exptl_crystal_face_index_h
_exptl_crystal_face_index_k
_exptl_crystal_face_index_l
_exptl_crystal_face_perp_dist
-9 -4 -10 0.0677
8 0 4 0.0772
0 0 -17 0.0169
0 0 17 0.0169
0 17 0 0.0567
0 -17 0 0.0567
loop_
_geom_angle_atom_site_label_1
_geom_angle_atom_site_label_2
_geom_angle_atom_site_label_3
_geom_angle
_geom_angle_site_symmetry_1
_geom_angle_site_symmetry_3
Br5 Pb1 Br6 91.02(4) . .
Br5 Pb1 Br4 82.18(3) . .
Br6 Pb1 Br4 90.30(3) . .
Br5 Pb1 Br5 174.168(11) . 2_656
Br6 Pb1 Br5 94.46(4) . 2_656
Br4 Pb1 Br5 95.77(3) . 2_656
Br5 Pb1 Br4 90.33(3) . 1_655
Br6 Pb1 Br4 87.56(3) . 1_655
Br4 Pb1 Br4 172.17(5) . 1_655
Br5 Pb1 Br4 91.91(3) 2_656 1_655
Br5 Pb1 Br3 89.41(4) . .
Br6 Pb1 Br3 177.12(3) . .
Br4 Pb1 Br3 92.58(3) . .
Br5 Pb1 Br3 85.22(4) 2_656 .
Br4 Pb1 Br3 89.59(3) 1_655 .
Br2 Pb2 Br6 87.57(3) . .
Br2 Pb2 Br3 93.44(4) . 1_556
Br6 Pb2 Br3 150.95(3) . 1_556
Br2 Pb2 Br1 81.69(3) . .
Br6 Pb2 Br1 76.83(3) . .
Br3 Pb2 Br1 74.61(3) 1_556 .
Br2 Pb2 Br1 132.04(3) . 1_455
Br6 Pb2 Br1 110.14(3) . 1_455
Br3 Pb2 Br1 90.55(3) 1_556 1_455
Br1 Pb2 Br1 144.58(3) . 1_455
Pb2 Br1 Pb2 144.58(3) . 1_655
Pb1 Br3 Pb2 170.29(4) . 1_554
Pb1 Br4 Pb1 172.17(5) . 1_455
Pb1 Br5 Pb1 167.87(5) . 2_646
Pb1 Br6 Pb2 156.69(5) . .
N1 C1 H1A 109.5 . .
N1 C1 H1B 109.5 . .
H1A C1 H1B 109.5 . .
N1 C1 H1C 109.5 . .
H1A C1 H1C 109.5 . .
H1B C1 H1C 109.5 . .
N2 N1 C1 115.5(8) . .
N2 N1 H1D 108.4 . .
C1 N1 H1D 108.4 . .
N2 N1 H1E 108.4 . .
C1 N1 H1E 108.4 . .
H1D N1 H1E 107.5 . .
N1 N2 H2A 108.5 . .
N1 N2 H2B 111.7 . .
H2A N2 H2B 107.5 . .
N3 C2 H20A 109.5 . .
N3 C2 H20B 109.5 . .
H20A C2 H20B 109.5 . .
N3 C2 H20C 109.5 . .
H20A C2 H20C 109.5 . .
H20B C2 H20C 109.5 . .
N4 N3 C2 115.6(9) . .
N4 N3 H3A 108.4 . .
C2 N3 H3A 108.4 . .
N4 N3 H3B 108.4 . .
C2 N3 H3B 108.4 . .
H3A N3 H3B 107.5 . .
N3 N4 H4A 110.1 . .
N3 N4 H4B 110.6 . .
H4A N4 H4B 108.2 . .
loop_
_geom_bond_atom_site_label_1
_geom_bond_atom_site_label_2
_geom_bond_distance
_geom_bond_site_symmetry_2
Pb1 Br5 2.9546(13) .
Pb1 Br6 2.9593(9) .
Pb1 Br4 2.9793(9) .
Pb1 Br5 3.0012(13) 2_656
Pb1 Br4 3.0047(9) 1_655
Pb1 Br3 3.0113(9) .
Pb2 Br2 2.9405(11) .
Pb2 Br6 3.0528(10) .
Pb2 Br3 3.0624(9) 1_556
Pb2 Br1 3.1012(9) .
Pb2 Br1 3.1658(9) 1_455
C1 N1 1.466(13) .
C1 H1A 0.9600 .
C1 H1B 0.9600 .
C1 H1C 0.9600 .
N1 N2 1.423(11) .
N1 H1D 0.8900 .
N1 H1E 0.8900 .
N2 H2A 0.8697 .
N2 H2B 0.8701 .
C2 N3 1.469(13) .
C2 H20A 0.9600 .
C2 H20B 0.9600 .
C2 H20C 0.9600 .
N3 N4 1.431(11) .
N3 H3A 0.8900 .
N3 H3B 0.8900 .
N4 H4A 0.8713 .
N4 H4B 0.8717 .
loop_
_geom_hbond_atom_site_label_D
_geom_hbond_atom_site_label_H
_geom_hbond_atom_site_label_A
_geom_hbond_distance_DH
_geom_hbond_distance_HA
_geom_hbond_distance_DA
_geom_hbond_angle_DHA
_geom_hbond_site_symmetry_A
_geom_hbond_publ_flag
N1 H1D Br1 0.89 2.70 3.442(10) 141.8 2_647 yes
N1 H1E Br5 0.89 2.86 3.610(8) 142.3 . yes
N2 H2A Br6 0.87 3.09 3.918(9) 160.5 1_455 yes
N2 H2B Br2 0.87 2.92 3.594(9) 135.7 1_455 yes
N3 H3A Br1 0.89 2.84 3.463(9) 128.2 1_455 yes
N3 H3A Br3 0.89 2.92 3.663(9) 141.7 1_456 yes
N3 H3B Br3 0.89 2.68 3.395(9) 138.3 1_556 yes
N4 H4B Br1 0.87 2.79 3.532(9) 144.4 2_647 yes
N4 H4B Br2 0.87 2.98 3.646(10) 135.2 1_455 yes
loop_
_exptl_oxdiff_crystal_face_indexfrac_h
_exptl_oxdiff_crystal_face_indexfrac_k
_exptl_oxdiff_crystal_face_indexfrac_l
_exptl_oxdiff_crystal_face_x
_exptl_oxdiff_crystal_face_y
_exptl_oxdiff_crystal_face_z
-8.9974 -4.0055 -9.9922 -0.6149 -0.7385 0.8302
7.9953 0.0011 3.9994 0.2533 0.4678 -0.8347
-0.0002 -0.0007 -16.9896 -1.0167 -0.0086 0.0262
0.0002 0.0007 16.9896 1.0167 0.0086 -0.0262
0.0015 16.9922 0.0017 0.0055 0.8883 0.4992
-0.0015 -16.9922 -0.0017 -0.0055 -0.8883 -0.4992
