#------------------------------------------------------------------------------
#$Date: 2020-02-21 01:19:45 +0200 (Fri, 21 Feb 2020) $
#$Revision: 248324 $
#$URL: file:///home/coder/svn-repositories/cod/cif/4/00/34/4003484.cif $
#------------------------------------------------------------------------------
#
# This file is available in the Crystallography Open Database (COD),
# http://www.crystallography.net/
#
# All data on this site have been placed in the public domain by the
# contributors.
#
data_4003484
loop_
_publ_author_name
'Li, Sunsun'
'Zhao, Wenchao'
'Zhang, Jianqi'
'Liu, Xiaoyu'
'Zheng, Zhong'
'He, Chang'
'Xu, Bowei'
'Wei, Zhixiang'
'Hou, Jianhui'
_publ_section_title
;
 Influence of Covalent and Noncovalent Backbone Rigidification Strategies
 on the Aggregation Structures of a Wide-Band-Gap Polymer for Photovoltaic
 Cells
;
_journal_name_full               'Chemistry of Materials'
_journal_paper_doi               10.1021/acs.chemmater.9b04971
_journal_year                    2020
_chemical_formula_moiety         'C18 H12 O4 S4'
_chemical_formula_sum            'C18 H12 O4 S4'
_chemical_formula_weight         420.52
_space_group_crystal_system      triclinic
_space_group_IT_number           2
_space_group_name_Hall           '-P 1'
_space_group_name_H-M_alt        'P -1'
_atom_sites_solution_hydrogens   geom
_atom_sites_solution_primary     iterative
_audit_creation_date             2019-08-29
_audit_creation_method
;
Olex2 1.2
(compiled 2018.05.29 svn.r3508 for OlexSys, GUI svn.r5506)
;
_cell_angle_alpha                72.490(4)
_cell_angle_beta                 86.288(3)
_cell_angle_gamma                69.213(3)
_cell_formula_units_Z            1
_cell_length_a                   6.0661(2)
_cell_length_b                   7.2535(3)
_cell_length_c                   10.8143(4)
_cell_measurement_reflns_used    8743
_cell_measurement_temperature    169.99(10)
_cell_measurement_theta_max      74.0200
_cell_measurement_theta_min      6.7950
_cell_volume                     423.78(3)
_computing_cell_refinement       'CrysAlisPro 1.171.40.14e (Rigaku OD, 2018)'
_computing_data_collection       'CrysAlisPro 1.171.40.14e (Rigaku OD, 2018)'
_computing_data_reduction        'CrysAlisPro 1.171.40.14e (Rigaku OD, 2018)'
_computing_molecular_graphics    'Olex2 (Dolomanov et al., 2009)'
_computing_publication_material  'Olex2 (Dolomanov et al., 2009)'
_computing_structure_refinement  'olex2.refine (Bourhis et al., 2015)'
_computing_structure_solution    'olex2.solve (Bourhis et al., 2015)'
_diffrn_ambient_environment      N~2~
_diffrn_ambient_temperature      169.99(10)
_diffrn_detector                 'CCD plate'
_diffrn_detector_type            HyPix
_diffrn_measured_fraction_theta_full 0.997
_diffrn_measured_fraction_theta_max 0.892
_diffrn_measurement_details
;
List of Runs (angles in degrees, time in seconds):

  # Type    Start    End  Width  t~exp~   \w     \q     \k     \f   Frames
--------------------------------------------------------------------------
  1  \w   -119.00 -56.00   0.50    0.05    --  -46.95-147.00  32.00  126
  2  \w   -107.00 -22.00   0.50    0.05    --  -46.95 147.00  82.00  170
  3  \w   -119.00 -71.00   0.50    0.05    --  -46.95-125.00-161.00   96
  4  \w    -95.00 -10.00   0.50    0.05    --  -46.95 125.00 -83.00  170
  5  \w     62.00 119.00   0.50    0.05    --   46.95 147.00  82.00  114
  6  \w     28.00 107.00   0.50    0.05    --   46.95-147.00  32.00  158
  7  \w     16.00  95.00   0.50    0.05    --   46.95-125.00-161.00  158
  8  \w   -117.00 -26.00   0.50    0.05    --  -99.00 125.00 -83.00  182
  9  \w   -132.00 -26.00   0.50    0.05    --  -99.00 147.00  82.00  212
 10  \w   -168.00 -71.00   0.50    0.05    --  -99.00-125.00-161.00  194
 11  \w   -168.00 -56.00   0.50    0.05    --  -99.00-147.00  32.00  224
 12  \w     31.00 132.00   0.50    0.05    --  103.25-147.00  32.00  202
 13  \w     62.00 169.00   0.50    0.05    --  103.25 147.00  82.00  214
 14  \w     31.00 117.00   0.50    0.05    --  103.25-125.00-161.00  172
 15  \w     77.00 169.00   0.50    0.05    --  103.25 125.00 -83.00  184
 16  \w    -52.00 -26.00   0.50    0.05    --   14.00 155.00   8.29   52
 17  \w     17.00  45.00   0.50    0.05    --   46.00  90.00 -93.57   56
 18  \w     16.00  44.00   0.50    0.05    --   46.00  92.00  93.09   56
 19  \w   -120.00 -34.00   0.50    0.05    --  -46.95 -38.00 -60.00  172
 20  \w   -119.00 -30.00   0.50    0.05    --  -46.95 -61.00 -78.76  178
 21  \w     34.00 121.00   0.50    0.05    --   46.95  19.00  90.00  174
 22  \w     32.00 118.00   0.50    0.05    --   46.95  57.00  30.00  172
 23  \w     24.00 119.00   0.50    0.05    --   46.95  77.00   0.00  190
 24  \w     25.00 122.00   0.50    0.05    --   50.00  83.00-151.57  194
 25  \w     31.00 122.00   0.50    0.05    --   50.00  67.00 -54.85  182
 26  \w     31.00 126.00   0.50    0.05    --   54.00  77.00 178.10  190
 27  \w     30.00 126.00   0.50    0.05    --   54.00  80.00 140.15  192
 28  \w     33.00 126.00   0.50    0.05    --   54.00  73.00-115.57  186
 29  \w     33.00 126.00   0.50    0.05    --   54.00  72.00  43.65  186
 30  \w     37.00 126.00   0.50    0.05    --   54.00  63.00 101.82  178
 31  \w   -139.00 -41.00   0.50    0.05    --  -66.00 -81.00-127.60  196
 32  \w   -139.00 -48.00   0.50    0.05    --  -66.00 -65.00   1.91  182
 33  \w   -139.00 -47.00   0.50    0.05    --  -66.00 -67.00 128.81  184
 34  \w   -139.00 -42.00   0.50    0.05    --  -66.00 -79.00  -7.56  194
 35  \w   -143.00 -46.00   0.50    0.05    --  -70.00 -80.00 126.33  194
 36  \w   -143.00 -51.00   0.50    0.05    --  -70.00 -67.00  86.06  184
 37  \w    -72.00 -45.00   0.50    0.05    --  -70.00 -82.00 179.32   54
 38  \w   -101.00 -55.00   0.50    0.05    --  -70.00 -58.00-122.18   92
 39  \w    -76.00 -51.00   0.50    0.05    --  -70.00 -67.00  61.49   50
 40  \w     48.00  74.00   0.50    0.05    --   70.00  76.00 -60.61   52
 41  \w    -86.00 -59.00   0.50    0.05    --  -74.00 -63.00  15.58   54
 42  \w   -144.00-117.00   0.50    0.05    --  -74.00 -63.00  15.58   54
 43  \w    -84.00 -58.00   0.50    0.05    --  -78.00 -71.00 144.87   52
 44  \w    -88.00 -61.00   0.50    0.05    --  -78.00 -65.00  38.53   54
 45  \w    -88.00 -61.00   0.50    0.05    --  -78.00 -66.00  59.41   54
 46  \w    -82.00 -56.00   0.50    0.05    --  -78.00 -74.00 -49.13   52
 47  \w    -94.00 -63.00   0.50    0.05    --  -78.00 -56.00 -56.16   62
 48  \w    -92.00 -63.00   0.50    0.05    --  -78.00 -59.00-164.93   58
 49  \w    -92.00 -65.00   0.50    0.05    --  -82.00 -61.00  -2.58   54
 50  \w    -99.00 -67.00   0.50    0.05    --  -82.00 -63.00  22.04   64
 51  \w    -89.00 -62.00   0.50    0.05    --  -82.00 -73.00 -78.56   54
 52  \w   -100.00 -62.00   0.50    0.05    --  -82.00 -73.00 -64.59   76
 53  \w    -82.00 -56.00   0.50    0.05    --  -82.00 -83.00 117.93   52
 54  \w   -100.00 -68.00   0.50    0.05    --  -86.00 -66.00 133.79   64
 55  \w   -104.00 -65.00   0.50    0.05    --  -86.00 -73.00  88.72   78
 56  \w   -100.00 -73.00   0.50    0.05    --  -90.00 -64.00 163.51   54
 57  \w   -100.00 -75.00   0.50    0.05    --  -90.00 -58.00-174.03   50
 58  \w    -99.00 -74.00   0.50    0.05    --  -90.00 -59.00 -18.21   50
 59  \w   -161.00-120.00   0.50    0.05    --  -90.00 -59.00 -18.21   82
 60  \w   -147.00-120.00   0.50    0.05    --  -90.00 -58.00-174.03   54
 61  \w   -128.00 -76.00   0.50    0.05    --  -90.00 -58.00-131.76  104
 62  \w   -102.00 -70.00   0.50    0.05    --  -90.00 -74.00 -99.02   64
 63  \w   -161.00-108.00   0.50    0.05    --  -90.00 -74.00 -99.02  106
 64  \w   -103.00 -76.00   0.50    0.05    --  -94.00 -65.00 172.37   54
 65  \w   -109.00 -75.00   0.50    0.05    --  -98.00 -77.00 -64.27   68
 66  \w   -101.00 -75.00   0.50    0.05    --  -98.00 -77.00  87.64   52
 67  \w   -109.00 -82.00   0.50    0.05    --  -99.00 -77.00   0.00   54
 68  \w    -70.00 -37.00   0.50    0.05    --  -99.00  77.00 120.00   66
 69  \w   -102.00 -77.00   0.50    0.05    --  -99.00 -77.00  60.00   50
 70  \w   -122.00 -75.00   0.50    0.05    --  -99.00  77.00 120.00   94
 71  \w   -152.00-125.00   0.50    0.05    --  -99.00 -77.00  60.00   54
 72  \w   -108.00 -81.00   0.50    0.05    --  -99.00 -68.00  26.24   54
 73  \w   -160.00 -80.00   0.50    0.05    --  -99.00 -68.00   7.34  160
 74  \w   -107.00 -81.00   0.50    0.05    --  -99.00 -65.00-179.27   52
 75  \w   -167.00-114.00   0.50    0.05    --  -99.00 -77.00-150.00  106
 76  \w   -127.00 -83.00   0.50    0.05    --  -99.00 -61.00-180.00   88
 77  \w   -156.00 -87.00   0.50    0.05    --  -99.00 -61.00 150.00  138
 78  \w   -108.00 -76.00   0.50    0.05    --  -99.00 -76.00  70.21   64
 79  \w   -117.00 -76.00   0.50    0.05    --  -99.00 -77.00 150.00   82
 80  \w   -112.00 -35.00   0.50    0.05    --  -99.00  61.00 -90.00  154
 81  \w   -164.00-117.00   0.50    0.05    --  -99.00 -94.00  60.00   94
 82  \w   -106.00 -77.00   0.50    0.05    --  -99.00 -79.00 -36.31   58
 83  \w   -151.00 -78.00   0.50    0.05    --  -99.00 -79.00 -70.38  146
 84  \w   -150.00-122.00   0.50    0.05    --  -99.00 -79.00 -36.31   56
 85  \w   -162.00 -75.00   0.50    0.05    --  -99.00 -80.00 130.95  174
 86  \w   -108.00 -78.00   0.50    0.05    --  -99.00 -77.00-120.00   60
 87  \w   -117.00 -35.00   0.50    0.05    --  -99.00 125.00-120.00  164
 88  \w     34.00 120.00   0.50    0.05    --  103.25 -61.00   0.00  172
 89  \w     81.00 169.00   0.50    0.05    --  103.25  77.00  30.00  176
;
_diffrn_measurement_device       'four-circle diffractometer'
_diffrn_measurement_device_type  'XtaLAB Synergy R, HyPix'
_diffrn_measurement_method       '\w scans'
_diffrn_orient_matrix_type
'CrysAlisPro convention (1999,Acta A55,543-557)'
_diffrn_orient_matrix_UB_11      0.2313469000
_diffrn_orient_matrix_UB_12      -0.1307986000
_diffrn_orient_matrix_UB_13      0.0825032000
_diffrn_orient_matrix_UB_21      -0.1331949000
_diffrn_orient_matrix_UB_22      0.0210955000
_diffrn_orient_matrix_UB_23      0.1241195000
_diffrn_orient_matrix_UB_31      -0.0518953000
_diffrn_orient_matrix_UB_32      -0.1976900000
_diffrn_orient_matrix_UB_33      0.0122798000
_diffrn_radiation_monochromator  mirror
_diffrn_radiation_probe          x-ray
_diffrn_radiation_type           CuK\a
_diffrn_radiation_wavelength     1.54184
_diffrn_reflns_av_R_equivalents  0.0794
_diffrn_reflns_av_unetI/netI     0.0323
_diffrn_reflns_Laue_measured_fraction_full 0.997
_diffrn_reflns_Laue_measured_fraction_max 0.892
_diffrn_reflns_limit_h_max       7
_diffrn_reflns_limit_h_min       -7
_diffrn_reflns_limit_k_max       7
_diffrn_reflns_limit_k_min       -9
_diffrn_reflns_limit_l_max       13
_diffrn_reflns_limit_l_min       -13
_diffrn_reflns_number            14399
_diffrn_reflns_point_group_measured_fraction_full 0.997
_diffrn_reflns_point_group_measured_fraction_max 0.892
_diffrn_reflns_theta_full        67.684
_diffrn_reflns_theta_max         82.320
_diffrn_reflns_theta_min         4.292
_diffrn_source                   'Rotating-anode X-ray tube'
_diffrn_source_type              'PhotonJet R (Cu) X-ray Source'
_exptl_absorpt_coefficient_mu    5.362
_exptl_absorpt_correction_T_max  1.00000
_exptl_absorpt_correction_T_min  0.38637
_exptl_absorpt_correction_type   multi-scan
_exptl_absorpt_process_details
;
CrysAlisPro 1.171.40.14e (Rigaku Oxford Diffraction, 2018)
Empirical absorption correction using spherical harmonics,
 implemented in SCALE3 ABSPACK scaling algorithm.
;
_exptl_crystal_colour            colourless
_exptl_crystal_colour_primary    colourless
_exptl_crystal_density_diffrn    1.648
_exptl_crystal_description       plate
_exptl_crystal_F_000             216
_exptl_crystal_size_max          0.315
_exptl_crystal_size_mid          0.302
_exptl_crystal_size_min          0.057
_refine_diff_density_max         2.052
_refine_diff_density_min         -1.037
_refine_diff_density_rms         0.276
_refine_ls_extinction_method     none
_refine_ls_goodness_of_fit_ref   1.103
_refine_ls_hydrogen_treatment    constr
_refine_ls_matrix_type           full
_refine_ls_number_parameters     119
_refine_ls_number_reflns         1685
_refine_ls_number_restraints     0
_refine_ls_restrained_S_all      1.103
_refine_ls_R_factor_all          0.1072
_refine_ls_R_factor_gt           0.0993
_refine_ls_shift/su_max          0.000
_refine_ls_shift/su_mean         0.000
_refine_ls_structure_factor_coef Fsqd
_refine_ls_weighting_details
'w=1/[\s^2^(Fo^2^)+(0.1941P)^2^+3.2019P] where P=(Fo^2^+2Fc^2^)/3'
_refine_ls_weighting_scheme      calc
_refine_ls_wR_factor_gt          0.2893
_refine_ls_wR_factor_ref         0.3011
_reflns_Friedel_coverage         0.000
_reflns_number_gt                1597
_reflns_number_total             1685
_reflns_threshold_expression     'I > 2\s(I)'
_iucr_refine_instructions_details
;
TITL tx406_a.res in P-1
    tx406.res
    created by SHELXL-2016/6 at 17:02:41 on 11-Mar-2019
REM Old TITL TX406 in P-1
REM SHELXT solution in P-1: R1 0.160, Rweak 0.027, Alpha 0.043
REM <I/s> 0.000 for 0 systematic absences, Orientation as input
REM Formula found by SHELXT: C2 O2 S2
CELL 1.54184 6.0661 7.2535 10.8143 72.49 86.288 69.213
ZERR 1 0.0002 0.0003 0.0004 0.004 0.003 0.003
LATT 1
SFAC C H O S
UNIT 18 12 4 4

L.S. 10
PLAN  5
BOND
LIST 6
fmap 2
acta
OMIT -3 -8 1
REM <olex2.extras>
REM <HklSrc "%.\\TX406.hkl">
REM </olex2.extras>

WGHT    0.194100    3.201900
FVAR       1.23777
S1    4    0.893023    0.697642    0.341480    11.00000    0.02665    0.01506 =
         0.02094   -0.00332   -0.00262   -0.00873
S2    4    1.335551   -0.223520    0.520694    11.00000    0.01924    0.01338 =
         0.02101   -0.00080    0.00160   -0.00401
O1    3    0.430641    0.428052    0.176965    11.00000    0.03003    0.01566 =
         0.03062   -0.00322   -0.00394   -0.00764
O2    3    0.247498    0.764819    0.072147    11.00000    0.02437    0.01885 =
         0.02387   -0.00039   -0.00778   -0.00662
C1    1    1.100572    0.004294    0.466308    11.00000    0.02004    0.01335 =
         0.02055    0.00000   -0.00066   -0.00554
C2    1    1.070710    0.199467    0.372217    11.00000    0.02493    0.00996 =
         0.01749   -0.00093    0.00126   -0.00729
AFIX  43
H2    2    1.188849    0.232201    0.321221    11.00000   -1.20000
AFIX   0
C3    1    0.839726    0.332454    0.368338    11.00000    0.02148    0.01165 =
         0.01694   -0.00046    0.00002   -0.00550
C4    1    0.751366    0.556367    0.300582    11.00000    0.02310    0.01566 =
         0.01127   -0.00276    0.00046   -0.00630
C5    1    0.561846    0.681832    0.214549    11.00000    0.02376    0.00964 =
         0.02537   -0.00446   -0.00075   -0.00508
C6    1    0.537947    0.895747    0.182578    11.00000    0.02710    0.01091 =
         0.01571    0.00191   -0.00232   -0.00371
AFIX  43
H6    2    0.421255    1.002383    0.125085    11.00000   -1.20000
AFIX   0
C7    1    0.701785    0.925293    0.244449    11.00000    0.03130    0.01214 =
         0.02197   -0.00215   -0.00102   -0.00476
AFIX  43
H7    2    0.710267    1.054137    0.235602    11.00000   -1.20000
AFIX   0
C8    1    0.410845    0.606298    0.156036    11.00000    0.02210    0.01679 =
         0.01873   -0.00547    0.00443   -0.00576
C9    1    0.088894    0.708949    0.007812    11.00000    0.02543    0.02949 =
         0.02279   -0.00862   -0.00423   -0.00760
AFIX 137
H9A   2   -0.015029    0.830574   -0.053382    11.00000   -1.50000
H9B   2   -0.002386    0.646861    0.071217    11.00000   -1.50000
H9C   2    0.179203    0.612463   -0.036948    11.00000   -1.50000
AFIX   0
HKLF 4




REM  tx406_a.res in P-1
REM R1 =  0.0993 for    1597 Fo > 4sig(Fo)  and  0.1072 for all    1685 data
REM    119 parameters refined using      0 restraints

END  
     
WGHT      0.2000      0.0000 

REM Highest difference peak  2.052,  deepest hole -1.037,  1-sigma level  0.276
Q1    1   0.5773  0.6955  0.3405  11.00000  0.05    2.05
Q2    1   1.6467 -0.2229  0.5185  11.00000  0.05    2.04
Q3    1   1.0538  0.6965  0.3417  11.00000  0.05    1.96
Q4    1   1.1910  0.6977  0.3422  11.00000  0.05    1.92
Q5    1   1.4968 -0.2276  0.5174  11.00000  0.05    1.90

  REM The information below was added by Olex2.
  REM
  REM R1 = 0.0993 for 1597 Fo > 4sig(Fo) and 0.1072 for all 14400 data
  REM n/a parameters refined using n/a restraints
  REM Highest difference peak 2.05, deepest hole -1.04
  REM Mean Shift 0, Max Shift 0.000.

  REM +++ Tabular Listing of Refinement Information +++
  REM R1_all = 0.1072
  REM R1_gt = 0.0993
  REM wR_ref = 0.3011
  REM GOOF = 1.103
  REM Shift_max = 0.000
  REM Shift_mean = 0
  REM Reflections_all = 14400
  REM Reflections_gt = 1597
  REM Parameters = n/a
  REM Hole = -1.04
  REM Peak = 2.05
  REM Flack = n/a

  
;
_cod_data_source_file            cm9b04971_si_002.cif
_cod_data_source_block           tx406
_cod_database_code               4003484
_shelx_shelxl_version_number     2016/6
_chemical_oxdiff_formula         CHOS
_shelx_space_group_comment
;
The symmetry employed for this shelxl refinement is uniquely defined
by the following loop, which should always be used as a source of
symmetry information in preference to the above space-group names.
They are only intended as comments.
;
_reflns_odcompleteness_completeness 99.74
_reflns_odcompleteness_iscentric 1
_reflns_odcompleteness_theta     66.97
_olex2_refinement_description
;
1. Fixed Uiso
 At 1.2 times of:
  All C(H) groups
 At 1.5 times of:
  All C(H,H,H) groups
2.a Aromatic/amide H refined with riding coordinates:
 C2(H2), C6(H6), C7(H7)
2.b Idealised Me refined as rotating group:
 C9(H9A,H9B,H9C)
;
_olex2_submission_special_instructions 'No special instructions were received'
_oxdiff_exptl_absorpt_empirical_details
;
Empirical correction (ABSPACK) includes:
- Absorption correction using spherical harmonics
- Frame scaling
;
_oxdiff_exptl_absorpt_empirical_full_max 1.981
_oxdiff_exptl_absorpt_empirical_full_min 0.465
loop_
_space_group_symop_operation_xyz
'x, y, z'
'-x, -y, -z'
loop_
_atom_site_label
_atom_site_type_symbol
_atom_site_fract_x
_atom_site_fract_y
_atom_site_fract_z
_atom_site_U_iso_or_equiv
_atom_site_adp_type
_atom_site_occupancy
_atom_site_site_symmetry_order
_atom_site_calc_flag
_atom_site_refinement_flags_posn
_atom_site_refinement_flags_adp
_atom_site_refinement_flags_occupancy
_atom_site_disorder_assembly
_atom_site_disorder_group
S1 S 0.8930(3) 0.6976(2) 0.34148(14) 0.0208(5) Uani 1 1 d . . . . .
S2 S 1.3356(2) -0.2235(2) 0.52069(13) 0.0194(5) Uani 1 1 d . . . . .
O1 O 0.4306(8) 0.4281(7) 0.1770(4) 0.0262(11) Uani 1 1 d . . . . .
O2 O 0.2475(8) 0.7648(7) 0.0721(4) 0.0236(10) Uani 1 1 d . . . . .
C1 C 1.1006(10) 0.0043(9) 0.4663(6) 0.0192(12) Uani 1 1 d . . . . .
C2 C 1.0707(10) 0.1995(8) 0.3722(5) 0.0179(12) Uani 1 1 d . . . . .
H2 H 1.188849 0.232201 0.321221 0.021 Uiso 1 1 calc R . . . .
C3 C 0.8397(10) 0.3325(8) 0.3683(5) 0.0176(12) Uani 1 1 d . . . . .
C4 C 0.7514(10) 0.5564(9) 0.3006(5) 0.0171(12) Uani 1 1 d . . . . .
C5 C 0.5618(10) 0.6818(9) 0.2145(6) 0.0199(12) Uani 1 1 d . . . . .
C6 C 0.5379(11) 0.8957(9) 0.1826(5) 0.0200(12) Uani 1 1 d . . . . .
H6 H 0.421255 1.002383 0.125085 0.024 Uiso 1 1 calc R . . . .
C7 C 0.7018(11) 0.9253(9) 0.2444(6) 0.0232(13) Uani 1 1 d . . . . .
H7 H 0.710267 1.054137 0.235602 0.028 Uiso 1 1 calc R . . . .
C8 C 0.4108(10) 0.6063(9) 0.1560(6) 0.0196(12) Uani 1 1 d . . . . .
C9 C 0.0889(11) 0.7089(11) 0.0078(6) 0.0260(14) Uani 1 1 d . . . . .
H9A H -0.015029 0.830574 -0.053382 0.039 Uiso 1 1 calc GR . . . .
H9B H -0.002386 0.646861 0.071217 0.039 Uiso 1 1 calc GR . . . .
H9C H 0.179203 0.612463 -0.036948 0.039 Uiso 1 1 calc GR . . . .
loop_
_atom_site_aniso_label
_atom_site_aniso_U_11
_atom_site_aniso_U_22
_atom_site_aniso_U_33
_atom_site_aniso_U_23
_atom_site_aniso_U_13
_atom_site_aniso_U_12
S1 0.0267(9) 0.0151(8) 0.0209(8) -0.0033(6) -0.0026(6) -0.0087(6)
S2 0.0192(8) 0.0134(8) 0.0210(8) -0.0008(6) 0.0016(6) -0.0040(6)
O1 0.030(2) 0.016(2) 0.031(2) -0.0032(18) -0.0039(18) -0.0076(18)
O2 0.024(2) 0.019(2) 0.024(2) -0.0004(17) -0.0078(17) -0.0066(17)
C1 0.020(3) 0.013(3) 0.021(3) 0.000(2) -0.001(2) -0.006(2)
C2 0.025(3) 0.010(3) 0.017(3) -0.001(2) 0.001(2) -0.007(2)
C3 0.021(3) 0.012(3) 0.017(3) 0.000(2) 0.000(2) -0.005(2)
C4 0.023(3) 0.016(3) 0.011(2) -0.003(2) 0.000(2) -0.006(2)
C5 0.024(3) 0.010(3) 0.025(3) -0.004(2) -0.001(2) -0.005(2)
C6 0.027(3) 0.011(3) 0.016(3) 0.002(2) -0.002(2) -0.004(2)
C7 0.031(3) 0.012(3) 0.022(3) -0.002(2) -0.001(2) -0.005(2)
C8 0.022(3) 0.017(3) 0.019(3) -0.005(2) 0.004(2) -0.006(2)
C9 0.025(3) 0.029(3) 0.023(3) -0.009(3) -0.004(2) -0.008(3)
loop_
_atom_type_symbol
_atom_type_description
_atom_type_scat_dispersion_real
_atom_type_scat_dispersion_imag
_atom_type_scat_source
C C 0.0181 0.0091 'International Tables Vol C Tables 4.2.6.8 and 6.1.1.4'
H H 0.0000 0.0000 'International Tables Vol C Tables 4.2.6.8 and 6.1.1.4'
O O 0.0492 0.0322 'International Tables Vol C Tables 4.2.6.8 and 6.1.1.4'
S S 0.3331 0.5567 'International Tables Vol C Tables 4.2.6.8 and 6.1.1.4'
loop_
_geom_angle_atom_site_label_1
_geom_angle_atom_site_label_2
_geom_angle_atom_site_label_3
_geom_angle
_geom_angle_site_symmetry_1
_geom_angle_site_symmetry_3
_geom_angle_publ_flag
C7 S1 C4 92.3(3) . . ?
C1 S2 C3 91.0(3) . 2_756 ?
C8 O2 C9 115.5(5) . . ?
C1 C1 S2 111.5(6) 2_756 . ?
C1 C1 C2 114.2(6) 2_756 . ?
C2 C1 S2 134.3(5) . . ?
C3 C2 C1 109.9(5) . . ?
C2 C3 S2 113.3(4) . 2_756 ?
C2 C3 C4 125.7(5) . . ?
C4 C3 S2 119.9(4) . 2_756 ?
C3 C4 S1 116.2(4) . . ?
C5 C4 S1 111.3(4) . . ?
C5 C4 C3 132.4(5) . . ?
C4 C5 C6 111.5(5) . . ?
C4 C5 C8 124.5(5) . . ?
C6 C5 C8 123.9(5) . . ?
C7 C6 C5 113.0(5) . . ?
C6 C7 S1 112.0(5) . . ?
O1 C8 O2 123.6(6) . . ?
O1 C8 C5 125.8(5) . . ?
O2 C8 C5 110.5(5) . . ?
loop_
_geom_bond_atom_site_label_1
_geom_bond_atom_site_label_2
_geom_bond_distance
_geom_bond_site_symmetry_2
_geom_bond_publ_flag
S1 C4 1.712(6) . ?
S1 C7 1.711(6) . ?
S2 C1 1.721(6) . ?
S2 C3 1.748(6) 2_756 ?
O1 C8 1.206(8) . ?
O2 C8 1.344(7) . ?
O2 C9 1.452(7) . ?
C1 C1 1.391(11) 2_756 ?
C1 C2 1.431(8) . ?
C2 C3 1.385(8) . ?
C3 C4 1.476(8) . ?
C4 C5 1.379(8) . ?
C5 C6 1.439(8) . ?
C5 C8 1.476(8) . ?
C6 C7 1.343(9) . ?
loop_
_refln_index_h
_refln_index_k
_refln_index_l
_refln_F_squared_meas
_refln_F_squared_sigma
0 0 -1 1258.32 5.85
0 0 1 1250.92 5.32
0 0 -1 1270.71 5.77
0 0 -1 1306.48 5.82
0 0 1 1299.39 5.72
0 0 -2 20.55 0.56
0 0 2 27.37 0.83
0 0 2 26.09 0.64
0 0 2 35.13 1.25
0 0 -2 24.89 0.78
0 0 -2 23.42 0.75
0 0 2 31.14 0.92
0 0 -3 120.76 1.91
0 0 3 194.49 3.15
0 0 3 201.5 3.56
0 0 3 144.38 2.19
0 0 -3 122.31 1.48
0 0 -3 123.29 1.91
0 0 -3 123.65 1.78
0 0 3 146.62 2.2
0 0 3 191.89 3.23
0 0 -3 132.71 2.03
0 0 4 49.61 1.55
0 0 -4 45.11 1.3
0 0 4 65.92 2.25
0 0 4 64.17 2.29
0 0 -4 44.26 1.43
0 0 4 79.76 2.64
0 0 -4 39.61 1.36
0 0 4 41.91 1.6
0 0 -4 45.95 1.07
0 0 -4 40.11 1.17
0 0 -4 39.76 1.28
0 0 5 68.51 1.94
0 0 -5 55.16 1.74
0 0 5 95.4 2.41
0 0 -5 55.81 1.67
0 0 -5 74.33 1.86
0 0 5 84.14 3.02
0 0 -5 60.89 1.87
0 0 5 91.47 2.78
0 0 5 117.67 3.01
0 0 -5 54.28 1.63
0 0 -5 63.63 1.92
0 0 -5 62.18 1.71
0 0 -6 4093.97 20.66
0 0 6 4344.93 21.06
0 0 -6 3585.17 20.56
0 0 -6 3549.37 19.79
0 0 6 4303.76 26.51
0 0 -6 3805.03 19.48
0 0 6 4379.15 22.47
0 0 6 5275.11 25.49
0 0 -6 3586.15 20.45
0 0 -6 3512.11 19.75
0 0 -6 3502.87 19.59
0 0 6 4977.99 23.45
0 0 -6 3547.31 19.67
0 0 -6 3711.84 20.77
0 0 6 4193.04 21.85
0 0 6 3735.08 22.19
0 0 -6 3630.44 19.45
0 0 -7 1927.1 13.67
0 0 -7 1850.22 14.75
0 0 7 2172.65 16.21
0 0 7 3036.17 19.91
0 0 7 2783.65 17.33
0 0 7 2450.43 16.35
0 0 -7 1972.22 13.94
0 0 -7 1968.73 13.52
0 0 -7 2020.23 13.23
0 0 -7 2003.56 14.11
0 0 -7 2059.79 15.01
0 0 -7 2101.02 13.96
0 0 7 2589.59 17.28
0 0 -7 1951.94 14.57
0 0 -7 1942.99 13.95
0 0 7 2336.58 15
0 0 -7 1814.64 14
0 0 -7 1936.09 13.87
0 0 7 2444.6 16.07
0 0 -8 10.32 1.25
0 0 -8 9.74 1.34
0 0 8 12.14 1.53
0 0 -8 16.48 1.25
0 0 8 15.1 1.74
0 0 -8 10.38 1.01
0 0 -8 11.97 1.19
0 0 -8 9.93 1.26
0 0 -8 10.92 1.37
0 0 8 15.44 2
0 0 -8 10.43 1.24
0 0 -8 11.22 1.38
0 0 8 17.19 1.93
0 0 -8 10.35 1.3
0 0 8 13.3 1.52
0 0 8 13.6 1.37
0 0 9 0.51 1.36
0 0 -9 0.86 0.81
0 0 -9 0.29 0.89
0 0 -9 0.28 1.05
0 0 -9 1.19 0.69
0 0 -9 0.43 1.07
0 0 9 2.4 1.53
0 0 9 3.58 1.15
0 0 -9 0.66 1.06
0 0 -9 0.6 0.85
0 0 -9 0.33 0.92
0 0 9 2.96 1.21
0 0 9 1.39 0.98
0 0 -10 103.69 3.67
0 0 -10 101.03 3.37
0 0 -10 97.91 3.34
0 0 10 128.3 3.76
0 0 -10 95.97 3.19
0 0 -10 94.12 3.34
0 0 10 125.42 3.99
0 0 -11 117.92 3.48
0 0 -11 121.71 3.76
0 0 -12 65.05 2.36
0 1 -12 228.64 3.83
0 1 -11 995.08 9.8
0 1 -10 688.65 7.77
0 1 -10 747.73 9.05
0 1 -10 619.63 7.52
0 -1 10 821.95 8.69
0 1 -10 733.45 9.54
0 1 -10 763.57 9.15
0 1 -9 357.86 6.48
0 1 -9 321.76 5.98
0 1 -9 324.81 6
0 1 -9 312.35 5.34
0 -1 9 322.82 6.86
0 1 -9 333.92 5.69
0 1 -9 316.36 6.16
0 -1 9 439.84 8.05
0 1 -9 330.73 6.04
0 1 -9 323.21 5.64
0 1 -9 287.66 5.72
0 -1 9 397.95 6.77
0 1 -9 298.38 5.74
0 1 -8 129.93 3.69
0 1 -8 149.37 3.95
0 -1 8 191.2 4.72
0 1 -8 137.94 3.38
0 -1 8 154.79 4.62
0 1 -8 153.58 3.82
0 -1 8 192.65 5.36
0 1 -8 143.12 3.74
0 1 -8 154.05 3.91
0 1 -8 129.44 3.5
0 1 -8 140.49 3.96
0 -1 8 192.98 5.01
0 1 -8 118.74 3.43
0 1 -8 125.55 3.25
0 1 -8 141.23 3.77
0 1 -8 148.47 3.72
0 1 -8 137.89 3.55
0 -1 8 187.04 5
0 1 -7 74.21 2.48
0 1 -7 89.42 2.85
0 -1 7 95.33 3.4
0 1 -7 84.29 2.65
0 -1 7 123.65 3.77
0 1 -7 88.27 2.78
0 1 -7 86.06 2.87
0 -1 7 113.51 3.97
0 1 -7 79.4 2.62
0 1 -7 85.98 2.87
0 -1 7 97.04 3.27
0 -1 7 120.38 3.85
0 -1 7 115.57 3.9
0 -1 7 94.6 2.85
0 1 -7 82.47 2.73
0 1 -7 85.17 2.54
0 1 -7 81.82 2.65
0 1 -6 1544.82 9.74
0 1 -6 1826.63 12.5
0 1 -6 1744.4 12.11
0 -1 6 2352 16.56
0 -1 6 2127.06 15.78
0 1 -6 2088.75 14.19
0 1 -6 1863.4 13.13
0 -1 6 2322.19 16.94
0 -1 6 2077.55 14.96
0 1 -6 1798.35 12.77
0 1 -6 1674.86 12.14
0 -1 6 2026.74 13.41
0 -1 6 2575.86 17.27
0 1 -6 1632.72 12.07
0 1 -6 1486.43 11.3
0 -1 6 2125.36 15.91
0 -1 5 123.12 3.36
0 1 -5 78.42 2.12
0 1 -5 96.02 2.42
0 1 -5 70.1 1.86
0 -1 5 96.04 2.37
0 1 -5 81.8 2.05
0 -1 5 111.62 3.22
0 -1 5 104.19 2.99
0 1 -5 65.63 1.78
0 1 -5 77.93 2.02
0 1 -5 66.64 1.45
0 1 -5 81.88 2.15
0 -1 5 106.94 3.11
0 1 -4 148.71 2.49
0 -1 4 167.17 2.79
0 1 -4 169.07 2.72
0 1 -4 148.81 2.57
0 1 -4 155.38 2.42
0 -1 4 210.26 3.77
0 1 -4 167.6 2.73
0 1 -4 171.91 2.75
0 -1 4 213.38 4.03
0 1 -4 186.12 2.96
0 -1 4 230.16 4.08
0 1 -3 30.4 1.07
0 -1 3 29.83 1.01
0 -1 3 28.35 1.27
0 1 -3 28.72 1
0 -1 3 34.43 1.47
0 1 -3 28 1.08
0 1 -3 29.09 1.06
0 -1 3 27.98 0.87
0 1 -3 23.57 1.05
0 -1 3 36.73 1.52
0 -1 3 25.6 0.97
0 -1 2 3.57 0.4
0 -1 2 5.13 0.61
0 1 -2 3.59 0.39
0 1 -2 3.47 0.41
0 -1 2 3.39 0.4
0 -1 2 5.37 0.59
0 -1 2 3.16 0.58
0 -1 2 2.99 0.54
0 -1 2 5.24 0.65
0 -1 1 5973.91 21.21
0 -1 1 5114.84 20.83
0 -1 1 5203.06 20.78
0 1 -1 5051.64 20.07
0 -1 1 5569.03 21.73
0 1 -1 4657.84 18.81
0 1 -1 4863.78 19.97
0 -1 1 4928.88 19.76
0 -1 1 4842.25 20.17
0 -1 0 436.36 3.83
0 -1 0 508.27 2.82
0 -1 0 396.25 3.41
0 1 0 527.95 2.89
0 -1 0 393.17 3.42
0 -1 -1 834.73 4.19
0 -1 -1 832.37 5.23
0 -1 -2 4560.31 18.88
0 -1 -2 4609.11 19.3
0 -1 -2 4955.48 18.76
0 -1 -2 4891.2 18.97
0 1 2 4595.31 17.99
0 1 2 4447.69 18.49
0 1 2 4418.2 17.18
0 -1 -2 4744.79 18.22
0 1 2 4562.76 18.15
0 1 2 4507.53 19.01
0 -1 -2 4637.33 18.98
0 -1 -3 2784.45 12.6
0 -1 -3 2135.47 10.85
0 1 3 2545.1 12.64
0 -1 -3 2177.34 11.69
0 -1 -3 2651.14 11.42
0 1 3 2619.72 12.09
0 -1 -3 2706.21 12.98
0 -1 -3 2399.72 11.94
0 1 3 2519.47 10.72
0 1 3 2311.16 11.34
0 1 3 2383.99 11.34
0 -1 -3 2169.74 11
0 -1 -3 2176.27 11.84
0 1 3 2403.19 11.38
0 -1 -3 2260.64 10.81
0 -1 -4 5591.43 23.17
0 1 4 6557.08 25.44
0 1 4 6627.87 25.04
0 -1 -4 5799.51 26.03
0 1 4 5797.71 25.78
0 -1 -4 6392.65 26.27
0 -1 -4 6022.85 25.99
0 -1 -4 5922.43 26.57
0 -1 -4 5121.19 23.6
0 1 4 6391.72 26.16
0 -1 -4 5876.21 25.33
0 -1 -4 5938.31 27.27
0 -1 -5 531.26 6.29
0 1 5 543.9 6.04
0 1 5 692.56 6.29
0 -1 -5 536.32 5.27
0 1 5 603.63 6.32
0 -1 -5 580.64 5.14
0 1 5 696.19 7.12
0 -1 -5 597.96 5.72
0 -1 -5 594.7 6.24
0 -1 -5 534.05 5.18
0 1 5 549.17 5.89
0 -1 -5 589.38 5.83
0 1 5 704.04 5.9
0 -1 -6 9.77 0.82
0 -1 -6 9.35 0.86
0 -1 -6 10.47 1
0 1 6 10.25 1.03
0 -1 -6 9.06 0.92
0 1 6 13.3 1.39
0 -1 -6 11.49 1.17
0 -1 -6 12.7 1.08
0 -1 -6 9.24 1.12
0 1 6 12.58 1.37
0 1 6 12.5 1.07
0 1 6 10.81 1.09
0 1 6 13.26 1.47
0 -1 -7 7.58 0.81
0 -1 -7 9.9 1.13
0 1 7 11.36 1.33
0 -1 -7 10.74 1.3
0 1 7 10.65 1.52
0 -1 -7 10.33 1.27
0 -1 -7 9.88 1.08
0 -1 -7 8.26 0.95
0 1 7 16.42 1.71
0 -1 -7 8.83 0.93
0 -1 -7 7.25 1.24
0 1 7 10.41 1.13
0 1 7 8.41 1.18
0 1 7 8.46 1.22
0 -1 -7 9.28 1.15
0 1 7 10.69 1.24
0 1 7 15.01 1.61
0 -1 -7 11.77 1.17
0 1 8 61.96 2.68
0 1 8 58.58 3.15
0 -1 -8 64.63 2.51
0 -1 -8 57.27 2.38
0 1 8 70.42 2.64
0 -1 -8 60.03 2.56
0 -1 -8 53.3 2.53
0 -1 -8 57.66 2.14
0 1 8 65.82 2.66
0 -1 -8 54.23 1.95
0 1 8 63.25 2.45
0 1 8 77.44 3.11
0 1 8 65.03 2.47
0 -1 -8 55.87 2.56
0 -1 -8 66.63 2.4
0 1 9 479.05 7.02
0 1 9 465.58 6.77
0 -1 -9 393.72 6.09
0 -1 -9 400.75 6.39
0 1 9 521.61 7.61
0 1 9 560.54 8.63
0 1 9 436.41 6.77
0 1 9 469.78 6.73
0 -1 -9 381.14 7.01
0 -1 -9 379.11 6.5
0 -1 -9 383.08 6.69
0 -1 -9 387.08 6.43
0 1 9 414.45 7.17
0 1 10 973.86 11.38
0 1 10 907.07 9.89
0 -1 -10 705.66 9.27
0 -1 -10 740.28 9.01
0 1 10 752.14 9.1
0 1 10 823.17 8.87
0 -1 -10 696.25 9.49
0 1 10 727.51 9.69
0 1 10 1050.25 11.48
0 -1 -10 721.28 9.44
0 1 11 860.85 8.46
0 -1 -11 820.08 9.8
0 1 11 1093.49 10.95
0 1 11 1005.52 9.88
0 -1 -11 862.15 10.5
0 1 12 142.23 3.52
0 -1 -12 104.44 3.1
0 -1 -13 4.45 0.91
0 2 -11 0.12 0.86
0 -2 11 0.23 0.97
0 2 -10 109.72 3.03
0 2 -10 125.63 3.6
0 2 -10 112.5 3.1
0 2 -10 123.26 3.53
0 2 -9 8.04 1.2
0 -2 9 10.47 1.74
0 2 -9 7.27 1.3
0 2 -9 9.34 1.52
0 2 -9 7.35 1.45
0 2 -9 8.68 1.29
0 2 -9 8.48 1.32
0 -2 8 890.88 11.25
0 2 -8 683.97 8.95
0 -2 8 1005.24 12.96
0 2 -8 768.07 9.57
0 -2 8 911.99 10.82
0 2 -8 754.15 9.22
0 2 -8 802.4 9.8
0 2 -8 757.8 8.93
0 2 -8 778.33 9.22
0 2 -8 677.64 8.85
0 2 -8 802 10.01
0 -2 8 935.2 11.07
0 2 -8 759.06 9.17
0 2 -8 663.4 8.66
0 2 -8 795.53 9.88
0 2 -7 2207.52 16.96
0 2 -7 2558.3 18.22
0 2 -7 2478.62 16.9
0 2 -7 2704.25 18.25
0 2 -7 2524.69 17.91
0 -2 7 3059.27 22.48
0 2 -7 2321.16 17.2
0 -2 7 3261.6 22.26
0 2 -7 2595.58 17.15
0 -2 7 3597.5 25.92
0 -2 7 3250.34 22.45
0 2 -7 2577.18 17.38
0 -2 7 2877.78 22.63
0 -2 6 1123.41 12.41
0 2 -6 1082.67 10.16
0 2 -6 850.61 8.7
0 -2 6 1334.7 14.63
0 2 -6 1063.53 9.87
0 -2 6 1775.62 14.8
0 2 -6 1040.17 9.21
0 -2 6 1343.15 13.41
0 2 -6 840.93 8.56
0 2 -6 834.62 7.19
0 -2 6 1286.36 13.19
0 2 -6 1052.54 9.34
0 2 -6 1059.25 9.33
0 2 -6 1087.56 9.95
0 2 -5 33.03 1.54
0 2 -5 35.88 1.49
0 -2 5 42.3 2.73
0 2 -5 32.68 1.44
0 2 -5 26.68 1.36
0 -2 5 40.12 2.29
0 2 -5 42.03 1.79
0 2 -5 34.47 1.62
0 -2 5 44.42 2.51
0 2 -5 38.37 1.81
0 2 -5 33.85 1.56
0 -2 5 40.62 2.44
0 2 -4 455.83 5.01
0 2 -4 461.34 5.36
0 -2 4 436.94 6.24
0 2 -4 496.32 5.33
0 2 -4 447.57 5.19
0 2 -4 521.05 5.61
0 2 -4 540.07 5.36
0 -2 4 548.79 7.31
0 2 -4 475.16 4.73
0 -2 4 516.22 6.79
0 -2 3 501.86 6.39
0 -2 3 518.12 6.3
0 2 -3 466.98 4.77
0 2 -3 463.11 4.75
0 -2 3 442.72 5.29
0 2 -3 487.51 4.97
0 -2 3 436.59 4.6
0 2 -3 481.98 4.89
0 -2 3 418.36 4.74
0 2 -3 491.35 4.51
0 2 -3 459.12 4.9
0 -2 2 5851.85 26.2
0 2 -2 5121.2 23.72
0 2 -2 5346.21 21.46
0 -2 2 5823.29 25.85
0 -2 2 5234.16 25.81
0 2 -2 5785.91 24.58
0 2 -2 5204.4 22.9
0 -2 2 6210.23 26.19
0 -2 2 5557.57 24.58
0 -2 2 6688.4 26.27
0 2 -2 5744.31 24.31
0 2 -1 1326.63 8.38
0 2 -1 1681.08 9.46
0 -2 1 2039.64 11.22
0 -2 1 1925.93 11.28
0 -2 1 1652.53 9.53
0 2 -1 1556.71 7.77
0 -2 1 1704.99 10.22
0 -2 1 1800.56 10.74
0 -2 1 1813.33 11.35
0 2 -1 1571.1 7.64
0 -2 0 5821.8 26.83
0 -2 0 5786.54 26.37
0 2 1 250.56 3.05
0 -2 -1 243.81 3.55
0 2 2 296.28 2.33
0 2 2 305.91 3.02
0 -2 -2 347.56 3.6
0 -2 -2 307.81 3.91
0 -2 -2 307.51 3.02
0 -2 -2 339.4 4.41
0 2 2 296.27 3.13
0 -2 -2 335.31 3.54
0 2 2 308.48 3.67
0 -2 -3 3058.79 13.72
0 -2 -3 2939.06 14.9
0 2 3 2420.41 14.16
0 2 3 2729.49 13.61
0 -2 -3 2798.83 13.61
0 2 3 2740.25 12.84
0 -2 -3 2811.1 14.65
0 2 3 2559.55 12.22
0 -2 -3 2865.75 14.75
0 -2 -3 2813.73 13.16
0 -2 -3 2406.76 13.99
0 -2 -3 2861.09 14.91
0 -2 -3 2868.28 14.96
0 2 4 284.47 3.39
0 2 4 312.04 2.61
0 2 4 260.97 3.21
0 -2 -4 259.73 3.56
0 -2 -4 287.1 3.83
0 2 4 265.37 3.09
0 -2 -4 289.96 3.64
0 2 4 287.77 3.18
0 2 4 257.65 3.13
0 -2 -4 303.6 3.97
0 -2 -4 365.77 4.41
0 -2 -4 313.09 3.55
0 2 4 340.47 4.2
0 -2 -5 433.16 4.84
0 2 5 664.72 6.64
0 -2 -5 666.84 6.61
0 2 5 529.91 5.33
0 -2 -5 478.75 4.81
0 -2 -5 502.24 5.91
0 2 5 536.2 5.32
0 -2 -5 634.04 6.84
0 2 5 681.18 6.36
0 -2 -5 606.25 6.6
0 2 5 505.38 4.98
0 2 5 602.36 4.68
0 2 5 528.59 5.26
0 -2 -5 597.6 5.57
0 2 5 638.77 5.83
0 -2 -6 116.26 2.71
0 2 6 111.15 2.78
0 -2 -6 111.99 2.64
0 -2 -6 109.13 2.45
0 -2 -6 120.02 3.15
0 2 6 115.53 2.92
0 2 6 146.33 3.29
0 2 6 108.28 2.59
0 -2 -6 144.08 3.44
0 -2 -6 149.93 3.43
0 2 6 148.07 3.09
0 -2 -6 116.28 3.21
0 2 6 140.75 2.62
0 2 7 1207.45 10.36
0 -2 -7 1196.83 10.88
0 2 7 1103.78 11.42
0 -2 -7 1108.75 10.68
0 2 7 1154.7 10.48
0 -2 -7 971.95 9.06
0 2 7 1133.31 10.19
0 2 7 938.74 9.52
0 -2 -7 997.98 11.53
0 -2 -7 1017.86 9.69
0 2 7 908.1 9.69
0 -2 -7 946.42 11.51
0 -2 -7 1147.16 10.5
0 2 7 1324.02 11.76
0 -2 -7 1052.45 10.78
0 -2 -8 1.74 1.07
0 2 8 0.12 1.23
0 -2 -8 1.76 0.91
0 -2 -8 3.51 1.17
0 2 8 0.71 1.12
0 -2 -8 0.56 1.06
0 2 8 0.77 0.95
0 2 8 2.84 1.27
0 2 8 1.42 0.74
0 -2 -8 1.13 0.97
0 -2 -8 1.79 1.18
0 -2 -8 2.53 1.33
0 2 8 2.76 1.25
0 2 9 504.99 7.29
0 2 9 394.83 6.06
0 -2 -9 403.46 6.93
0 2 9 522.93 8.28
0 -2 -9 400.5 7.14
0 2 9 428.59 7.19
0 -2 -9 380.24 6.12
0 -2 -9 402.44 7.1
0 -2 -9 399.91 7.52
0 2 9 425.15 6.29
0 2 9 404.38 8.26
0 -2 -9 374.79 7.44
0 2 9 417.57 6.66
0 -2 -10 29.32 2.02
0 2 10 34.05 2.37
0 2 10 34.49 2.2
0 -2 -10 26.87 2.21
0 -2 -10 24.06 2.11
0 2 10 31.4 2.13
0 -2 -10 29.56 2.17
0 -2 -10 39.45 2.26
0 2 10 23.38 1.9
0 2 10 29.05 2.04
0 2 10 20.07 2.09
0 2 10 32.85 2.09
0 -2 -10 26.29 2.28
0 -2 -11 5.76 1.49
0 2 11 7.87 1.54
0 -2 -11 6.85 1.38
0 -2 -11 5.79 1.22
0 2 11 7.97 1.51
0 2 11 4.22 1.22
0 2 11 6.11 1.73
0 2 12 0.07 0.41
0 2 12 -0.02 1.08
0 -2 -12 0.23 1.02
0 2 12 0.4 1.19
0 -2 -13 32.17 1.6
0 3 -10 0.2 0.94
0 3 -10 -0.11 0.6
0 -3 10 -0.22 1.03
0 3 -9 54.68 2.47
0 3 -9 58.44 2.61
0 3 -9 50.92 2.34
0 3 -9 48.84 2.28
0 3 -9 51.44 2.32
0 -3 9 61.81 2.76
0 3 -8 0.79 0.94
0 3 -8 -0.74 1.33
0 3 -8 0.78 0.89
0 -3 8 1.01 1.36
0 3 -8 1.88 1.15
0 3 -8 0.33 0.69
0 3 -7 133.38 3.95
0 -3 7 147.45 4.78
0 3 -7 126.89 3.74
0 3 -7 129.22 4.12
0 3 -7 138.4 3.81
0 3 -7 132.88 4
0 3 -7 139.91 4.4
0 3 -7 122.84 3.26
0 3 -6 1132.56 11.05
0 -3 6 1500.43 16.28
0 3 -6 1206.64 12.54
0 3 -6 974.11 10.22
0 3 -6 1044.1 9.72
0 3 -6 1200.45 11.14
0 -3 6 1384.01 15.05
0 3 -6 907.86 9.96
0 3 -5 25.08 1.98
0 3 -5 26.51 1.77
0 3 -5 19.63 1.56
0 3 -5 18.7 1.27
0 3 -5 18.86 1.49
0 -3 5 24.46 2.48
0 3 -4 108.3 3.11
0 3 -4 110.95 3.16
0 3 -4 115.15 3.01
0 -3 4 113.19 4.17
0 3 -4 130.76 3.72
0 3 -4 94.8 2.43
0 3 -3 1448.09 11.05
0 3 -3 1162.68 9.43
0 3 -3 1294.11 9.78
0 -3 3 1283.47 10.38
0 3 -3 1439.87 11.15
0 -3 3 1420.44 13.51
0 -3 3 1214.75 10.8
0 3 -3 1365.22 11.19
0 3 -3 1244.65 9.56
0 -3 2 21.2 1.55
0 -3 2 19.62 1.48
0 3 -2 20.04 1.23
0 3 -2 18.56 1.07
0 3 -2 21.53 1.3
0 -3 2 22.29 1.55
0 -3 2 20.35 1.61
0 3 -2 17.38 1.06
0 -3 1 54.38 2.39
0 3 -1 65.27 1.49
0 3 -1 38.95 1
0 3 -1 52.88 1.89
0 3 -1 41.36 1.29
0 3 -1 50.23 1.81
0 -3 1 58.92 2.53
0 3 -1 48.85 1.31
0 -3 1 56.48 2.38
0 -3 1 74.97 2.45
0 -3 0 1130.58 10.45
0 -3 0 1167.39 10.66
0 3 0 976.88 7.13
0 3 0 1290.7 9.21
0 -3 0 1298.4 11.26
0 3 0 992.68 7.18
0 -3 0 1269.55 11.28
0 3 1 1.26 0.54
0 -3 -1 2.44 1.13
0 3 1 3.45 0.72
0 3 1 3.05 0.49
0 3 1 0.98 0.51
0 -3 -1 2.15 1.14
0 -3 -2 1019.16 9.75
0 -3 -2 1001.36 7.26
0 3 2 940.02 5.11
0 3 2 1015.67 7.39
0 3 2 1132.95 8.72
0 3 2 687.44 5.94
0 3 2 946.68 6.4
0 3 2 679.33 7.05
0 -3 -2 961.08 9.07
0 -3 -3 313.2 5
0 3 3 237.52 2.6
0 -3 -3 301.33 4.84
0 3 3 308.49 4.39
0 -3 -3 275.55 4.67
0 3 3 267.87 4.26
0 3 3 252.27 3.17
0 3 3 287.7 3.65
0 -3 -3 327.07 4.52
0 -3 -3 305.27 4.32
0 3 3 267.27 3.75
0 3 4 2041.84 12.72
0 -3 -4 2086.59 13.87
0 3 4 1808.3 11.78
0 3 4 2050.72 13.48
0 3 4 1916.02 11.2
0 -3 -4 2152.99 14.58
0 -3 -4 2050.32 12.21
0 -3 -4 1926.98 13.57
0 3 4 2050.81 12.89
0 3 4 1714.06 10.34
0 -3 -4 2124.32 14.54
0 -3 -4 2116.35 14.18
0 -3 -5 879.21 8.09
0 3 5 899.15 7.85
0 -3 -5 890.43 9.63
0 3 5 1012.09 7.79
0 3 5 845.37 6.88
0 3 5 792.29 7.17
0 -3 -5 841.08 7.17
0 -3 -5 828.09 8.13
0 -3 -5 795.87 8.14
0 -3 -5 988.49 8.87
0 -3 -5 989.28 9.44
0 3 5 1066.56 9.01
0 3 5 826.76 7.25
0 -3 -6 181.02 3.74
0 -3 -6 240.45 5.64
0 -3 -6 160.04 2.97
0 3 6 204.5 3.82
0 3 6 234.17 3.89
0 3 6 249.25 4.58
0 3 6 246.17 4.49
0 3 6 194.58 3.69
0 3 6 195.35 3.52
0 -3 -6 208.56 4.55
0 -3 -6 191.91 3.79
0 -3 -6 181.86 3.46
0 3 6 197.61 3.55
0 -3 -6 226.22 4.73
0 3 7 91.5 3.03
0 -3 -7 108.54 4.25
0 -3 -7 86.21 3.04
0 -3 -7 78.5 2.83
0 3 7 91.59 2.87
0 3 7 76.21 2.57
0 -3 -7 87.05 3.31
0 3 7 71.75 2.62
0 3 7 88.16 2.69
0 -3 -7 80.55 3.27
0 -3 -7 75.04 3.07
0 3 8 36.74 2.12
0 3 8 38.65 2.32
0 3 8 45.76 2.51
0 3 8 43.62 2.54
0 3 8 42.96 2.36
0 -3 -8 47.27 2.62
0 -3 -8 41.4 2.57
0 -3 -8 37.8 2.91
0 3 8 44.91 2.32
0 -3 -8 44.49 2.57
0 3 8 41.21 2.12
0 -3 -8 43.44 2.37
0 3 8 40.17 2.52
0 3 9 2214.45 16.49
0 -3 -9 1910.7 16.25
0 -3 -9 2099.33 17.86
0 -3 -9 1924.85 19.34
0 3 9 2465.75 18.73
0 3 9 2110.77 20.14
0 3 9 2064.12 16.66
0 3 9 1861.94 16.25
0 3 9 1812.66 15.68
0 3 9 2239.39 16.9
0 -3 -9 1890.35 17.29
0 -3 -9 1808.93 16.93
0 3 10 1254.02 11.54
0 3 10 1037.28 11.42
0 3 10 1423.62 14.79
0 -3 -10 1115.66 12.36
0 3 10 1347.38 12.58
0 -3 -10 1112.07 11.82
0 3 10 1128.66 14.27
0 -3 -10 1142.9 13.89
0 -3 -10 1043.36 12.52
0 3 10 1126.99 10.89
0 3 11 622.06 8.91
0 3 11 659.47 7.82
0 -3 -11 545.91 8.76
0 3 11 664.22 8.29
0 -3 -11 497.91 7.37
0 -3 -11 474.85 7.77
0 3 11 638.82 7.78
0 3 12 180.45 4
0 3 12 106.12 2.58
0 -3 -12 131.4 3.73
0 -3 -12 116.78 3.13
0 3 12 166.54 3.72
0 -3 -13 2.26 0.86
0 4 -9 165.88 3.28
0 -4 9 167.56 3.19
0 4 -8 1129.01 10.83
0 4 -8 827.33 9.39
0 4 -8 899.3 9.85
0 -4 8 1033.42 10.58
0 4 -8 942.07 9.48
0 -4 8 1089.11 12.61
0 -4 7 1164.35 12.6
0 4 -7 1059.04 10.27
0 4 -7 1068.77 11.3
0 4 -7 1125.84 11.25
0 4 -7 1148.97 12.55
0 -4 6 23.13 2.32
0 4 -6 25.55 2.16
0 4 -6 21.63 1.93
0 4 -6 22.82 1.74
0 4 -6 24.24 2.01
0 4 -6 25.23 2
0 4 -6 27.32 2.22
0 4 -6 25.24 1.94
0 4 -5 288.24 5.87
0 4 -5 308.01 6.99
0 4 -5 240.41 5.23
0 4 -5 253.54 5.29
0 -4 5 342.05 7.64
0 4 -5 280.84 5.04
0 4 -5 227.24 4.04
0 4 -4 828.11 10.01
0 4 -4 854.58 10.2
0 4 -4 852.02 10.58
0 4 -3 8.98 1.41
0 4 -3 9.99 1.34
0 -4 3 9.21 1.35
0 4 -3 6.89 1.27
0 -4 3 11.08 1.65
0 -4 3 11.57 2.32
0 4 -3 8.1 1.38
0 4 -3 5.04 0.83
0 4 -2 2966.29 19.27
0 4 -2 2368.31 15.51
0 -4 2 3219.46 22.13
0 4 -2 3277.68 20.17
0 -4 2 2895.58 20.26
0 4 -2 3352.47 19.96
0 -4 2 2773.27 20.74
0 -4 2 2785.82 20.63
0 -4 2 2778.96 21.18
0 -4 1 5058.09 30.62
0 -4 1 5276.65 31.27
0 -4 1 5350.26 30.51
0 -4 1 4927.56 29.98
0 4 -1 5118.47 26.9
0 -4 1 4755.33 28.49
0 -4 1 5257.15 31.12
0 4 -1 4834.22 26.6
0 -4 1 5038.57 30.07
0 -4 1 4940.7 30.07
0 -4 1 5200.06 29.95
0 -4 0 1346.74 14
0 -4 0 1315.51 14.23
0 -4 0 1385.71 14.53
0 -4 0 1134.71 11.07
0 4 0 984.38 8.36
0 -4 0 1300.31 12.63
0 4 0 915.99 9.56
0 4 0 957 8.25
0 4 0 1106.18 10.44
0 -4 0 1315.28 13.96
0 -4 0 1435.72 15.08
0 -4 0 1352.98 13.67
0 4 0 1129.48 9.57
0 -4 0 1333.56 14.19
0 4 1 184.18 3.44
0 -4 -1 240.5 4.68
0 -4 -1 209.11 4.32
0 4 1 233.51 4.51
0 -4 -1 241.4 6.08
0 -4 -1 197.19 3.93
0 4 1 182.17 3.68
0 -4 -1 222.01 5.77
0 -4 -1 226.71 5.79
0 4 1 171.41 3.55
0 4 1 174.51 3.41
0 4 1 183.1 3.48
0 -4 -2 1077.03 9.93
0 4 2 959.11 8.01
0 -4 -2 1095.55 13.96
0 4 2 1001.5 8.75
0 -4 -2 1062.94 12.55
0 -4 -2 878.65 11.93
0 -4 -2 1193.91 10.82
0 -4 -2 1179.69 13.36
0 4 2 836.78 8.5
0 4 2 1077.5 9.81
0 -4 -3 2.49 1.25
0 4 3 2.55 0.73
0 -4 -3 2.23 1.35
0 -4 -3 3.06 1.07
0 -4 -3 3.1 1.44
0 -4 -3 2.62 1.23
0 4 3 1.71 0.74
0 4 3 1.84 0.8
0 4 3 3.58 0.66
0 4 3 1.89 0.59
0 4 3 1.45 0.77
0 4 4 48.7 2.47
0 -4 -4 48.02 2.61
0 -4 -4 60.98 2.85
0 -4 -4 54.84 2.66
0 -4 -4 55.95 2.27
0 -4 -4 58.13 2.38
0 -4 -4 57.16 2.64
0 4 4 46.12 1.85
0 4 4 55.96 2.41
0 4 4 57.24 2.25
0 -4 -4 61.12 2.82
0 -4 -4 61.12 2.87
0 -4 -4 57.12 2.43
0 4 4 53.29 2.03
0 4 4 51.15 1.73
0 -4 -4 62.89 2.93
0 4 5 1577.17 16.6
0 -4 -5 1866.67 15.58
0 4 5 2264.14 15.27
0 4 5 2074.18 14.39
0 -4 -5 2092.76 16.08
0 -4 -5 2358.23 19.75
0 -4 -5 2284.71 15.61
0 -4 -5 1856.6 15.38
0 -4 -5 2216.61 17.38
0 -4 -5 2152.88 16.43
0 4 5 2113.26 13.01
0 -4 -5 2068.88 16.27
0 4 5 2280.32 15.52
0 -4 -5 2445.49 18.43
0 4 5 2129.9 14.59
0 4 5 2447.7 17.16
0 -4 -5 2104.6 16.8
0 4 6 630.17 7.71
0 -4 -6 437.92 6.59
0 4 6 537.17 6.72
0 -4 -6 534.7 8.75
0 -4 -6 512.24 7.03
0 -4 -6 644.21 10.18
0 4 6 481.04 6.23
0 -4 -6 471.45 7.58
0 4 6 537.27 6.72
0 -4 -6 525.41 7.68
0 -4 -6 435.24 6.6
0 -4 -6 563.81 9.16
0 4 6 547.05 7.09
0 -4 -7 26.9 2.34
0 4 7 30.48 2.02
0 -4 -7 23.12 2.14
0 -4 -7 30.85 2.38
0 4 7 24 1.7
0 4 7 25.58 2.26
0 -4 -7 31.71 2.83
0 4 7 25.47 1.66
0 4 7 26.1 1.8
0 4 8 630.55 9.29
0 4 8 598.46 8.32
0 -4 -8 697.32 9.97
0 4 8 629.5 9.05
0 4 8 698.13 8.91
0 4 8 620.39 10.1
0 -4 -8 655.01 11.77
0 4 9 545.06 8.5
0 -4 -9 570.21 10.99
0 4 9 617.79 9.42
0 -4 -9 643.51 9.16
0 4 9 640.76 10.25
0 -4 -9 656.19 8.91
0 -4 -9 491.83 8.7
0 4 9 736.36 9.87
0 4 9 561.67 9.08
0 4 9 656.81 8.97
0 4 9 706.37 9.86
0 4 9 722.11 9.77
0 4 10 9.67 1.74
0 -4 -10 9.47 1.56
0 -4 -10 7.28 2.01
0 -4 -10 5.66 1.42
0 4 10 8.38 1.6
0 4 10 10.58 1.43
0 -4 -10 6.32 1.16
0 4 10 8.09 1.15
0 -4 -11 31.61 2.5
0 4 11 34.69 2.02
0 -4 -11 28.08 1.98
0 4 11 30.98 2.42
0 4 12 21.58 1.73
0 -4 -12 16.46 1.48
0 -4 -12 19.18 1.7
0 4 12 23.68 1.67
0 -4 -13 342.23 4.39
0 5 -8 13.02 0.99
0 -5 8 14.82 1.06
0 -5 7 461.51 6.5
0 5 -7 421.65 6.36
0 5 -6 101.26 2.93
0 5 -6 104.59 3.49
0 5 -6 103.83 3.49
0 5 -5 258.03 5.3
0 5 -5 264.92 5.86
0 5 -5 271.56 5.01
0 5 -5 253.88 6.19
0 5 -5 277.81 6.26
0 5 -5 279 6.23
0 5 -4 103.22 4.15
0 -5 4 122.78 4.91
0 5 -4 109.9 4.1
0 5 -4 106.23 3.52
0 5 -4 105.56 4.06
0 5 -4 121.58 4.45
0 5 -4 106.34 3.91
0 5 -3 1371.29 15.96
0 5 -3 1794.74 16.56
0 -5 3 1624.81 15.62
0 5 -3 1356.2 13.17
0 5 -3 1450.19 15.74
0 5 -3 1651.31 15.88
0 5 -3 1598.44 14.84
0 5 -3 1479.85 15.47
0 5 -2 1386.37 13.76
0 -5 2 1223.19 13.09
0 -5 2 1038.95 11.77
0 -5 2 1131.29 12.46
0 5 -2 876.57 12.15
0 5 -2 998.71 12.05
0 -5 2 1067.79 12.51
0 5 -2 1367.1 12.89
0 5 -2 995.07 12.41
0 5 -2 931.23 12.71
0 5 -2 1403.54 13.89
0 -5 2 1193.05 13.02
0 -5 2 1256.53 14.37
0 -5 1 121 4.38
0 5 -1 92.21 3.42
0 5 -1 105.1 3.63
0 -5 1 153.85 5.3
0 -5 1 140.02 4.95
0 -5 1 128.23 4.59
0 5 -1 99.04 3.8
0 -5 1 139.31 4.89
0 5 -1 140.12 3.94
0 -5 1 132.47 4.68
0 -5 1 137.79 4.72
0 5 -1 130.21 3.99
0 5 -1 97.2 3.39
0 -5 1 133.66 4.97
0 5 0 0.81 0.91
0 -5 0 0.37 1.81
0 -5 0 0.94 1.61
0 -5 0 0.64 1.23
0 5 0 1.72 0.84
0 -5 0 1.16 1.68
0 5 0 2.03 0.85
0 -5 0 1.2 1.42
0 5 0 0.37 0.67
0 5 0 1.13 0.91
0 -5 0 0.41 0.84
0 -5 0 0.71 1.61
0 -5 0 0.92 1.63
0 -5 0 0.89 1.69
0 -5 -1 143.87 4.36
0 -5 -1 149.24 5.54
0 -5 -1 172.72 6.19
0 -5 -1 163.31 5.67
0 5 1 108.2 3.28
0 5 1 121.52 3.79
0 -5 -1 155.88 5.86
0 -5 -1 182.96 6.29
0 -5 -1 113.67 3.39
0 5 1 114.99 3.12
0 -5 -1 134.12 4.11
0 -5 -1 173.58 6.39
0 5 1 96.69 3.05
0 -5 -2 1111.48 11.91
0 5 2 1007.86 10.31
0 5 2 871.16 9.2
0 -5 -2 1090.07 15.42
0 -5 -2 1284.85 17.02
0 5 2 925.86 9.68
0 -5 -2 1138.53 11.49
0 -5 -2 1039.25 14.79
0 -5 -2 1060.1 11.41
0 5 2 1017.66 10.81
0 -5 -2 1163.62 15.63
0 -5 -2 1166.45 15.99
0 -5 -3 2656.85 23.74
0 5 3 1847.85 14.18
0 -5 -3 2570.2 17.79
0 5 3 2038.32 15.29
0 -5 -3 2478.57 19.39
0 5 3 2152.16 17.26
0 5 3 2215.34 17.83
0 -5 -3 2409.9 22.01
0 -5 -3 2767.49 24.52
0 -5 -4 2442.61 20.75
0 5 4 1869.94 15.44
0 5 4 2122.08 18.69
0 -5 -4 2261.45 20.02
0 5 4 2061.06 16.68
0 -5 -4 2419.39 21.5
0 -5 -4 2209.75 20.36
0 -5 -4 2461.85 22.19
0 -5 -4 2199.35 20.56
0 -5 -4 2459.55 21.92
0 -5 -4 2026.65 16.41
0 -5 -5 360.8 7.53
0 5 5 317.92 5.65
0 5 5 307.99 5.45
0 -5 -5 351.82 7.12
0 -5 -5 359.58 7.17
0 -5 -5 369.83 7.59
0 -5 -5 402.97 8.28
0 -5 -5 399.52 7.29
0 5 5 350.22 6.14
0 -5 -5 314.49 7.01
0 5 5 309.51 7.04
0 -5 -6 14.02 1.75
0 -5 -6 13.95 1.71
0 5 6 16.67 1.54
0 5 6 9.97 1.78
0 5 6 15.51 1.37
0 -5 -6 16.85 1.88
0 5 6 14.63 1.29
0 -5 -6 15.86 2.04
0 -5 -6 17.5 2.3
0 -5 -6 18.71 2.06
0 -5 -6 14.42 1.8
0 5 6 11.16 1.4
0 -5 -6 17.01 1.83
0 -5 -7 122.66 4.83
0 5 7 117.28 3.64
0 -5 -7 81.01 2.98
0 5 7 106.04 3.52
0 -5 -7 80.63 3.02
0 5 7 114.77 3.53
0 -5 -7 133.61 5.33
0 -5 -7 88.09 3.23
0 -5 -7 103.1 4.24
0 5 7 95.53 4.27
0 5 7 109.2 3.37
0 5 8 183.57 4.9
0 5 8 175.11 4.65
0 5 8 184.05 4.6
0 -5 -8 187.95 5.53
0 -5 -8 191.52 6.6
0 5 8 167.35 5.67
0 5 8 177.97 4.72
0 5 9 1744.29 16.32
0 -5 -9 1510.63 15.21
0 5 9 1476.06 15.45
0 5 9 1376.76 14.13
0 5 9 1728.92 17.33
0 -5 -9 1329.3 17.19
0 5 9 1475.32 14.14
0 5 9 1541.92 14.71
0 5 10 216.24 4.79
0 5 10 177.54 4.26
0 5 10 232.41 5.52
0 5 10 214.21 4.8
0 -5 -10 177.91 5.63
0 -5 -10 173.74 4.18
0 -5 -11 65.11 3
0 -5 -11 61.68 2.63
0 5 11 57.9 2.09
0 5 12 75.01 2.11
0 -5 -12 61.96 2.28
0 -5 -12 56.9 2.09
0 5 12 81.4 2.47
0 6 -6 6.12 0.82
0 6 -6 6.07 0.89
0 -6 5 1.43 1.09
0 6 -5 0.34 0.69
0 -6 5 0.84 1.43
0 6 -5 0.6 0.75
0 6 -4 68.17 2.94
0 6 -4 59.29 2.69
0 6 -4 62.14 2.63
0 6 -4 68.01 2.8
0 6 -3 593.65 9.39
0 6 -3 606.76 9.41
0 6 -3 599.54 8.77
0 6 -3 582.52 8.3
0 -6 2 961.65 10.7
0 6 -2 962.58 12.7
0 6 -2 734.38 9.98
0 -6 2 1333.16 15.23
0 -6 2 897.61 10.25
0 6 -2 746.9 10.81
0 6 -2 1164.89 12.42
0 6 -2 761.1 10.99
0 -6 1 152.36 4.91
0 6 -1 93.01 3.69
0 -6 1 133.56 4.64
0 -6 1 147.3 5.68
0 -6 1 150.66 5.25
0 6 -1 86.5 3.59
0 6 -1 99.52 4.08
0 -6 1 122.09 4.21
0 -6 1 130.93 4.48
0 6 -1 137.4 4.12
0 -6 0 205.83 6.17
0 6 0 195.47 5.01
0 -6 0 254.79 7.95
0 -6 0 203.24 6.21
0 -6 0 227.28 6.91
0 6 0 145.85 4.28
0 6 0 146.26 4.8
0 6 0 176.6 4.35
0 -6 0 233.04 6.9
0 6 0 130.02 4.11
0 -6 0 206.82 6.36
0 -6 0 154.36 5.11
0 -6 0 220.69 6.74
0 -6 -1 1907.15 23.67
0 -6 -1 1491.88 18.38
0 -6 -1 1075.4 11.23
0 -6 -1 1575.86 19.19
0 -6 -1 1543.58 19.03
0 6 1 1167.49 12.89
0 -6 -1 1651.86 19.92
0 6 1 1032.42 12.72
0 -6 -1 1391.81 15.75
0 6 1 1183.72 12.19
0 -6 -1 1720.27 20.83
0 -6 -2 1029.04 12.04
0 -6 -2 889.07 10.76
0 -6 -2 1148.68 17.08
0 -6 -2 1270.26 19.04
0 6 2 926.7 11.55
0 6 2 891.38 10.16
0 -6 -2 1120.82 16.6
0 6 2 818.71 10.38
0 6 2 885.33 11.5
0 -6 -3 525.67 11.82
0 6 3 361.28 6.18
0 6 3 410.67 7.15
0 -6 -3 440.37 7.14
0 6 3 376.58 6.8
0 -6 -3 489.75 10.83
0 -6 -3 533.36 11.47
0 6 3 391.87 7.11
0 -6 -3 462.66 8.3
0 6 3 405.41 7.61
0 6 4 507 8.6
0 6 4 413.98 6.91
0 -6 -4 643.16 11.87
0 -6 -4 594.55 11.26
0 -6 -4 656.36 12.66
0 -6 -4 602.11 12.12
0 -6 -4 604.34 10.3
0 -6 -4 588.39 11.27
0 6 4 436.8 7.74
0 6 4 514.89 8.1
0 6 5 234.03 5.16
0 -6 -5 279.74 7.03
0 6 5 228.02 6
0 -6 -5 276.61 7.4
0 6 5 210.92 4.59
0 -6 -5 270.76 7.07
0 6 5 231.07 5.88
0 -6 -5 312.64 8.02
0 -6 -5 220.73 7.06
0 -6 -5 298.16 7.39
0 6 5 254.73 5.43
0 -6 -5 359.09 9.13
0 -6 -6 6.82 1.63
0 -6 -6 6.11 1.64
0 -6 -6 7.35 1.63
0 -6 -6 7.48 1.7
0 6 6 0.82 0.79
0 6 6 0.89 0.84
0 6 6 3.16 1.31
0 -6 -6 7.28 1.64
0 -6 -6 2.84 1.57
0 -6 -6 6.54 1.62
0 6 6 2.8 1.29
0 -6 -7 735.07 9.53
0 -6 -7 725.83 9.23
0 6 7 785.99 11.33
0 -6 -7 973.75 13.55
0 -6 -7 728.58 9.42
0 6 7 890.14 9.9
0 -6 -7 738.31 9.47
0 6 7 639.27 10.88
0 6 7 802.53 9.33
0 -6 -7 954.82 12.61
0 -6 -8 1109.76 13.62
0 6 8 1156.71 12.13
0 -6 -9 3.22 1.32
0 6 9 3.08 1.74
0 -6 -9 4.93 1.62
0 6 9 2.37 1.01
0 6 9 2.44 1.21
0 6 9 1.83 1.46
0 6 10 7.75 1.34
0 6 10 8.54 1.41
0 -6 -10 6.96 1.2
0 -6 -11 59.43 2.12
0 -6 -11 51.27 1.65
0 -7 3 495.34 6.04
0 7 -3 435.97 5.58
0 -7 2 1.42 0.74
0 7 -2 3.41 0.85
0 -7 1 38.86 2.06
0 -7 1 57.86 3.4
0 -7 1 37.35 1.94
0 -7 1 -0.17 0.46
0 -7 1 2.32 0.76
0 -7 1 7.53 1.1
0 -7 0 0.33 1.66
0 7 0 0.54 0.68
0 -7 0 2.01 1.37
0 -7 0 2.34 1.56
0 -7 0 1.12 1.25
0 -7 0 1.16 1.35
0 -7 -1 229.79 6.52
0 -7 -1 224.84 6.29
0 -7 -1 251.37 6.95
0 -7 -1 232.33 5.71
0 -7 -1 263.05 7.01
0 -7 -2 1440.85 17.89
0 -7 -2 1405.45 17.24
0 -7 -2 1610.42 19.2
0 -7 -2 1616.77 18.98
0 -7 -3 201.2 6.72
0 -7 -3 215.97 7.09
0 -7 -4 68.3 3.22
0 7 4 48.5 2.31
0 -7 -4 75.09 4.35
0 7 4 58.2 2.72
0 -7 -4 80.26 4.39
0 -7 -5 103.98 4.31
0 -7 -5 112.87 4.57
0 -7 -5 110.91 4.52
0 -7 -5 106.43 4.44
0 -7 -5 111.3 4.37
0 -7 -6 64.8 3.08
0 7 6 60.36 2.99
0 -7 -6 70.14 3.28
0 7 6 53.91 2.19
0 -7 -6 66.03 3.66
0 7 6 59.23 2.29
0 -7 -6 67.19 3.17
0 -7 -6 69.14 3.18
0 7 7 370.37 7.01
0 -7 -7 379.1 6.13
0 -7 -7 386.15 6.33
0 -7 -7 387.51 6.14
0 -7 -7 365.66 6.18
0 7 7 399.39 5.69
0 7 8 824.73 7.63
0 7 8 919.16 8.57
0 7 9 333.37 4.95
0 -7 -9 349.87 5.64
0 -7 -10 76.96 2.05
0 -8 -1 82.73 2.68
0 -8 -1 81 2.66
0 -8 -1 78.15 2.52
0 -8 -2 24.47 2.19
0 -8 -2 20.9 2.01
0 -8 -2 21.37 1.91
0 -8 -2 20.71 2
0 -8 -3 155.54 4.51
0 -8 -3 168.94 4.9
0 -8 -4 134.75 4.3
0 -8 -4 143.31 4.49
0 -8 -5 256.46 5.4
0 -8 -5 252.95 5.42
0 -8 -5 238.94 5.12
0 -8 -5 230.17 5
0 -8 -6 228.29 4.27
0 -8 -6 218.51 4.2
0 -8 -6 234.23 4.32
0 -8 -6 226.45 4.4
0 -8 -7 302.78 4.67
-1 7 8 0.56 1.36
-1 7 7 0.85 0.73
1 -7 -7 0.15 0.82
1 -7 -7 0.76 1.16
1 -7 -7 0.62 0.91
1 -7 -7 0.8 0.87
-1 7 7 0.32 0.74
1 -7 -7 0.77 0.87
-1 7 6 39.4 1.64
1 -7 -6 34.08 2.12
1 -7 -6 39.14 2.22
-1 7 6 46.45 2.04
1 -7 -6 28.19 2.04
1 -7 -6 36.42 2.21
-1 7 6 44.1 1.9
1 -7 -6 34.66 2.3
1 -7 -5 183.76 5.22
1 -7 -5 209.71 5.48
1 -7 -5 212.16 5.58
1 -7 -5 180.05 4.47
1 -7 -5 170.87 5.13
-1 7 5 201.6 4.04
-1 7 5 203.55 4.25
1 -7 -4 4.87 1.91
-1 7 4 6.45 0.88
1 -7 -4 3.48 1.08
1 -7 -4 7.06 2.07
-1 7 4 5.17 0.93
1 -7 -3 3.85 1.92
-1 7 3 3.87 0.82
-1 7 3 2.42 0.81
1 -7 -3 3.36 1.95
-1 7 2 172.19 4.19
1 -7 -2 175.1 5.76
1 -7 -2 176.22 5.62
1 -7 -2 156.5 5.53
1 -7 -2 169.09 5.78
-1 7 2 177.41 4.14
1 -7 -1 95.25 3.68
1 -7 -1 88.34 3.7
-1 7 1 96.35 3.13
1 -7 -1 92.92 3.88
1 -7 -1 91.13 3.83
1 -7 0 387.14 6.26
1 -7 0 389.35 5.91
1 -7 0 378.79 6.08
-1 7 -2 25.21 1.35
-1 6 10 122.93 3.02
1 -6 -10 128.72 3.15
-1 6 9 4.33 1.14
-1 6 9 5.9 1.27
-1 6 9 28.44 2.17
1 -6 -9 5.23 1.35
-1 6 9 32.53 2.44
1 -6 -9 7.13 1.42
-1 6 8 6.68 1.23
-1 6 8 7.32 1.26
1 -6 -8 4.97 1.52
1 -6 -8 6.85 1.71
1 -6 -7 33 2.41
1 -6 -7 28.24 1.98
1 -6 -7 26.39 1.9
-1 6 7 49.65 2.45
1 -6 -7 32.66 2.04
-1 6 7 36.1 2.52
-1 6 7 50.06 2.36
-1 6 7 44.41 2
1 -6 -7 24.87 1.89
1 -6 -6 282.6 7.39
1 -6 -6 276.87 6.29
1 -6 -6 241.14 5.91
-1 6 6 354.2 6.08
1 -6 -6 293.17 6.43
1 -6 -6 231.99 5.9
-1 6 6 321.78 7.21
-1 6 6 354.9 6.06
-1 6 6 359.43 6.43
1 -6 -5 1408.3 16.42
1 -6 -5 1544.66 17.33
1 -6 -5 1315.94 16.77
1 -6 -5 1623.19 17.61
-1 6 5 1559.99 14.31
-1 6 5 1776.81 17.3
1 -6 -5 1402.55 16.57
-1 6 5 1564.93 14
1 -6 -4 532.32 11.07
1 -6 -4 483.83 8.84
-1 6 4 596.54 9.18
-1 6 4 566.59 9.11
-1 6 4 565.45 8.44
1 -6 -4 511.21 11.22
-1 6 4 523.75 8.12
-1 6 3 88.34 3.41
1 -6 -3 76.77 4.84
1 -6 -3 77.19 3.36
1 -6 -3 79.75 5.08
-1 6 3 81.73 3.05
1 -6 -3 73.04 4.87
1 -6 -2 15.09 1.54
1 -6 -2 17.13 3.08
-1 6 2 18.67 1.59
1 -6 -2 16.49 3.01
-1 6 2 17.33 1.66
1 -6 -1 72.06 4.4
-1 6 1 67.84 2.99
1 -6 -1 71.64 4.5
1 -6 -1 85.33 4.01
1 -6 -1 68.22 4.6
-1 6 1 68.49 3.14
1 -6 -1 66.35 4.56
1 -6 0 7.79 1.91
-1 6 0 5.17 1.17
-1 6 0 12.31 1.48
-1 6 0 6.31 1.27
1 -6 0 3.82 2.03
1 -6 0 8.73 2.22
1 -6 0 2.64 2
1 -6 0 5.12 1.93
-1 6 0 6.78 1.32
1 -6 0 5.94 1.98
-1 6 -1 162.57 4.7
-1 6 -1 178.51 4.9
1 -6 1 226.69 6.66
1 -6 1 139.03 4.48
1 -6 1 153.68 4.77
1 -6 1 186.82 5.74
1 -6 1 143.87 4.44
-1 6 -1 177.53 4.86
-1 6 -1 201.27 5.41
1 -6 1 167.61 4.61
-1 6 -2 45.43 2.56
-1 6 -2 50.22 2.7
1 -6 2 53.64 2.96
1 -6 2 0.04 0.32
-1 6 -2 67.01 3.04
1 -6 2 62.12 3.32
1 -6 2 -0.06 0.31
1 -6 3 33.01 2.35
-1 6 -3 38.78 2.3
-1 6 -3 37.94 2.26
-1 6 -4 109.74 3.35
-1 6 -4 116.18 3.38
1 -6 5 136.27 2.93
-1 6 -5 153.68 3.11
-1 5 12 44.82 1.55
-1 5 11 63.5 2.32
-1 5 11 60.06 2.23
1 -5 -10 16.31 1.71
-1 5 10 184.1 4.69
1 -5 -10 20.82 1.69
-1 5 10 237.69 5.99
-1 5 10 15.89 1.94
1 -5 -10 17.58 2.02
-1 5 10 159.48 4.11
1 -5 -9 2.6 1.38
1 -5 -9 5.56 1.64
-1 5 9 6.78 1.35
-1 5 9 1.89 1.32
-1 5 9 7.65 1.71
-1 5 9 1.05 1.09
1 -5 -9 2.7 1.72
1 -5 -8 74.36 3.99
-1 5 8 88.14 3.44
1 -5 -8 103.49 4.22
-1 5 8 84.87 3.6
-1 5 8 71.17 3.55
-1 5 8 93.31 3.55
-1 5 8 83.69 2.83
1 -5 -8 101.42 3.94
1 -5 -7 248.4 6.88
-1 5 7 256.62 5.45
1 -5 -7 147.3 4.19
1 -5 -7 222.37 5.9
-1 5 7 241.12 4.89
-1 5 7 267.7 5.73
1 -5 -7 150.15 4.11
1 -5 -7 144.59 4.07
-1 5 7 258.97 5.65
1 -5 -7 160.72 4.22
1 -5 -6 54.25 2.71
1 -5 -6 36.89 2.68
1 -5 -6 39.6 2.64
-1 5 6 46.54 2.98
-1 5 6 47.03 2.47
-1 5 6 34 2.57
-1 5 6 45.7 2.39
1 -5 -6 40.14 2.72
-1 5 6 47.22 2.45
1 -5 -6 38.93 2.7
1 -5 -6 37.41 2.54
-1 5 6 43.63 2.3
1 -5 -6 36.56 2.75
1 -5 -6 31.04 2.35
-1 5 5 0.82 0.72
1 -5 -5 0.39 1.58
1 -5 -5 1.07 1.71
1 -5 -5 1.98 1.36
1 -5 -5 0.83 1.24
1 -5 -5 0.15 1.45
-1 5 5 3.48 1.1
1 -5 -5 1.15 1.5
-1 5 5 0.34 0.95
-1 5 5 0.77 0.79
1 -5 -5 -0.04 1.51
-1 5 5 7.04 1.49
-1 5 5 0.98 0.8
1 -5 -5 0.28 1.41
1 -5 -5 0.48 1.47
1 -5 -5 0.89 1.41
1 -5 -4 8.13 1.98
-1 5 4 11.58 1.38
1 -5 -4 9.66 2.07
1 -5 -4 8.72 2.18
-1 5 4 11.03 1.52
-1 5 4 9.65 1.16
-1 5 4 10.83 1.4
1 -5 -4 7.96 2.12
-1 5 4 8.7 1.1
1 -5 -4 10.24 2.1
1 -5 -4 9.37 1.8
1 -5 -4 8.9 2.12
1 -5 -4 10.52 2.24
1 -5 -4 6.81 1.54
-1 5 4 10.4 1.61
-1 5 3 6.09 1.05
1 -5 -3 6.71 1.38
1 -5 -3 5.59 1.46
1 -5 -3 6.04 2.35
1 -5 -3 6.97 2.21
1 -5 -3 5.27 1.33
1 -5 -3 7.96 2.41
-1 5 3 7.24 1.29
-1 5 3 6.42 1.02
-1 5 3 7.75 1.24
-1 5 3 9.69 1.42
-1 5 3 6.66 1.07
-1 5 3 7.97 1.29
1 -5 -2 458.11 10.79
-1 5 2 551.18 8.88
1 -5 -2 452.04 10.42
1 -5 -2 443.63 10.3
-1 5 2 556.9 8.09
-1 5 2 532.25 7.91
-1 5 2 497.5 7.55
1 -5 -2 445.09 10.3
-1 5 2 488.07 7.71
1 -5 -2 403.86 7.81
1 -5 -2 421.64 7.09
-1 5 2 482.63 7.58
1 -5 -1 966.13 14.97
1 -5 -1 754.28 8.96
1 -5 -1 1077.52 12.95
-1 5 1 891.17 10.34
1 -5 -1 934.11 15.15
1 -5 -1 952.86 12.8
1 -5 -1 773.29 13.32
-1 5 1 941.2 10.96
1 -5 -1 983.45 15
1 -5 -1 997.33 15.57
-1 5 1 963.87 11.63
1 -5 -1 890.18 15.51
1 -5 -1 934.79 15.26
-1 5 1 935.01 10.7
-1 5 0 344.89 6.87
1 -5 0 343.66 8.83
-1 5 0 330.58 6.72
1 -5 0 359.37 8.69
1 -5 0 325.46 8.43
-1 5 0 342.86 6.87
-1 5 0 332.35 7.08
1 -5 0 361.2 8.68
1 -5 0 324.42 8.72
1 -5 0 280.84 7.52
1 -5 0 353.6 8.41
-1 5 0 398.44 7.12
-1 5 0 383.97 6.88
1 -5 0 451.12 8.89
-1 5 -1 257.24 5.72
1 -5 1 251.27 6.93
1 -5 1 164.98 5.27
-1 5 -1 211.27 5.74
1 -5 1 213.62 5.94
-1 5 -1 227.12 5.86
-1 5 -1 196.65 5.54
-1 5 -1 269.06 5.78
-1 5 -1 204.46 5.13
1 -5 1 221.61 6.23
1 -5 1 196.19 6.09
1 -5 1 225.58 6.41
1 -5 1 194.51 5.99
-1 5 -1 213.31 5.94
-1 5 -2 277.25 6.84
1 -5 2 289.95 7.48
-1 5 -2 359.17 6.98
-1 5 -2 270.03 6.7
1 -5 2 219.2 5.56
-1 5 -2 291.91 6.89
-1 5 -2 255.54 5.9
-1 5 -2 380.77 7
1 -5 2 228.92 5.34
1 -5 2 239.7 5.64
1 -5 2 208.55 5.5
-1 5 -2 260.8 6.21
-1 5 -2 268.94 6.25
-1 5 -2 374.39 6.98
-1 5 -3 0.11 0.94
-1 5 -3 0.23 1.09
-1 5 -3 0.07 1.09
-1 5 -3 1.06 1.14
-1 5 -3 0.97 1.12
-1 5 -3 0.74 1.11
-1 5 -3 0.7 1.02
1 -5 3 0.96 1.44
-1 5 -4 1.83 0.96
-1 5 -4 1.8 1.15
-1 5 -4 2.54 1.09
-1 5 -4 2.43 1.15
1 -5 4 1.59 1.16
-1 5 -4 2.62 1.18
-1 5 -4 2.72 1.18
-1 5 -5 760.27 9.96
-1 5 -5 758 10.14
-1 5 -5 731.06 9.53
-1 5 -6 813.7 9.17
-1 5 -6 793.86 8.81
-1 5 -7 27.31 1.43
-1 5 -7 28.18 1.33
-1 5 -7 24.13 1.35
1 -4 -12 474.23 5.73
-1 4 12 468.71 5.99
-1 4 11 483.16 6.51
1 -4 -11 303.89 6.14
-1 4 11 478.65 6.51
1 -4 -11 193.84 3.76
-1 4 11 705.99 9.28
1 -4 -11 251.62 4.8
-1 4 10 6.79 1.77
1 -4 -10 8.58 1.93
-1 4 10 2.73 1.57
-1 4 10 4.2 2.43
-1 4 10 1.93 1.57
1 -4 -10 7.33 1.3
1 -4 -9 51.11 3.57
1 -4 -9 57.86 3.04
-1 4 9 24.6 2.8
-1 4 9 51.27 2.54
-1 4 9 42.17 2.64
-1 4 9 48.59 2.83
-1 4 9 22.37 2.51
-1 4 9 48.18 2.86
-1 4 9 54.48 3.16
-1 4 9 41.83 2.47
1 -4 -9 56.47 2.85
1 -4 -8 3.22 1.33
-1 4 8 2.36 1.21
1 -4 -8 2.06 1.23
-1 4 8 2.7 1.25
1 -4 -8 2.3 2.03
-1 4 8 0.91 2.57
-1 4 8 2.66 1.1
-1 4 8 2.98 0.88
-1 4 8 3.07 1.18
-1 4 8 2.64 1.16
-1 4 8 2.25 1.15
-1 4 7 499.98 7.01
-1 4 7 447.71 7.89
-1 4 7 518.29 7.51
1 -4 -7 543.04 8.25
-1 4 7 376.17 7.92
-1 4 7 523.01 7.9
1 -4 -7 550.96 9.33
-1 4 7 499.35 6.88
-1 4 7 367.79 6.89
1 -4 -7 499.61 9.97
1 -4 -7 539.69 8.36
-1 4 7 524.89 7.79
-1 4 6 449.42 7.04
1 -4 -6 486.07 7.7
-1 4 6 680.56 8.15
1 -4 -6 523.74 7.78
1 -4 -6 524.47 7.88
1 -4 -6 557.35 7.82
-1 4 6 713.93 8.72
1 -4 -6 514.63 7.64
1 -4 -6 571.26 8.05
1 -4 -6 718.19 9.64
1 -4 -6 563.79 9.26
-1 4 6 756.74 9.19
1 -4 -6 618.1 8.75
-1 4 6 713.45 8.14
1 -4 -6 438.35 6.84
-1 4 6 493.47 8.41
1 -4 -6 735.07 11.29
-1 4 6 731.03 8.91
1 -4 -6 791.42 9.15
1 -4 -5 145.12 4.35
-1 4 5 178.5 4
1 -4 -5 169.11 4.98
1 -4 -5 147.01 4.04
1 -4 -5 122.19 3.79
1 -4 -5 162.02 4.59
1 -4 -5 129.17 4
1 -4 -5 148.6 4.43
-1 4 5 151.68 3.66
1 -4 -5 129.71 3.83
-1 4 5 182.89 4.36
1 -4 -5 153.93 4.19
-1 4 5 160.05 3.9
1 -4 -5 140.52 4.21
1 -4 -5 196.56 4.43
1 -4 -5 148.85 4.17
-1 4 5 158.77 4.8
-1 4 5 172.29 4.22
1 -4 -4 993.55 11.07
-1 4 4 1217.1 10.19
1 -4 -4 1228.06 12.57
1 -4 -4 1250.9 13.11
1 -4 -4 1235.54 13.17
1 -4 -4 1259.31 14.37
-1 4 4 1249.52 12.77
1 -4 -4 1271.06 13.29
1 -4 -4 989.27 11.56
1 -4 -4 1203.19 11.65
1 -4 -4 1217.18 13.53
-1 4 4 1354.76 12.38
1 -4 -4 1260.24 13.14
-1 4 4 1360.06 13.5
1 -4 -4 1502.16 12.64
-1 4 4 1305.91 11.31
1 -4 -4 987.93 11.95
-1 4 4 1347.16 12.31
1 -4 -4 818.13 10.65
1 -4 -4 991.09 10.19
-1 4 3 12.62 1.37
1 -4 -3 12.17 1.84
-1 4 3 12.44 1.09
1 -4 -3 10.69 2.04
1 -4 -3 15.64 1.66
-1 4 3 11.51 1.11
1 -4 -3 11.92 2.09
1 -4 -3 11.09 1.81
-1 4 3 12.7 1.38
-1 4 3 13.14 1.25
-1 4 3 12.69 1.3
1 -4 -3 10.45 1.08
1 -4 -3 11.94 1.33
1 -4 -3 9.65 1.05
1 -4 -3 11.85 1.85
1 -4 -3 10.8 1.72
1 -4 -3 10.19 1.52
-1 4 2 356.5 5.83
1 -4 -2 279.85 5.24
-1 4 2 337.89 5.63
1 -4 -2 245.99 6.28
1 -4 -2 256.32 6.58
1 -4 -2 322.81 5.73
1 -4 -2 279.42 7.26
1 -4 -2 289.4 7.68
-1 4 2 329.4 5.45
1 -4 -2 227.54 6.1
1 -4 -2 285.74 5.34
1 -4 -2 251.27 6.85
-1 4 2 305.13 4.84
-1 4 2 318.89 5.07
-1 4 2 363.22 5.84
-1 4 1 2.46 0.81
1 -4 -1 0.96 1.45
1 -4 -1 2.37 1.46
-1 4 1 3.09 0.84
1 -4 -1 1.25 1.55
1 -4 -1 2.47 0.91
1 -4 -1 2.11 0.97
-1 4 1 3.99 0.81
-1 4 1 2.42 0.88
1 -4 -1 2.6 1.58
-1 4 1 2.77 0.83
-1 4 1 1.74 0.69
-1 4 0 685.79 8.7
1 -4 0 522.44 9.38
1 -4 0 655.22 11.66
-1 4 0 730.9 7.74
1 -4 0 659.48 10.3
-1 4 0 683.77 8.73
1 -4 0 672.35 10.53
1 -4 0 684.57 10.33
-1 4 0 675.95 8.67
1 -4 0 556.92 9.37
-1 4 0 704.25 7.37
1 -4 0 643.68 10.06
1 -4 0 781.02 10.06
-1 4 0 643.65 7.91
-1 4 0 631.57 7.49
1 -4 0 694.71 11.22
1 -4 0 750.8 9.17
-1 4 0 687.92 9.19
-1 4 -1 19.15 1.63
1 -4 1 19.29 2.29
1 -4 1 21.37 2.03
-1 4 -1 21.06 1.81
1 -4 1 21.15 2.29
1 -4 1 20.13 2.07
1 -4 1 22.39 2.23
1 -4 1 25.91 2.29
-1 4 -1 22.47 1.73
1 -4 1 18.02 2.12
1 -4 1 19.31 1.86
-1 4 -1 27.07 1.91
1 -4 1 18.08 2.29
-1 4 -1 24.28 1.67
-1 4 -1 22.81 1.84
-1 4 -1 22.21 1.92
1 -4 2 25.69 2.27
1 -4 2 30 2.24
1 -4 2 27.78 2.36
1 -4 2 35.5 2.35
1 -4 2 25.01 2.09
-1 4 -2 36.02 2.44
-1 4 -2 35.38 2.34
1 -4 2 29.05 2.26
1 -4 2 40.59 2.91
-1 4 -2 32.99 2.25
-1 4 -2 43.8 2.31
1 -4 2 29.23 2.16
1 -4 2 28.02 2.22
-1 4 -2 50.74 2.51
-1 4 -2 39.61 2.56
1 -4 3 201.39 6.08
-1 4 -3 275.5 6.39
-1 4 -3 229.79 5.83
-1 4 -3 222.31 5.85
-1 4 -3 229.06 6.16
-1 4 -3 223.37 5.34
-1 4 -3 254.21 5.75
-1 4 -3 248.99 5.63
-1 4 -3 233.53 4.66
-1 4 -4 798.08 11.49
1 -4 4 681.49 10.89
1 -4 4 659.68 12.16
-1 4 -4 786.77 10.61
-1 4 -4 733.21 8
-1 4 -4 717.56 10.02
-1 4 -4 863.86 11.28
-1 4 -4 821.33 11.53
-1 4 -4 779.4 10.22
-1 4 -4 783.86 11.68
-1 4 -5 142.59 4.7
-1 4 -5 136.9 4.17
-1 4 -5 122.9 3.76
1 -4 5 116.41 4.02
-1 4 -5 141.05 4.17
-1 4 -5 137.18 4.32
-1 4 -5 140.7 4.73
-1 4 -5 124.88 3.97
-1 4 -6 3.1 1.21
-1 4 -6 2.99 1.02
-1 4 -6 2.61 1.17
1 -4 6 1.79 1.33
1 -4 6 1.32 2.09
-1 4 -6 1.44 0.79
-1 4 -6 3.29 1.14
-1 4 -6 3.41 1.23
-1 4 -6 2.76 1.15
-1 4 -7 0.43 0.77
-1 4 -7 1 0.96
-1 4 -7 0.06 0.94
1 -4 7 0.12 1.07
1 -4 8 8.63 1.18
-1 4 -8 11.42 1.29
-1 4 -8 10.14 1.07
-1 3 13 183.3 3.16
1 -3 -13 -0.7 0.76
1 -3 -12 0.03 0.85
1 -3 -12 -0.3 1.15
-1 3 11 20.29 2.37
1 -3 -11 388.76 6.95
-1 3 11 266.41 5.24
-1 3 11 271.1 4.62
1 -3 -11 327.71 5.78
-1 3 11 16.57 1.77
1 -3 -11 279.43 5.14
1 -3 -11 318.85 5.26
1 -3 -10 7.86 1.38
-1 3 10 6.35 1.41
1 -3 -10 6.23 1.27
-1 3 10 353.92 7.27
-1 3 10 264.53 5.56
-1 3 10 255.02 5.33
1 -3 -10 6.54 1.23
1 -3 -10 9.35 1.94
-1 3 10 7.29 1.67
1 -3 -10 7.69 1.34
-1 3 9 147.13 4.43
1 -3 -9 152.14 4.13
-1 3 9 140.97 4.98
1 -3 -9 161.31 4.09
1 -3 -9 171.8 5.73
1 -3 -9 157.51 4.27
1 -3 -9 164.96 4.58
-1 3 9 131.09 3.77
-1 3 9 97.49 3.9
-1 3 9 125.08 4.98
-1 3 9 96.05 3.75
-1 3 9 145.49 3.72
-1 3 9 124.65 4.19
-1 3 9 139.83 4.62
1 -3 -8 174.38 3.95
-1 3 8 175.19 4.2
-1 3 8 180.37 4.8
-1 3 8 192.88 5.03
1 -3 -8 155.45 5.55
-1 3 8 172.8 4.63
-1 3 8 169.82 4.73
-1 3 8 179.97 4.71
-1 3 8 165.7 4.79
-1 3 8 184.26 4.44
1 -3 -8 194.34 4.62
1 -3 -8 191.43 4.28
-1 3 7 208.03 5.4
-1 3 7 236.82 5.04
1 -3 -7 193.48 4.25
-1 3 7 225.57 4.68
-1 3 7 218.07 4.18
1 -3 -7 218.76 4.37
-1 3 7 211.22 4.93
1 -3 -7 210.9 6.16
1 -3 -7 215.54 4.62
-1 3 7 221.85 4.68
-1 3 7 218.19 4.91
-1 3 7 221.08 4.57
-1 3 6 10.51 1.04
1 -3 -6 9.06 1.25
1 -3 -6 9.89 1.82
1 -3 -6 8.63 1.16
1 -3 -6 6.2 1.06
1 -3 -6 11.19 1.25
1 -3 -6 6.68 1.09
-1 3 6 6.18 1.29
1 -3 -6 5.83 0.97
-1 3 6 7.92 0.99
1 -3 -6 6.98 1.12
1 -3 -6 7.52 1.1
-1 3 6 9.06 1.01
-1 3 6 9.03 1.06
-1 3 6 9.04 1.07
-1 3 6 5.94 1.17
-1 3 6 8.25 0.92
1 -3 -6 9.55 1.3
1 -3 -5 30.83 1.9
1 -3 -5 29.63 1.58
-1 3 5 30.25 1.7
1 -3 -5 38.21 1.78
1 -3 -5 34.96 1.73
1 -3 -5 28.12 1.8
-1 3 5 41.84 1.76
1 -3 -5 35.43 1.72
1 -3 -5 43.1 2.47
1 -3 -5 34.13 1.78
-1 3 5 37.98 1.69
1 -3 -5 37.06 2.02
1 -3 -5 48.95 2.09
1 -3 -5 26.35 1.68
-1 3 5 43.62 1.89
-1 3 5 40.02 1.79
-1 3 4 117.65 2.9
1 -3 -4 94.5 2.83
1 -3 -4 102.63 2.87
1 -3 -4 105.89 2.9
1 -3 -4 110.66 3.08
1 -3 -4 115.16 3.07
-1 3 4 122.93 3.03
-1 3 4 97.83 2.5
1 -3 -4 95.77 2.87
1 -3 -4 114.93 3.11
-1 3 4 106.51 2.64
-1 3 4 119.29 2.99
-1 3 4 126.63 3.7
1 -3 -4 123.53 3.1
1 -3 -4 107.75 3.32
-1 3 4 107.74 2.35
-1 3 3 219.17 3.76
1 -3 -3 208.16 3.78
1 -3 -3 264.13 4.96
1 -3 -3 255.51 5.31
-1 3 3 228.33 3.55
1 -3 -3 251.24 5.01
1 -3 -3 239.41 4.94
-1 3 3 234.11 3.35
-1 3 3 226.51 3.33
-1 3 3 270.62 4.91
-1 3 3 248.6 4.21
1 -3 -3 219.81 3.92
-1 3 3 247.52 4.24
-1 3 2 1953.84 13.08
1 -3 -2 1614.03 11.12
-1 3 2 1950.1 12.37
-1 3 2 1836.39 11.83
1 -3 -2 1843.47 12.44
-1 3 2 2030.71 13.52
1 -3 -2 1745.2 15.51
1 -3 -2 1760.09 13.4
1 -3 -2 1730.1 14.97
1 -3 -2 1568.82 11.42
-1 3 2 2091.85 13.34
-1 3 2 1802.17 11.42
-1 3 1 1573.51 11.32
1 -3 -1 1093.34 12.01
-1 3 1 1548.03 10.63
-1 3 1 1403.04 9.71
-1 3 1 1444.63 10.55
1 -3 -1 1035.37 11.09
-1 3 1 1502.07 10.64
1 -3 -1 1477.77 10.79
-1 3 1 1502.38 11.3
-1 3 1 1582.73 10.91
1 -3 -1 1050.17 11.84
-1 3 0 2691.86 16.23
-1 3 0 2836.26 17.22
-1 3 0 2876.42 15.86
-1 3 0 2924.57 17.87
1 -3 0 2789.96 16.64
1 -3 0 2335.33 19.07
1 -3 0 2594.01 20.42
-1 3 0 2638.85 12.91
-1 3 0 2825.09 17.61
1 -3 0 2676.27 19.28
1 -3 0 2512.58 19.26
-1 3 0 2809.56 15.56
-1 3 0 2600.49 15.66
1 -3 0 2683.68 19.27
1 -3 1 16.89 1.5
-1 3 -1 15.9 1.15
1 -3 1 14.41 1.74
1 -3 1 18.55 1.64
-1 3 -1 16.64 1.03
1 -3 1 13.02 1.43
-1 3 -1 15.14 1.3
-1 3 -1 13.78 1.25
1 -3 1 17.76 1.76
1 -3 1 15.28 1.29
-1 3 -1 12.39 1.03
1 -3 1 20.24 1.66
-1 3 -1 14.21 1.25
-1 3 -1 13.52 1.21
1 -3 1 16.55 1.56
1 -3 2 69.46 2.91
1 -3 2 65.76 2.52
1 -3 2 56.61 2.37
1 -3 2 62.75 2.75
1 -3 2 85.01 3.2
-1 3 -2 89.61 2.76
1 -3 2 90.14 3.41
-1 3 -2 76.01 2.44
-1 3 -2 69.45 2.78
-1 3 -2 63.61 2.29
1 -3 2 73.04 2.59
1 -3 2 59.85 2.39
-1 3 -2 70.13 2.74
-1 3 -2 69.79 2.83
1 -3 2 57.61 2.57
1 -3 2 75.04 2.62
-1 3 -2 86.42 2.21
-1 3 -3 13.69 1.3
1 -3 3 8.22 1.25
1 -3 3 8.76 1.43
1 -3 3 10.53 1.78
-1 3 -3 14.41 1.59
-1 3 -3 14.53 1.49
1 -3 3 8.84 1.31
-1 3 -3 15.98 1.44
-1 3 -3 14.53 1.32
-1 3 -3 14.92 1.36
1 -3 3 15.67 1.93
1 -3 3 10.61 1.25
-1 3 -3 15.52 1.64
1 -3 3 7.07 1.14
-1 3 -3 15.24 1.61
1 -3 3 12.57 2.25
-1 3 -4 1111.03 11.56
-1 3 -4 1198.97 11.98
1 -3 4 1333.07 16.1
1 -3 4 999.44 13.12
-1 3 -4 1293.36 13.78
-1 3 -4 1066.66 11.22
-1 3 -4 1087.9 11.12
1 -3 4 926.82 13.58
-1 3 -4 1179.85 11.32
1 -3 4 1129.63 14.61
-1 3 -4 1494.01 14.36
-1 3 -4 1213.44 11.22
-1 3 -4 1328.64 13.79
1 -3 5 905.77 14.49
1 -3 5 1114.06 13.54
-1 3 -5 1130.18 11.45
-1 3 -5 1314.7 14.23
-1 3 -5 1361.38 14.5
-1 3 -5 1134.24 11.07
-1 3 -5 1172.69 11.88
-1 3 -5 1335.87 12.99
-1 3 -5 1104.09 11.79
-1 3 -5 1209.97 12.6
-1 3 -5 1352.41 14.38
1 -3 5 974.41 14.56
-1 3 -5 1144.18 12.13
-1 3 -5 1322.83 11.26
1 -3 6 561.39 10.84
-1 3 -6 613.7 8.39
-1 3 -6 664.7 8.27
-1 3 -6 691.85 8.96
-1 3 -6 652.39 8.86
1 -3 6 582.48 8.59
-1 3 -6 674.85 9.96
-1 3 -6 638.22 8.33
-1 3 -6 659.63 8.42
-1 3 -6 652.35 9.13
-1 3 -6 731.13 10.48
1 -3 6 521.01 11.18
-1 3 -6 693 7.7
-1 3 -7 40.39 2.16
-1 3 -7 40.02 2.33
1 -3 7 36.59 3.52
-1 3 -7 42.09 2.41
-1 3 -7 44.74 2.57
1 -3 7 34.46 2.9
1 -3 7 38.27 2.56
-1 3 -7 38.26 2.3
-1 3 -8 130.41 4.04
-1 3 -8 132.18 3.92
1 -3 8 122.53 4.87
-1 3 -8 123.36 3.72
1 -3 8 118.67 3.78
-1 3 -8 127.89 3.62
-1 3 -8 129.13 3.79
-1 3 -9 21.66 1.58
1 -3 9 19.86 2.01
-1 3 -9 24.54 1.67
1 -3 9 19.74 1.6
-1 3 -9 22.34 1.58
-1 3 -10 24.64 1.26
-1 2 13 710.48 6.43
1 -2 -13 167.94 3.05
-1 2 12 434.11 6.57
-1 2 12 434 6.68
1 -2 -11 79.8 2.91
1 -2 -11 80.77 2.71
-1 2 11 24.46 2.12
-1 2 11 69.25 2.48
1 -2 -11 94.13 3.45
-1 2 11 64.81 2.78
1 -2 -11 84.85 3.02
-1 2 11 24.2 1.9
1 -2 -10 2.44 1.11
-1 2 10 2.7 1.22
-1 2 10 3.06 1.23
-1 2 10 80.07 2.98
-1 2 10 -0.33 1.49
-1 2 10 90.58 2.74
-1 2 10 112.09 4.08
1 -2 -10 3.29 1.51
-1 2 10 79.46 3.01
1 -2 -10 2.93 1.09
-1 2 10 2.29 1.31
1 -2 -10 3.26 1.13
1 -2 -9 170.21 5.07
1 -2 -9 170.12 5.21
1 -2 -9 140.32 3.47
1 -2 -9 140.61 3.92
-1 2 9 68.39 3.52
-1 2 9 123.24 3.87
1 -2 -9 153.18 4.06
-1 2 9 47.47 2.51
1 -2 -9 155.36 4.07
-1 2 9 136.18 4.94
-1 2 9 53.48 2.77
1 -2 -9 177.29 5.29
-1 2 9 125.69 4.03
1 -2 -8 65.95 2.59
-1 2 8 57.76 2.53
-1 2 8 57.11 2.39
-1 2 8 7.6 1.6
1 -2 -8 64.62 3.32
1 -2 -8 63.81 2.4
-1 2 8 4.97 1.46
-1 2 8 49.23 2.62
1 -2 -8 63.21 3.33
1 -2 -8 60.27 2.4
1 -2 -8 67.18 2.59
1 -2 -8 64.03 3.23
-1 2 8 50.34 2.55
1 -2 -8 54.98 2.19
-1 2 8 6.8 2.05
-1 2 8 60.54 2.8
-1 2 8 45.44 2.43
-1 2 8 52.52 2.92
-1 2 8 67.52 2.31
1 -2 -8 59.2 2.2
-1 2 7 212.97 4.01
1 -2 -7 308.1 5.16
1 -2 -7 271.99 4.49
-1 2 7 271.89 5.35
-1 2 7 239.9 4.78
1 -2 -7 211.1 5.52
1 -2 -7 279.01 4.65
-1 2 7 262.59 5.26
1 -2 -7 280.75 5.09
1 -2 -7 270.82 4.35
1 -2 -7 254.47 4.41
1 -2 -7 213.97 5.49
1 -2 -7 315.7 5.09
1 -2 -7 293.94 4.85
-1 2 7 241.56 4.81
1 -2 -7 218.37 5.71
-1 2 7 264.3 5.08
-1 2 7 247.14 5.02
-1 2 7 240.21 4.34
-1 2 7 247.61 5
-1 2 7 252.63 4.61
1 -2 -6 1696.61 11.48
-1 2 6 1229.87 10.55
-1 2 6 1319.08 11.4
-1 2 6 1399.28 10.68
1 -2 -6 1525.39 10.98
-1 2 6 1252.33 12.15
1 -2 -6 1349.42 13.2
1 -2 -6 1587.05 11.14
1 -2 -6 1792.62 11.79
1 -2 -6 1174.02 8.87
1 -2 -6 1348.3 13.4
1 -2 -6 1603.49 10.91
1 -2 -6 1286.49 11.49
-1 2 6 1313.07 9.98
-1 2 6 1303.02 11.46
1 -2 -6 1448.33 10.5
1 -2 -6 1336.92 13.59
1 -2 -6 1045.44 8.76
-1 2 6 1543.26 11.58
1 -2 -5 5.3 0.77
-1 2 5 6.83 0.76
-1 2 5 4.41 0.91
1 -2 -5 8.77 0.92
1 -2 -5 7.39 1.26
1 -2 -5 6.94 0.97
-1 2 5 4.58 0.96
-1 2 5 4.51 0.94
-1 2 5 6.59 0.76
-1 2 5 6.28 0.74
1 -2 -5 4.61 0.76
1 -2 -5 4.71 0.85
1 -2 -5 7.96 1.34
1 -2 -5 6.37 0.89
1 -2 -5 5.37 0.75
-1 2 5 7.46 0.75
-1 2 5 6.84 0.75
1 -2 -4 8.86 0.94
1 -2 -4 7.49 0.89
-1 2 4 7.4 0.76
1 -2 -4 6.5 0.78
-1 2 4 7.55 0.62
-1 2 4 4.79 0.84
1 -2 -4 7.03 1
-1 2 4 8.13 0.76
1 -2 -4 7.99 0.93
-1 2 4 7.84 1.06
1 -2 -4 12.34 1.01
-1 2 4 5.96 0.79
1 -2 -4 7.29 1.05
1 -2 -4 10.83 0.92
-1 2 4 7.96 0.71
1 -2 -3 717.34 6.69
-1 2 3 671.84 5.51
1 -2 -3 729.05 7.17
1 -2 -3 653.58 6.34
-1 2 3 716.18 6.28
1 -2 -3 695.25 6.96
-1 2 3 689.99 4.66
-1 2 3 643.26 5.17
-1 2 3 681 6.2
1 -2 -3 657.92 4.48
1 -2 -3 764.43 6.6
-1 2 3 652.15 5.79
1 -2 -3 821.96 6.52
1 -2 -3 623 5.89
1 -2 -2 29.91 1.23
-1 2 2 31.43 1.25
1 -2 -2 29.23 1.23
1 -2 -2 26.72 1.12
1 -2 -2 31.14 1.64
1 -2 -2 28.78 1.63
-1 2 2 32.46 1.04
-1 2 2 28.48 1.09
-1 2 2 28.17 1.04
1 -2 -1 294.12 4.9
-1 2 1 456.59 4.61
1 -2 -1 402.28 2.69
1 -2 -1 327.16 3.59
1 -2 -1 397.58 3.93
1 -2 -1 254.93 4.69
-1 2 1 424.65 3.07
1 -2 -1 270.86 4.23
-1 2 1 440.43 4.37
-1 2 1 390 3.81
-1 2 1 469.1 4.57
-1 2 1 441.35 4.72
-1 2 1 424.84 4.26
-1 2 0 950.72 7.71
-1 2 0 811.39 7.01
-1 2 0 899.68 5.31
-1 2 0 820.17 6.19
-1 2 0 803.09 6.14
1 -2 0 720.6 6.7
1 -2 0 869.7 6.83
1 -2 0 825.76 5.57
-1 2 0 819.08 6.85
-1 2 0 788.37 6.42
1 -2 0 589.46 6.68
-1 2 -1 72.12 1.65
1 -2 1 66.9 2.37
-1 2 -1 72.67 2.1
1 -2 1 66.34 2.36
1 -2 1 69.31 2.19
-1 2 -1 69.55 2.02
1 -2 1 67.52 2.1
-1 2 -1 73.26 2.15
-1 2 -1 60.93 1.64
1 -2 1 69.48 2.19
1 -2 2 1075.14 9.81
-1 2 -2 817.42 7.47
1 -2 2 1002.37 9.11
1 -2 2 941.5 8.75
1 -2 2 1070.19 8.57
1 -2 2 1021.08 8.42
1 -2 2 876.76 8.11
1 -2 2 991.16 6.43
1 -2 2 1031.11 8.81
-1 2 -2 955.47 9.17
-1 2 -2 938.64 7.47
-1 2 -2 972.35 9.07
-1 2 -2 1062.33 7.28
-1 2 -3 1339.4 8.72
1 -2 3 995.8 8.96
1 -2 3 1143.65 10.41
1 -2 3 1303.58 12.09
1 -2 3 1098.2 8.51
1 -2 3 1043.39 8.12
1 -2 3 1143.36 12.14
-1 2 -3 1148.32 9.09
1 -2 3 1061.75 8.81
1 -2 3 1311.65 11.78
1 -2 3 1081.81 8.59
-1 2 -3 1218.97 11.17
-1 2 -3 1209.11 9.15
1 -2 3 1270.13 10.48
-1 2 -3 1151.01 8.76
-1 2 -3 1136.83 9.69
-1 2 -4 1791.84 12.37
-1 2 -4 1836.62 12.85
1 -2 4 2021.81 17.41
1 -2 4 1619.84 15.35
1 -2 4 1978.11 16.96
-1 2 -4 2165.34 14.16
1 -2 4 1644.47 14.53
-1 2 -4 2350.55 16.63
-1 2 -4 1706.2 12.42
-1 2 -4 2077.08 13.68
1 -2 4 1396.2 11.55
1 -2 4 1124.99 9.48
-1 2 -4 1954.59 12.86
1 -2 4 2078.04 15.12
-1 2 -4 2119.46 14.5
-1 2 -5 23.14 1.79
1 -2 5 16.78 1.66
-1 2 -5 18.1 1.37
1 -2 5 24.02 2.55
-1 2 -5 19.07 1.57
1 -2 5 15.7 2.07
1 -2 5 13.06 2.05
1 -2 5 19.67 1.81
-1 2 -5 17.84 1.32
-1 2 -5 21.99 1.51
-1 2 -5 18.25 1.41
-1 2 -6 7.04 1.27
-1 2 -6 7.65 1.33
-1 2 -6 9.36 1.1
1 -2 6 4.04 1.9
-1 2 -6 10.23 1.4
1 -2 6 4.91 2.06
-1 2 -6 9.78 1.3
-1 2 -6 7.91 1.15
1 -2 6 5.49 1.71
-1 2 -6 6.92 1
-1 2 -6 7.65 0.99
1 -2 6 4.46 1.34
-1 2 -6 8.75 1.42
-1 2 -6 8.83 1.13
-1 2 -7 16.31 1.6
-1 2 -7 15.84 1.55
-1 2 -7 14.95 1.4
-1 2 -7 16.45 1.75
-1 2 -7 20.42 1.87
1 -2 7 12.55 1.81
1 -2 7 13.03 2.27
-1 2 -7 18.66 1.81
-1 2 -7 15.98 1.48
1 -2 7 13.71 2.68
-1 2 -7 16.94 1.75
-1 2 -7 19.96 1.8
1 -2 7 14.31 2.04
-1 2 -7 19.29 1.52
1 -2 8 475.22 9.91
-1 2 -8 483.11 7.49
1 -2 8 481.77 8.06
-1 2 -8 502.54 7.18
-1 2 -8 447.92 6.99
-1 2 -8 520.39 8.1
-1 2 -8 491.42 7.82
-1 2 -8 564.91 7.92
1 -2 8 445.82 8.35
-1 2 -8 529.9 8.02
-1 2 -9 656.43 8.44
-1 2 -9 708.45 8.6
-1 2 -9 647.23 8.64
-1 2 -9 586.97 7.16
-1 2 -9 663.18 8.73
1 -2 9 662.6 8.76
1 -2 9 639.47 10.47
-1 2 -9 633.68 8.03
-1 2 -10 91.25 2.66
-1 2 -10 94.2 2.73
1 -2 10 89.75 3.4
-1 2 -11 186.65 3.12
1 -1 -13 17.7 1.04
-1 1 13 169.06 3.28
-1 1 12 -0.42 1.23
1 -1 -12 0.28 1.01
1 -1 -11 0.38 1.02
-1 1 11 2.35 1.36
1 -1 -11 1.57 1.14
1 -1 -10 14.55 1.55
1 -1 -10 12.81 1.66
1 -1 -10 13.69 1.59
1 -1 -10 15.21 1.82
-1 1 10 13.71 1.7
-1 1 10 10.64 1.57
-1 1 10 351.84 6.2
1 -1 -10 11.83 1.43
-1 1 10 11.62 1.86
1 -1 -10 15.73 1.51
1 -1 -10 13.9 1.79
-1 1 10 332.13 5.7
-1 1 10 10.71 1.46
1 -1 -9 187.55 4.08
-1 1 9 196.77 5.17
1 -1 -9 192.32 3.96
-1 1 9 338.98 5.58
-1 1 9 173.43 4.38
1 -1 -9 192.96 4.22
-1 1 9 447.21 7.33
1 -1 -9 218.71 4.82
-1 1 9 203.58 4.96
-1 1 9 168.21 5.38
-1 1 9 364.24 5.27
1 -1 -9 220.42 4.68
-1 1 9 155.4 3.72
1 -1 -9 235.76 5.61
1 -1 -9 195.96 4.43
1 -1 -9 242.69 5.87
1 -1 -9 199.7 4.12
1 -1 -9 224.76 5.4
-1 1 8 187.12 4.52
1 -1 -8 797.31 8.12
1 -1 -8 825.28 8.5
-1 1 8 190.13 4.68
-1 1 8 769.5 9.28
1 -1 -8 773.6 7.93
1 -1 -8 929.37 10.9
1 -1 -8 929.84 11.08
-1 1 8 671.75 10.36
1 -1 -8 781.79 7.65
1 -1 -8 777.2 7.23
1 -1 -8 833.42 8.37
-1 1 8 264.18 6.03
1 -1 -8 723.79 7.33
1 -1 -8 788.93 8.21
1 -1 -8 864.34 8.78
1 -1 -8 852.05 10.12
-1 1 8 691.33 8.64
-1 1 8 723.02 9.19
1 -1 -7 1084.27 9.37
-1 1 7 999.31 11.97
1 -1 -7 1168.33 9.72
-1 1 7 1548.89 12.13
-1 1 7 1361.52 10.7
1 -1 -7 1072.76 9.8
-1 1 7 938.32 10.23
1 -1 -7 1036.91 8.64
1 -1 -7 1147.89 11.95
-1 1 7 850.8 9.69
1 -1 -7 1040.36 11.15
1 -1 -7 1054.09 9.15
-1 1 7 960.19 9.23
1 -1 -7 933.4 8.25
1 -1 -7 1096.59 8.6
-1 1 7 942.57 9.02
1 -1 -7 1109.26 9.39
1 -1 -7 1165.41 9.94
1 -1 -7 915.38 8.5
-1 1 6 18.74 1.6
1 -1 -6 144.27 2.9
-1 1 6 123.64 2.96
1 -1 -6 123.44 3.59
-1 1 6 16.3 1.43
1 -1 -6 131.29 3.13
1 -1 -6 142.89 2.79
-1 1 6 131.07 3.47
-1 1 6 113.08 3.11
1 -1 -6 146.95 2.85
1 -1 -6 150.28 2.98
-1 1 6 115.92 2.97
1 -1 -6 138.17 2.84
-1 1 6 117.02 3.08
1 -1 -6 133.39 2.57
1 -1 -6 146.07 2.49
-1 1 6 111.98 2.69
-1 1 6 123.67 2.63
1 -1 -6 136.08 2.46
-1 1 5 142.96 2.33
-1 1 5 145.88 3.04
1 -1 -5 187.28 3.01
-1 1 5 159.27 3.05
1 -1 -5 112.96 1.93
1 -1 -5 134.55 3.01
1 -1 -5 137.54 1.93
1 -1 -5 194.48 2.99
1 -1 -5 194.97 3.04
-1 1 5 157.08 2.8
1 -1 -5 135.96 1.98
1 -1 -5 137.25 3.49
-1 1 5 129.54 3.03
1 -1 -5 181.4 2.52
1 -1 -5 124.12 1.99
-1 1 5 123.89 2.96
-1 1 5 133.29 3.03
1 -1 -5 188.33 2.51
-1 1 5 153.48 2.98
1 -1 -5 184.74 2.79
-1 1 4 206.58 2.93
1 -1 -4 179.22 2.11
-1 1 4 139.41 2.76
1 -1 -4 256.49 2.67
-1 1 4 141.81 2.87
1 -1 -4 199.29 2.6
1 -1 -4 224.15 2.52
-1 1 4 192.2 2.53
-1 1 4 214.86 2.95
1 -1 -4 202.41 2.67
1 -1 -4 212.08 3.08
1 -1 -4 208.6 3.75
1 -1 -4 195.82 3.33
1 -1 -4 261.83 3.15
-1 1 4 147.67 3.26
1 -1 -3 497.09 5.02
-1 1 3 448.12 3.85
-1 1 3 499.53 4.42
-1 1 3 449.82 3.83
-1 1 3 553.47 5.33
-1 1 3 505.35 4.36
1 -1 -3 501.07 4.39
-1 1 3 412.44 4.33
-1 1 3 513.43 4.29
1 -1 -3 499.44 4.03
1 -1 -3 460.12 3.54
1 -1 -3 489.28 4.01
1 -1 -3 472.68 4.8
-1 1 3 481.11 4.37
1 -1 -2 7953.25 33.03
-1 1 2 8300.97 32.89
1 -1 -2 8357.95 31.88
-1 1 2 8269.39 32.57
1 -1 -2 8230.72 33.05
1 -1 -2 8288.17 33.89
-1 1 2 8012.33 32.61
1 -1 -1 21.81 0.71
-1 1 1 22.16 0.83
1 -1 -1 21.46 0.46
-1 1 1 22.81 0.81
-1 1 1 22.41 0.79
-1 1 1 21.65 0.68
1 -1 -1 24.2 0.78
-1 1 1 24.66 0.88
-1 1 0 159.88 2.25
-1 1 0 128.92 1.78
-1 1 0 143.72 2.11
1 -1 0 149.39 1.87
-1 1 0 153.43 2.03
-1 1 0 148.03 2.19
-1 1 0 150.24 1.98
1 -1 0 137.26 1.49
1 -1 0 120.44 1.85
1 -1 0 135.84 1.97
1 -1 1 0.43 0.49
-1 1 -1 1.01 0.44
-1 1 -1 0.42 0.28
1 -1 1 1.37 0.37
1 -1 1 0.36 0.59
1 -1 1 0.6 0.39
-1 1 -1 1.3 0.42
1 -1 2 211.16 2.73
1 -1 2 181.9 2.96
1 -1 2 173.23 3.07
-1 1 -2 182.79 3.05
1 -1 2 161.14 2.51
-1 1 -2 175.22 2.29
1 -1 2 136.5 2.09
1 -1 2 158 1.42
-1 1 -2 146.53 2.5
1 -1 2 167.25 2.43
1 -1 2 157.85 2.65
1 -1 3 160.74 2.29
1 -1 3 140.69 2.38
1 -1 3 156.31 1.8
-1 1 -3 146.62 2.52
1 -1 3 177.15 3.08
1 -1 3 168.34 2.54
-1 1 -3 138.92 2.29
1 -1 3 167.66 3.28
1 -1 3 155.41 2.65
-1 1 -3 132.7 2.49
-1 1 -3 121.68 2.44
1 -1 3 150.4 2.74
-1 1 -3 138.76 2.81
1 -1 3 140.78 2.13
1 -1 4 1845.24 13.43
-1 1 -4 1950.76 12.26
-1 1 -4 1864.78 11.46
1 -1 4 2071.24 15.54
1 -1 4 1692.25 9.49
-1 1 -4 1864.07 11.01
1 -1 4 1916.45 9.61
1 -1 4 2110.52 12.63
1 -1 4 1954.92 14.48
-1 1 -4 2224.9 13.47
-1 1 -4 2089.32 12.34
-1 1 -4 1865.13 12.3
-1 1 -5 575.94 6.85
1 -1 5 493.38 7.03
-1 1 -5 500.86 5.34
-1 1 -5 655.58 7.63
1 -1 5 492.07 7.75
-1 1 -5 567.03 6.04
-1 1 -5 510.05 5.73
-1 1 -5 554.22 6.45
1 -1 5 486.92 6.76
1 -1 5 424.56 7.12
1 -1 5 564.4 6.66
-1 1 -5 584.53 6.86
-1 1 -5 690.54 7.99
1 -1 5 464.68 8.03
-1 1 -6 317.29 4.34
1 -1 6 263.9 6.7
1 -1 6 278.31 6.27
-1 1 -6 274.43 4.49
-1 1 -6 295.1 5.24
-1 1 -6 273.82 4.18
1 -1 6 265.25 4.85
-1 1 -6 259.46 4.11
1 -1 6 270.16 5.37
1 -1 6 245.91 5.83
-1 1 -6 319.1 5.46
-1 1 -6 292.75 4.99
-1 1 -6 358.29 5.95
-1 1 -6 357.52 5.91
-1 1 -6 304.88 4.39
1 -1 6 290.66 5.2
-1 1 -6 341.13 5.47
-1 1 -7 99.59 2.82
-1 1 -7 110.84 2.91
-1 1 -7 121.36 3.59
1 -1 7 101.18 4.07
1 -1 7 105.42 4.66
-1 1 -7 109.24 3.41
-1 1 -7 120.61 3.65
1 -1 7 99.83 3.52
1 -1 7 105.98 3.41
-1 1 -7 115.6 3.66
-1 1 -7 108.1 3.23
-1 1 -7 109.63 3.41
-1 1 -7 109.36 3.18
-1 1 -7 101.8 3.06
-1 1 -7 109.51 3.47
1 -1 7 99.27 4.13
1 -1 8 67 3.1
-1 1 -8 71.71 3.09
1 -1 8 67.95 4.06
1 -1 8 58.68 3.27
-1 1 -8 69.55 2.7
-1 1 -8 61.38 2.7
-1 1 -8 67.95 2.99
-1 1 -8 70.37 2.9
1 -1 8 54.41 2.71
1 -1 8 57.7 2.71
-1 1 -8 71.77 2.89
-1 1 -8 58.76 2.32
-1 1 -8 71.3 2.86
-1 1 -8 67.68 2.72
-1 1 -8 70.61 2.79
1 -1 8 61.33 3.19
-1 1 -8 64.01 2.9
1 -1 9 10.16 1.54
-1 1 -9 12.75 1.76
1 -1 9 10.83 1.87
-1 1 -9 13.48 1.47
1 -1 9 9.73 2.24
-1 1 -9 15.43 1.62
-1 1 -9 16.89 1.54
-1 1 -9 17.57 1.88
-1 1 -9 13.77 1.39
1 -1 9 9.89 1.65
-1 1 -9 11.14 1.33
-1 1 -10 93.47 3.09
-1 1 -10 88.27 2.76
1 -1 10 84.88 3.69
-1 1 -10 88.01 2.72
1 -1 11 0.61 1.17
-1 1 -11 0.75 0.88
-1 1 -12 5.33 0.81
-1 0 12 14.17 1.48
1 0 -12 18.5 1.43
1 0 -11 1.46 1.06
-1 0 11 2.03 1.28
1 0 -11 0.63 1.05
1 0 -11 1.62 1.09
-1 0 10 75.88 3.39
1 0 -10 97.56 2.91
1 0 -10 102.53 3.42
-1 0 10 87.32 3.72
-1 0 10 98.84 3.91
1 0 -10 107 3.62
1 0 -10 105.97 3.49
-1 0 10 88.77 3.37
1 0 -10 99.18 3.09
1 0 -9 1.39 0.95
1 0 -9 1.68 0.86
-1 0 9 90.55 3.42
1 0 -9 1.07 0.85
1 0 -9 0.14 0.98
1 0 -9 3.59 1.09
1 0 -9 2.49 1.18
1 0 -9 1.3 0.96
1 0 -9 1.41 0.75
-1 0 9 0.5 1.28
1 0 -9 1.17 0.66
-1 0 9 79.94 2.54
-1 0 9 0.32 1.15
1 0 -9 1.28 0.92
-1 0 9 0.21 1.15
1 0 -9 0.79 1.08
1 0 -8 814.34 8.14
-1 0 8 799.53 9.52
1 0 -8 807.23 8.95
1 0 -8 814.32 9.01
1 0 -8 812.67 7.82
1 0 -8 822.04 8.07
-1 0 8 663.44 7.53
-1 0 8 755.8 9.15
-1 0 8 40.88 2.63
1 0 -8 788.01 8.02
-1 0 8 745.66 9.91
1 0 -8 749.78 6.82
1 0 -8 825.79 7.83
1 0 -8 936.67 8.08
-1 0 8 38.4 2.27
1 0 -8 930.51 10.42
1 0 -7 285.86 4.38
1 0 -7 285.28 5.11
-1 0 7 239.16 4.64
1 0 -7 256.35 3.72
1 0 -7 266.13 4.03
-1 0 7 262.82 4.31
1 0 -7 302.69 4.93
1 0 -7 281.16 4.34
-1 0 7 310.87 5.71
-1 0 7 261.83 5.18
-1 0 7 210.23 4.01
-1 0 7 241.74 4.86
-1 0 7 227.24 4.27
-1 0 7 266.01 6.22
-1 0 7 238.98 5.22
-1 0 7 217.56 4.25
1 0 -7 294.52 5.25
1 0 -7 307.54 5.62
1 0 -7 275.59 4.11
-1 0 6 51.19 1.87
-1 0 6 249.27 4.85
-1 0 6 169.23 3.43
-1 0 6 175.32 3.56
1 0 -6 70.32 2.34
1 0 -6 60.95 1.77
1 0 -6 60.29 1.84
-1 0 6 55.55 2.27
-1 0 6 45.99 2.22
1 0 -6 58.88 1.74
-1 0 6 51.83 2.2
1 0 -6 67.52 2.4
1 0 -6 66.78 2.6
1 0 -6 58.27 1.75
1 0 -6 63.13 2.33
-1 0 6 56.33 2.76
1 0 -5 24.46 1.08
1 0 -5 32.46 1.61
1 0 -5 29.52 1.54
-1 0 5 19.88 1.38
1 0 -5 25.22 1.12
-1 0 5 19.36 0.96
-1 0 5 23.9 1.33
1 0 -5 28.28 1.54
-1 0 5 17.23 1.41
1 0 -5 28.35 1.72
1 0 -5 28.63 1.19
-1 0 5 25.46 1.6
1 0 -4 493.77 4.54
-1 0 4 488.24 5.17
1 0 -4 606.01 5.97
1 0 -4 545.48 5.7
1 0 -4 490.91 2.79
-1 0 4 355.59 4.72
-1 0 4 413.96 3.1
-1 0 4 355.76 3.98
1 0 -4 428.2 4.98
1 0 -4 504.62 4.47
-1 0 4 535.33 5.9
1 0 -4 521.69 4.65
-1 0 4 561.19 5.2
1 0 -4 440.38 5.5
-1 0 4 431.16 3.1
1 0 -4 425.6 2.89
-1 0 4 467.06 2.98
1 0 -3 9437.79 37.26
-1 0 3 9455.88 38.16
1 0 -3 9402.38 38.22
1 0 -3 9245.53 36.98
-1 0 3 9098.68 37.42
1 0 -3 8939.88 38.38
-1 0 3 9893.61 38.31
-1 0 3 9999 37.39
-1 0 3 9479.2 36.33
1 0 -3 9797.28 39.29
1 0 -3 8990.19 39.36
1 0 -2 5763.7 23.29
-1 0 2 5435.41 22.51
-1 0 2 5252.2 22.22
1 0 -2 5282.65 21.8
-1 0 2 5702.47 21.91
-1 0 2 5177.99 21.94
1 0 -2 5349.31 21.98
-1 0 2 5561.97 22.41
-1 0 2 5384.73 22.44
1 0 -2 5602.4 22.75
1 0 -1 3418.75 14.93
-1 0 1 3466.46 14.06
1 0 -1 3452.46 14.12
1 0 -1 3446.46 14.87
-1 0 0 3.57 0.29
-1 0 0 3.59 0.35
-1 0 0 3.68 0.24
1 0 0 4.19 0.42
-1 0 -1 63.16 1.16
1 0 1 62 1.02
1 0 1 61.27 0.93
1 0 1 63.47 1.03
-1 0 -1 65.37 1.16
-1 0 -2 552.09 3.79
1 0 2 609.11 3.77
-1 0 -2 538.2 3.93
1 0 2 604.09 5
-1 0 -2 602.04 4.58
1 0 2 613.69 3.84
1 0 2 513.18 5.05
-1 0 -2 644.79 4.76
1 0 3 3198.73 14.12
1 0 3 3538.71 15.25
-1 0 -3 2931.94 14.92
-1 0 -3 3353.25 14.94
1 0 3 3477.03 14.56
-1 0 -3 2925.79 15.83
-1 0 -3 3143.17 16.33
-1 0 -3 3211.17 15.18
-1 0 -3 3136.95 15.84
1 0 3 2939.49 17.22
-1 0 -3 3574.37 15.73
-1 0 -3 3194.77 13.83
1 0 3 3686.61 15.45
-1 0 -4 339.22 3.86
-1 0 -4 350.62 3.62
1 0 4 390.01 3.98
-1 0 -4 320.46 4.08
-1 0 -4 397.84 4.14
1 0 4 345.57 3.57
-1 0 -4 230.37 3.27
-1 0 -4 390.8 3.77
1 0 4 308.73 2.36
1 0 4 294.47 2.21
-1 0 -4 253.75 2.15
1 0 4 313.28 3.79
-1 0 -4 248.54 2.08
1 0 4 366.55 4.19
-1 0 -4 282 2.3
1 0 4 259.7 2.31
-1 0 -4 266.79 4.02
-1 0 -4 331.2 4.38
-1 0 -4 285.05 3.9
1 0 4 346.81 3.93
1 0 4 306.67 4.98
-1 0 -5 79.73 1.95
1 0 5 62.82 1.96
-1 0 -5 84.78 2.22
-1 0 -5 69.52 1.94
-1 0 -5 82.53 1.91
-1 0 -5 84.57 1.74
-1 0 -5 89.08 2.47
-1 0 -5 83.19 2.17
1 0 5 70.87 1.76
1 0 5 75.78 2.12
1 0 5 67.6 2.57
1 0 5 79.67 2.82
-1 0 -5 76.95 2.24
1 0 5 67.95 2.75
-1 0 -5 82.03 2.51
1 0 6 31 2.07
-1 0 -6 44.88 1.88
1 0 6 108.65 3.33
-1 0 -6 34.51 1.5
1 0 6 109.69 3.4
1 0 6 32.19 1.37
1 0 6 28.92 2.08
1 0 6 30.73 1.56
-1 0 -6 35.9 1.68
1 0 6 34.5 2.12
-1 0 -6 44.01 1.91
-1 0 -6 41.9 1.65
-1 0 -6 38.81 1.81
-1 0 -6 34.06 1.75
-1 0 -6 34.43 1.38
1 0 6 33.13 1.66
-1 0 -6 40.17 2.01
1 0 7 9.96 1.01
1 0 7 9.4 1.59
1 0 7 9.94 1.23
-1 0 -7 10.36 1.35
1 0 7 250.59 5.38
1 0 7 11.02 1.26
1 0 7 8.92 1.73
-1 0 -7 9.14 0.81
-1 0 -7 9.92 0.97
1 0 7 6.8 1.5
-1 0 -7 13.17 1.21
-1 0 -7 11.05 1.2
-1 0 -7 11.5 1.22
-1 0 -7 10.74 1.04
-1 0 -7 10.47 1.25
-1 0 -7 12.58 1.5
-1 0 -7 11.89 1.18
-1 0 -7 10.88 1.27
1 0 7 232.66 5.03
-1 0 -8 118.64 3.52
1 0 8 109.51 3.83
-1 0 -8 131.73 3.84
-1 0 -8 133.85 3.55
1 0 8 130.2 4.89
-1 0 -8 131.48 3.85
-1 0 -8 131.75 3.74
1 0 8 122.28 3.69
1 0 8 110.41 4
1 0 8 129.52 3.74
-1 0 -8 136.79 3.41
-1 0 -8 142.76 3.64
-1 0 -8 142.78 4.2
1 0 8 108.96 2.79
1 0 8 105.05 3.47
-1 0 -8 130.44 3.25
1 0 9 765.09 9.99
-1 0 -9 935.05 10.06
-1 0 -9 878.48 9.65
1 0 9 1128.62 12.48
-1 0 -9 958.19 10.85
-1 0 -9 955.03 9.63
1 0 9 853.87 10.07
1 0 9 872.47 11.15
-1 0 -9 957.71 9.93
1 0 9 838.33 10.13
1 0 9 966.07 13.25
-1 0 -9 1118 11.14
-1 0 -9 1038.82 12
1 0 9 858.25 10.85
1 0 10 87.84 3.46
-1 0 -10 85.59 2.95
1 0 10 78.92 3.09
-1 0 -10 104.25 3.78
1 0 10 94.57 4.11
-1 0 -10 96.18 3.22
1 0 11 120.31 4.04
-1 0 -11 122.7 3.37
-1 0 -11 124.65 3.81
1 0 12 7.22 1.25
-1 0 -12 7.39 1.11
1 1 -12 19.44 1.27
1 1 -11 73.87 2.62
1 1 -11 72.38 2.43
1 1 -11 79.84 2.68
1 1 -10 30.2 1.98
1 1 -10 31.1 2.11
1 1 -10 29.44 1.84
-1 -1 10 27.92 2.37
1 1 -10 25.7 1.64
1 1 -10 30.24 1.96
1 1 -9 795.31 8.94
1 1 -9 769.13 9.44
1 1 -9 791.82 9.02
1 1 -9 763.96 8.89
1 1 -9 786.55 9.41
1 1 -9 857.85 10.41
1 1 -9 790.9 8.91
1 1 -9 793.22 9.05
1 1 -9 747.41 8.49
-1 -1 9 797.65 11.56
1 1 -9 848.55 8.88
1 1 -9 804.62 9.67
-1 -1 8 190.6 5.09
1 1 -8 173.07 4.01
1 1 -8 179.9 4.25
1 1 -8 176.5 4.32
-1 -1 8 174.08 4.87
1 1 -8 182.6 4.21
-1 -1 8 168.95 4.59
1 1 -8 179.37 4.08
1 1 -8 175.24 4.2
-1 -1 8 184.48 5.61
1 1 -8 175.24 4.24
1 1 -8 188.79 4.19
-1 -1 8 154.96 4.01
1 1 -8 189.69 4.6
-1 -1 7 11.28 1.44
1 1 -7 176.18 3.25
-1 -1 7 183.29 4.86
1 1 -7 175.59 3.73
-1 -1 7 17.63 2.11
-1 -1 7 146.67 3.75
1 1 -7 193.35 4.18
-1 -1 7 170.15 4.34
1 1 -7 187.18 4.08
-1 -1 7 182.65 5.43
1 1 -7 179.29 3.59
1 1 -7 182.46 4.06
1 1 -7 193.03 4.24
1 1 -7 175.09 3.63
1 1 -7 181.41 3.64
1 1 -7 209.31 4.65
1 1 -6 89.49 2.37
1 1 -6 80.79 2.03
-1 -1 6 68.29 2.5
-1 -1 6 69.04 2.69
1 1 -6 84.74 2.53
1 1 -6 90.23 2.63
-1 -1 6 52.73 2.45
-1 -1 6 67.92 2.35
1 1 -6 80.52 1.98
1 1 -6 77.68 2.12
1 1 -6 90.67 2.62
1 1 -6 83.72 2.64
-1 -1 6 71.4 2.59
1 1 -6 96.45 2.97
1 1 -6 82.94 2.35
1 1 -5 188.31 2.79
1 1 -5 209.14 3.16
1 1 -5 223.39 3.64
-1 -1 5 120.02 3.2
-1 -1 5 146.8 3.12
1 1 -5 202.24 3.41
1 1 -5 197.23 2.84
-1 -1 5 143.17 3.43
1 1 -5 227.87 4.01
1 1 -5 216.16 4
1 1 -5 195.32 3.27
1 1 -5 165.98 2.76
1 1 -5 217.62 3.25
1 1 -5 172.65 2.76
-1 -1 5 177.81 3.93
1 1 -4 409.43 4.11
1 1 -4 424.61 4.1
1 1 -4 506.71 4.82
1 1 -4 581 5.21
-1 -1 4 339.77 4.78
-1 -1 4 347.94 4.33
1 1 -4 547.66 4.76
1 1 -4 602.78 4.84
-1 -1 4 453.06 3
1 1 -4 622.44 6.17
-1 -1 4 440.42 5.55
1 1 -4 407.65 4.53
1 1 -4 393.08 4.07
-1 -1 3 1798.17 10.02
-1 -1 3 2152.27 11.94
-1 -1 3 2063.93 10.48
1 1 -3 1960.32 10.78
-1 -1 3 1895.63 14.18
1 1 -3 2235.45 9.92
1 1 -3 2271.4 11.22
1 1 -3 2456.05 11.08
1 1 -3 1980.44 10.07
-1 -1 3 2015.05 9.81
1 1 -3 1878.02 11.83
1 1 -3 2205.33 11.09
1 1 -3 1909.99 10.25
-1 -1 3 1720.92 11.25
-1 -1 2 2395.27 11.29
1 1 -2 2087.16 9.84
1 1 -2 2142.41 10.54
-1 -1 2 2051.96 10.8
-1 -1 2 2075.65 11.07
1 1 -2 2672.28 10.5
1 1 -2 2217.52 9.44
1 1 -2 2122.88 10.07
1 1 -2 1972.6 11.09
-1 -1 2 2377.75 11.81
-1 -1 2 2350.71 10.74
-1 -1 2 1902.67 8.96
-1 -1 2 2177.66 13.32
-1 -1 1 113.88 1.9
-1 -1 1 134.36 1.86
1 1 -1 114.58 1.45
1 1 -1 143.88 1.75
-1 -1 1 105.65 1.88
1 1 -1 111.8 0.96
-1 -1 1 149.12 1.59
-1 -1 1 106.68 2.16
-1 -1 1 135.22 2.21
1 1 -1 135.92 1.35
-1 -1 1 116.76 1.84
-1 -1 1 167.88 2.27
-1 -1 0 657.5 5.02
-1 -1 0 660.24 5.12
-1 -1 -1 11.83 1.05
-1 -1 -1 10.57 0.74
1 1 2 5850.39 19.67
-1 -1 -2 5385.36 22.08
-1 -1 -2 5353.85 21.19
-1 -1 -2 5041.72 20.73
1 1 2 5070.02 21.35
1 1 2 5143.04 20.71
-1 -1 -2 5238.8 21.87
-1 -1 -2 5507.32 21.97
1 1 2 4738.57 21.18
-1 -1 -2 5413.18 21.83
-1 -1 -3 3047.18 14.65
-1 -1 -3 2911.56 15.24
-1 -1 -3 3012.5 13.66
-1 -1 -3 3533.98 13.96
1 1 3 3242.64 16.47
-1 -1 -3 3027.4 13.54
1 1 3 2923.24 13.13
1 1 3 3091.98 12.49
-1 -1 -3 2932.92 13.21
-1 -1 -3 2865.22 14.88
1 1 3 2914.5 16.31
1 1 3 3253.01 16.06
-1 -1 -3 3065.83 15.39
-1 -1 -4 269.14 2.34
-1 -1 -4 321.39 4.47
-1 -1 -4 213.31 3.31
1 1 4 256.94 2.45
1 1 4 226.8 2.58
-1 -1 -4 206.2 2.12
1 1 4 255.33 2.94
-1 -1 -4 300.95 3.92
1 1 4 258.72 4.26
-1 -1 -4 218.81 2.12
-1 -1 -4 181.04 3.22
-1 -1 -4 268.17 2.8
1 1 4 230.82 4.23
-1 -1 -4 202.62 3.46
-1 -1 -5 40.34 1.77
1 1 5 37.09 1.2
-1 -1 -5 53.69 2.06
-1 -1 -5 46.11 1.79
1 1 5 35.75 2.07
1 1 5 37.55 1.41
-1 -1 -5 48.08 1.83
-1 -1 -5 29.18 1.4
1 1 5 51.98 2.57
-1 -1 -5 26.92 1.03
-1 -1 -5 30.8 1.34
-1 -1 -5 42.88 1.32
1 1 5 34.84 1.26
-1 -1 -5 49.51 1.16
1 1 5 42.43 2.17
-1 -1 -5 32.96 1.69
-1 -1 -6 152.59 3.45
-1 -1 -6 142.12 2.59
1 1 6 136.5 3.92
1 1 6 120.48 2.65
-1 -1 -6 171.14 3.8
-1 -1 -6 123.25 3.12
1 1 6 108.16 2
-1 -1 -6 155.72 3.43
-1 -1 -6 130.5 3.27
1 1 6 115.67 2.53
-1 -1 -6 124.51 2.9
-1 -1 -6 141.19 3.55
-1 -1 -6 141.2 2.99
-1 -1 -6 138.83 2.81
1 1 6 105.37 3.49
1 1 6 128.55 3.66
-1 -1 -6 152.12 3.37
1 1 6 139.03 3.9
-1 -1 -7 197.93 4.36
-1 -1 -7 220.01 4.43
1 1 7 385.78 6.19
-1 -1 -7 204.06 4.19
-1 -1 -7 221.58 4.59
1 1 7 174.04 3.5
-1 -1 -7 203.92 4.38
-1 -1 -7 202.83 4.29
1 1 7 173.4 4.46
1 1 7 426.6 6.94
1 1 7 172.61 3.45
-1 -1 -7 208.88 3.86
-1 -1 -7 208.57 3.64
-1 -1 -7 198 3.5
1 1 7 172.92 4.52
1 1 7 411.31 6.11
-1 -1 -7 221.84 4.91
1 1 8 25.36 1.67
-1 -1 -8 32.63 1.77
-1 -1 -8 27.56 1.95
-1 -1 -8 32.24 2.03
-1 -1 -8 30.06 2.07
1 1 8 27.74 2.08
1 1 8 1060.23 10.45
1 1 8 32.36 2.28
1 1 8 1282.28 11.88
1 1 8 1121.66 11.41
-1 -1 -8 43.58 2.22
1 1 8 27.3 1.59
-1 -1 -8 33.54 2.25
1 1 9 67.96 2.8
1 1 9 59.6 2.9
1 1 9 0.73 1.26
-1 -1 -9 81.45 3.03
1 1 9 63.55 2.35
-1 -1 -9 76.35 3.14
1 1 9 81.01 3.09
1 1 9 67.01 3.09
-1 -1 -9 75.03 2.97
-1 -1 -9 81.62 2.89
1 1 9 2.9 1.52
-1 -1 -9 85.62 3.52
-1 -1 -10 59.28 2.71
1 1 10 57.69 3.4
-1 -1 -10 53.17 2.44
1 1 10 46.16 2.54
1 1 10 51.64 2.82
-1 -1 -10 59.54 2.65
-1 -1 -10 65.5 3.16
1 1 11 35.37 2.57
1 1 11 34.07 2.22
-1 -1 -11 34.42 2.32
-1 -1 -11 33.1 2.04
1 1 12 30.21 2.15
-1 -1 -12 32.65 1.79
-1 -1 -13 896.98 7.2
1 2 -11 65.69 2.21
1 2 -10 13.39 1.43
1 2 -10 12.14 1.41
-1 -2 10 10.51 1.64
1 2 -10 12.58 1.25
1 2 -10 12.27 1.35
-1 -2 9 199.43 5.18
1 2 -9 180.85 4.46
1 2 -9 187.76 4.42
1 2 -9 183.68 4.37
1 2 -9 170.86 4
1 2 -9 185.22 4.37
-1 -2 9 171.37 5.33
1 2 -9 163.36 3.91
1 2 -9 199.54 4.39
1 2 -9 209.93 4.58
1 2 -9 175.38 4.33
-1 -2 8 815.72 11.19
1 2 -8 717 8.36
1 2 -8 771.05 9.4
1 2 -8 762.54 8.58
1 2 -8 791.58 9.05
1 2 -8 785.62 9.21
-1 -2 8 737.01 11.78
1 2 -8 763.71 9
1 2 -8 695 8.52
1 2 -8 760.33 9.21
1 2 -8 748.14 8.99
1 2 -7 394.93 6.08
1 2 -7 413.33 6.49
-1 -2 7 387.93 7.59
1 2 -7 398.23 6.58
1 2 -7 416.98 6.02
1 2 -7 391.56 5.87
-1 -2 7 410.04 8.82
1 2 -7 400.33 6.28
1 2 -7 417.7 6.33
1 2 -7 392.13 5.69
1 2 -7 423.82 6.56
1 2 -7 434.32 6.5
1 2 -6 3.7 0.89
1 2 -6 3.5 0.75
-1 -2 6 2.49 1.12
-1 -2 6 3.25 1.37
1 2 -6 3.37 0.81
-1 -2 6 3.75 1.87
1 2 -6 4.03 0.73
1 2 -6 3.93 0.91
-1 -2 6 3.05 1.25
-1 -2 6 3.42 1.22
1 2 -6 3.95 0.88
1 2 -6 3.58 0.93
1 2 -6 2.68 0.76
1 2 -6 3.65 1
-1 -2 5 2132.53 17.4
1 2 -5 2019.13 13.01
1 2 -5 2047.17 12.46
1 2 -5 2077.58 12.16
-1 -2 5 1847.26 17.48
1 2 -5 2069.66 12.5
-1 -2 5 1773.34 14.67
-1 -2 5 2235.1 15.77
-1 -2 5 1531.9 13.4
1 2 -5 2009.97 11.84
-1 -2 5 1419.84 14.78
1 2 -5 2137.83 12.73
1 2 -5 2409.2 14.31
1 2 -5 2363.16 13.97
1 2 -5 2371.37 13.96
-1 -2 4 206.9 4.79
1 2 -4 195 2.86
-1 -2 4 212.45 4.03
-1 -2 4 189.01 4.24
1 2 -4 201.66 3.29
1 2 -4 190.37 3.23
1 2 -4 200.54 2.87
1 2 -4 176.26 2.55
-1 -2 4 186.66 3.61
1 2 -4 205.28 3.61
1 2 -4 216.02 3.12
-1 -2 3 529.64 5.45
1 2 -3 588.43 5.27
-1 -2 3 631.05 6
-1 -2 3 753.18 6.74
-1 -2 3 697.17 6.08
-1 -2 3 695.46 6.22
1 2 -3 596.86 4.71
1 2 -3 554.83 4.73
1 2 -3 811.8 6.11
1 2 -3 560.28 5.35
1 2 -3 607.32 5.55
1 2 -2 5.19 0.53
1 2 -2 6.71 0.64
1 2 -2 5.39 0.47
1 2 -2 5.33 0.42
-1 -2 2 6.16 0.83
1 2 -2 4.19 0.57
-1 -2 2 6.76 0.73
-1 -2 2 3.88 0.86
-1 -2 2 4.26 0.83
-1 -2 2 6.24 0.73
-1 -2 1 46.29 1.82
-1 -2 1 48.28 1.68
1 2 -1 44.91 1.04
1 2 -1 49.94 1.13
-1 -2 1 39.8 1.68
-1 -2 1 54.42 1.64
1 2 -1 45.93 0.99
-1 -2 0 247.01 3.93
-1 -2 0 247.87 3.75
1 2 0 243.13 1.76
-1 -2 -1 1841.47 11.48
-1 -2 -1 2363.97 13.69
1 2 2 3720.39 13.72
-1 -2 -2 3735.64 18.26
1 2 2 3422.14 15.47
-1 -2 -2 4187.74 20.07
-1 -2 -2 3562.79 17.59
-1 -2 -2 3930.5 19.69
-1 -2 -3 2629.27 14.54
-1 -2 -3 2577.37 14.03
1 2 3 2587.26 10.84
-1 -2 -3 3068.7 15.22
-1 -2 -3 2466.23 13.12
-1 -2 -3 2926.64 14.09
-1 -2 -3 2941.59 15.08
-1 -2 -3 2384.83 11.58
1 2 3 2453.51 12.38
1 2 3 2610.38 11.81
1 2 3 2459.33 11.76
-1 -2 -3 2818.73 13.4
-1 -2 -4 3027.54 17.9
1 2 4 3247.77 14.21
-1 -2 -4 3291.25 16.75
-1 -2 -4 3344.68 17.41
-1 -2 -4 3345.35 15.92
1 2 4 3220.85 15.12
-1 -2 -4 3412.94 15.37
1 2 4 3325.58 15.42
-1 -2 -4 3551.9 17.11
-1 -2 -4 3243.21 17.83
-1 -2 -5 50.83 2.16
-1 -2 -5 60.1 1.87
1 2 5 65.63 2.34
-1 -2 -5 59.85 2.25
1 2 5 66.8 1.7
1 2 5 66.73 1.85
1 2 5 75.03 2.04
-1 -2 -5 66.67 1.59
-1 -2 -5 72.14 1.57
1 2 5 67.54 1.49
1 2 5 71.44 2.2
-1 -2 -5 54.82 2.23
-1 -2 -6 17.89 1.51
1 2 6 15.13 1.06
1 2 6 13.57 1.08
-1 -2 -6 18.44 1.27
1 2 6 18.16 1.02
1 2 6 15.76 1.58
1 2 6 13.73 1.12
-1 -2 -6 11.77 1.38
1 2 6 15.17 1.45
1 2 6 14.72 1.23
1 2 6 18.53 1.44
1 2 7 1091.53 9.96
-1 -2 -7 1487.89 12.93
-1 -2 -7 1246.11 12.5
1 2 7 1025.68 8.73
-1 -2 -7 1407.33 11.86
1 2 7 992.07 8.68
1 2 7 1884.76 15.4
1 2 7 1061.23 11.31
-1 -2 -7 1246.75 12.46
1 2 7 1165.8 10.07
-1 -2 -7 1513.04 11.44
1 2 7 1215.29 12.56
1 2 7 1316.82 10.33
1 2 7 1306.12 13.01
-1 -2 -8 190.72 4.68
-1 -2 -8 171.98 4.23
-1 -2 -8 168.48 4.68
1 2 8 159.04 4.76
1 2 8 152.04 3.67
-1 -2 -8 179.37 4.7
1 2 8 150.37 3.36
1 2 8 152.54 4.6
-1 -2 -8 176.9 3.98
1 2 8 149.98 3.74
1 2 8 154.56 4.68
1 2 9 271.06 5.05
-1 -2 -9 314.16 5.83
1 2 9 286.54 5.82
1 2 9 263.93 5.85
1 2 9 307.92 5.69
-1 -2 -9 328.09 6.39
1 2 9 319.13 6.64
1 2 9 275.85 5.43
-1 -2 -9 290.84 5.2
-1 -2 -9 330.58 6.58
-1 -2 -10 264.58 5.06
1 2 10 16.44 1.82
1 2 10 234.71 5.24
-1 -2 -10 304.57 6.11
-1 -2 -10 293.23 5.85
1 2 10 262.56 5.38
1 2 10 254.12 4.87
1 2 10 302.46 5.91
1 2 10 239.51 5.29
1 2 10 21.2 2.08
-1 -2 -11 63.76 2.85
1 2 11 56.67 2.82
-1 -2 -12 201.36 4.29
1 2 12 197.58 4.89
-1 -2 -13 132.1 2.82
1 3 -10 310.02 4.66
-1 -3 10 287.31 4.94
1 3 -10 347.46 4.94
1 3 -10 340.14 5.03
-1 -3 9 447.06 7.96
1 3 -9 503.9 6.96
1 3 -9 465.44 6.63
1 3 -9 537.03 7.46
1 3 -9 508.73 7.02
-1 -3 9 477.16 7.49
1 3 -9 521.16 7.25
1 3 -8 24.52 1.93
1 3 -8 25.15 1.99
1 3 -8 22.54 1.85
1 3 -8 18.99 1.59
-1 -3 8 21.49 2.27
1 3 -8 22.77 1.94
-1 -3 8 807.85 9.55
-1 -3 8 19.66 2.62
1 3 -8 19.23 1.72
1 3 -8 15.34 1.43
1 3 -8 17.64 1.69
-1 -3 8 681.06 11.04
1 3 -7 271.5 5.7
-1 -3 7 19.17 2.78
1 3 -7 266.62 4.88
-1 -3 7 25.43 2.47
1 3 -7 275.11 5.31
1 3 -7 243.8 4.54
1 3 -7 235.45 4.71
1 3 -7 274.09 5.37
1 3 -7 247.85 5
1 3 -7 254.86 5.15
-1 -3 7 246.22 6.23
-1 -3 7 237.67 7.2
1 3 -7 240.82 4.75
1 3 -6 38.14 1.95
1 3 -6 33.96 1.69
1 3 -6 35.01 1.94
1 3 -6 35.23 1.9
-1 -3 6 29.71 3.06
1 3 -6 35.22 1.75
-1 -3 6 35.2 2.63
1 3 -6 38.77 1.89
1 3 -6 34.72 1.8
1 3 -6 34.99 1.96
1 3 -6 35.56 1.96
-1 -3 5 403.53 7.7
-1 -3 5 294.42 6.02
-1 -3 5 412.62 7.15
1 3 -5 403.04 5.76
1 3 -5 367.48 4.82
1 3 -5 421.15 5.12
-1 -3 5 337.3 7.85
1 3 -5 455.6 5.97
1 3 -5 391.4 5.28
1 3 -5 375.44 4.99
1 3 -5 410.63 5.29
1 3 -5 449.97 5.94
1 3 -5 438.05 5.49
-1 -3 4 920.11 10.5
1 3 -4 1041.99 8.21
-1 -3 4 1078.06 13.62
-1 -3 4 1127.34 12.97
1 3 -4 999.89 8.59
1 3 -4 1045.66 9.61
1 3 -4 1203.72 8.83
-1 -3 4 1180.71 12.11
1 3 -4 1105.35 8.99
1 3 -4 1322.57 10.26
1 3 -4 1279.27 9.49
-1 -3 3 852.85 8.86
1 3 -3 763.57 6.77
-1 -3 3 614.4 6.82
-1 -3 3 809.81 9.36
-1 -3 3 826.84 9.49
1 3 -3 709.9 6.57
1 3 -3 872.9 6.5
1 3 -3 710.65 7.15
1 3 -3 713.19 6.6
-1 -3 3 608.99 6.73
-1 -3 2 1.82 0.97
1 3 -2 1.78 0.55
-1 -3 2 1.9 0.94
-1 -3 2 1.73 0.91
1 3 -2 3.45 0.64
1 3 -2 2 0.53
-1 -3 2 2.21 0.97
-1 -3 2 5.28 1.04
-1 -3 1 631.39 8.24
1 3 -1 547.5 5.38
-1 -3 1 521.42 7.29
1 3 -1 485.37 4.74
-1 -3 1 527.14 6.67
1 3 -1 596.79 4.42
-1 -3 1 463.96 6.61
-1 -3 0 127.74 3.5
1 3 0 164.43 1.86
1 3 0 189.13 3.5
-1 -3 0 160.1 4.16
-1 -3 0 137.89 3.68
-1 -3 0 145.22 3.47
-1 -3 -1 66.06 2.84
-1 -3 -1 52.89 2.31
1 3 2 96.99 1.46
-1 -3 -2 101.49 3.1
1 3 3 937.44 5.02
-1 -3 -3 984.81 9.04
-1 -3 -3 976.62 8.57
-1 -3 -3 989.6 9.35
1 3 3 953.25 6.91
-1 -3 -4 304.23 4.95
1 3 4 230.02 2.38
1 3 4 274.14 3.56
1 3 4 245.19 3.22
-1 -3 -4 291.18 4.4
-1 -3 -4 276.54 4.45
-1 -3 -4 251.83 4.18
-1 -3 -4 270.9 4.65
1 3 4 272.47 3.39
1 3 5 185.81 3.69
1 3 5 173.82 3.21
-1 -3 -5 157.76 3.27
-1 -3 -5 147.98 2.84
1 3 5 166.57 2.73
-1 -3 -5 162.8 3.17
1 3 5 157.58 2.53
1 3 5 152.62 1.97
-1 -3 -5 152.05 3.26
1 3 5 165.02 2.79
-1 -3 -5 160.65 3.86
-1 -3 -6 2968.09 17.25
-1 -3 -6 2692.61 19.98
-1 -3 -6 3008.6 17.17
1 3 6 3102.98 18.33
1 3 6 3081.07 18.47
-1 -3 -6 2858.5 19.47
-1 -3 -6 2654.88 17.34
1 3 6 3007.17 16.54
1 3 6 3176.78 17.36
1 3 6 3080.19 16.23
1 3 6 3176.45 17.46
-1 -3 -6 2753.48 20.52
-1 -3 -7 343.8 7.23
-1 -3 -7 505.4 7.9
1 3 7 378.18 5.45
1 3 7 431.34 6.92
1 3 7 304.29 5.24
1 3 7 391.14 6
1 3 7 407.47 6.94
-1 -3 -7 350.37 7.17
-1 -3 -7 327.48 5.55
1 3 7 398.05 6
1 3 7 412.89 5.96
1 3 7 394.99 5.56
-1 -3 -7 510.41 7.68
1 3 7 449.74 6.89
-1 -3 -7 335.15 6.87
-1 -3 -8 5.49 1.53
-1 -3 -8 3.59 1.47
-1 -3 -8 3.69 1.22
-1 -3 -8 5.47 1.37
1 3 8 4.22 0.95
1 3 8 3.55 1.51
1 3 8 4.32 1.11
-1 -3 -8 8.82 1.82
1 3 8 4.59 1.59
-1 -3 -8 4.72 1.28
1 3 8 4.6 1.34
1 3 9 47.12 3.14
-1 -3 -9 58.76 3.36
1 3 9 40.54 2.23
-1 -3 -9 49.26 3.03
-1 -3 -9 49.77 2.7
-1 -3 -9 40.03 2.33
1 3 9 38.9 2.73
1 3 9 31.93 2.56
1 3 10 65.88 2.73
-1 -3 -10 82.93 3.7
1 3 10 70.35 3.42
1 3 10 2.59 1.25
1 3 10 69.72 3.29
-1 -3 -10 79.41 3.18
-1 -3 -10 82.97 3.7
1 3 10 66.61 2.96
1 3 10 4.23 1.98
-1 -3 -11 22.84 2.06
-1 -3 -11 23.61 2
1 3 11 16.3 1.88
-1 -3 -11 21.11 1.79
-1 -3 -11 21.92 2.01
-1 -3 -12 315.33 5.61
-1 -3 -12 321.9 5.4
-1 -3 -13 616.71 6.45
1 4 -9 211.05 3.59
-1 -4 9 208.36 3.99
1 4 -9 223.95 4.04
1 4 -9 225.98 3.79
1 4 -8 2.38 1.07
-1 -4 8 1.17 1.59
1 4 -8 3.56 1.22
-1 -4 8 3.77 1.28
1 4 -8 2.55 1.05
1 4 -8 2.52 1.05
1 4 -8 2.26 1.05
1 4 -8 2.19 0.96
1 4 -7 78.94 2.83
-1 -4 7 70.86 3.44
-1 -4 7 74.01 4.18
-1 -4 7 69.9 3.53
-1 -4 6 54.55 3.34
1 4 -6 58.16 2.61
1 4 -6 57.74 2.56
1 4 -6 60.42 2.57
-1 -4 5 1249.45 15.1
1 4 -5 1276.93 12.2
-1 -4 5 1042.29 15.72
1 4 -5 1236.3 11.29
1 4 -5 1124.36 10.23
1 4 -5 1428.24 12.38
1 4 -5 1221.33 11.06
-1 -4 4 699.01 11.7
1 4 -4 668.04 7.93
1 4 -4 690.23 8.8
1 4 -4 677.39 7.69
1 4 -4 796.13 8.21
1 4 -4 780.16 8.09
-1 -4 3 3.75 1.07
1 4 -3 7.52 1.16
1 4 -3 6.27 1.01
-1 -4 3 5.55 1.71
-1 -4 3 7.3 1.78
1 4 -3 6.41 0.79
1 4 -3 7.73 1.03
-1 -4 2 108.04 3.52
-1 -4 2 117.07 3.37
-1 -4 2 142.22 3.25
-1 -4 2 94.01 3.24
1 4 -2 137.85 3
1 4 -2 144.14 2.37
-1 -4 2 144.9 4.18
-1 -4 2 141.39 3.99
-1 -4 2 148.2 4.04
1 4 -2 183.98 3.62
1 4 -2 156.8 3.5
-1 -4 2 111.4 3.44
-1 -4 1 331.64 6.39
-1 -4 1 418.43 7.02
-1 -4 1 437.05 7.36
-1 -4 1 348.88 6.29
1 4 -1 498.31 6.3
-1 -4 1 335.46 6.44
-1 -4 1 415.02 5.69
1 4 -1 423.72 5.11
-1 -4 1 444.92 7.5
-1 -4 1 376.66 6.85
-1 -4 0 6.59 1.48
-1 -4 0 6.79 1.45
-1 -4 0 6.37 1.57
1 4 0 8.08 0.7
-1 -4 0 9.13 1.88
-1 -4 0 7.55 1.41
-1 -4 0 6.09 1.53
1 4 0 8.46 1
-1 -4 -1 186.74 5.24
-1 -4 -1 225.79 5.87
1 4 1 267.01 3.95
-1 -4 -1 185.54 5.44
1 4 1 311.76 5.42
1 4 1 251 3.61
-1 -4 -1 216.27 5.36
-1 -4 -2 2046.57 18.35
-1 -4 -2 1935.1 17.24
-1 -4 -3 235.16 5.25
1 4 3 224.37 3.39
1 4 3 219.2 3.18
-1 -4 -3 236.62 4.79
-1 -4 -3 239.48 5.5
-1 -4 -3 238.18 5.7
-1 -4 -3 234.22 5.39
-1 -4 -3 245.05 5.2
-1 -4 -3 237.55 5.37
-1 -4 -3 242.06 5.33
1 4 3 264.65 4.3
-1 -4 -4 6.76 1.38
-1 -4 -4 5.65 1.33
-1 -4 -4 9.58 1.25
-1 -4 -4 8.49 1.7
1 4 4 5.88 0.63
-1 -4 -4 5.76 1.2
-1 -4 -4 4.99 1.19
1 4 4 6.03 0.84
-1 -4 -4 5.39 1.26
-1 -4 -4 6.66 1.22
1 4 4 7.31 0.82
-1 -4 -5 0.74 0.98
-1 -4 -5 2.67 1.19
-1 -4 -5 0.38 0.85
-1 -4 -5 0.44 0.99
1 4 5 1.18 0.86
-1 -4 -5 0.37 0.85
1 4 5 0.49 0.87
1 4 5 0.88 0.49
-1 -4 -5 1.29 1.14
-1 -4 -5 0.07 0.94
1 4 5 1.02 0.62
-1 -4 -5 0.43 0.92
1 4 5 0.48 0.41
1 4 6 26.96 1.42
-1 -4 -6 20.68 1.54
-1 -4 -6 23.16 1.97
1 4 6 26.08 1.34
-1 -4 -6 21.23 2.05
-1 -4 -6 27.45 2.39
-1 -4 -6 19.79 1.5
1 4 6 23.93 1.74
-1 -4 -6 20.77 1.58
1 4 6 25.8 1.41
1 4 7 790.75 9.08
1 4 7 893.9 8.42
1 4 7 839.64 9.4
-1 -4 -7 768.78 10.88
1 4 7 805.95 8.78
1 4 7 958.76 9.83
-1 -4 -7 878.2 12.84
1 4 7 949.88 9.49
-1 -4 -7 1018.84 11.63
1 4 8 209.72 4.75
1 4 8 228.7 5
1 4 8 258.28 6.15
-1 -4 -8 293.38 6.59
1 4 8 232.47 5.9
1 4 8 221.34 4.49
-1 -4 -8 187.91 5.75
1 4 8 233.65 5.26
1 4 8 208.91 4.83
-1 -4 -8 281.06 5.76
-1 -4 -8 203.96 6.51
1 4 8 230.74 5.5
-1 -4 -9 87.75 4.39
1 4 9 77.86 3.91
1 4 9 78.45 2.91
1 4 9 80.51 3.94
1 4 9 79.59 3.1
-1 -4 -9 84.75 3.93
-1 -4 -10 205.71 5.6
1 4 10 213.85 5.83
1 4 10 198.31 5.64
-1 -4 -10 219.24 5.36
1 4 10 17.03 2.78
1 4 10 168.55 4.56
1 4 10 181.45 4.45
1 4 10 181.16 4.45
1 4 10 10.91 1.5
-1 -4 -10 246.81 6.65
1 4 11 482.47 7.05
-1 -4 -11 21.42 1.89
-1 -4 -11 17.62 2.1
1 4 11 527.4 7.94
1 4 11 12.47 1.96
1 4 11 12.37 1.92
1 4 12 24.29 1.92
-1 -4 -12 27.18 1.93
-1 -4 -12 24.61 1.71
-1 -4 -13 146.84 2.88
1 5 -8 4.53 0.84
-1 -5 8 5.14 1
1 5 -8 5.33 0.85
1 5 -7 210.28 4.15
1 5 -7 179.91 3.66
1 5 -7 196.16 4.3
-1 -5 7 162.81 4.19
1 5 -7 173.73 3.69
1 5 -6 11.6 1.32
1 5 -6 16.06 1.5
-1 -5 6 11.24 1.78
1 5 -6 13.75 1.6
1 5 -6 12.59 1.43
1 5 -6 13.85 1.59
1 5 -5 167.24 3.73
1 5 -5 172.23 4.29
1 5 -4 711.23 9.48
-1 -5 4 707.86 11.54
1 5 -3 367.95 6.75
-1 -5 3 360.2 8.23
1 5 -3 365.2 6.33
-1 -5 2 42.12 2.65
-1 -5 2 41.86 2.38
-1 -5 2 51.19 3.38
-1 -5 2 45.16 2.57
-1 -5 2 41.4 2.39
1 5 -2 57.19 2.63
-1 -5 2 43.7 2.49
-1 -5 2 42.46 2.48
1 5 -2 64.76 2.64
1 5 -2 52.89 2.22
-1 -5 2 41.32 2.4
-1 -5 1 172.52 5
-1 -5 1 176.41 5.26
-1 -5 1 192.27 4.01
-1 -5 1 144.12 5.19
-1 -5 1 161.9 4.67
-1 -5 1 155.86 4.63
-1 -5 1 177.67 5.22
-1 -5 1 186.69 5.35
1 5 -1 230.32 4.85
-1 -5 1 184.86 5.21
1 5 -1 196.97 3.93
-1 -5 1 191.94 5.46
-1 -5 0 119.52 4.57
-1 -5 0 104.62 3.96
-1 -5 0 117.78 4.57
-1 -5 0 114.79 4.6
-1 -5 0 100.28 4.35
-1 -5 0 101.9 4.43
-1 -5 0 105.92 4.21
-1 -5 0 107.17 4.35
1 5 0 131.12 3.72
1 5 0 115.48 3.05
-1 -5 0 110.51 3.23
-1 -5 0 106.02 4.45
1 5 0 105.35 2.97
-1 -5 -1 84.81 4.19
-1 -5 -1 90.86 4.25
1 5 1 113.23 3.11
-1 -5 -1 91.54 4.13
-1 -5 -1 92.95 4.39
-1 -5 -1 92.09 4.18
-1 -5 -1 87.35 4.17
-1 -5 -1 120.85 5.43
-1 -5 -1 89.69 4.32
-1 -5 -1 103.6 3.27
-1 -5 -1 93.27 4.39
-1 -5 -2 563.87 10.02
-1 -5 -2 537.81 9.98
1 5 2 656.99 8.34
-1 -5 -2 735.02 13.04
-1 -5 -2 622.43 10.5
-1 -5 -2 406.79 6.1
1 5 2 786.77 8.48
-1 -5 -2 734.89 9.08
-1 -5 -2 543.38 10.04
-1 -5 -3 419.42 8.48
1 5 3 459.23 6.68
-1 -5 -3 382.52 7.82
-1 -5 -3 436.88 8.84
-1 -5 -3 400.5 8.21
1 5 3 428.08 6.71
-1 -5 -4 16.32 2.08
1 5 4 12.53 1.56
-1 -5 -4 13 1.61
-1 -5 -4 14.37 2.09
-1 -5 -4 15.79 1.85
-1 -5 -4 11.28 1.82
1 5 4 12.42 1.53
1 5 4 20.73 1.58
-1 -5 -4 17.66 2.1
-1 -5 -4 16.41 2.09
-1 -5 -4 22.2 2.73
-1 -5 -4 15.91 1.88
-1 -5 -4 14.09 2.06
1 5 4 14.4 1.3
-1 -5 -5 233.84 5.58
-1 -5 -5 258.72 6.04
-1 -5 -5 241.07 5.77
-1 -5 -5 223.25 5.48
-1 -5 -5 238.24 5.71
-1 -5 -5 228.19 5.42
-1 -5 -5 226.46 5.68
1 5 5 203.96 4.37
-1 -5 -5 224.79 5.7
1 5 5 206.64 5.04
-1 -5 -5 217.37 5.37
1 5 5 263.63 4.7
-1 -5 -5 215.88 5.5
-1 -5 -5 218.7 5.91
-1 -5 -6 974.68 12.67
-1 -5 -6 876.27 10.95
-1 -5 -6 965.94 10.76
-1 -5 -6 812.37 12.72
-1 -5 -6 914.89 10.87
1 5 6 968.25 10.21
-1 -5 -6 1211.96 14.37
1 5 6 996.54 11.21
-1 -5 -6 876 10.7
-1 -5 -6 889.64 10.46
-1 -5 -6 981.48 10.9
-1 -5 -6 833.66 10.43
-1 -5 -6 877.53 10.51
1 5 6 1195.76 10.39
1 5 7 10.16 1.23
-1 -5 -7 6.97 2.14
-1 -5 -7 16.5 3.98
-1 -5 -7 4.37 1.34
-1 -5 -7 2.61 1.24
1 5 7 7.02 1.58
-1 -5 -7 3.58 1.14
-1 -5 -7 6.72 2.4
1 5 7 11.64 1.4
1 5 8 2.33 1.89
-1 -5 -8 1.74 1.96
-1 -5 -8 1.17 1.36
1 5 8 1.94 1.15
1 5 8 1.4 1.1
1 5 8 1.89 1.62
-1 -5 -9 20.6 1.97
-1 -5 -9 16.71 2.86
1 5 9 20.18 2.49
1 5 9 16.57 1.95
1 5 9 16.28 1.74
1 5 9 19.53 1.97
1 5 9 22.66 2.57
-1 -5 -10 1.47 1.72
1 5 10 7.29 2.3
1 5 10 12.87 2.63
-1 -5 -10 2.06 1.4
1 5 10 1.72 1.62
1 5 10 7.85 1.4
1 5 11 438.93 7.38
-1 -5 -11 394.36 6.8
-1 -5 -11 460.3 7.8
1 5 11 366.41 6.81
-1 -5 -12 313.52 5.14
-1 -5 -12 371.15 5.7
1 5 12 652.51 6.93
1 5 12 591.78 6.19
1 6 -6 377.04 4.85
-1 -6 6 1115.41 10.42
1 6 -5 328.47 5.66
-1 -6 5 313.4 6.37
1 6 -4 6.28 1.22
-1 -6 4 7.19 1.81
-1 -6 4 3.59 1.91
1 6 -4 9.4 1.36
1 6 -4 8.63 1.36
1 6 -3 124.15 4.27
1 6 -3 130.65 4.01
1 6 -3 135.32 4.25
-1 -6 2 42.94 2.59
-1 -6 2 54.39 3.38
1 6 -2 57.23 3.01
1 6 -2 56.5 2.7
-1 -6 2 44.18 2.49
1 6 -2 64.84 3.02
-1 -6 1 137.65 4.53
-1 -6 1 157.75 5.1
-1 -6 1 158.89 5.04
1 6 -1 146.81 4.59
-1 -6 1 174.16 3.84
-1 -6 1 128.98 4.97
1 6 -1 192.96 4.66
-1 -6 1 139.33 4.49
1 6 -1 177.64 4.45
-1 -6 1 165.15 5.08
1 6 -1 154.98 4.37
-1 -6 1 149.37 4.79
1 6 0 1521.74 14.63
-1 -6 0 1757.31 17.86
-1 -6 0 1889.38 14.22
-1 -6 0 1825.72 16.83
-1 -6 0 1912.11 19.48
-1 -6 0 1824.47 19.03
-1 -6 0 1806.74 18.18
1 6 0 2181.6 16.57
-1 -6 0 1702.05 18.57
1 6 0 1854.03 13.41
-1 -6 0 1835.96 18.81
-1 -6 0 1740.31 18.18
-1 -6 -1 777.14 13.07
-1 -6 -1 690.89 12.24
-1 -6 -1 734.1 12.65
-1 -6 -1 759.47 13.13
-1 -6 -1 734.66 12.31
-1 -6 -1 712.45 12.58
1 6 1 753.57 8.48
-1 -6 -1 753.62 9.41
-1 -6 -1 708.29 12.21
-1 -6 -1 688.06 12.35
-1 -6 -2 298.2 8.35
-1 -6 -2 340.85 6.7
-1 -6 -2 287.94 8.17
-1 -6 -2 276.64 7.86
1 6 2 344.66 6.57
-1 -6 -2 283.2 7.97
1 6 2 335.06 5.68
1 6 2 356.75 6.51
-1 -6 -3 56.11 3.98
1 6 3 59.36 2.77
1 6 3 66.2 2.8
-1 -6 -3 68.14 3.36
1 6 3 69.13 2.72
-1 -6 -3 57.01 4.01
-1 -6 -3 60.55 4.14
-1 -6 -3 52.64 3.7
-1 -6 -4 33.12 3.07
1 6 4 22.21 2.01
-1 -6 -4 37.16 3.1
1 6 4 35.15 2.32
-1 -6 -4 30.96 2.79
-1 -6 -4 29.05 2.76
-1 -6 -4 37.14 3.17
-1 -6 -4 33.36 2.95
-1 -6 -4 35.8 3.17
-1 -6 -4 30.26 2.87
1 6 4 37.88 2.02
-1 -6 -5 121.31 4.75
-1 -6 -5 135.02 4.7
-1 -6 -5 119.58 4.48
-1 -6 -5 129.63 4.85
-1 -6 -5 125.9 4.61
-1 -6 -5 133.3 4.85
-1 -6 -5 126.74 4.79
-1 -6 -5 117.1 4.44
1 6 5 132.54 4.64
1 6 5 133.1 3.47
1 6 5 139.24 3.63
-1 -6 -6 1110.16 12.99
-1 -6 -6 995.37 12.75
-1 -6 -6 1106.82 12.6
1 6 6 972.43 12.13
1 6 6 1081.49 14.07
-1 -6 -6 1090.54 13.19
-1 -6 -6 1152.59 12.93
-1 -6 -6 1054.8 12.85
-1 -6 -6 1147.85 15.14
-1 -6 -6 1042.93 12.42
-1 -6 -7 310.33 6
-1 -6 -7 274.73 5.83
1 6 7 271.83 7.01
-1 -6 -7 306.43 6.03
-1 -6 -7 311.92 6.19
-1 -6 -7 295.77 5.97
1 6 7 407.09 6
-1 -6 -7 377.72 8.39
-1 -6 -8 12.5 2.76
1 6 8 5.34 1.55
-1 -6 -8 6.8 1.96
1 6 8 7.5 2.05
1 6 8 8.59 1.42
-1 -6 -9 329.12 6.92
1 6 9 310.44 6.71
-1 -6 -9 335.92 6.37
1 6 9 283.12 5.62
1 6 9 303.26 6.64
-1 -6 -10 132.4 3.31
-1 -6 -10 143.1 4.64
1 6 10 57.52 2.23
-1 -6 -10 146.17 4.19
1 6 10 49.22 3.65
1 6 10 116.35 3.39
1 6 10 127.04 4.13
-1 -6 -11 50.15 2.19
1 6 11 68.39 2.85
-1 -6 -12 36.92 1.47
-1 -7 5 227.22 4.05
-1 -7 4 119.81 3.08
-1 -7 3 6.23 1.44
-1 -7 2 100.94 4.47
-1 -7 2 47.42 2.75
-1 -7 1 128.83 3.87
-1 -7 1 121.71 3.63
-1 -7 1 123.21 3.74
-1 -7 0 9.72 2.09
1 7 0 7.11 1.33
-1 -7 0 7.44 1.78
-1 -7 0 6.56 1.71
-1 -7 0 7.48 1.88
-1 -7 0 6.2 1.66
-1 -7 -1 0.95 1.99
-1 -7 -1 1.33 0.85
1 7 1 0.42 0.83
-1 -7 -1 0.99 1.69
-1 -7 -1 0.96 1.76
-1 -7 -1 0.05 1.72
-1 -7 -2 10.53 2.43
-1 -7 -2 10.1 2.42
-1 -7 -2 9.91 2.33
-1 -7 -2 12.48 1.47
-1 -7 -3 3.08 2.19
-1 -7 -3 4.63 2.13
-1 -7 -3 5.23 1.5
-1 -7 -4 858.89 13.76
-1 -7 -4 901.3 12.09
-1 -7 -4 889.03 13.93
1 7 4 892.52 10.57
-1 -7 -5 639.07 10.85
-1 -7 -5 634.11 10.87
1 7 5 642.65 9.34
-1 -7 -6 81.43 3.65
-1 -7 -6 92.7 3.86
-1 -7 -6 88.48 3.69
-1 -7 -6 91.22 3.73
1 7 6 93.3 2.7
1 7 6 83.99 3.48
-1 -7 -7 20.9 2.29
-1 -7 -7 13.96 1.69
-1 -7 -7 17.88 1.79
-1 -7 -7 16.68 1.7
1 7 7 23.12 1.6
1 7 7 14.92 1.71
-1 -7 -7 19.88 1.82
-1 -7 -8 19.23 1.38
-1 -7 -8 0.07 0.38
-1 -7 -8 95.56 2.65
1 7 8 169.5 3.8
-1 -7 -8 187.08 4.96
1 7 8 125.88 3.93
1 7 8 148.53 4.02
-1 -7 -9 0.04 0.4
1 7 9 8.93 1.41
-1 -7 -10 115.72 2.64
-1 -7 -10 3.06 0.6
-1 -8 1 323.06 5.88
-1 -8 0 253.84 4.16
-1 -8 0 278.18 4.06
-1 -8 -1 174.21 4.64
-1 -8 -1 179.03 4.6
-1 -8 -1 172.96 4.37
-1 -8 -2 77.9 3.48
-1 -8 -2 71.78 3.52
-1 -8 -2 74.19 3.58
-1 -8 -3 79.53 3.77
-1 -8 -3 84.83 2.65
-1 -8 -3 84.76 4.1
-1 -8 -4 7.2 2.01
-1 -8 -4 7.3 1.26
-1 -8 -4 7.79 1.88
-1 -8 -5 22.17 2.25
-1 -8 -5 22.64 1.93
-1 -8 -5 22.94 2.28
-1 -8 -5 21.68 2.13
-1 -8 -5 21.72 2.11
-1 -8 -6 43.39 2.35
-1 -8 -6 43.07 2.43
-1 -8 -6 42.51 2.41
-1 -8 -6 46.25 2.39
-1 -8 -7 136.79 3.34
-1 -8 -7 149.76 3.22
-1 -8 -8 0.71 0.9
2 -7 -6 60.6 2
2 -7 -6 75.69 2.09
2 -7 -5 8.81 1.39
-2 7 5 12.58 0.97
2 -7 -5 12.77 1.47
2 -7 -5 14.13 1.48
2 -7 -5 9.34 1.32
2 -7 -4 8.21 1.59
2 -7 -4 10.07 1.67
-2 7 4 11.54 1
2 -7 -3 8.73 1.68
2 -7 -3 10.41 1.67
-2 7 3 10.66 0.99
2 -7 -2 41.36 2.38
2 -7 -2 41.75 2.28
2 -7 -2 33.2 2.26
2 -7 -2 35.64 2.27
2 -7 -1 103.78 2.77
2 -7 -1 111.88 2.74
-2 6 9 197.05 3.17
-2 6 9 215.15 3.65
2 -6 -8 257.65 5.22
-2 6 8 250.38 4.69
2 -6 -7 2.15 1.33
2 -6 -7 0.02 0.91
2 -6 -7 1.1 0.91
2 -6 -7 0.35 0.92
-2 6 7 1.13 0.7
-2 6 7 2.91 0.95
2 -6 -7 0.6 0.86
-2 6 7 0.88 0.83
2 -6 -6 109.76 3.64
2 -6 -6 132.36 3.92
-2 6 6 174.08 3.98
2 -6 -6 128.01 3.91
2 -6 -6 128.87 4.34
-2 6 6 155.85 3.67
2 -6 -6 106.05 3.63
2 -6 -5 4.41 1.47
-2 6 5 6.62 1.05
-2 6 5 6.2 1.06
2 -6 -5 5.51 1.78
2 -6 -5 7.16 1.76
-2 6 5 5.4 1.01
2 -6 -5 3.44 1.69
2 -6 -5 5.46 1.73
2 -6 -4 145.9 5.53
2 -6 -4 114.18 3.63
-2 6 4 147.48 4
-2 6 4 148.65 4.12
2 -6 -4 120.91 5.18
2 -6 -3 431.65 10.07
2 -6 -3 445.37 9.9
2 -6 -3 445.58 10.01
-2 6 2 601.43 8.5
-2 6 2 542.37 7.6
2 -6 -2 629.01 11.76
2 -6 -2 635.93 11.91
-2 6 2 556.56 7.81
-2 6 2 651.7 9.11
2 -6 -1 105.4 4.96
2 -6 -1 121.78 4.98
2 -6 -1 113.82 4.95
2 -6 -1 104.19 5.03
-2 6 1 107 3.51
-2 6 1 123.95 3.99
-2 6 1 106.04 3.48
-2 6 1 112.78 3.63
2 -6 0 207.91 5.72
2 -6 0 184.69 5.33
2 -6 0 212.89 5.53
-2 6 0 217.36 5.1
2 -6 0 239.26 6.09
2 -6 0 235.48 5.66
-2 6 0 219.04 5.09
-2 6 0 231.32 5.04
2 -6 1 0.5 0.98
2 -6 1 -0.94 1.37
2 -6 1 -0.3 1.04
2 -6 1 0.05 0.91
-2 6 -1 0.35 0.79
-2 6 -1 0.29 0.72
2 -6 1 0.42 0.85
-2 6 -1 -0.21 0.63
-2 6 -1 -0.28 0.84
-2 6 -2 45.29 2.09
2 -6 2 44.49 2.31
-2 6 -2 46.19 2.23
-2 6 -3 179.88 3.48
2 -6 3 162.16 3.34
-2 5 11 101.33 2.16
2 -5 -10 63.8 2.28
2 -5 -10 56.95 2.14
-2 5 9 1.83 1.69
2 -5 -9 281.35 5.03
-2 5 9 228.18 4.96
-2 5 9 5.45 1.84
2 -5 -9 263.51 5.32
-2 5 9 230.81 4.98
-2 5 8 223.19 4.56
-2 5 8 225.33 5.09
2 -5 -7 92.97 3.06
2 -5 -7 44.3 2.33
-2 5 7 81.32 2.92
2 -5 -7 49.49 2.43
2 -5 -7 44.05 2.34
2 -5 -7 54.77 2.49
-2 5 7 86.4 3.16
-2 5 7 88.69 3.22
-2 5 7 66.13 3.24
2 -5 -7 69.35 3.11
2 -5 -6 85.64 3.52
2 -5 -6 80.71 3.52
-2 5 6 118.09 3.57
2 -5 -6 147.86 4.12
2 -5 -6 97.47 3.67
-2 5 6 123.75 3.93
2 -5 -6 99.5 3.76
-2 5 6 116.61 3.89
2 -5 -6 103.95 4.63
2 -5 -6 81.23 3.34
2 -5 -5 38.02 2.96
2 -5 -5 40.92 3.03
2 -5 -5 52.03 2.78
2 -5 -5 39.36 3.01
2 -5 -5 43.08 2.92
2 -5 -5 35.1 2.93
2 -5 -5 36.77 2.91
2 -5 -5 45.39 3.07
-2 5 5 45.97 2.87
-2 5 5 47.32 2.53
-2 5 5 43 2.42
-2 5 5 48.21 3.02
-2 5 4 19.76 1.72
-2 5 4 16.72 1.5
-2 5 4 20.75 1.81
2 -5 -4 17.41 2.04
2 -5 -4 18.04 2.16
2 -5 -4 22.27 2.68
2 -5 -4 20.9 2.76
-2 5 4 22.21 2.08
2 -5 -4 18.92 2.79
2 -5 -4 17.79 2.57
-2 5 4 21.56 1.94
2 -5 -4 20.79 2.78
2 -5 -4 21.11 2.72
2 -5 -4 15.99 2.41
-2 5 4 20.96 1.76
2 -5 -3 114.66 5.77
-2 5 3 117.91 3.75
-2 5 3 114.38 3.71
-2 5 3 122.44 3.92
2 -5 -3 108.57 3.7
2 -5 -3 90.26 3.61
-2 5 3 101.05 3.35
2 -5 -3 109.38 5.87
2 -5 -3 107.66 3.87
-2 5 3 123.36 4.15
-2 5 3 109.52 3.66
2 -5 -3 91.79 4.91
-2 5 3 127.75 4.27
-2 5 3 130.05 4.18
-2 5 2 630.02 9.4
2 -5 -2 603.94 12.58
2 -5 -2 584.92 12.41
2 -5 -2 632.96 13.22
2 -5 -2 636.81 9.75
-2 5 2 599.17 8.81
-2 5 2 651.92 9.41
-2 5 2 605.54 8.8
2 -5 -2 579.55 12.15
-2 5 2 597.62 9.08
-2 5 2 659.24 9.09
-2 5 2 647.08 9.37
-2 5 2 678.61 9.84
-2 5 1 232.7 5.42
2 -5 -1 231.47 8.03
-2 5 1 242.15 5.77
2 -5 -1 245.66 7.89
2 -5 -1 239.19 8.01
-2 5 1 232.87 5.88
2 -5 -1 229.65 7.62
2 -5 -1 230.25 8.27
-2 5 1 234.05 5.92
2 -5 -1 256.43 6.52
-2 5 1 248.09 5.46
2 -5 -1 189.84 6.88
2 -5 -1 243.52 7.64
-2 5 1 274.99 6.51
-2 5 1 226.54 5.43
-2 5 0 0.65 1.01
2 -5 0 0.05 2.04
-2 5 0 0.52 0.92
-2 5 0 0.08 0.9
2 -5 0 0.63 1.84
-2 5 0 0.04 1.01
2 -5 0 0.17 1.95
2 -5 0 0.26 1.94
-2 5 0 0.37 0.95
-2 5 0 0.06 0.9
-2 5 -1 46.94 2.96
2 -5 1 36.61 2.95
-2 5 -1 41.28 2.68
2 -5 1 50.38 3.45
2 -5 1 37.94 2.97
2 -5 1 43.2 2.97
-2 5 -1 48.13 2.41
-2 5 -1 46.91 2.83
2 -5 1 41.26 2.88
-2 5 -1 44.74 2.78
-2 5 -1 46.35 2.81
2 -5 2 602.84 8.86
-2 5 -2 794.97 10.36
2 -5 2 686.92 8.86
2 -5 2 693.91 9.17
2 -5 2 602.53 9.04
2 -5 2 956.38 13.52
-2 5 -2 906.28 12.21
-2 5 -2 925.32 12.89
-2 5 -2 898.57 12.27
-2 5 -2 938.21 12.44
-2 5 -3 346.31 6.66
-2 5 -3 239.82 5.62
-2 5 -3 295.19 6.74
-2 5 -3 302.86 6.79
-2 5 -3 312.27 6.92
-2 5 -3 285.29 6.78
2 -5 3 266.83 6.51
-2 5 -4 15.9 1.69
-2 5 -4 16.58 1.73
2 -5 4 14.02 1.66
-2 5 -4 14.58 1.59
-2 5 -5 2.08 0.86
-2 5 -5 1.86 0.68
-2 5 -5 1.9 0.75
-2 5 -5 2.61 0.9
2 -5 6 28.41 1.32
-2 4 11 3.59 1.14
-2 4 11 0.09 0.76
2 -4 -10 510.46 7.17
2 -4 -10 635.41 8.34
2 -4 -10 512.8 6.91
-2 4 10 321.88 6.09
-2 4 10 409.1 6.57
2 -4 -9 383.34 7.62
2 -4 -9 412.32 7.24
2 -4 -9 428.46 7.36
2 -4 -9 432.36 6.76
-2 4 9 352 6.93
-2 4 9 332.71 6.72
-2 4 9 386.12 6.8
2 -4 -8 128.13 4.24
-2 4 8 106.39 3.42
2 -4 -8 89.55 4.15
2 -4 -8 109.37 3.27
2 -4 -8 113.69 3.64
-2 4 8 116.35 4.02
-2 4 8 104.95 3.73
-2 4 8 95.37 3.84
2 -4 -8 124.38 3.8
-2 4 8 111.16 3.83
2 -4 -7 336.57 7.09
-2 4 7 324.02 6.1
2 -4 -7 195.34 4.43
-2 4 7 302.88 5.77
2 -4 -7 348.82 6.52
-2 4 7 229.35 6.25
2 -4 -7 200.18 4.43
2 -4 -7 294.9 7.27
-2 4 7 299.3 5.94
-2 4 7 309.98 6.03
2 -4 -7 340.33 6.52
-2 4 7 274.37 6.37
2 -4 -6 3.55 1.35
2 -4 -6 3.57 1.22
-2 4 6 5.35 1.1
2 -4 -6 3.35 1.36
2 -4 -6 3.44 1.34
2 -4 -6 4.45 1.16
2 -4 -6 7.99 1.46
-2 4 6 5.43 1.06
2 -4 -6 5.19 1.3
2 -4 -6 4.68 1.35
2 -4 -6 5.04 1.42
2 -4 -6 3.67 1.27
-2 4 6 7.01 1.21
-2 4 6 6.21 1.16
-2 4 6 4.47 1.38
2 -4 -6 5.22 1.43
2 -4 -5 0.33 1.11
2 -4 -5 0.53 1.1
-2 4 5 1.08 0.69
2 -4 -5 0.28 1.13
2 -4 -5 -0.03 1.21
2 -4 -5 0.75 1.09
2 -4 -5 0.39 1.16
2 -4 -5 0.66 1.41
-2 4 5 1.21 0.78
2 -4 -5 0.16 1.16
-2 4 5 1.34 0.85
-2 4 5 5.9 1.38
2 -4 -5 0.59 1.24
2 -4 -5 0.45 1.35
2 -4 -5 0.67 1.12
-2 4 5 2.27 0.9
2 -4 -5 4.77 1.44
2 -4 -4 659.6 10.77
-2 4 4 659.87 8.8
-2 4 4 595.69 7.75
2 -4 -4 683.27 11.34
2 -4 -4 650.58 10.17
2 -4 -4 630.38 10.06
-2 4 4 638.03 8.82
2 -4 -4 517.41 7.81
2 -4 -4 721.98 9.58
2 -4 -4 598.98 10.23
2 -4 -4 586.26 8.32
2 -4 -4 679.63 10.44
-2 4 4 604.31 8.33
-2 4 4 676.93 9.39
-2 4 4 689.4 10.24
2 -4 -4 654.43 10.14
2 -4 -4 534.18 9.09
-2 4 4 707.9 10.45
-2 4 4 671.65 9.12
-2 4 3 1312.5 12.95
-2 4 3 1282.36 12.5
-2 4 3 1185.13 11.64
2 -4 -3 1271.86 13.45
-2 4 3 1424.06 14.12
2 -4 -3 1245.89 16.28
2 -4 -3 1180.89 12.29
-2 4 3 1268.23 12.8
-2 4 3 1456.35 14.61
2 -4 -3 1438.75 18.01
2 -4 -3 1304.23 16.74
-2 4 3 1350.64 13.5
2 -4 -3 1109.63 14.47
-2 4 3 1308.71 12.7
-2 4 3 1342.73 13.08
-2 4 2 427.04 7.23
-2 4 2 409.55 6.94
-2 4 2 411.82 7.11
2 -4 -2 376.54 9.43
2 -4 -2 346.35 6.79
2 -4 -2 342.96 8.29
2 -4 -2 331.89 8.29
2 -4 -2 361.81 8.61
-2 4 2 432.9 6.93
-2 4 2 406.53 6.58
2 -4 -2 386.65 9.75
2 -4 -2 390.9 6.97
-2 4 2 452.62 7.38
2 -4 -2 418.17 7.16
-2 4 2 423.6 7.14
2 -4 -2 308.07 7.9
2 -4 -2 388.41 9.94
2 -4 -2 334.97 6.1
-2 4 1 226.22 5.36
-2 4 1 221.85 5.35
2 -4 -1 235.76 5.56
2 -4 -1 233.55 5.72
-2 4 1 223.69 4.93
-2 4 1 232.1 5.38
-2 4 1 223.16 5.21
2 -4 -1 216.1 6.64
-2 4 1 214.21 5.03
-2 4 1 228.47 5.6
2 -4 -1 212.43 6.61
2 -4 -1 217.29 6.75
2 -4 -1 207.18 6.54
-2 4 1 226.34 4.88
-2 4 1 234.98 5.59
2 -4 0 349.49 8.84
-2 4 0 337.51 6.78
-2 4 0 333.74 6.9
2 -4 0 358.84 9.45
-2 4 0 327.6 6.72
2 -4 0 347.42 8.25
2 -4 0 335.22 7.95
2 -4 0 305.53 8.2
-2 4 0 335.15 6.81
2 -4 0 350.86 8.19
-2 4 0 338.06 6
2 -4 0 377.26 7.35
-2 4 0 334.29 5.89
2 -4 0 292.6 7.46
2 -4 0 355.59 8.11
-2 4 0 338.74 6.9
-2 4 0 346.82 6.38
2 -4 1 233.48 6.73
-2 4 -1 252.34 6.17
2 -4 1 255.79 6.6
-2 4 -1 237.78 6.17
-2 4 -1 215.44 5.78
2 -4 1 235.32 6.32
2 -4 1 244.88 6.31
-2 4 -1 218.21 5.8
2 -4 1 178.6 5.59
2 -4 1 254.48 6.37
2 -4 1 245.99 7.08
2 -4 1 193.99 5.59
-2 4 -1 263.32 5.48
-2 4 -1 228.64 5.38
-2 4 -1 221.07 5.47
-2 4 -1 271.12 5.67
2 -4 1 240.14 6.1
2 -4 2 136.11 4.64
-2 4 -2 150.39 5.04
2 -4 2 148.4 4.6
-2 4 -2 147.76 4.66
2 -4 2 156.56 4.68
-2 4 -2 157.23 5.27
2 -4 2 138.75 4.8
-2 4 -2 150.7 4.87
2 -4 2 159 4.98
2 -4 2 154.51 4.52
2 -4 2 135.62 4.58
-2 4 -2 185.6 4.46
2 -4 2 114.36 4.09
-2 4 -2 177.57 5.43
2 -4 2 175.57 6.06
-2 4 -3 182.87 5.75
2 -4 3 118.12 3.76
-2 4 -3 257.47 6.21
-2 4 -3 195.63 5.83
-2 4 -3 224.19 5
-2 4 -3 174.27 5.5
2 -4 3 195.83 6.43
2 -4 3 112.92 3.73
2 -4 3 194.29 5.14
-2 4 -3 171.47 5.29
-2 4 -3 187.84 5.91
-2 4 -3 237.2 5.16
-2 4 -4 171.18 4.74
-2 4 -4 160.94 5.21
-2 4 -4 149.72 4.96
2 -4 4 144.06 5.26
-2 4 -4 145.41 3.82
-2 4 -4 157.97 5.24
-2 4 -4 165.01 5.42
-2 4 -5 10.45 1.3
2 -4 5 10.73 1.73
-2 4 -5 12.81 1.73
-2 4 -5 13.38 1.79
-2 4 -6 19.72 1.83
-2 4 -6 18.05 1.67
2 -4 7 50.71 2.01
-2 4 -7 65.96 2.34
-2 4 -7 63.93 2.48
-2 4 -7 63.96 1.96
-2 4 -7 46.65 1.84
2 -3 -12 0.59 0.77
2 -3 -12 1.31 0.65
2 -3 -11 30.62 1.94
2 -3 -11 24.84 1.6
2 -3 -11 21.12 1.4
-2 3 11 45.12 2.21
-2 3 11 53.37 2.29
2 -3 -10 63.81 3.13
2 -3 -10 45.67 2.12
-2 3 10 -0.03 1.76
-2 3 10 0.92 1.47
-2 3 10 35.99 2.19
2 -3 -9 150.74 5.21
-2 3 9 117.48 4.34
2 -3 -9 120 3.31
-2 3 9 114.91 4.05
-2 3 9 150.53 4.72
-2 3 9 120.29 3.93
2 -3 -8 103.37 3.6
2 -3 -8 79.89 4.18
2 -3 -8 98.16 3.3
-2 3 8 86.21 3.43
2 -3 -8 84.44 2.97
-2 3 8 75.54 3.66
-2 3 8 87.09 3.62
-2 3 8 78.81 3.36
-2 3 8 93.91 3.29
-2 3 8 94.58 3.48
2 -3 -7 18.26 1.73
-2 3 7 13.82 1.55
2 -3 -7 13.44 1.56
-2 3 7 9.78 1.75
-2 3 7 13.67 1.37
-2 3 7 14.52 1.8
-2 3 7 14.2 1.61
2 -3 -7 12.38 1.49
-2 3 7 13.98 1.61
2 -3 -7 13.82 2.36
-2 3 7 15.46 1.73
2 -3 -7 15.1 1.51
-2 3 6 28.44 1.88
2 -3 -6 18.83 1.49
2 -3 -6 33.82 2.67
2 -3 -6 20.2 1.55
2 -3 -6 19.8 1.51
2 -3 -6 21.29 1.84
-2 3 6 25.37 1.64
2 -3 -6 35.39 2.01
2 -3 -6 30.33 1.83
2 -3 -6 20.04 1.53
-2 3 6 20.26 1.98
2 -3 -6 14.84 1.5
2 -3 -6 33.14 2.12
2 -3 -6 17.16 1.39
-2 3 6 26.49 1.72
-2 3 6 27.92 1.89
-2 3 6 20.06 1.95
-2 3 6 23.35 2.05
2 -3 -5 325.52 5.87
-2 3 5 334.84 5.78
-2 3 5 302.44 4.79
2 -3 -5 302.57 5.95
2 -3 -5 281.42 5.51
2 -3 -5 306.98 5.47
2 -3 -5 337.71 5.52
2 -3 -5 292.99 5.3
2 -3 -5 369.05 5.81
-2 3 5 340.02 5.99
2 -3 -5 287.19 5.25
-2 3 5 295.88 5.05
2 -3 -5 302.76 6.01
2 -3 -5 376.86 7.18
2 -3 -5 315.23 5.51
2 -3 -5 290.85 6.06
-2 3 5 280.2 6.43
-2 3 5 342.25 6.03
-2 3 5 315.35 5.54
-2 3 5 233.84 5.63
-2 3 5 313.01 5.47
2 -3 -5 286.56 5.57
-2 3 4 6.32 0.98
2 -3 -4 4.43 1.35
2 -3 -4 5.42 1.08
-2 3 4 5.03 0.83
2 -3 -4 6.47 1.4
2 -3 -4 6.4 1.15
2 -3 -4 6.06 1.14
2 -3 -4 5.71 1.31
2 -3 -4 6.73 1.11
-2 3 4 5.65 1.04
2 -3 -4 3.87 0.98
2 -3 -4 4.62 1.17
2 -3 -4 6.71 1.38
2 -3 -4 5.94 1.27
2 -3 -4 5 1.19
-2 3 4 5.26 0.94
-2 3 4 4.84 0.86
2 -3 -4 7.29 1.48
-2 3 3 28.61 1.72
2 -3 -3 34.23 1.72
-2 3 3 25.54 1.53
2 -3 -3 34.88 2.21
2 -3 -3 28.4 2.31
2 -3 -3 26.95 1.62
2 -3 -3 20.08 1.42
2 -3 -3 28.56 2.12
2 -3 -3 28.19 1.74
2 -3 -3 26.6 1.8
2 -3 -3 26.96 2.05
-2 3 3 27.51 1.65
2 -3 -3 28.68 2.32
2 -3 -3 27.84 1.61
-2 3 3 24 1.45
-2 3 3 39.99 2.14
2 -3 -3 24.87 1.6
2 -3 -3 29.68 2.3
2 -3 -3 28.28 2.06
-2 3 3 28.88 1.54
2 -3 -3 32.31 2.21
-2 3 3 29.93 1.77
-2 3 3 37.37 2.16
-2 3 3 30.28 1.73
2 -3 -2 1076.37 9.16
2 -3 -2 1018.29 11.33
2 -3 -2 1091.13 10.6
2 -3 -2 1211.88 10.92
2 -3 -2 1087.19 13.63
-2 3 2 1153.79 11.01
2 -3 -2 819.09 9.35
-2 3 2 1098.35 10.22
-2 3 2 1062.36 9.98
-2 3 2 1145.59 10.58
-2 3 2 1307.04 11.8
2 -3 -2 1056.19 12.92
-2 3 2 1187.58 11.15
-2 3 2 1098.59 9.93
-2 3 2 1225.59 11.21
-2 3 2 1254.04 11.43
2 -3 -2 1039.65 12.85
-2 3 1 1.99 0.76
-2 3 1 2.03 0.74
-2 3 1 2.01 0.7
2 -3 -1 1.75 1.05
2 -3 -1 1.78 1.08
-2 3 1 1.93 0.75
2 -3 -1 2.31 0.94
2 -3 -1 2.13 1
2 -3 -1 1.54 1.3
2 -3 -1 3.12 1.45
2 -3 -1 2.2 0.9
-2 3 1 2.42 0.73
-2 3 1 2.73 0.78
2 -3 -1 1.44 1.33
-2 3 1 1.92 0.74
2 -3 -1 2.16 1.38
-2 3 1 2.07 0.75
-2 3 0 288.71 5.55
-2 3 0 291.34 5.59
2 -3 0 292.32 6.43
2 -3 0 304.77 5.98
-2 3 0 285.55 5.55
2 -3 0 306.47 5.51
-2 3 0 288 4.87
2 -3 0 273.74 6.2
2 -3 0 280.27 6.2
-2 3 0 279.17 5.41
-2 3 0 283.51 4.71
2 -3 0 294 6.53
2 -3 0 279.43 6.16
2 -3 0 293.04 7.15
-2 3 0 261.26 4.84
2 -3 0 276.08 6.71
2 -3 0 298.36 5.48
2 -3 0 283.97 6.86
-2 3 -1 1570.36 14.49
-2 3 -1 1500.48 12.24
-2 3 -1 1536.66 14.72
-2 3 -1 1445.58 14.18
2 -3 1 1327.09 11.24
2 -3 1 1750.16 16.13
2 -3 1 1610.72 16.66
2 -3 1 1633.42 14.49
2 -3 1 1738.78 15.98
2 -3 1 1481.54 15.53
2 -3 1 1638.16 14.2
-2 3 -1 1622.17 12.79
2 -3 1 1573.76 15.83
2 -3 1 1602.08 14.96
-2 3 -1 1502.46 13.97
2 -3 1 1644.83 15.1
2 -3 1 1556.83 15.1
-2 3 -1 1636.39 13.22
2 -3 1 1630.51 17.65
-2 3 -1 1479.31 13.55
2 -3 1 1497.06 16.15
-2 3 -2 840.2 9.11
-2 3 -2 650.12 9.44
2 -3 2 530.32 7.78
2 -3 2 703.83 9.66
2 -3 2 716.12 9.02
-2 3 -2 657.05 9.76
2 -3 2 738.68 9.27
2 -3 2 813.6 11.88
2 -3 2 826.37 11.24
2 -3 2 749.45 10.62
2 -3 2 670.66 9.96
-2 3 -2 634.98 9.26
-2 3 -2 648.49 9.84
2 -3 2 733 11.17
2 -3 2 662.07 9.08
2 -3 2 724.3 9.34
2 -3 2 698.53 9.21
-2 3 -2 633.43 9.34
2 -3 2 674.82 9.5
-2 3 -2 711.7 8.4
-2 3 -2 670.03 10.03
-2 3 -2 775.83 8.79
2 -3 2 647.21 9.6
-2 3 -3 26.5 2.05
-2 3 -3 19.43 1.95
2 -3 3 21.87 2.64
2 -3 3 12.25 1.59
2 -3 3 18.4 2.02
-2 3 -3 22.71 2.18
-2 3 -3 23.27 1.68
2 -3 3 14.86 1.56
2 -3 3 18.56 2.03
2 -3 3 29.73 2.59
2 -3 3 18.11 2.03
2 -3 3 24.3 2.66
-2 3 -3 22 2.11
-2 3 -3 18.91 1.99
2 -3 3 16.54 1.86
-2 3 -3 20.36 2.03
-2 3 -3 24.26 1.84
2 -3 3 16.06 1.86
-2 3 -4 98.33 3.58
2 -3 4 85.26 4.3
2 -3 4 67.43 4.14
-2 3 -4 76.67 2.76
-2 3 -4 79.27 3.71
2 -3 4 74.91 4.17
-2 3 -4 82.22 3.94
2 -3 4 67.58 3.17
2 -3 4 67.55 3.17
-2 3 -4 81.1 3.21
-2 3 -4 76.91 3.63
-2 3 -4 99.8 3.62
-2 3 -5 179.78 4.54
-2 3 -5 175.71 5.32
2 -3 5 165.61 5.63
-2 3 -5 160.69 3.74
-2 3 -5 185.62 5.79
-2 3 -5 182.7 5.52
2 -3 5 127.74 5.43
-2 3 -5 150.47 4.1
-2 3 -5 182.13 5.52
-2 3 -5 174.26 5.37
-2 3 -5 202.99 4.83
-2 3 -5 141.81 5.28
-2 3 -6 169.9 4
2 -3 6 157.21 5.9
-2 3 -6 172.11 3.82
2 -3 6 167.82 4.98
-2 3 -6 196.07 5.71
2 -3 6 131.93 5.5
-2 3 -6 194.78 5.33
-2 3 -6 185.23 5.13
-2 3 -6 196.78 5.52
-2 3 -7 641.64 7.43
-2 3 -7 598.06 8.68
-2 3 -7 619.47 9.1
2 -3 7 511.21 9.17
-2 3 -7 593.73 8.28
-2 3 -7 552.16 7.84
2 -3 7 487.79 9.22
-2 3 -7 594.14 8.18
-2 3 -8 334.87 5.16
-2 3 -8 325.67 5.02
-2 3 -9 331.55 3.73
-2 2 13 -0.16 0.84
2 -2 -12 9.37 1.02
2 -2 -12 10.52 1.1
2 -2 -11 29.59 1.86
2 -2 -11 28.27 1.67
2 -2 -10 247.9 5.27
2 -2 -10 238.27 4.71
-2 2 10 532.42 7.57
-2 2 10 644.32 8.16
2 -2 -10 212.15 4.77
2 -2 -10 303.04 6.46
2 -2 -10 222.46 4.57
2 -2 -9 508.28 7.26
2 -2 -9 523.27 7.61
2 -2 -9 484.2 6.8
-2 2 9 529.43 9.11
2 -2 -9 483.88 6.56
-2 2 9 454.68 7.1
2 -2 -9 512.8 7.09
2 -2 -8 3.31 0.95
-2 2 8 2.37 0.89
2 -2 -8 2.86 1.04
2 -2 -8 2.35 1.22
2 -2 -8 2.03 1.7
-2 2 8 2.27 1.46
2 -2 -8 3 0.95
2 -2 -8 3.28 0.95
-2 2 8 2 1.14
2 -2 -8 3.89 0.97
-2 2 8 3.66 1.35
2 -2 -7 7.47 1.83
2 -2 -7 9.25 1.35
2 -2 -7 10.88 1.33
-2 2 7 8.01 1.66
2 -2 -7 8.5 1.13
-2 2 7 8.87 1.18
-2 2 7 8.11 1.26
-2 2 7 8.39 1.3
-2 2 7 8.8 1.31
2 -2 -7 11.78 1.19
-2 2 7 9.29 1.22
-2 2 7 8.7 1.37
2 -2 -7 10.05 1.12
2 -2 -6 11.35 1.08
2 -2 -6 20.56 1.43
-2 2 6 15.08 1.33
-2 2 6 11.51 1.62
-2 2 6 12.8 1.19
-2 2 6 14 1.33
2 -2 -6 12.92 1.42
2 -2 -6 11.83 1.08
2 -2 -6 16.85 2.05
-2 2 6 13.72 1.48
-2 2 6 17.69 1.27
2 -2 -6 20.58 1.36
2 -2 -6 14.74 1.58
-2 2 6 14.41 1.27
-2 2 6 16.18 1.52
2 -2 -6 20.42 1.31
2 -2 -5 448.09 5.83
-2 2 5 363.98 5.29
2 -2 -5 376.93 5.23
-2 2 5 334.8 4.94
2 -2 -5 334.77 4.99
2 -2 -5 316.76 6.03
2 -2 -5 285.69 4.76
2 -2 -5 357.76 5.47
2 -2 -5 349.99 4.82
2 -2 -5 350.6 4.96
-2 2 5 336.13 5.97
2 -2 -5 420.21 5.15
-2 2 5 260.16 5.47
2 -2 -5 388.57 5.08
2 -2 -5 327.94 5.11
-2 2 5 335.06 4.66
-2 2 5 337.93 4.91
-2 2 5 357.33 5.45
-2 2 5 255.59 5.23
-2 2 5 336.15 4.95
2 -2 -4 644.29 6.67
-2 2 4 556.23 6.54
-2 2 4 505.2 5.75
2 -2 -4 544.62 6.3
2 -2 -4 585.32 6.11
2 -2 -4 536.1 6.75
-2 2 4 573.32 6.94
2 -2 -4 504.99 7.13
2 -2 -4 559.23 6.36
-2 2 4 552.98 7.59
-2 2 4 473.72 5.52
-2 2 4 499.33 5.76
-2 2 4 521.77 6.36
-2 2 4 506.96 6.11
2 -2 -4 593.7 4.77
-2 2 4 451.22 6.73
-2 2 4 504.68 5.88
2 -2 -4 502.59 6.63
2 -2 -3 1442.55 10.11
-2 2 3 1373.57 10.66
-2 2 3 1192.15 9.37
2 -2 -3 1243.48 10.77
2 -2 -3 1264.92 9.98
2 -2 -3 1277.82 10.49
2 -2 -3 1397.43 11.8
-2 2 3 1268.76 9.78
-2 2 3 1382.07 10.05
-2 2 3 1299.86 10.59
2 -2 -3 1019.33 8
2 -2 -3 1206.11 9.41
2 -2 -3 1230.77 9.95
2 -2 -3 1381.74 10.91
-2 2 3 1320.78 10.4
-2 2 3 1291.7 9.44
-2 2 3 1321.27 9.96
-2 2 2 558.4 6.4
2 -2 -2 501.61 5.38
-2 2 2 545.89 6.16
2 -2 -2 562.04 7.56
2 -2 -2 561.18 6.13
2 -2 -2 566.59 6.08
-2 2 2 594.8 5.72
-2 2 2 593.78 6.74
-2 2 2 501.2 5.45
2 -2 -2 494.89 5.82
-2 2 2 534.63 6.05
-2 2 2 533.14 6.28
-2 2 2 620.1 6.97
-2 2 2 559.71 6.03
2 -2 -2 493.83 5.27
2 -2 -1 1.05 0.45
-2 2 1 0.8 0.57
2 -2 -1 0.6 1.05
-2 2 1 0.28 0.52
2 -2 -1 1.42 0.57
2 -2 -1 0.77 0.64
-2 2 1 0.25 0.47
2 -2 -1 0.74 0.94
2 -2 -1 1.61 0.37
2 -2 -1 0.89 0.57
-2 2 1 1.01 0.57
-2 2 1 0.64 0.51
2 -2 -1 0.55 0.61
-2 2 1 0.67 0.57
-2 2 1 0.13 0.46
-2 2 1 0.32 0.53
-2 2 0 156.04 3.46
-2 2 0 149.43 3.04
-2 2 0 149.09 3.34
2 -2 0 142.71 3.24
2 -2 0 158.35 3.04
2 -2 0 131.43 3.54
2 -2 0 94.9 2.04
2 -2 0 114.64 2.35
-2 2 0 138.71 3.06
-2 2 0 144.33 2.76
-2 2 0 152.74 3.43
-2 2 -1 15.91 1.3
2 -2 1 16.36 1.19
2 -2 1 14.48 1.34
-2 2 -1 16.01 1.04
2 -2 1 20.61 1.51
-2 2 -1 14.49 1.23
2 -2 1 14.68 1.42
-2 2 -1 14.83 1.04
2 -2 1 15.86 1.31
-2 2 -1 13.93 1.23
-2 2 -1 15.93 1.32
-2 2 -1 17.15 1.19
2 -2 1 9.97 1
2 -2 1 13.73 1.59
-2 2 -2 1667.58 13.21
2 -2 2 1856.58 13.7
-2 2 -2 1954.58 12.35
2 -2 2 1869.89 13.49
-2 2 -2 1749.66 14.19
-2 2 -2 1830 11.73
-2 2 -2 1720.64 13.93
2 -2 2 1587.83 11.47
2 -2 2 1771.13 12.96
2 -2 2 1934.43 14
2 -2 2 1987.6 14.25
2 -2 2 1698.67 12.41
2 -2 2 1942.64 13.41
-2 2 -2 1728.85 11.5
-2 2 -2 1740.72 13.69
-2 2 -2 1773.13 14.21
-2 2 -2 1744.8 13.88
2 -2 2 1893.35 14.3
2 -2 2 1975.66 14.79
2 -2 2 1676.3 13.24
-2 2 -3 313.46 5.41
-2 2 -3 403.17 6.46
2 -2 3 412.92 5.63
2 -2 3 392.58 6.03
2 -2 3 421.41 7.25
2 -2 3 423.03 5.64
-2 2 -3 387.83 5.03
2 -2 3 379.84 6.31
2 -2 3 411.87 6.67
2 -2 3 415.8 6.11
-2 2 -3 350.61 6.81
2 -2 3 399.73 6.09
-2 2 -3 484.36 6.44
2 -2 3 409.46 5.91
-2 2 -3 356.84 6.59
-2 2 -3 406.93 5.51
2 -2 3 366.47 6.15
-2 2 -3 370.56 6.69
2 -2 3 323.7 5.43
2 -2 3 487.24 7.68
2 -2 4 0.5 0.79
-2 2 -4 0.38 0.69
2 -2 4 0.3 1.36
2 -2 4 0.1 1.11
2 -2 4 0.4 1.04
-2 2 -4 0.24 0.64
2 -2 4 0.56 0.76
2 -2 4 5.51 2.18
2 -2 4 1.84 1.23
2 -2 4 0.7 1.51
2 -2 4 0.67 0.97
-2 2 -4 2.39 0.99
-2 2 -4 1.17 1.08
-2 2 -4 1.1 1.04
-2 2 -4 0.83 0.93
-2 2 -4 0.32 0.78
-2 2 -4 0.38 1.09
-2 2 -4 1.14 1.09
-2 2 -5 132.45 4.31
-2 2 -5 135.63 3.63
-2 2 -5 107.47 2.78
-2 2 -5 120.81 4
2 -2 5 106.44 3.72
2 -2 5 108.39 4.76
-2 2 -5 108.65 3.18
-2 2 -5 129.15 4.46
-2 2 -5 133.25 4.39
-2 2 -5 105.06 3.23
-2 2 -5 148.29 4.29
-2 2 -5 135.89 4.65
-2 2 -6 4.35 1.51
-2 2 -6 4.5 0.87
-2 2 -6 4.03 0.85
-2 2 -6 5.83 1.21
2 -2 6 3.44 2.24
2 -2 6 4.1 1.39
-2 2 -6 4.48 1
-2 2 -6 5.83 1.11
-2 2 -6 6.54 1.43
-2 2 -6 6.49 1.3
-2 2 -6 5.21 1.27
2 -2 7 144.44 4.28
-2 2 -7 181.7 4.68
-2 2 -7 170.54 3.69
2 -2 7 168.73 4.91
2 -2 7 163.19 6.1
-2 2 -7 191.83 5.29
-2 2 -7 197.76 4.96
2 -2 7 169.4 5.83
-2 2 -7 167.87 4.11
-2 2 -7 184.24 4.73
-2 2 -7 190.08 5.12
-2 2 -7 225.95 4.68
2 -2 8 7.01 1.52
-2 2 -8 5.55 0.98
2 -2 8 2.78 0.89
-2 2 -8 6.69 1.11
-2 2 -8 8.32 1.37
2 -2 8 6.92 1.74
2 -2 8 8.11 2.16
-2 2 -8 9.5 1.29
-2 2 -8 7.67 1.34
-2 2 -8 5.96 1.03
-2 2 -9 35.66 1.75
2 -2 9 28.29 1.81
-2 2 -9 39.77 2.07
2 -2 9 31.22 2.51
-2 2 -10 6.39 0.82
-2 1 13 73.18 2.16
2 -1 -12 -0.01 0.94
-2 1 12 171.74 3.87
2 -1 -11 2.07 0.91
2 -1 -11 1.86 0.92
2 -1 -11 1.87 1.1
-2 1 11 2.16 1.14
2 -1 -10 143.26 3.85
2 -1 -10 155.53 4.4
2 -1 -10 126.6 3.63
2 -1 -10 125.16 3.21
2 -1 -10 151.12 4.54
-2 1 10 134.28 4.46
2 -1 -10 139.46 3.67
2 -1 -9 296.91 5.49
2 -1 -9 270.79 4.72
2 -1 -9 272.04 5.21
2 -1 -9 294.88 5.56
2 -1 -9 322.58 6.86
-2 1 9 89.8 3.32
2 -1 -9 323.31 6.65
2 -1 -9 248.11 4.53
2 -1 -9 258.04 4.71
-2 1 9 108.23 3.69
-2 1 9 262.05 5.38
-2 1 9 218.14 4.45
2 -1 -9 283.55 5.18
2 -1 -8 207.56 4.33
2 -1 -8 187.28 4.09
2 -1 -8 167.49 3.58
2 -1 -8 179.94 3.83
2 -1 -8 208.14 5.61
2 -1 -8 203.27 5.37
2 -1 -8 181.3 3.78
-2 1 8 183.25 4.68
2 -1 -8 176.88 3.26
2 -1 -8 178.75 4.11
2 -1 -8 208.56 4.98
-2 1 8 155.58 3.91
2 -1 -8 188.77 4.06
2 -1 -7 117.17 3.05
2 -1 -7 111.13 3.01
2 -1 -7 129.27 3.84
2 -1 -7 110.79 2.74
2 -1 -7 102.55 3.03
2 -1 -7 106.28 3.97
-2 1 7 100.81 3.86
2 -1 -7 118.79 2.89
2 -1 -7 124.73 2.58
-2 1 7 107.87 2.99
-2 1 7 98.62 2.76
-2 1 7 87.9 3.69
2 -1 -7 116.2 2.82
2 -1 -7 96.68 3.68
-2 1 7 82.98 3.11
-2 1 7 114.3 3.25
2 -1 -7 116.62 2.92
-2 1 7 90.39 3.62
2 -1 -6 344.78 6.25
2 -1 -6 433.35 5.42
-2 1 6 364.18 5.6
2 -1 -6 300.31 5.99
2 -1 -6 398.09 5.33
2 -1 -6 336.77 5.26
-2 1 6 333.79 5.26
2 -1 -6 389.3 4.91
2 -1 -6 310.17 6.33
-2 1 6 370.46 6.34
-2 1 6 330.92 4.82
2 -1 -6 428.55 4.99
2 -1 -6 422.34 4.88
-2 1 6 290.02 6.07
-2 1 6 348.64 5.55
-2 1 6 382.91 4.87
-2 1 6 341.37 5.82
-2 1 6 279.45 5.59
2 -1 -6 427.82 4.27
2 -1 -6 325.89 7.03
-2 1 6 383.02 5.46
2 -1 -6 422.77 4.32
-2 1 6 348.82 5.13
2 -1 -6 444.2 5.19
2 -1 -6 386.55 5.43
-2 1 5 1929.15 12.96
-2 1 5 1793.39 11.81
2 -1 -5 2060.47 16.95
2 -1 -5 1715.5 12.26
-2 1 5 1415.39 12.62
2 -1 -5 1727.37 12.23
2 -1 -5 1886.06 15.26
-2 1 5 1859.46 12.73
2 -1 -5 1745.58 12.21
-2 1 5 1419.49 13.48
2 -1 -5 2100.39 10.78
2 -1 -5 1885.55 10.86
-2 1 5 2103.97 14.44
2 -1 -5 2103.6 11.5
-2 1 5 1808.71 12.94
2 -1 -5 1811.72 11.34
2 -1 -5 1631.88 14.15
-2 1 5 1738.98 11.5
-2 1 5 1873.89 11.57
-2 1 5 1645.71 12.99
2 -1 -5 2157.05 10.78
-2 1 5 1869.6 12.97
2 -1 -5 2214.64 12.27
2 -1 -4 1300.09 9.09
-2 1 4 1287.89 9.4
-2 1 4 1204.42 8.8
2 -1 -4 1312.47 9.23
-2 1 4 1216.88 9.33
-2 1 4 1261.25 9.24
2 -1 -4 1408.15 11.44
2 -1 -4 1237.52 10.91
-2 1 4 1375.4 11.06
2 -1 -4 1195.73 8.3
2 -1 -4 1088.23 7.9
-2 1 4 1248.73 9.03
-2 1 4 1180.04 10.23
2 -1 -4 1215.43 7.75
2 -1 -4 1452.65 9.4
-2 1 4 1270.13 9.66
-2 1 4 898.84 9.06
-2 1 4 1230.99 8.92
2 -1 -4 1143.19 8.12
2 -1 -3 106.15 2.34
-2 1 3 106.29 2.4
-2 1 3 105.64 2.3
-2 1 3 128.27 2.82
2 -1 -3 96.09 2.03
-2 1 3 123.73 2.82
-2 1 3 104.64 2.37
2 -1 -3 114.95 2.26
2 -1 -3 110.97 2.37
-2 1 3 118.03 2.45
-2 1 3 112.38 2.74
-2 1 3 106.02 2.17
2 -1 -3 100.58 1.91
2 -1 -2 15.53 0.97
-2 1 2 13.41 0.89
2 -1 -2 14.51 1.04
-2 1 2 13.36 0.91
2 -1 -2 15.91 0.91
-2 1 2 14.83 0.89
-2 1 2 15.53 1.03
2 -1 -2 15.85 0.71
2 -1 -2 15.05 0.9
-2 1 2 15.96 0.87
2 -1 -2 15.14 0.86
-2 1 2 14.31 0.89
-2 1 2 14.66 0.95
-2 1 1 388.67 4.61
-2 1 1 354.52 4.38
2 -1 -1 343.4 3.01
-2 1 1 405.54 4.29
2 -1 -1 378.03 3.97
2 -1 -1 348.26 4.29
-2 1 1 401.49 4.59
-2 1 1 396.57 4.17
2 -1 -1 406.08 4.41
-2 1 1 349.78 3.52
2 -1 -1 393.96 4
2 -1 -1 386.25 4.16
2 -1 -1 390.85 4.16
-2 1 0 506.87 5.27
2 -1 0 509.76 4.52
2 -1 0 555.17 4.68
-2 1 0 527.43 5.67
2 -1 0 499.63 4.99
2 -1 0 568.07 2.88
2 -1 0 546.93 4.9
2 -1 0 522.27 4.01
2 -1 0 486.62 5.03
-2 1 0 536.26 5.23
-2 1 0 490.35 4.37
-2 1 0 516.59 5.61
2 -1 0 557.29 5.02
-2 1 -1 5668.97 25.84
-2 1 -1 5546.14 26.18
2 -1 1 5054.23 21.72
2 -1 1 5560.02 23.26
-2 1 -1 5639.06 26.66
2 -1 1 5719.29 23.33
2 -1 1 5461.7 25.36
-2 1 -1 5494.72 26.18
-2 1 -1 5526.89 24.75
-2 1 -1 5277.21 23.85
-2 1 -1 5338.06 23.85
2 -1 1 5588.2 24.39
-2 1 -2 668.08 7.07
2 -1 2 716.07 5.39
2 -1 2 772.56 7.71
2 -1 2 804.01 6.34
2 -1 2 780.24 7.81
2 -1 2 689.86 5.26
2 -1 2 665.63 6.82
2 -1 2 807.41 7.87
2 -1 2 832.95 6.59
-2 1 -2 784.52 6.81
-2 1 -2 697.65 6.28
-2 1 -2 722.08 7.76
-2 1 -2 675.72 5.76
-2 1 -2 762.06 7.82
2 -1 3 134.89 3.72
-2 1 -3 107.05 2.85
2 -1 3 125.93 3.33
-2 1 -3 110.11 2.16
2 -1 3 124.01 2.89
2 -1 3 124.65 2.57
2 -1 3 122.21 2.57
-2 1 -3 111.92 3.25
-2 1 -3 118 3.44
-2 1 -3 142.03 3.07
2 -1 3 141.91 3.43
2 -1 3 130.8 2.45
2 -1 3 134.85 3.54
-2 1 -3 114.05 2.6
-2 1 -3 109.53 3.27
2 -1 3 122.52 2.72
-2 1 -3 117.44 3.25
-2 1 -3 117.37 2.46
-2 1 -4 223.62 4.1
2 -1 4 195.6 3.29
-2 1 -4 176.6 4.25
2 -1 4 179.29 3.87
-2 1 -4 182.03 2.94
2 -1 4 204.37 3.96
2 -1 4 185.17 3.59
2 -1 4 177.28 4.15
-2 1 -4 152.71 3.82
2 -1 4 191.46 3.09
2 -1 4 237.77 5.22
-2 1 -4 150.52 3.68
2 -1 4 182.73 4.89
2 -1 4 191.47 4.6
2 -1 4 219.4 3.56
2 -1 4 179.89 3.27
-2 1 -4 185.32 4.39
-2 1 -4 185.56 3.39
-2 1 -4 186.91 2.9
2 -1 4 189.58 4.64
-2 1 -4 187.78 4.05
-2 1 -5 347.24 5.06
2 -1 5 263.34 6.4
-2 1 -5 334.96 6.1
2 -1 5 262.95 4.64
2 -1 5 270.36 6.56
-2 1 -5 252.08 5.23
2 -1 5 265.68 5.52
2 -1 5 284.51 5.38
2 -1 5 271.35 5.43
2 -1 5 310.22 4.86
-2 1 -5 273.94 5.59
2 -1 5 223.27 5.72
-2 1 -5 293.6 4
2 -1 5 282.84 5.9
-2 1 -5 334.97 6.17
-2 1 -5 281.89 4.54
-2 1 -5 320.11 6.22
-2 1 -5 230.96 5.14
-2 1 -6 769.8 9.51
2 -1 6 669.89 8.04
-2 1 -6 677.13 7.98
-2 1 -6 676.01 6.84
-2 1 -6 837.67 10.93
-2 1 -6 744.35 9.92
-2 1 -6 797.8 10.38
2 -1 6 565.75 10.35
2 -1 6 683.64 9.33
-2 1 -6 824.95 9.92
-2 1 -6 627.27 7.18
-2 1 -6 809.51 10.3
-2 1 -6 659.27 9.43
-2 1 -7 1160.06 11.72
-2 1 -7 1229.16 13.36
-2 1 -7 1311.44 14.08
2 -1 7 1063.1 14.01
2 -1 7 1050.14 14.98
-2 1 -7 1123.29 10
2 -1 7 990.1 10.5
2 -1 7 1129.62 11.72
-2 1 -7 1156.09 11.71
-2 1 -7 1300.21 13.56
-2 1 -7 1272.42 12.41
-2 1 -7 1003.02 10.04
-2 1 -7 1287.91 13.16
-2 1 -7 1344.63 11.37
-2 1 -7 1217.97 11.1
2 -1 8 139.22 4.22
-2 1 -8 174.18 4.06
-2 1 -8 173.57 4.64
-2 1 -8 169.53 4.09
2 -1 8 149.52 5
2 -1 8 166.71 5.87
-2 1 -8 151.93 3.8
-2 1 -8 182.58 4.79
-2 1 -8 166.14 4
-2 1 -8 168.21 4.27
-2 1 -8 160.45 3.7
-2 1 -8 209.1 4.46
-2 1 -8 180.44 4.94
-2 1 -9 224.03 4.42
-2 1 -9 236.56 5.14
2 -1 9 239.06 6.4
2 -1 9 203.57 5.35
2 -1 9 194.08 5.02
-2 1 -9 238.98 4.99
-2 1 -10 0.88 0.93
-2 1 -10 1.66 0.76
2 -1 10 0.85 1.45
-2 1 -11 12.27 1.01
-2 0 12 6.75 1.39
2 0 -11 626.81 6.52
-2 0 11 581.69 7.22
2 0 -10 205.27 4.43
2 0 -10 218.03 4.85
2 0 -10 197.51 3.96
2 0 -10 198.55 3.94
2 0 -10 184.38 4.02
-2 0 10 194.25 4.84
2 0 -10 220.94 4.85
2 0 -9 141.36 3.72
2 0 -9 135.28 3.63
2 0 -9 151.01 4.24
2 0 -9 152.66 4.45
-2 0 9 119.69 3.54
-2 0 9 152.46 4.97
2 0 -9 136.15 3.08
2 0 -9 138.18 3.63
2 0 -9 148.39 3.95
2 0 -9 138.74 3.31
2 0 -9 141.06 3.65
2 0 -9 138.56 3.33
2 0 -9 141.62 3.31
2 0 -9 163.76 5
2 0 -9 151.5 3.94
2 0 -8 117.94 3.27
2 0 -8 111.14 3.07
2 0 -8 113.9 3.41
2 0 -8 114.05 2.93
2 0 -8 119.64 3.72
-2 0 8 115.33 4.33
2 0 -8 119.43 3.93
2 0 -8 110.4 2.82
2 0 -8 106.01 2.95
2 0 -8 121.64 3
-2 0 8 103.92 3.43
2 0 -8 114.52 3.22
2 0 -8 102.14 2.66
-2 0 8 98.44 3.1
2 0 -8 135.43 4.68
2 0 -8 124.41 3.48
-2 0 8 77.6 3.86
2 0 -7 16.32 1.23
2 0 -7 18.18 1.65
2 0 -7 16.2 1.29
-2 0 7 14.04 1.57
2 0 -7 17.29 1.46
-2 0 7 10.23 1.79
2 0 -7 15.41 1.14
-2 0 7 12.35 1.77
2 0 -7 17.17 1.16
2 0 -7 16.78 1.3
2 0 -7 15.57 1.22
2 0 -7 20.01 2.17
2 0 -7 18.87 1.74
2 0 -7 17.19 1.17
-2 0 7 10.54 1.38
2 0 -7 16.75 1.27
-2 0 7 12.05 1.78
2 0 -6 3.17 0.76
2 0 -6 1.97 0.67
2 0 -6 1.2 0.67
2 0 -6 3.01 0.74
2 0 -6 2.02 0.77
2 0 -6 1.69 0.62
-2 0 6 1.85 1.08
-2 0 6 1.42 0.79
2 0 -6 1.27 0.63
2 0 -6 1.42 0.97
-2 0 6 0.38 1.33
2 0 -6 2.11 0.75
-2 0 6 1.5 0.92
2 0 -6 3.63 0.9
2 0 -6 1.63 1.37
-2 0 5 4534.28 20.66
2 0 -5 5097.56 23.99
2 0 -5 4122.66 25.04
-2 0 5 4755.65 23.97
2 0 -5 4950.6 24.05
2 0 -5 4937.88 26.81
2 0 -5 4430.63 22.71
2 0 -5 4792.42 20.15
-2 0 5 4651.11 23.7
-2 0 5 5207.97 23.44
-2 0 5 4775.07 27.1
2 0 -5 5094.15 24.41
2 0 -5 4841.72 24.04
2 0 -5 4963.68 23.35
-2 0 5 4788.79 26.44
2 0 -5 4788.99 28.78
-2 0 5 4850.39 24.2
2 0 -5 4785.6 23.38
-2 0 5 5476.94 28.52
2 0 -4 1539.56 10.08
-2 0 4 1450.94 10.18
-2 0 4 1602.63 9.96
2 0 -4 1592.32 10.24
2 0 -4 1406.53 11.22
-2 0 4 1099.62 9.54
-2 0 4 1476.12 9.44
2 0 -4 1536.74 9.91
-2 0 4 1662.37 12.15
2 0 -4 1329.78 10.08
-2 0 4 1557.71 11.74
-2 0 4 1647.5 12.41
2 0 -4 1740.46 13.52
-2 0 4 1540.91 9.71
2 0 -4 1494.92 9.62
-2 0 4 1587.84 11.42
-2 0 3 114.01 2.33
2 0 -3 123.71 2.26
-2 0 3 112.81 2.49
-2 0 3 130.72 2.67
2 0 -3 130.25 2.67
-2 0 3 135.48 2.91
2 0 -3 119.07 2.59
2 0 -3 117.28 2.17
2 0 -3 113.82 2.17
-2 0 3 140.94 2.9
-2 0 3 132.94 2.78
2 0 -3 141.25 3.24
2 0 -3 119.83 2.22
-2 0 3 132.59 2.71
-2 0 3 133.46 2.54
-2 0 2 135.43 2.22
-2 0 2 135.38 2.5
2 0 -2 137.84 2.67
2 0 -2 148.62 2.33
2 0 -2 136.19 2.68
-2 0 2 148.17 2.74
-2 0 2 125.76 2.45
-2 0 2 152.39 2.67
-2 0 2 141.36 1.3
-2 0 2 149.01 2.47
2 0 -2 131.03 2.17
-2 0 2 134.95 2.53
-2 0 2 141.82 2.18
2 0 -1 27.58 0.96
-2 0 1 25.64 1.11
-2 0 1 27.02 0.96
-2 0 1 27.32 1.15
-2 0 1 24.29 0.79
2 0 -1 32.34 1.2
-2 0 1 29.86 1.24
2 0 -1 31.91 1.21
-2 0 1 31.29 1.16
-2 0 1 30.43 0.71
-2 0 1 25.62 1.09
-2 0 1 28.86 0.87
-2 0 0 2.48 0.4
-2 0 0 2.44 0.52
2 0 0 3.06 0.47
2 0 0 2.61 0.49
-2 0 0 2.75 0.39
-2 0 0 2.62 0.34
2 0 0 2.27 0.57
-2 0 -1 803.8 5.98
-2 0 -1 981.86 7.36
2 0 1 837.18 6.14
2 0 1 889.95 6.1
2 0 1 844.03 5.9
2 0 1 882.23 5.95
-2 0 -1 924.21 6.63
-2 0 -1 908.41 6.14
2 0 1 859.98 6.82
-2 0 -1 745.01 4.88
-2 0 -2 446.23 4.83
-2 0 -2 469.54 5.27
2 0 2 440.95 5.02
-2 0 -2 389.47 3.18
2 0 2 420.46 3.9
2 0 2 412.8 3.77
-2 0 -2 531.48 5.45
2 0 2 413.82 3.35
-2 0 -2 435.76 4.4
-2 0 -2 516.62 5.08
-2 0 -2 454.84 5.17
2 0 2 462.55 5.45
-2 0 -2 388.24 3.59
2 0 2 431.79 5.27
-2 0 -3 68.92 1.96
-2 0 -3 80.47 2.31
2 0 3 86.04 1.78
2 0 3 75.11 2.33
-2 0 -3 87.2 1.64
2 0 3 91.91 1.73
-2 0 -3 92.24 2.12
-2 0 -3 87.58 2.41
-2 0 -3 75.44 1.75
-2 0 -3 86.67 2.48
2 0 3 72.33 2.52
-2 0 -3 89.74 1.99
-2 0 -3 97.02 2.57
-2 0 -4 60.09 1.82
2 0 4 66.26 1.68
-2 0 -4 62.84 1.57
-2 0 -4 52.96 2.06
2 0 4 55.09 2.54
2 0 4 64.59 1.79
2 0 4 68.56 1.46
-2 0 -4 59.66 1.61
2 0 4 70.71 2.62
2 0 4 58.8 2.42
-2 0 -4 67.76 2
-2 0 -4 58.74 2.28
-2 0 -4 58.22 2.1
2 0 4 59.27 2.64
-2 0 -4 60.97 1.79
-2 0 -4 55.05 2.19
2 0 4 68.32 2.28
-2 0 -4 72.12 1.64
-2 0 -4 67.82 2.47
-2 0 -5 297.43 3.86
-2 0 -5 290.4 3.67
2 0 5 194.77 4.78
-2 0 -5 243.17 4.55
2 0 5 276.22 4.17
2 0 5 212.12 3.86
-2 0 -5 185.78 4.34
2 0 5 245.86 3.31
-2 0 -5 239.89 5.08
-2 0 -5 192.57 4.5
2 0 5 223.58 5.29
2 0 5 241.38 3.83
2 0 5 237.71 5.41
-2 0 -5 229.54 4.78
-2 0 -5 235.85 4.46
2 0 5 246.57 5.5
-2 0 -5 235.06 4.77
-2 0 -5 275.74 4.2
2 0 5 280.01 4.54
-2 0 -5 251.11 3.64
-2 0 -5 218.75 4.91
-2 0 -6 1020.99 9.11
-2 0 -6 959.08 9.43
-2 0 -6 1066.55 11.46
2 0 6 474.64 8.14
2 0 6 788.6 6.68
-2 0 -6 842.87 10.07
2 0 6 801.37 9.1
-2 0 -6 902.44 10.57
2 0 6 758.71 7.94
2 0 6 790.59 11.35
2 0 6 727.18 10.2
2 0 6 923.67 11.33
2 0 6 863.94 8.27
-2 0 -6 1004.79 10.74
-2 0 -6 988.74 9.73
-2 0 -6 830 7.76
-2 0 -6 998.64 10.43
-2 0 -6 969.8 8.27
-2 0 -6 972.98 8.13
-2 0 -6 849.82 10.77
-2 0 -7 29.64 1.73
-2 0 -7 30.44 1.67
-2 0 -7 23.79 1.65
-2 0 -7 26.08 1.97
2 0 7 20.19 1.58
2 0 7 22.74 2.6
2 0 7 26.82 2.29
2 0 7 22.66 1.59
-2 0 -7 25.71 1.72
-2 0 -7 29.19 1.99
-2 0 -7 24.94 1.62
2 0 7 24.95 2.24
-2 0 -7 21.81 1.46
-2 0 -7 27.56 1.86
-2 0 -7 27.13 1.46
-2 0 -7 28.59 2.36
-2 0 -8 9.41 1.8
-2 0 -8 7.24 1.26
2 0 8 8.88 1.84
-2 0 -8 5.63 1.01
-2 0 -8 8.23 1.35
2 0 8 7.85 1.31
2 0 8 7.39 2.16
2 0 8 8.99 1.59
2 0 8 5.94 1.25
-2 0 -8 7.37 1.31
-2 0 -8 7.96 1.29
2 0 8 7.25 1.66
-2 0 -8 6.42 1.2
-2 0 -8 6.82 1.09
-2 0 -9 4.37 1.51
-2 0 -9 2.88 1.08
-2 0 -9 2.36 0.86
2 0 9 2.65 1.43
2 0 9 4 1.94
2 0 9 2.36 1.22
2 0 9 2.85 1.09
-2 0 -9 2.46 0.95
-2 0 -9 2.53 1.01
-2 0 -9 3.87 1.02
2 0 10 81.3 3.24
-2 0 -10 90.74 2.74
-2 0 -10 96.78 2.92
2 0 10 104.42 4.14
2 0 10 88.87 3.44
2 0 11 339.21 6.01
-2 0 -11 342.25 4.85
-2 0 -12 191.93 3.36
-2 -1 12 178.07 3.79
2 1 -11 10.29 1.17
2 1 -11 8.84 1.23
2 1 -10 34.87 1.97
2 1 -10 35.84 1.81
2 1 -10 36.81 2.04
2 1 -10 37.62 1.96
2 1 -10 41.44 2.28
2 1 -9 6.55 1.33
2 1 -9 5.76 1.03
2 1 -9 8.22 1.37
2 1 -9 7.7 1.37
-2 -1 9 10.65 1.74
2 1 -9 7.19 1.29
-2 -1 9 12.12 1.9
2 1 -9 6.26 1.24
2 1 -9 8.42 1.24
2 1 -9 7.62 1.32
2 1 -8 32.21 1.95
2 1 -8 34.56 1.84
2 1 -8 32.93 2.03
-2 -1 8 24.06 1.89
2 1 -8 32.46 2.08
-2 -1 8 33.51 2.65
-2 -1 8 27.6 2.51
2 1 -8 32.42 1.92
-2 -1 8 30.92 2.58
2 1 -8 35.13 1.88
2 1 -8 34.36 2.5
2 1 -8 32.58 1.81
2 1 -8 34.41 2.02
2 1 -7 409.62 5.54
2 1 -7 397.74 5.48
2 1 -7 402.89 6.13
2 1 -7 398.21 5.03
-2 -1 7 340.74 6.19
2 1 -7 425.09 6.74
2 1 -7 424.76 6.62
-2 -1 7 405.28 8.06
-2 -1 7 471.52 6.78
-2 -1 7 410.05 7.75
-2 -1 7 426.58 8.16
2 1 -7 425.67 5.78
2 1 -7 492.14 8.2
2 1 -7 429.96 5.8
2 1 -7 428.59 6.17
-2 -1 6 319.45 7.02
2 1 -6 321.59 4.67
2 1 -6 358.31 5.48
2 1 -6 302.04 4.26
2 1 -6 333.05 4.92
2 1 -6 375.49 6.32
2 1 -6 375.34 5.88
-2 -1 6 268.76 6.17
-2 -1 6 294.17 5.23
2 1 -6 294.74 4.53
-2 -1 6 304.95 5.79
2 1 -6 358.43 6.62
2 1 -6 370.73 5.39
2 1 -6 338.65 5.17
-2 -1 6 289.22 6.73
2 1 -5 286.64 4.28
2 1 -5 386.24 5.51
-2 -1 5 318.27 5.62
2 1 -5 256.02 3.83
-2 -1 5 219.26 5.13
2 1 -5 290.78 4.32
-2 -1 5 271.69 4.41
2 1 -5 305.12 4.34
2 1 -5 271.31 4.11
2 1 -5 236.18 5.08
-2 -1 5 289.73 4.63
-2 -1 5 339.24 6.87
2 1 -4 52.15 1.71
2 1 -4 72.14 2.24
2 1 -4 57.63 1.74
-2 -1 4 46.29 1.29
2 1 -4 64.15 2.13
-2 -1 4 41.97 1.38
-2 -1 4 47.64 1.31
-2 -1 4 50.26 1.73
2 1 -4 56.43 1.64
2 1 -4 50.19 1.62
-2 -1 4 41.4 1.36
-2 -1 4 60.33 2.41
2 1 -4 47.38 2.24
-2 -1 4 62.78 2.8
2 1 -3 504.02 4.83
-2 -1 3 488.32 5.72
2 1 -3 559.35 5.05
2 1 -3 452.92 6.23
-2 -1 3 403.96 4.38
-2 -1 3 502.89 4.91
-2 -1 3 540.43 5.35
2 1 -3 472.13 5.21
-2 -1 3 505.32 5.22
2 1 -3 514.49 4.64
2 1 -3 577.17 6.43
-2 -1 3 610.14 7.65
-2 -1 3 559.12 5.24
-2 -1 2 29.98 1.37
-2 -1 2 29.08 1.13
2 1 -2 27.3 1.36
-2 -1 2 26.74 1.27
2 1 -2 25.81 1.03
2 1 -2 26.58 1.41
-2 -1 2 30.01 1.44
2 1 -2 22.76 1.04
-2 -1 2 28.53 1.13
-2 -1 2 28.92 1.41
2 1 -2 25.56 0.99
2 1 -2 32.94 1.44
2 1 -2 23.68 0.87
-2 -1 2 27.86 1.58
-2 -1 1 4531.07 19.23
2 1 -1 4204.87 20.85
-2 -1 1 4217.4 20.03
2 1 -1 4822.46 21.09
-2 -1 1 4288.07 20.5
-2 -1 1 4670.65 22.58
-2 -1 1 5099.85 20.88
-2 -1 1 4592.78 22.58
2 1 -1 4512.54 17.97
-2 -1 1 4524.04 20.74
2 1 -1 4446.89 19.47
-2 -1 1 3530.21 20.05
-2 -1 0 1378.93 7.36
-2 -1 0 1657.38 9.77
-2 -1 0 1146.49 9.73
2 1 0 1262.85 7.67
-2 -1 0 1647.88 9.48
2 1 0 1379.56 8.83
2 1 0 1434.45 8.77
-2 -1 0 1113.96 9.49
-2 -1 0 1598.74 7.32
-2 -1 -1 72.89 1.2
-2 -1 -1 94.99 1.98
2 1 1 81.69 1.41
2 1 1 74.54 1.42
-2 -1 -1 86.28 1.9
2 1 1 79.62 1.71
2 1 1 66.09 1.65
-2 -1 -1 89.96 1.77
-2 -1 -1 66.4 0.98
-2 -1 -2 164.04 1.96
-2 -1 -2 208.42 2.94
2 1 2 116.88 2.75
2 1 2 204.3 2.04
-2 -1 -2 158.52 1.41
-2 -1 -2 220.86 3.36
2 1 2 188.92 2.53
-2 -1 -2 215.64 3.34
-2 -1 -2 209.23 3.11
-2 -1 -2 175.14 3.01
-2 -1 -2 164.28 2.11
2 1 2 183.94 2.6
-2 -1 -3 13.43 0.95
-2 -1 -3 11.14 0.78
2 1 3 10.68 1.41
-2 -1 -3 14.28 0.98
-2 -1 -3 13.42 0.94
2 1 3 13.39 0.69
-2 -1 -3 14 0.93
2 1 3 14.21 0.8
2 1 3 14.56 0.85
-2 -1 -3 11.87 0.72
-2 -1 -3 15.36 1.14
-2 -1 -3 13.84 0.84
2 1 3 15.06 1.24
-2 -1 -3 14.33 1.21
-2 -1 -4 5.5 0.57
-2 -1 -4 5.15 0.75
2 1 4 5.78 1.44
-2 -1 -4 4.22 0.72
2 1 4 3.55 1.17
-2 -1 -4 6.07 0.65
2 1 4 5.89 0.64
-2 -1 -4 13.91 1.2
-2 -1 -4 6.1 0.91
-2 -1 -4 6.33 0.73
-2 -1 -4 14.2 0.87
2 1 4 6.78 0.57
2 1 4 4.12 1.21
-2 -1 -4 5.31 0.62
2 1 4 5.46 0.6
-2 -1 -4 6.37 1.12
-2 -1 -4 6.01 0.66
-2 -1 -5 508.91 4.62
-2 -1 -5 513.77 6.13
2 1 5 758.24 5.91
2 1 5 648.13 5.31
-2 -1 -5 758.16 6.8
-2 -1 -5 498.11 4.46
2 1 5 708.71 6.1
2 1 5 511.56 7.06
2 1 5 549.18 7.47
2 1 5 712.96 6.05
-2 -1 -5 546.63 6.95
-2 -1 -5 520.67 6.01
2 1 5 684.77 8.73
-2 -1 -5 763.75 6.95
-2 -1 -5 700.54 5.7
2 1 5 572 8.23
-2 -1 -5 517.67 4.4
-2 -1 -5 606.12 8.13
2 1 6 578.02 6.03
2 1 6 586.2 8.32
-2 -1 -6 736.79 9.53
-2 -1 -6 620.39 8.21
-2 -1 -6 739.71 7.25
-2 -1 -6 648.76 6.77
2 1 6 603.76 6.48
2 1 6 557.62 6.23
2 1 6 567.17 8.31
2 1 6 622.08 6.86
-2 -1 -6 574.78 7.55
-2 -1 -6 744.35 7.6
-2 -1 -6 664.17 5.73
2 1 6 470.53 7.48
2 1 6 614.12 9.15
2 1 6 661.93 7.41
-2 -1 -6 526.02 8.39
2 1 7 436.41 7.86
-2 -1 -7 421.01 6.16
2 1 7 339.09 5.32
-2 -1 -7 398.95 6.08
-2 -1 -7 500.3 7.97
-2 -1 -7 412.09 5.71
-2 -1 -7 447.63 7.04
2 1 7 527.76 8.02
2 1 7 338.72 4.78
2 1 7 317.88 5.03
2 1 7 341.17 6.8
-2 -1 -7 455.64 7
-2 -1 -7 425.81 6.56
-2 -1 -7 378.65 4.67
2 1 7 359.12 7.48
-2 -1 -7 426.06 7.97
-2 -1 -8 109.99 3.48
-2 -1 -8 101.2 3.41
2 1 8 87.88 3.7
-2 -1 -8 101.32 3.01
2 1 8 90.07 2.96
2 1 8 78.36 2.88
2 1 8 88.75 3.86
-2 -1 -8 112.29 3.33
2 1 8 109.38 4.12
-2 -1 -8 96.17 3.18
-2 -1 -8 102.25 3.19
-2 -1 -8 101.7 2.69
2 1 8 85.04 2.46
-2 -1 -8 119.29 4.49
2 1 9 13.44 1.85
-2 -1 -9 13.67 1.36
-2 -1 -9 13.79 1.4
2 1 9 12.1 1.59
2 1 9 15.61 2.37
-2 -1 -9 14.85 1.56
2 1 9 13.2 1.59
-2 -1 -9 11.8 1.45
2 1 9 15.54 1.93
-2 -1 -9 12.56 1.37
-2 -1 -9 18.96 2.2
-2 -1 -10 599.21 7.77
2 1 10 541.08 8.43
2 1 10 555.22 8.05
2 1 10 656.28 10.16
2 1 10 600.56 7.59
2 1 10 605.68 8.02
-2 -1 -10 714.33 10.34
-2 -1 -11 209.38 4.14
2 1 11 194.54 4.65
-2 -1 -12 148.18 2.91
2 1 12 145.55 3.5
-2 -1 -12 148.48 3.24
-2 -2 11 404.84 6.19
2 2 -11 428.6 5.19
2 2 -10 27.64 1.6
2 2 -10 31.2 1.87
2 2 -10 31.38 1.76
2 2 -10 29.86 1.71
2 2 -9 5.55 1.28
2 2 -9 5.15 1.13
2 2 -9 6.25 1.32
2 2 -9 5.15 1.3
-2 -2 9 6.53 1.54
2 2 -9 5.39 1.23
-2 -2 9 5.85 1.61
2 2 -9 5.98 1.29
2 2 -9 5.64 1.22
2 2 -8 270.34 5.4
-2 -2 8 308.24 7.08
2 2 -8 279.32 5.61
2 2 -8 308.74 5.69
-2 -2 8 267.77 6.63
2 2 -8 290.77 5.39
2 2 -8 278.58 5.94
2 2 -8 264.47 5.09
2 2 -8 317.28 6.02
2 2 -7 294.38 5.24
2 2 -7 314.58 6.2
2 2 -7 291.63 5.06
-2 -2 7 312.34 7.35
2 2 -7 291.18 5.52
-2 -2 7 266.89 5.23
-2 -2 7 277.06 6.86
2 2 -7 302.8 6.08
2 2 -7 302.31 5.49
2 2 -6 380.3 5.09
-2 -2 6 342.94 6.42
2 2 -6 432.93 6.09
2 2 -6 392.92 5.89
2 2 -6 458.39 7.19
-2 -2 6 344.55 7.34
-2 -2 6 383.13 6.3
-2 -2 6 358.9 7.51
2 2 -6 382.2 5.5
2 2 -6 365.14 5.27
2 2 -6 438.42 6.03
-2 -2 6 402.16 8.11
2 2 -6 437.38 7.11
2 2 -6 422.51 6.24
2 2 -5 764.68 7.49
2 2 -5 991.21 8.98
2 2 -5 747.19 7.07
-2 -2 5 430.75 7.41
-2 -2 5 795.81 11.26
-2 -2 5 626.96 9.36
-2 -2 5 823.45 9.79
2 2 -5 879.97 8.16
-2 -2 5 765.02 8.89
2 2 -5 715.34 7.37
2 2 -5 1012.93 8.63
2 2 -5 847.08 9.2
2 2 -5 757.85 8.15
-2 -2 5 663.03 9.49
2 2 -4 315.07 4.35
2 2 -4 364.94 4.81
2 2 -4 337.35 4.29
2 2 -4 398.6 6.3
2 2 -4 352.92 4.51
-2 -2 4 348.13 6.11
-2 -2 4 355.45 6.18
-2 -2 4 309.78 5.44
-2 -2 4 245.28 3.5
2 2 -4 306.77 4.32
2 2 -4 399.2 4.76
-2 -2 4 266.67 3.36
2 2 -4 208.33 4.22
2 2 -4 343.88 4.88
-2 -2 3 128.01 2.78
2 2 -3 130.68 2.5
2 2 -3 140.51 2.52
2 2 -3 180.52 3.94
2 2 -3 148.81 2.57
2 2 -3 148.38 2.57
2 2 -3 102.83 2.61
-2 -2 3 121.31 2.47
2 2 -2 272.51 3.38
2 2 -2 269.58 4.58
-2 -2 2 278.65 4.32
2 2 -2 299.14 3.32
2 2 -2 275.54 3.66
-2 -2 2 271.4 4.21
-2 -2 2 301.62 4.12
2 2 -1 251.02 3.59
2 2 -1 207.46 3.62
2 2 -1 212.95 2.55
-2 -2 1 216.93 3.86
2 2 -1 196.66 1.45
2 2 -1 210.02 1.6
-2 -2 1 245.69 4.15
2 2 -1 228.48 2.73
-2 -2 1 248.5 3.84
2 2 0 10.12 0.86
-2 -2 0 20.62 1.24
2 2 0 14.84 0.85
-2 -2 0 12.27 1.17
2 2 0 18.17 0.98
2 2 0 12.53 0.55
-2 -2 0 13.1 1.1
2 2 1 23.44 0.83
2 2 1 18.17 0.92
-2 -2 -1 26.1 1.22
2 2 1 21.79 1.08
-2 -2 -1 16.29 1.15
2 2 2 1750.76 7.87
2 2 2 1886.71 9.61
-2 -2 -2 1991.48 10.92
-2 -2 -2 2130.85 11.29
2 2 2 1763.07 10.28
-2 -2 -2 2006.85 12.52
-2 -2 -2 1961.5 12.06
-2 -2 -2 1914.77 11.25
-2 -2 -2 1891.26 11.86
2 2 3 634.73 6.73
-2 -2 -3 609.97 5.29
2 2 3 551.17 4.61
2 2 3 543.36 5.12
-2 -2 -3 618.59 5.97
-2 -2 -3 591.53 5.93
-2 -2 -3 591.15 5.82
-2 -2 -3 571.7 3.74
-2 -2 -3 599.66 5.67
-2 -2 -4 2135.84 12.23
-2 -2 -4 1960.28 11.39
2 2 4 1980.79 14.27
-2 -2 -4 1920.13 11.13
2 2 4 2034.89 10.04
2 2 4 2064.67 11.31
-2 -2 -4 2012.32 12.06
-2 -2 -4 2158.53 10.05
-2 -2 -4 1989.15 11.48
2 2 4 1839.28 14.16
-2 -2 -5 69.44 1.74
2 2 5 77.02 3
-2 -2 -5 69.52 2.17
2 2 5 74.9 1.76
2 2 5 84.6 1.51
-2 -2 -5 64.17 2.35
-2 -2 -5 82.14 1.69
-2 -2 -5 70.38 1.69
2 2 5 78.64 3.02
-2 -2 -5 80.15 3.02
2 2 6 131.88 4.16
-2 -2 -6 100.03 2.95
2 2 6 151.01 3.1
2 2 6 156 2.88
-2 -2 -6 143.15 3.63
-2 -2 -6 112.5 3.49
-2 -2 -6 138.86 2.48
2 2 6 133.24 4.1
-2 -2 -6 112.95 3.96
2 2 7 53.26 1.79
-2 -2 -7 59.08 2.71
-2 -2 -7 73.81 3.48
-2 -2 -7 56.26 2.43
-2 -2 -7 67.02 2.89
2 2 7 59.42 2.31
2 2 7 50.26 1.98
2 2 7 50.82 2.7
-2 -2 -7 56.87 1.81
2 2 7 58.68 2.98
-2 -2 -7 52.48 3.04
-2 -2 -8 1.39 1.46
2 2 8 0.37 0.82
-2 -2 -8 0.23 0.93
-2 -2 -8 1.52 1.13
2 2 8 0.58 0.8
2 2 8 1.18 1.47
-2 -2 -8 1.15 0.84
2 2 8 0.9 1.49
-2 -2 -8 2.27 1.18
2 2 9 75.55 3.48
-2 -2 -9 114.3 4.1
-2 -2 -9 94.74 3.47
2 2 9 83.54 2.77
-2 -2 -9 89.1 3.18
2 2 9 79.42 2.88
2 2 9 80.74 3.65
2 2 9 101.84 4.05
-2 -2 -9 91.51 2.84
2 2 9 83.79 3.96
-2 -2 -9 113.64 4.53
-2 -2 -10 785.79 9.67
-2 -2 -10 912.04 10.7
2 2 10 657.57 7.79
2 2 10 644.12 9.39
2 2 10 812.35 10.4
-2 -2 -10 872.2 11.95
-2 -2 -11 471.42 7.84
-2 -2 -11 380.77 6.06
2 2 11 379.17 6.58
2 2 11 462.21 7.88
2 2 11 425.63 6.39
-2 -2 -11 440.51 6.53
-2 -2 -12 6.59 1.05
-2 -2 -12 4.38 0.87
2 2 12 6.63 1.5
2 3 -10 24.52 1.53
2 3 -10 22.97 1.15
2 3 -9 0.14 0.9
-2 -3 9 0.14 1.29
2 3 -9 1.71 1.12
2 3 -9 1.56 1.01
2 3 -9 0.66 0.96
-2 -3 9 0.18 1.14
2 3 -9 0.89 0.96
2 3 -9 0.84 0.9
2 3 -9 1.14 1.01
-2 -3 8 34.55 2.73
2 3 -8 29.12 1.89
2 3 -8 38.15 2.3
2 3 -8 36.44 2.15
-2 -3 8 28.78 2.6
2 3 -8 34.18 2.02
2 3 -8 38.17 2.23
2 3 -8 45.48 2.55
2 3 -8 30.76 1.98
2 3 -7 387.14 6.19
2 3 -7 395.12 6.59
2 3 -7 433.21 6.6
-2 -3 7 356.09 8.04
-2 -3 7 399.55 8.51
2 3 -7 383.17 5.97
2 3 -7 432.79 6.82
2 3 -7 408.33 6.48
2 3 -7 392.37 7
2 3 -7 386.73 6.33
2 3 -6 38.63 2.01
-2 -3 6 35.51 2.95
2 3 -6 31.29 1.8
-2 -3 6 27.31 2.13
-2 -3 6 26.44 2.74
2 3 -6 36.21 1.93
2 3 -6 28.79 2.04
2 3 -6 35.38 2.09
2 3 -6 33.06 1.94
2 3 -5 29.42 1.61
-2 -3 5 29.12 2.62
2 3 -5 31.67 2.13
2 3 -5 26.59 1.56
-2 -3 5 26.99 2.03
-2 -3 5 21.09 2.34
2 3 -5 23.25 1.39
2 3 -5 25.98 1.74
2 3 -5 30.88 2.05
2 3 -5 26.71 1.75
2 3 -4 20.75 1.3
2 3 -4 23.48 1.43
-2 -3 4 22.45 1.92
-2 -3 4 21.77 1.99
2 3 -4 19.66 1.29
2 3 -4 20.24 1.27
2 3 -4 19.57 1.44
2 3 -4 20.56 1.48
2 3 -3 1283.81 9.21
2 3 -3 1347.31 10.46
-2 -3 3 1119.35 9.81
2 3 -3 1165.96 9.01
-2 -3 3 1336.25 12.54
-2 -3 3 1321.88 11.38
2 3 -3 1269.11 8.07
-2 -3 3 1147.97 9.41
2 3 -2 239.38 3.52
-2 -3 2 248.84 4.42
2 3 -2 238.35 2.68
2 3 -2 272.34 2.98
2 3 -2 271.93 3.47
-2 -3 2 254.67 4.13
2 3 -1 1556.18 8.13
-2 -3 1 1520.66 13.26
-2 -3 1 1576.03 13.19
-2 -3 1 1635.81 12.82
2 3 -1 1478.3 9.23
2 3 -1 1646.86 8.92
2 3 -1 1452.7 8.28
-2 -3 1 1789.37 12.62
-2 -3 0 2382.06 17.48
-2 -3 0 2349.15 17.17
-2 -3 0 2680.88 17.48
2 3 0 2798.64 15.95
2 3 0 2422.13 10.72
-2 -3 0 2737.63 16.88
-2 -3 -1 315.35 5.53
-2 -3 -1 273.34 5.31
-2 -3 -2 66.94 2.32
2 3 2 69.06 1.22
-2 -3 -3 603.65 7.76
-2 -3 -3 614.27 7.77
-2 -3 -3 588.49 6.74
2 3 3 524.18 5.55
-2 -3 -3 582.09 6.48
2 3 3 523.93 3.69
2 3 3 522.08 4.87
-2 -3 -4 1731.6 13.73
-2 -3 -4 1551.39 11.29
2 3 4 1577.5 8.91
2 3 4 1592.48 10.22
2 3 4 1573.3 10.76
-2 -3 -4 1586.46 10.98
2 3 4 1744.93 12.82
-2 -3 -5 2665.04 18.91
-2 -3 -5 2204.24 17.47
-2 -3 -5 2496.52 15.01
2 3 5 2791.6 13.93
2 3 5 2769.59 14.81
-2 -3 -5 2536.48 14.21
-2 -3 -5 2111.44 12.48
2 3 5 2730.3 18.19
-2 -3 -6 1179.51 12.82
-2 -3 -6 1590.35 15.99
2 3 6 1574.5 9.6
2 3 6 846.74 11.64
2 3 6 1741.52 11.47
-2 -3 -6 1435.48 10.12
-2 -3 -6 1532.14 9.94
-2 -3 -6 1097.89 9
2 3 6 1526.42 13.72
2 3 6 1582.7 14.46
-2 -3 -6 1591.79 15.46
-2 -3 -6 1457.76 14.72
2 3 7 543.91 6.92
-2 -3 -7 428.18 7.82
2 3 7 510.69 8.45
-2 -3 -7 601.23 8.98
-2 -3 -7 512.36 9.27
2 3 7 504.26 5.72
2 3 7 594.5 7.19
-2 -3 -7 476.95 5.78
2 3 7 556.35 8.83
-2 -3 -7 431.95 8.55
-2 -3 -8 141.17 4.46
2 3 8 97.05 2.78
-2 -3 -8 129.14 4.74
-2 -3 -8 111.89 4.27
2 3 8 110.25 3.44
2 3 8 97.5 2.7
2 3 8 113 3.61
2 3 8 117.02 4.32
-2 -3 -9 88.23 3.77
2 3 9 73.96 3.67
-2 -3 -9 88.02 3.9
-2 -3 -9 90.13 4.08
2 3 9 75.82 2.94
2 3 9 76.39 3.02
2 3 9 65.4 3.25
-2 -3 -9 88.3 3.77
2 3 9 70.52 3.51
-2 -3 -10 78.06 3.39
-2 -3 -10 83.32 3.71
2 3 10 65.64 2.68
-2 -3 -10 80.41 3.43
-2 -3 -10 71.67 3.01
2 3 10 58.74 3.07
2 3 10 68.9 2.92
2 3 10 71.72 3.62
2 3 10 57.53 3.02
-2 -3 -11 251.78 4.97
-2 -3 -11 301.13 5.87
2 3 11 250.36 5.59
2 3 11 237.87 5.33
-2 -3 -11 279.84 5.49
2 3 11 297.72 5.91
-2 -3 -12 143.72 3.35
-2 -3 -12 143.91 3.14
2 3 12 144.18 3.91
-2 -4 9 220.2 4.11
2 4 -9 240.22 3.98
2 4 -8 140.84 3.13
2 4 -8 138.97 3.08
-2 -4 8 136.99 4.18
2 4 -8 143.4 3.47
2 4 -7 93.78 3.04
-2 -4 7 81.17 3.89
2 4 -7 98.21 2.95
-2 -4 7 92.17 4.02
2 4 -7 88.47 2.71
2 4 -7 102.31 3.28
2 4 -6 937.55 9.87
-2 -4 6 817.7 12.3
2 4 -6 789.16 8.6
-2 -4 6 688.22 11.43
2 4 -6 844.62 8.12
2 4 -6 964.13 9.23
2 4 -6 939.8 9.68
2 4 -6 871.2 9.1
2 4 -6 794.65 8.16
2 4 -5 778.33 8.69
-2 -4 5 728.09 11.71
2 4 -5 755.76 10.57
2 4 -5 689.53 7.87
-2 -4 5 652.32 9.61
-2 -4 5 561.09 10.41
2 4 -5 766.99 7.89
2 4 -5 847.04 9.23
2 4 -5 797.7 8.36
2 4 -4 1.34 0.85
2 4 -4 2.84 0.85
2 4 -4 2.15 0.78
-2 -4 4 1.19 1.37
-2 -4 4 4.07 1.64
-2 -4 4 0.12 1.87
2 4 -4 2.04 1.14
-2 -4 3 24.04 2.5
2 4 -3 28.58 1.65
-2 -4 3 29.47 2.32
-2 -4 3 32.09 2.28
2 4 -3 31.87 1.75
-2 -4 2 95.7 3.4
-2 -4 2 102.14 3.34
-2 -4 2 110.91 3.33
-2 -4 2 103.52 3.18
-2 -4 2 70.14 3.53
2 4 -2 98.04 2.65
-2 -4 2 103.99 3.46
-2 -4 2 107.04 3.27
-2 -4 2 115.69 3.29
-2 -4 2 86.03 3.25
-2 -4 2 114.15 3.46
-2 -4 2 106.82 3.34
-2 -4 1 539.86 8.23
-2 -4 1 534.46 8.09
-2 -4 1 506.34 8.32
-2 -4 1 570.53 8.26
-2 -4 1 521.43 8.15
2 4 -1 511.33 5.63
-2 -4 1 567.58 8.49
-2 -4 1 527.17 7.84
-2 -4 1 560.94 7.09
2 4 -1 633.48 6.15
-2 -4 1 567.02 8.01
-2 -4 1 590.06 8.27
-2 -4 0 105.31 3.64
-2 -4 0 111.88 4.02
-2 -4 0 124.35 3.16
-2 -4 0 121.16 3.84
-2 -4 0 110.35 3.75
-2 -4 0 112.56 3.35
2 4 0 132.01 3.42
-2 -4 0 112.77 3.6
2 4 0 110.47 1.93
-2 -4 0 127.66 3.93
-2 -4 0 111.39 3.92
-2 -4 0 106.01 3.74
-2 -4 -1 66.72 3.03
-2 -4 -1 73.64 3.14
-2 -4 -1 82.52 3.25
-2 -4 -1 75.5 3.13
-2 -4 -2 142.69 4.47
-2 -4 -2 165.37 3.87
2 4 2 161.19 3.91
-2 -4 -2 139.56 4.41
-2 -4 -2 114.4 3.39
-2 -4 -2 134.74 4.26
-2 -4 -3 229.66 4.92
-2 -4 -3 242.24 5.42
-2 -4 -3 249.83 5.76
-2 -4 -3 224.92 4.75
-2 -4 -3 232.43 5
-2 -4 -3 248.05 5.7
-2 -4 -3 242.17 5.05
-2 -4 -3 209.27 4.34
2 4 3 235.49 3.11
-2 -4 -3 235.49 5.4
-2 -4 -4 1919.13 15.87
-2 -4 -4 1640.74 15.52
-2 -4 -4 1679.38 14.65
-2 -4 -4 1508.34 14.06
-2 -4 -4 1652.13 13.75
-2 -4 -4 1712.4 13.94
-2 -4 -4 1674.61 14.08
2 4 4 1813.51 11.55
-2 -4 -4 1789.2 15.7
2 4 4 1762.22 12.26
-2 -4 -4 1664.91 13.24
-2 -4 -4 1682.76 13.99
-2 -4 -4 1779.74 15.21
-2 -4 -5 95.39 3.38
-2 -4 -5 96.46 3.34
-2 -4 -5 87.64 2.81
-2 -4 -5 90.95 3.12
-2 -4 -5 88.09 2.84
-2 -4 -5 91.18 3.38
2 4 5 90.73 2
-2 -4 -5 94.61 3.3
2 4 5 97.21 2.58
-2 -4 -5 88.47 2.69
-2 -4 -5 92.22 2.87
-2 -4 -6 130.85 4.32
-2 -4 -6 139.36 4.39
-2 -4 -6 126.93 4
-2 -4 -6 103.06 3.99
-2 -4 -6 126.09 3.28
2 4 6 152.28 3.62
-2 -4 -6 130.07 4.14
-2 -4 -6 125.64 3.28
2 4 6 142.82 3.16
-2 -4 -6 129.65 3.16
-2 -4 -6 115.56 3.27
2 4 6 135.73 4.16
2 4 7 18.04 1.67
-2 -4 -7 18.4 2.27
2 4 7 22.01 2.16
-2 -4 -7 17.1 2.2
-2 -4 -7 18.7 2.07
2 4 7 19.77 1.71
2 4 7 17.68 2.78
2 4 7 20.66 1.52
-2 -4 -7 16.61 2.01
2 4 7 18.31 2.11
2 4 8 823.05 9.02
-2 -4 -8 753.77 11.54
-2 -4 -8 1080.14 12.81
2 4 8 901.15 9.98
-2 -4 -8 762.86 10.78
2 4 8 920.69 10.07
2 4 8 913.69 11.93
-2 -4 -9 624.26 10.61
-2 -4 -9 622.41 11.63
2 4 9 606.62 9.93
-2 -4 -10 521.49 9.02
-2 -4 -10 511.46 8.77
2 4 10 420.56 6.93
2 4 10 403.26 7.24
2 4 10 368.41 6.99
2 4 10 467.32 8.85
2 4 10 403.68 7.72
-2 -4 -11 90.24 3.52
2 4 11 77.22 3.14
2 4 11 88.22 3.61
2 4 11 75.47 3.15
-2 -4 -12 0.06 0.96
-2 -4 -12 0.56 0.78
2 4 12 0.4 1.25
-2 -5 8 316.56 4.88
2 5 -8 340.98 4.51
2 5 -7 447.65 5.65
2 5 -7 484.03 6.37
-2 -5 7 448.45 7.36
2 5 -7 484.2 6.33
2 5 -7 444.1 5.35
-2 -5 6 70.97 3.56
2 5 -6 74.03 2.59
2 5 -5 21.93 1.86
2 5 -5 21.41 1.55
2 5 -5 22.94 1.66
2 5 -5 20.79 1.58
2 5 -4 16.21 1.48
-2 -5 4 16.39 2.44
2 5 -4 18.15 1.55
2 5 -4 21.37 1.54
2 5 -4 16.08 1.4
-2 -5 3 327.78 8.16
2 5 -3 314.44 5.44
-2 -5 2 1535.88 14.98
-2 -5 2 1208.14 15.63
-2 -5 2 1828.76 14.31
2 5 -2 1605.38 13.11
-2 -5 2 1618.71 14.92
-2 -5 2 1704.73 16.15
-2 -5 2 1593.79 16.6
-2 -5 2 1568.16 14.8
-2 -5 2 1448.78 14.67
-2 -5 2 1569.37 15.12
-2 -5 2 1678.39 15.29
2 5 -2 1938.98 14.42
-2 -5 1 1345.13 14.63
-2 -5 1 1378.95 14.48
-2 -5 1 1320.87 14.86
-2 -5 1 1330.73 14.84
-2 -5 1 1397.91 14.35
-2 -5 1 1432.74 15.15
-2 -5 1 1333.76 14.73
2 5 -1 1319.79 11.06
-2 -5 1 1264.67 14.05
-2 -5 1 1488.54 12.7
-2 -5 1 1326.39 14.32
-2 -5 1 1292.05 14.34
-2 -5 1 1438.06 14.96
-2 -5 0 241.77 6.21
-2 -5 0 247.14 6.6
-2 -5 0 312.33 6.16
-2 -5 0 269.78 6.39
-2 -5 0 262.35 6.57
-2 -5 0 246.99 6.48
-2 -5 0 245.56 5.54
-2 -5 0 235.59 6.09
-2 -5 0 245.9 6.45
-2 -5 0 244.31 6.59
-2 -5 0 256.81 5.06
2 5 0 285.14 4.86
-2 -5 0 269.54 6.6
-2 -5 0 273.38 6.63
-2 -5 0 231.8 6.12
-2 -5 -1 41.62 2.88
-2 -5 -1 45.15 3.19
-2 -5 -1 59.7 2.6
-2 -5 -1 49.53 2.85
-2 -5 -1 42.52 3.04
-2 -5 -1 52.54 3.02
-2 -5 -1 51.98 3.15
-2 -5 -1 47.94 3.12
-2 -5 -1 46.39 2.99
-2 -5 -1 50.66 3.22
-2 -5 -1 48.95 3.03
-2 -5 -1 51.41 3.17
-2 -5 -1 47.6 3.13
-2 -5 -2 94.76 4.15
-2 -5 -2 123.79 4.55
-2 -5 -2 110.52 4.44
-2 -5 -2 96.99 4.14
-2 -5 -2 95.53 4.28
-2 -5 -2 102.03 4.14
-2 -5 -2 114.69 4.38
-2 -5 -3 109.3 4.48
-2 -5 -3 87.58 3.58
-2 -5 -3 103.03 3.66
-2 -5 -3 99.14 2.93
-2 -5 -3 107.79 4.4
-2 -5 -3 94.97 3.84
-2 -5 -3 100.98 3.81
-2 -5 -3 100.08 4.19
-2 -5 -4 1239.83 14.17
-2 -5 -4 1418.04 14.93
-2 -5 -4 1458.95 15.72
-2 -5 -4 1238.73 13.11
-2 -5 -4 1291.88 13.87
-2 -5 -4 1341.1 12.93
-2 -5 -4 1392.39 14.34
-2 -5 -4 1453.31 15.48
-2 -5 -4 1360.28 13.62
-2 -5 -4 1414.22 15.03
-2 -5 -4 1438.08 15.54
2 5 4 1355.58 10.79
-2 -5 -4 1258.56 13.62
-2 -5 -4 1284.53 14.11
-2 -5 -4 1335.73 14.64
-2 -5 -5 513.36 8.46
-2 -5 -5 478.45 8.45
2 5 5 537.12 8.23
-2 -5 -5 479.94 7.63
-2 -5 -5 402.35 7.78
-2 -5 -5 490.48 7.5
-2 -5 -5 456.38 8.4
-2 -5 -5 484.48 7.77
-2 -5 -5 508.8 8.73
2 5 5 523.54 6.81
-2 -5 -5 477.26 8.09
-2 -5 -5 497.42 8.56
2 5 5 488.52 5.85
-2 -5 -5 454.61 7.36
-2 -5 -5 485.49 7.76
-2 -5 -5 485.94 8.38
-2 -5 -6 115.43 3.96
-2 -5 -6 121.9 3.94
-2 -5 -6 128.71 4.47
-2 -5 -6 96.44 3.98
-2 -5 -6 117.43 4.02
-2 -5 -6 116.88 4.65
-2 -5 -6 113.93 3.57
2 5 6 132.07 3.74
-2 -5 -6 117.62 3.87
-2 -5 -6 115.67 3.9
2 5 6 145.27 3.28
-2 -5 -6 121.72 3.54
-2 -5 -6 102.84 3.53
2 5 7 22.03 1.94
-2 -5 -7 24.78 2.51
-2 -5 -7 19.73 1.76
-2 -5 -7 27.6 2.28
-2 -5 -7 17.86 2.29
-2 -5 -7 18.09 1.58
2 5 7 25.08 1.64
2 5 7 23.63 1.97
2 5 7 25.21 2.28
2 5 8 531.43 8.02
-2 -5 -8 712.05 9.31
2 5 8 647.49 10.21
2 5 8 561.14 8.22
-2 -5 -8 653.7 11.47
2 5 8 604.03 8.11
-2 -5 -8 542.56 10.35
2 5 8 578.68 9.56
2 5 9 123.39 3.85
2 5 9 115.57 3.53
2 5 9 124.27 4.52
-2 -5 -10 -0.41 1.5
-2 -5 -10 0.63 1.15
2 5 10 -0.33 1.32
-2 -5 -11 47.45 2.52
-2 -5 -11 42.93 2.33
2 5 11 35.11 2.17
2 5 11 33.76 2.18
2 5 12 10.48 1.38
-2 -5 -12 11.67 1.17
-2 -5 -12 12.88 1.22
-2 -6 7 80.86 2.5
2 6 -6 5.16 0.81
2 6 -6 8.69 0.96
-2 -6 5 122.07 4.2
2 6 -5 129.07 3.15
-2 -6 4 101.98 4.26
2 6 -4 125.08 3.46
-2 -6 3 482.23 9.58
2 6 -3 464.32 6.41
-2 -6 2 2.34 1.78
-2 -6 2 1.08 1.08
2 6 -2 2.08 0.92
-2 -6 2 0.17 1.02
-2 -6 2 0.88 1.29
-2 -6 2 0.47 1.22
-2 -6 1 6.98 1.7
-2 -6 1 5.54 1.67
-2 -6 1 4.58 1.57
-2 -6 1 4.64 1.59
2 6 -1 5.8 1.1
-2 -6 1 5.21 1.76
-2 -6 1 5.44 1.69
-2 -6 1 6.21 1.73
-2 -6 1 6.77 1.22
-2 -6 0 1.64 1.64
-2 -6 0 1.63 1.72
-2 -6 0 1.75 2
-2 -6 0 3.48 1.41
-2 -6 0 2.12 1.07
-2 -6 0 2.57 1.65
2 6 0 1.54 0.82
-2 -6 0 1.56 1.79
-2 -6 0 1.84 1.63
-2 -6 0 2.17 1.76
-2 -6 0 1.22 1.7
-2 -6 0 2.76 1.61
-2 -6 -1 9.32 2.25
-2 -6 -1 8.45 2.1
-2 -6 -1 9.12 2.48
-2 -6 -1 8.87 2.12
-2 -6 -1 9.41 1.45
-2 -6 -1 7.1 2.05
-2 -6 -1 6.96 2.18
-2 -6 -1 7.17 2.07
-2 -6 -1 10.1 2.31
2 6 1 11.25 1.27
-2 -6 -1 9.53 2.06
-2 -6 -2 645.99 9.32
-2 -6 -2 457.87 9.74
2 6 2 652.07 9.16
-2 -6 -2 550.05 10.8
-2 -6 -2 443.46 9.93
-2 -6 -2 462.4 9.86
-2 -6 -2 519.37 10.48
-2 -6 -3 807.55 13.37
-2 -6 -3 825.61 13.36
2 6 3 771.18 10.57
-2 -6 -3 720.49 11.96
-2 -6 -3 765.64 12.6
-2 -6 -4 5.55 1.66
-2 -6 -4 4.77 1.81
2 6 4 4.56 1.4
-2 -6 -4 5.18 2.04
-2 -6 -4 4.8 1.72
-2 -6 -4 5.3 1.73
-2 -6 -4 5.9 1.86
-2 -6 -4 6.05 2.03
-2 -6 -4 6.52 1.97
2 6 4 6.08 1.27
-2 -6 -4 6.11 1.97
-2 -6 -4 3.97 1.68
-2 -6 -5 165.09 5.28
-2 -6 -5 152.69 5.38
2 6 5 136.66 4.51
-2 -6 -5 151.64 4.39
-2 -6 -5 136.52 4.97
-2 -6 -5 143.53 4.67
-2 -6 -5 143.96 4.86
-2 -6 -5 157.8 5.41
2 6 5 135.71 3.85
-2 -6 -5 157.92 5.18
-2 -6 -5 160.49 5.32
-2 -6 -5 138.79 4.76
-2 -6 -5 159.57 5.24
-2 -6 -6 467.84 8.31
-2 -6 -6 493.59 8.45
2 6 6 443.02 7.94
2 6 6 424.53 6.89
-2 -6 -6 426.83 7.44
-2 -6 -6 470.42 8.65
-2 -6 -6 400.06 8.54
-2 -6 -6 413.52 7.47
-2 -6 -6 479.79 8.64
-2 -6 -6 491.22 8.39
-2 -6 -6 486.82 8.48
-2 -6 -7 73.08 3.2
2 6 7 59.47 2.69
-2 -6 -7 52.01 3.33
-2 -6 -7 49.64 2.37
-2 -6 -7 64.29 2.91
-2 -6 -7 65.75 2.94
-2 -6 -7 74.64 3.6
-2 -6 -7 52.17 2.46
2 6 7 70.08 3.19
-2 -6 -8 109.14 4.53
-2 -6 -8 111.98 4.54
-2 -6 -8 152.85 4.54
2 6 8 93.59 3.98
2 6 8 138.86 4.82
2 6 8 117.39 3.63
2 6 8 121.25 4.29
-2 -6 -9 708.65 8.5
2 6 9 723.41 10.04
-2 -6 -10 256.73 5.69
-2 -6 -10 258.04 5.77
2 6 11 132.64 3.03
2 6 11 3.32 1.17
-2 -7 5 3.44 1.24
-2 -7 4 53.38 2.37
-2 -7 3 429.54 7.25
-2 -7 3 500.59 8.98
-2 -7 2 252.39 5.98
-2 -7 2 2010.12 19.1
-2 -7 1 155.47 4.53
-2 -7 1 162.75 4.57
-2 -7 1 171.6 4.46
-2 -7 1 156.41 4.33
-2 -7 0 177.61 5.47
-2 -7 0 177.64 4.01
-2 -7 0 189.58 5.79
-2 -7 0 174.83 5.31
-2 -7 -1 190.28 6.4
-2 -7 -1 182.64 4.46
-2 -7 -1 160.83 5.7
-2 -7 -1 188.71 6.37
-2 -7 -1 159.99 5.62
-2 -7 -1 192.91 6.09
-2 -7 -1 194.31 6.33
-2 -7 -2 12.34 2.55
-2 -7 -2 11.47 2.27
-2 -7 -2 11.58 2.58
-2 -7 -2 11.33 2.38
-2 -7 -2 12.4 1.7
-2 -7 -3 238.95 7.2
-2 -7 -3 251.67 7.28
-2 -7 -3 250.29 7.48
-2 -7 -3 243.56 7.58
-2 -7 -4 492.24 10.3
-2 -7 -4 479.63 10.1
-2 -7 -5 36.38 3.01
-2 -7 -5 31.3 2.86
-2 -7 -5 27.9 2.41
-2 -7 -5 34.41 2.86
-2 -7 -5 29.92 2.71
-2 -7 -5 30.62 2.68
-2 -7 -5 27.39 2.39
-2 -7 -6 57.56 3.2
-2 -7 -6 49.37 3.15
-2 -7 -6 52.64 3.02
-2 -7 -6 48.93 2.93
-2 -7 -7 2.27 1.07
-2 -7 -7 1.48 1.22
-2 -7 -7 2.93 1.44
-2 -7 -7 1.1 1.22
-2 -7 -7 0.96 1.12
-2 -7 -8 85.68 3.27
-2 -7 -8 99.35 2.78
-2 -7 -9 1.09 0.91
-2 -7 -9 1.29 1.01
-2 -7 -10 1.47 0.82
-2 -8 3 329.59 5.67
-2 -8 2 82.71 3.33
-2 -8 1 -0.03 1.54
-2 -8 0 4.25 1.09
-2 -8 0 2.64 0.95
-2 -8 -1 159.59 4.7
-2 -8 -1 164.57 4.53
-2 -8 -1 158.14 4.55
-2 -8 -2 442.33 6.09
-2 -8 -2 458.13 8.96
-2 -8 -2 435.26 8.29
-2 -8 -2 435.8 8.54
-2 -8 -3 246.46 6.95
-2 -8 -3 236.96 6.49
-2 -8 -4 471.82 9.05
-2 -8 -4 508.4 7.61
-2 -8 -5 0.15 1.52
-2 -8 -5 -0.79 1.58
-2 -8 -5 0.14 1.52
-2 -8 -6 16.52 1.88
-2 -8 -6 11.85 1.58
-2 -8 -6 11.18 1.57
-2 -8 -6 14.06 1.68
-2 -8 -7 92.87 2.74
-2 -8 -7 85.62 2.59
-2 -8 -7 85.39 3.03
-2 -8 -8 421.95 5.7
-2 -9 -4 75.08 2.5
3 -6 -6 16.24 1.29
3 -6 -6 23.17 1.36
3 -6 -5 3.13 1.24
-3 6 5 3.72 0.78
3 -6 -5 3.73 1.23
3 -6 -5 1.82 1.13
3 -6 -5 1.93 1.23
-3 6 5 3.14 0.92
3 -6 -4 42.36 2.64
-3 6 4 43.7 1.87
-3 6 4 42.24 2.04
3 -6 -3 42.58 2.81
3 -6 -3 41.72 2.78
-3 6 2 21.3 1.38
3 -6 -2 19.94 2.16
3 -6 -2 20.67 2.14
-3 6 2 24.92 1.65
3 -6 -1 51.01 2.64
-3 6 1 73.61 2.22
3 -6 -1 61.07 2.72
-3 6 1 52.42 1.93
3 -6 -1 53.15 2.69
3 -6 -1 58.94 2.6
-3 6 1 83.81 2.51
-3 6 0 265.18 3.79
-3 5 8 115.99 2.42
-3 5 8 122.16 2.94
-3 5 7 37 1.86
3 -5 -7 35.48 2.31
-3 5 7 2.04 1.13
3 -5 -7 1.17 0.67
-3 5 7 2.11 1.35
3 -5 -7 8.74 1.05
-3 5 7 36.34 2.02
-3 5 7 36.36 1.96
3 -5 -6 258.06 5.22
3 -5 -6 301.61 6.3
-3 5 6 364.5 5.86
3 -5 -6 473.49 6.13
3 -5 -6 225.68 4.95
3 -5 -6 297.45 5.6
3 -5 -6 310.47 5.67
-3 5 6 322.54 5.41
-3 5 6 389.62 6.16
-3 5 6 399.92 5.98
3 -5 -5 365.22 7.32
3 -5 -5 324.79 6.5
-3 5 5 434.2 6.74
3 -5 -5 449.05 7.97
3 -5 -5 520.4 7.01
3 -5 -5 339.45 7.29
3 -5 -5 425.5 7.79
-3 5 5 442.82 6.6
-3 5 5 451.53 6.34
-3 5 5 440.05 7.02
3 -5 -4 17.2 2.53
3 -5 -4 11.17 1.51
-3 5 4 19.35 1.6
3 -5 -4 15.37 1.64
3 -5 -4 22.44 2.54
3 -5 -4 15.55 2.47
3 -5 -4 20.59 2.42
-3 5 4 17.79 1.51
-3 5 4 18.48 1.58
-3 5 4 19.98 1.68
3 -5 -3 180.1 6.58
-3 5 3 164.77 4.26
-3 5 3 160.57 4.08
3 -5 -3 161.65 6.5
-3 5 3 177.65 4.11
-3 5 3 191.29 4.79
-3 5 3 186.25 4.72
-3 5 2 57.19 2.71
3 -5 -2 58.13 4
-3 5 2 59.15 2.7
3 -5 -2 61.72 2.93
3 -5 -2 58.87 3.98
-3 5 2 63.52 2.79
3 -5 -1 104.67 5.15
-3 5 1 101.79 3.66
3 -5 -1 113.78 4.07
-3 5 1 103.96 3.73
3 -5 -1 99.23 5.13
3 -5 -1 120.24 5.16
-3 5 1 106.64 3.79
3 -5 -1 108.54 4.96
-3 5 1 103.1 3.45
3 -5 0 210.52 6.18
-3 5 0 229.23 5.5
3 -5 0 280.78 6.56
-3 5 0 227.43 5.02
3 -5 0 249.86 6.52
3 -5 0 212.04 6.45
-3 5 0 239.03 5.73
3 -5 0 244.58 6.33
-3 5 0 256.49 5.96
-3 5 0 273.02 6.04
-3 5 0 243.47 5.09
3 -5 1 329.67 6.49
-3 5 -1 462.77 7.45
3 -5 1 405.65 6.99
-3 5 -1 506.33 8.24
3 -5 1 381.5 7.07
3 -5 1 421.36 6.91
-3 5 -1 503.53 8.31
-3 5 -1 593.84 7.2
-3 5 -1 534.99 8.27
-3 5 -1 593.35 7.4
-3 5 -2 138.01 3.95
-3 5 -2 159.69 3.1
3 -5 2 134.37 4.34
-3 5 -2 150.76 4.29
3 -5 3 6.87 1.33
-3 5 -3 7.15 1.15
-3 5 -3 8.84 1.13
-3 5 -4 5.15 0.76
3 -5 4 5.25 0.95
-3 5 -4 6.36 0.85
3 -4 -10 71.47 2.21
3 -4 -10 79.64 2.25
-3 4 10 116.04 2.41
-3 4 10 121.79 2.76
3 -4 -9 189.47 3.83
-3 4 9 1.81 1.07
-3 4 9 1.11 1.18
3 -4 -9 180.57 4.12
3 -4 -8 46.47 2.24
-3 4 8 377.06 5.76
-3 4 8 417.83 7
-3 4 8 38.98 2.28
-3 4 8 34.8 2.11
3 -4 -7 156.03 3.96
-3 4 7 143.74 3.97
3 -4 -7 142.01 3.97
-3 4 7 154.85 4.94
3 -4 -7 99.29 2.97
-3 4 7 148.08 4.22
-3 4 7 148.05 4.11
3 -4 -7 92.75 2.93
3 -4 -6 66.3 2.99
3 -4 -6 78.33 3.17
3 -4 -6 74.46 3.03
3 -4 -6 70.56 2.82
-3 4 6 88.23 3.21
3 -4 -6 102.15 3.4
3 -4 -6 68.6 2.84
3 -4 -6 61.25 2.98
-3 4 6 86.24 3.1
-3 4 6 89.46 3.05
3 -4 -5 -0.04 1.46
-3 4 5 0.78 0.84
3 -4 -5 2.62 1.37
3 -4 -5 0.58 1.26
3 -4 -5 0.62 1.25
3 -4 -5 1.77 1.5
-3 4 5 1.25 0.91
-3 4 5 1.13 0.89
-3 4 5 0.75 0.82
-3 4 4 58.72 2.71
-3 4 4 56.29 2.57
3 -4 -4 50.55 3.3
-3 4 4 54.59 2.6
3 -4 -4 43.4 3.25
3 -4 -4 53.54 2.6
3 -4 -4 53.39 3.38
3 -4 -4 62.84 3.5
-3 4 4 52.37 2.46
-3 4 4 60.67 3.22
3 -4 -4 61.87 3.5
3 -4 -4 70.1 3.32
3 -4 -4 43.2 3.06
-3 4 4 56 2.42
-3 4 4 60.76 2.87
-3 4 4 54.89 2.72
-3 4 4 60.4 2.62
3 -4 -4 59.04 3.84
3 -4 -4 60.62 3.74
-3 4 3 10.75 1.39
3 -4 -3 9.49 2.15
-3 4 3 10.11 1.35
3 -4 -3 12.28 2.68
3 -4 -3 6.66 1.5
3 -4 -3 10.17 1.97
3 -4 -3 10.02 1.49
3 -4 -3 10.06 2.37
-3 4 3 10.33 1.37
-3 4 3 10.73 1.56
3 -4 -3 10.87 2.59
-3 4 3 10.54 1.36
-3 4 3 10.87 1.33
-3 4 2 66.62 2.99
-3 4 2 63.02 2.95
-3 4 2 57.32 2.69
3 -4 -2 57.53 4
3 -4 -2 52.88 3.11
3 -4 -2 63.16 3.04
3 -4 -2 62.13 4
3 -4 -2 56.33 3.89
-3 4 2 66.57 3.06
3 -4 -2 54.35 3.85
-3 4 2 66.48 3.05
-3 4 2 65.33 3.12
-3 4 2 67.21 2.77
-3 4 2 62.53 2.87
-3 4 2 65.93 2.88
-3 4 2 58.29 2.63
-3 4 2 69.72 2.94
-3 4 1 687.93 10.07
-3 4 1 654.16 10.02
-3 4 1 650.2 9.98
3 -4 -1 599.56 11.62
3 -4 -1 615.08 12.7
-3 4 1 628.34 9.54
3 -4 -1 649.27 9.95
3 -4 -1 633.51 12.14
-3 4 1 616.35 9.16
3 -4 -1 647.91 12.22
-3 4 1 653.68 9.42
3 -4 -1 700.5 10.42
3 -4 -1 644.27 12
-3 4 1 647.74 10.14
3 -4 -1 536.42 10.95
-3 4 1 674.36 8.91
-3 4 1 685.35 10.12
-3 4 1 624.44 9.01
-3 4 1 672.92 8.87
-3 4 1 697.53 9.51
3 -4 0 379.84 9.67
-3 4 0 393.2 7.68
-3 4 0 364.08 7.7
-3 4 0 355.69 7.52
3 -4 0 376.04 8.61
3 -4 0 356.86 9.17
3 -4 0 424.68 8.57
3 -4 0 373.27 8.8
-3 4 0 377.46 7.6
3 -4 0 403.56 9.13
-3 4 0 370.1 7.65
3 -4 0 400.46 10.12
-3 4 0 364.07 6.75
3 -4 0 410.92 8.26
3 -4 0 393.38 8.85
-3 4 0 397.55 8.12
3 -4 0 314.85 7.98
-3 4 0 374.15 6.61
-3 4 0 341.51 6.61
-3 4 0 379.12 6.38
-3 4 0 412.33 7.44
3 -4 1 166.35 5.8
3 -4 1 194.77 6.21
-3 4 -1 167.16 5.28
3 -4 1 175.22 5.53
3 -4 1 171.34 6.03
-3 4 -1 157.59 5.21
3 -4 1 164.93 5.39
3 -4 1 184.4 5.47
-3 4 -1 173.28 5.52
-3 4 -1 171.75 5.38
-3 4 -1 152.7 4.28
3 -4 2 34.08 2.57
-3 4 -2 57.01 3.07
3 -4 2 37.91 2.51
-3 4 -2 43.62 2.89
-3 4 -2 43.27 2.93
-3 4 -2 48.59 2.95
-3 4 -2 45.53 2.94
3 -4 2 35.55 2.67
3 -4 2 46.49 3.01
3 -4 2 39.04 2.46
-3 4 -2 51.07 2.35
-3 4 -3 34.38 2.26
-3 4 -3 28.95 2.38
3 -4 3 24.69 2.66
-3 4 -3 29.58 2.45
3 -4 3 27.54 2.17
-3 4 -4 181.66 5.11
-3 4 -4 184.06 4.66
-3 4 -4 183.84 4.99
-3 4 -5 580.27 7.14
-3 4 -5 573.82 7.59
3 -4 6 387.84 5.1
-3 4 -6 519.92 6.05
3 -3 -11 97.01 2.32
-3 3 11 345.71 4.27
-3 3 10 80.76 2.46
-3 3 10 6.4 1.23
3 -3 -9 101.94 3.22
3 -3 -9 92.77 2.91
-3 3 9 0.71 1.14
3 -3 -9 87.23 2.62
-3 3 9 0.4 1.3
3 -3 -8 107.84 3.46
-3 3 8 93.3 3.31
3 -3 -8 91.24 2.99
-3 3 8 106.16 4.06
-3 3 8 83.06 3.33
3 -3 -8 88.12 3.01
3 -3 -8 103.71 3.15
3 -3 -7 642.32 8.44
-3 3 7 536.47 7.77
3 -3 -7 545.86 7.33
3 -3 -7 638.46 7.71
3 -3 -7 611.16 7.74
3 -3 -7 532.69 8.57
-3 3 7 488.3 8.38
-3 3 7 523.52 8.02
-3 3 7 514.19 7.77
3 -3 -6 559.17 8.24
-3 3 6 555.43 8.09
3 -3 -6 548.39 7.44
3 -3 -6 421.18 8.14
-3 3 6 510.72 7.66
3 -3 -6 425.33 7.26
-3 3 6 391.12 8.07
3 -3 -6 419.76 6.66
3 -3 -6 559.35 7.44
3 -3 -6 421.74 6.54
-3 3 6 551.83 6.92
3 -3 -6 437.44 6.6
-3 3 6 502.65 7.7
-3 3 6 496.04 7.44
3 -3 -6 399.72 6.42
-3 3 6 478.83 7.18
3 -3 -6 412.9 6.82
3 -3 -5 1211.4 12.54
-3 3 5 1407.88 13.29
-3 3 5 1188.16 11.6
3 -3 -5 1202.5 13.58
3 -3 -5 1292.18 11.93
3 -3 -5 1264.38 13.02
3 -3 -5 1464.07 12.73
3 -3 -5 1276.29 12.97
3 -3 -5 1151.17 12.02
3 -3 -5 1131.25 13.68
-3 3 5 1163.45 14.32
3 -3 -5 1163.75 12.48
3 -3 -5 1110 12.57
-3 3 5 1228.05 11.65
-3 3 5 1243.84 11.42
-3 3 5 1234.62 12.14
-3 3 5 1317.73 13.15
-3 3 5 1253.15 11.79
3 -3 -5 1212.45 13.15
3 -3 -4 26.19 1.86
-3 3 4 36.38 2.1
-3 3 4 32.71 1.96
3 -3 -4 41.74 2.17
3 -3 -4 38.43 2.59
3 -3 -4 32.8 2.34
3 -3 -4 36.62 2.44
3 -3 -4 34.87 2.67
3 -3 -4 32.7 2.28
3 -3 -4 27.11 1.83
3 -3 -4 33.57 2.1
-3 3 4 32.65 2
3 -3 -4 35.87 2.4
3 -3 -4 32.65 2.56
3 -3 -4 44.45 2.68
-3 3 4 32.97 1.83
-3 3 4 34.03 2.06
-3 3 4 34.69 1.9
3 -3 -4 35.97 2.66
-3 3 3 41.02 2.25
-3 3 3 37.38 2.12
3 -3 -3 48.54 2.83
3 -3 -3 35.69 2
-3 3 3 39.34 2.13
3 -3 -3 41.32 2.44
3 -3 -3 42.05 2.9
3 -3 -3 38.53 2.2
3 -3 -3 41.76 2.8
3 -3 -3 44.99 2.93
-3 3 3 37.8 2.15
-3 3 3 44.43 2.59
3 -3 -3 36.76 2.18
3 -3 -3 41.75 3.01
3 -3 -3 43.78 2.87
3 -3 -3 45.04 3.19
-3 3 3 41.44 1.96
-3 3 3 39.16 2.2
-3 3 3 39.96 2.02
3 -3 -3 46.45 3.19
-3 3 2 41.24 2.26
-3 3 2 40.71 2.28
-3 3 2 40.43 2.22
3 -3 -2 41.54 2.69
3 -3 -2 51.1 2.74
3 -3 -2 41.49 2.34
-3 3 2 41.1 2.19
-3 3 2 41.44 2.33
-3 3 2 46.4 2.48
3 -3 -2 39.97 2.29
3 -3 -2 39.28 3.29
-3 3 2 43.11 2.44
-3 3 2 43.6 2.04
-3 3 2 43.88 2.38
-3 3 2 39.29 2.13
3 -3 -2 40.66 3.3
3 -3 -2 27.94 2.1
-3 3 2 46.46 2.21
3 -3 -2 39.55 3.27
3 -3 -1 132.17 5.09
-3 3 1 149.21 4.34
-3 3 1 150.1 4.47
3 -3 -1 115.88 4.18
3 -3 -1 154.49 4.46
3 -3 -1 160.33 4.47
3 -3 -1 136.08 5.19
-3 3 1 152.1 4.5
3 -3 -1 124.84 4.92
-3 3 1 153.2 4.25
-3 3 1 154.73 4.66
3 -3 -1 123.28 4.87
-3 3 1 150.08 4.41
-3 3 1 149.18 3.71
3 -3 -1 147 4.38
-3 3 1 145.1 4.01
-3 3 1 145.7 3.84
-3 3 1 164.81 4.18
-3 3 1 145.53 4.25
-3 3 0 962.46 12.25
-3 3 0 987.77 12.31
3 -3 0 889.65 10.5
3 -3 0 1058.36 12.17
3 -3 0 1009.86 12.47
-3 3 0 946.1 11.93
3 -3 0 863.28 12.62
3 -3 0 940.17 13.04
3 -3 0 1005.84 13.79
-3 3 0 980.77 11.08
3 -3 0 999.62 12.03
-3 3 0 1011.58 12.69
3 -3 0 957.93 14.14
3 -3 0 945.26 13.01
-3 3 0 943.77 10.09
3 -3 0 976.07 13.52
3 -3 0 977.21 14.88
-3 3 0 892.58 10.36
-3 3 0 936.24 9.95
-3 3 0 1090.16 11.78
3 -3 0 991.65 14.49
-3 3 -1 535.29 9.48
-3 3 -1 528 9.36
3 -3 1 586.73 9.96
3 -3 1 594.2 10.09
3 -3 1 562.53 9.08
3 -3 1 596.25 10.28
3 -3 1 454.02 9.13
3 -3 1 553.4 10.54
-3 3 -1 554.82 8.32
3 -3 1 560.62 9.29
-3 3 -1 539.27 9.56
3 -3 1 558.36 9.28
3 -3 1 548.28 10.04
-3 3 -1 486.64 7.23
3 -3 1 555.5 9.36
-3 3 -1 551.8 9.67
-3 3 -1 511.61 7.1
-3 3 -1 579.97 8.79
3 -3 1 575.42 10.35
-3 3 -2 71.94 3.38
-3 3 -2 66.13 3.29
3 -3 2 60.59 3.51
3 -3 2 70.8 3.25
-3 3 -2 68.52 2.35
3 -3 2 70.29 3.44
-3 3 -2 68.04 3.55
-3 3 -2 64.13 3.55
3 -3 2 70.31 3.31
3 -3 2 74.33 3.78
3 -3 2 65.12 3.79
3 -3 2 74.23 3.28
-3 3 -2 69.7 3.5
3 -3 2 70.26 3.63
3 -3 2 70.84 3.18
3 -3 2 64.04 3.39
-3 3 -2 66.01 2.69
-3 3 -2 70.24 3.66
-3 3 -2 70.94 2.72
3 -3 2 69.84 3.55
3 -3 3 317.78 6.38
-3 3 -3 379.55 8.1
-3 3 -3 356.96 8.22
3 -3 3 430.73 7.84
-3 3 -3 361.92 8.35
3 -3 3 323.46 5.93
-3 3 -3 355.12 8.13
3 -3 3 321.09 6.63
3 -3 3 365.15 7.86
-3 3 -3 365.97 8.28
-3 3 -3 373.78 5.83
-3 3 -3 395.36 6.54
-3 3 -3 367.26 8.32
-3 3 -3 402.15 6.6
3 -3 4 340.97 8.51
-3 3 -4 332.81 7.97
3 -3 4 322.09 6.87
-3 3 -5 40.85 2.14
-3 3 -5 48.37 2.81
3 -3 5 42.23 3.05
-3 3 -5 49.09 3.07
-3 3 -5 48.15 2.46
3 -3 5 33.41 2.12
-3 3 -5 46 2.62
-3 3 -5 53.46 3.01
-3 3 -6 84.59 3.55
3 -3 6 71.95 3.15
-3 3 -6 81.74 3.26
-3 3 -6 71.79 2.51
-3 3 -6 73.96 2.8
3 -3 7 -0.16 0.33
-3 3 -7 134.66 3.3
-3 2 12 1.71 0.94
3 -2 -11 74.33 2
3 -2 -11 88.57 2.36
3 -2 -10 64.73 2.54
3 -2 -10 60.75 2.15
-3 2 10 64.95 2.53
3 -2 -9 7.3 1.22
-3 2 9 84.89 2.93
3 -2 -9 8.84 1.36
3 -2 -9 9.23 1.15
-3 2 9 87.97 3.28
-3 2 9 8.44 1.55
3 -2 -8 245.49 5.12
-3 2 8 759.72 8.53
-3 2 8 819.24 9.83
3 -2 -8 224.17 4.85
-3 2 8 207.54 6.44
3 -2 -8 265.65 5.8
3 -2 -7 443.98 6.78
-3 2 7 427.1 6.03
-3 2 7 388.29 6.94
-3 2 7 374.46 6.93
-3 2 7 770.51 8.97
3 -2 -7 348.01 6.28
-3 2 7 312.98 7.84
3 -2 -7 386.64 7.5
-3 2 7 354.81 6.85
-3 2 7 317.14 6.31
-3 2 7 382.64 7.37
-3 2 7 892.4 10.95
3 -2 -6 139 3.63
-3 2 6 111.31 3.49
-3 2 6 127.38 3.73
-3 2 6 112.88 3.25
3 -2 -6 124.38 3.45
3 -2 -6 126.41 3.76
3 -2 -6 96.96 3.35
-3 2 6 122.54 4.75
3 -2 -6 101.16 3.93
-3 2 6 93.48 3.68
-3 2 6 128.4 3.29
3 -2 -6 105.38 2.87
3 -2 -6 130.26 3.32
-3 2 6 113.31 3.68
-3 2 6 113.01 3.59
3 -2 -6 109.47 3.06
-3 2 6 108.93 3.38
3 -2 -5 106.16 3.11
3 -2 -5 130.14 3.47
-3 2 5 105.33 3.26
-3 2 5 100.17 3.07
3 -2 -5 108.79 3.16
3 -2 -5 119.55 3.1
-3 2 5 103.49 3.2
3 -2 -5 97.23 3.78
3 -2 -5 87.62 2.99
-3 2 5 126.37 4.39
3 -2 -5 99.53 2.91
3 -2 -5 105.66 3.06
-3 2 5 75.35 3.31
-3 2 5 105.07 2.94
3 -2 -5 99.32 3.19
-3 2 5 98.03 3.04
-3 2 5 97.93 2.93
3 -2 -5 103.97 3.33
-3 2 5 101.36 2.98
3 -2 -5 100.62 3.15
3 -2 -4 3.74 0.89
-3 2 4 2.26 0.77
-3 2 4 2.49 0.78
3 -2 -4 2.82 1.12
3 -2 -4 3.24 0.93
3 -2 -4 2.78 1.11
-3 2 4 2.74 0.8
3 -2 -4 2.84 0.87
3 -2 -4 2.78 1.01
-3 2 4 4.18 1.2
3 -2 -4 3.53 1
-3 2 4 3.01 1.03
-3 2 4 2.76 0.75
-3 2 4 2.87 0.77
-3 2 4 2.18 0.76
-3 2 4 2.58 0.7
3 -2 -3 282.17 4.73
-3 2 3 249.69 4.82
-3 2 3 260.66 5.07
3 -2 -3 297.87 6.24
3 -2 -3 264.61 4.91
-3 2 3 253.91 4.98
-3 2 3 262.68 4.89
-3 2 3 256.35 4.73
3 -2 -3 271.25 5.32
3 -2 -3 258.3 4.67
3 -2 -3 282.75 5.1
3 -2 -3 231.3 4.04
3 -2 -3 283.92 5.54
3 -2 -3 300.74 5.71
3 -2 -3 279.83 4.64
3 -2 -3 250.13 4.85
3 -2 -3 265.06 5.03
-3 2 3 247.58 4.26
-3 2 3 261.81 4.1
-3 2 3 278.05 5.17
-3 2 3 269.63 5.02
-3 2 3 267.75 4.84
-3 2 3 256.66 4.42
3 -2 -3 276.06 5.69
3 -2 -2 258.02 4.22
-3 2 2 268.67 5.15
3 -2 -2 281.89 5
3 -2 -2 283.18 6.45
-3 2 2 268.79 5.14
3 -2 -2 282.29 5.42
3 -2 -2 276.82 4.73
3 -2 -2 252.92 4.74
3 -2 -2 269.92 4.98
-3 2 2 254.06 4.89
3 -2 -2 234.71 4.23
-3 2 2 259.45 5.12
-3 2 2 299.08 5.65
3 -2 -2 255.39 4.87
3 -2 -2 269.25 5.31
-3 2 2 275.49 5.43
3 -2 -2 288.58 5.14
-3 2 2 275.71 4.26
-3 2 2 280.79 5.15
-3 2 2 274.93 4.92
-3 2 2 266.54 5.02
-3 2 2 282.77 4.72
3 -2 -2 265.74 5.92
-3 2 1 1745.69 14.6
3 -2 -1 1542.98 12.61
-3 2 1 1707.09 14.42
3 -2 -1 1646.01 12.8
3 -2 -1 1606.52 14.01
3 -2 -1 1786.44 13.16
3 -2 -1 1726.53 14.07
-3 2 1 1648.35 13.94
3 -2 -1 1278.29 13.98
-3 2 1 1764.7 14.73
3 -2 -1 1329.07 14.15
-3 2 1 1812.23 14.27
3 -2 -1 1622.99 13.47
-3 2 1 1755.01 14.78
3 -2 -1 1687.18 13.37
-3 2 1 1713.3 12.02
-3 2 1 1716.71 13.16
-3 2 1 1816.5 13.15
-3 2 0 123.37 3.58
3 -2 0 120.06 4.54
-3 2 0 124.89 3.86
3 -2 0 125.83 3.29
3 -2 0 104.11 3.34
3 -2 0 130.34 3.89
-3 2 0 128.54 3.96
3 -2 0 128.53 3.31
3 -2 0 110.57 3.91
-3 2 0 125.52 3.84
3 -2 0 109.75 3.93
-3 2 0 123.92 3.43
-3 2 0 127.19 3.9
-3 2 0 122.11 3.01
-3 2 0 118.68 3.16
-3 2 0 115.58 2.97
-3 2 0 137.24 3.48
3 -2 0 113.1 4.21
-3 2 -1 5.59 1.01
-3 2 -1 6.63 1.23
3 -2 1 5.22 1.65
-3 2 -1 6.52 1.21
3 -2 1 6.7 1.39
3 -2 1 6.01 1.43
-3 2 -1 9.71 1.47
3 -2 1 5.87 1.3
-3 2 -1 5.13 1.22
3 -2 1 6.21 1.05
3 -2 1 4.94 1.2
3 -2 1 5.22 1.48
3 -2 1 3.78 0.93
3 -2 1 4.86 1.39
-3 2 -1 6.23 1.02
3 -2 1 6.05 1.64
-3 2 -1 5.37 0.9
-3 2 -1 6.12 1.24
-3 2 -1 6.06 0.91
-3 2 -2 84.61 3.32
-3 2 -2 70.59 3.12
-3 2 -2 81.83 3.57
3 -2 2 84.1 3.57
3 -2 2 85.47 3.47
-3 2 -2 74.73 2.1
3 -2 2 90.92 4.02
-3 2 -2 76.82 3.5
-3 2 -2 84.52 3.62
3 -2 2 87.62 3.23
3 -2 2 91.84 3.38
3 -2 2 72.33 2.65
-3 2 -2 99.47 3.53
3 -2 2 84.83 3.52
-3 2 -2 77.55 3.46
-3 2 -2 75.39 2.58
3 -2 2 85.2 3.56
-3 2 -2 79.52 3.54
-3 2 -2 72.28 2.38
3 -2 2 84.5 3.49
-3 2 -3 505.84 8.67
-3 2 -3 519.76 8.29
-3 2 -3 467.44 5.46
3 -2 3 480.65 6.93
3 -2 3 456.43 7.59
3 -2 3 577.52 9.89
3 -2 3 498.27 7.18
3 -2 3 464.96 8.14
-3 2 -3 448.48 8.83
3 -2 3 513.25 7.31
3 -2 3 461.95 7.06
3 -2 3 475.26 7.47
3 -2 3 472.12 6.85
-3 2 -3 457.87 6.31
-3 2 -3 468.82 6.68
-3 2 -3 494.98 6.79
-3 2 -3 465.3 6.43
3 -2 3 479.74 8.13
3 -2 3 453.73 7.37
-3 2 -4 660.76 10.6
-3 2 -4 740.6 11.41
3 -2 4 737.11 12.24
3 -2 4 749.91 10.33
3 -2 4 659.82 10.23
-3 2 -4 657.68 11.29
3 -2 4 722.4 9.33
-3 2 -4 700.67 8.37
-3 2 -4 728.93 11.39
-3 2 -4 702.49 8.47
-3 2 -5 112.07 4.45
-3 2 -5 175.53 4.34
-3 2 -5 172.68 5.35
3 -2 5 137 4.15
3 -2 5 154.62 4.42
3 -2 5 132.83 5.5
-3 2 -5 175.05 5.45
3 -2 5 129.85 5.47
-3 2 -5 163.43 5.67
3 -2 5 131.71 4.99
-3 2 -5 164.74 5.05
-3 2 -5 135.04 3.59
-3 2 -5 173.67 5.38
-3 2 -5 136.89 3.48
-3 2 -6 69.96 2.37
3 -2 6 57.1 3.82
-3 2 -6 77.35 3.38
3 -2 6 67.3 3.7
-3 2 -6 74.36 3.38
-3 2 -6 100.95 4.29
-3 2 -6 67.35 2.65
3 -2 6 49.55 2.77
3 -2 6 41.42 3.27
-3 2 -6 71.35 3.05
-3 2 -6 82.15 3.47
-3 2 -7 14.67 1.24
3 -2 7 13.45 1.84
-3 2 -7 19.34 1.69
3 -2 7 16.84 2.32
-3 2 -7 13.44 1.25
-3 2 -7 17.91 1.61
-3 2 -7 15.79 1.5
3 -2 8 118.32 3.27
-3 2 -8 117.92 2.9
-3 1 12 191.9 3.54
3 -1 -11 40.33 1.75
-3 1 11 55.3 2.33
3 -1 -10 2.62 0.94
-3 1 10 1.43 0.99
3 -1 -10 2.06 0.92
-3 1 10 0.02 1.05
3 -1 -9 41.72 2.1
3 -1 -9 38.88 1.88
-3 1 9 40.18 2.42
-3 1 9 155.7 3.78
3 -1 -9 39.62 2.05
-3 1 9 39.97 3.05
3 -1 -9 39.18 2.07
-3 1 9 160.03 3.99
3 -1 -9 35.23 1.75
3 -1 -9 40.94 1.95
3 -1 -8 0.74 0.8
3 -1 -8 1.13 0.92
3 -1 -8 1.56 0.89
-3 1 8 105.83 3.29
3 -1 -8 3.18 0.96
3 -1 -8 0.58 1.25
-3 1 8 0.14 1.72
-3 1 8 115.41 3.72
3 -1 -8 1.34 0.89
3 -1 -8 0.98 0.98
3 -1 -8 0.96 0.83
-3 1 8 0.35 1.18
3 -1 -7 2403.07 14.87
3 -1 -7 2685.31 19.53
3 -1 -7 2054.04 14.76
-3 1 7 1890.43 18.94
3 -1 -7 2592.42 13.2
-3 1 7 2440.98 14.4
3 -1 -7 2479.42 12.66
3 -1 -7 2408.22 13.2
3 -1 -7 2523.94 13.35
-3 1 7 2299.76 18.96
-3 1 6 232.3 4.86
-3 1 6 214.33 4.39
3 -1 -6 241.82 4.69
-3 1 6 21.73 1.89
3 -1 -6 213.06 5.6
3 -1 -6 221.04 4.57
3 -1 -6 210.46 4.59
-3 1 6 190.05 5.88
-3 1 6 24.48 2.19
-3 1 6 220.49 4.88
-3 1 6 254.34 4.42
3 -1 -6 264.51 3.93
-3 1 6 210.36 4.96
-3 1 6 234.87 5.31
3 -1 -6 275.25 4.19
3 -1 -5 3.17 0.72
3 -1 -5 3.36 0.8
-3 1 5 2.33 0.77
-3 1 5 2.79 0.87
-3 1 5 3.18 0.85
3 -1 -5 5.37 1.04
3 -1 -5 2.99 1.02
-3 1 5 3.3 1.37
-3 1 5 3.48 1.43
3 -1 -5 3.23 0.86
3 -1 -5 2.46 0.79
3 -1 -5 3.02 1.14
3 -1 -5 2.64 0.76
-3 1 5 3.27 0.88
-3 1 5 1.96 0.86
3 -1 -5 3.36 0.7
-3 1 5 3.13 0.97
-3 1 5 2.32 0.95
-3 1 5 2.67 0.91
3 -1 -4 18.86 1.26
-3 1 4 16.55 1.27
3 -1 -4 19.49 1.37
3 -1 -4 20.02 1.47
3 -1 -4 17.65 1.33
3 -1 -4 18.62 1.4
3 -1 -4 17.89 1.37
-3 1 4 18.48 1.38
-3 1 4 22.54 1.87
-3 1 4 16.21 1.33
3 -1 -4 16.16 1.09
3 -1 -4 15.72 1.22
3 -1 -4 18.53 1.25
-3 1 4 16.52 1.47
3 -1 -4 20.92 1.56
-3 1 4 17.49 1.43
3 -1 -4 20.36 1.26
-3 1 4 18.4 1.38
-3 1 4 17.33 1.3
-3 1 4 18.69 1.53
-3 1 4 17.71 1.32
-3 1 4 22.05 2
3 -1 -4 14.87 1.33
-3 1 4 15.29 1.16
3 -1 -4 15.79 1.06
3 -1 -3 119.76 2.94
-3 1 3 110.73 2.85
-3 1 3 111.16 2.92
3 -1 -3 126.59 3.45
3 -1 -3 120.96 2.93
-3 1 3 118.21 3.16
-3 1 3 118.77 3.03
3 -1 -3 123.25 3.61
3 -1 -3 106.67 2.64
3 -1 -3 119.16 2.95
-3 1 3 134.44 3.63
-3 1 3 111.79 2.96
3 -1 -3 99.51 2.59
-3 1 3 127.42 3.55
3 -1 -3 120.82 3.08
3 -1 -3 108.74 2.78
3 -1 -3 113.68 2.81
3 -1 -3 129.67 2.81
-3 1 3 117.58 2.82
-3 1 3 117.98 2.64
-3 1 3 113.77 2.93
-3 1 3 124.48 3.18
3 -1 -3 115.27 3.13
-3 1 3 111.97 2.6
3 -1 -3 103.85 2.26
3 -1 -2 477.81 5.79
-3 1 2 440.28 5.68
-3 1 2 459.84 6.13
3 -1 -2 486.32 5.7
3 -1 -2 430.21 5.45
3 -1 -2 454.3 6.41
-3 1 2 449.14 5.83
-3 1 2 454.04 6.25
3 -1 -2 432.96 5.58
-3 1 2 460.45 6.23
-3 1 2 437.65 6.01
3 -1 -2 429.25 5.39
3 -1 -2 475.25 5.94
-3 1 2 495.17 6.62
3 -1 -2 443.12 5.75
3 -1 -2 451.64 5.45
3 -1 -2 423.93 4.93
-3 1 2 444.76 5.13
-3 1 2 430.2 4.36
-3 1 2 460.6 5.88
-3 1 2 490.07 6.13
-3 1 2 444.62 6.1
-3 1 2 441.21 5.01
3 -1 -1 564.03 6.2
-3 1 1 544.39 6.49
-3 1 1 566.14 7.02
3 -1 -1 613.93 6.36
-3 1 1 539.12 6.86
3 -1 -1 522.29 6.45
3 -1 -1 570.95 6.55
3 -1 -1 506.95 6.17
3 -1 -1 528.02 6.41
-3 1 1 525.1 6.74
3 -1 -1 547.69 6.06
-3 1 1 535.94 6.99
3 -1 -1 557.81 6.57
3 -1 -1 543.93 4.84
-3 1 1 552.22 7.05
3 -1 -1 556.79 5.97
-3 1 1 561.22 5.43
-3 1 1 556.82 6.41
-3 1 1 579.22 6.45
3 -1 -1 590.65 6.55
-3 1 1 544.95 6.88
-3 1 1 554.28 5.68
3 -1 0 1154.48 9.37
-3 1 0 1374.57 11.06
3 -1 0 1403.77 11.13
3 -1 0 1505.79 10.67
3 -1 0 1380.23 10.83
-3 1 0 1447.84 12.46
3 -1 0 1361.8 11.15
3 -1 0 1435.68 11.57
-3 1 0 1419.28 12.28
3 -1 0 1526 10.85
-3 1 0 1503.73 12.63
3 -1 0 1450.86 9.11
-3 1 0 1494.02 11.68
3 -1 0 1546.87 11.83
3 -1 0 1409.33 10.24
3 -1 0 1382.77 10.96
-3 1 0 1410.07 9.91
-3 1 0 1443.78 10.59
-3 1 0 1248.25 9.15
3 -1 0 1519.26 11.28
-3 1 0 1414.11 9.91
-3 1 -1 2.3 0.67
-3 1 -1 2.42 0.77
-3 1 -1 3.18 0.85
3 -1 1 2.5 0.67
-3 1 -1 2.32 0.86
-3 1 -1 3.48 0.91
3 -1 1 3.74 0.65
3 -1 1 3.24 1.02
-3 1 -1 2.99 0.73
-3 1 -1 2.72 0.79
3 -1 1 3.04 0.9
-3 1 -1 2.38 0.64
-3 1 -1 2.47 0.55
-3 1 -1 3.24 0.61
3 -1 1 2.49 0.76
3 -1 1 2.41 0.86
-3 1 -2 9.23 1.06
-3 1 -2 8.23 1.15
3 -1 2 8.25 1.37
3 -1 2 8.4 1.19
3 -1 2 8.7 1.37
-3 1 -2 6.68 0.63
3 -1 2 8.02 1.36
-3 1 -2 10.7 1.37
3 -1 2 9.98 0.92
3 -1 2 8.5 0.98
3 -1 2 8.2 1.31
-3 1 -2 10.65 1.24
-3 1 -2 9.43 1.21
3 -1 2 7.87 1.21
-3 1 -2 8.77 0.93
-3 1 -2 8.1 0.79
3 -1 2 5.63 0.89
3 -1 2 7.1 1.31
-3 1 -3 230.43 5.06
-3 1 -3 205.19 4.72
-3 1 -3 208.92 5.34
3 -1 3 239.76 5.42
-3 1 -3 210.02 3.08
3 -1 3 227.47 5.32
3 -1 3 235.73 4.92
3 -1 3 215.05 5.21
-3 1 -3 205.8 5.37
-3 1 -3 222.08 5.67
3 -1 3 214.51 4.23
3 -1 3 208.56 4.09
3 -1 3 228.89 4.32
3 -1 3 211.4 4.96
-3 1 -3 252.23 5.06
-3 1 -3 219.45 5.24
3 -1 3 240.28 5.62
3 -1 3 201.81 4.65
-3 1 -3 217.68 4.02
-3 1 -3 231.55 4.2
-3 1 -3 220.88 5.44
-3 1 -3 201.22 3.61
-3 1 -3 230.75 4.28
3 -1 3 214.67 4.49
3 -1 3 220.8 3.98
-3 1 -4 513.84 8.32
-3 1 -4 541.4 6.38
-3 1 -4 506.06 8.66
3 -1 4 527.07 9.05
3 -1 4 508.62 8.47
-3 1 -4 478.89 8.61
-3 1 -4 500.06 9.09
3 -1 4 529.71 7.69
3 -1 4 498.51 6.7
3 -1 4 552.08 8.13
3 -1 4 533.6 6.97
3 -1 4 526.99 8.91
3 -1 4 569.8 7.82
-3 1 -4 562.51 6.93
-3 1 -4 501.51 8.8
-3 1 -4 510.42 8.62
-3 1 -4 538.12 6.44
3 -1 4 526.36 8.41
-3 1 -5 10.06 1.56
-3 1 -5 12.96 1.25
-3 1 -5 15.21 1.71
3 -1 5 9.86 2
3 -1 5 10.15 1.81
3 -1 5 13.79 1.9
-3 1 -5 14.21 1.77
3 -1 5 8.44 1.4
3 -1 5 8.95 1.26
3 -1 5 10.99 1.62
3 -1 5 13.01 2.11
3 -1 5 13.48 2.12
-3 1 -5 12.88 1.25
-3 1 -5 14.62 1.73
-3 1 -5 11.59 1.11
-3 1 -5 15.65 1.74
-3 1 -6 15.62 1.92
-3 1 -6 22.97 1.52
3 -1 6 17.38 2.46
3 -1 6 23.36 2.06
-3 1 -6 26.04 2.04
3 -1 6 22.45 1.96
-3 1 -6 26.65 2.14
-3 1 -6 22.67 1.62
3 -1 6 17.86 1.66
3 -1 6 18.19 2.49
-3 1 -6 21.07 1.73
-3 1 -6 22.99 1.71
-3 1 -6 25.52 2.04
-3 1 -6 19.22 1.33
-3 1 -6 26.09 1.96
-3 1 -7 32.01 1.68
3 -1 7 23.23 1.79
3 -1 7 23.77 2.51
-3 1 -7 32.32 2.14
-3 1 -7 33.31 2.48
3 -1 7 20.24 1.8
3 -1 7 26.65 2.9
-3 1 -7 28.63 1.97
-3 1 -7 32.15 2.09
-3 1 -8 14.04 1.23
-3 1 -8 14.91 1.32
-3 1 -8 17.47 1.75
3 -1 8 16.36 2.34
-3 1 -9 -0.01 0.27
3 -1 9 3.61 0.87
-3 1 -10 351.8 5.31
-3 0 12 -0.61 1
-3 0 11 72.44 2.72
3 0 -10 10.96 1.34
3 0 -10 10.42 1.16
3 0 -10 9.81 1.16
3 0 -10 10.2 1.18
3 0 -9 12.13 1.4
3 0 -9 11.14 1.24
-3 0 9 12.1 1.56
3 0 -9 14.29 1.45
3 0 -9 9.86 1.04
3 0 -9 11.74 1.32
3 0 -9 10.61 1.23
3 0 -9 15.76 1.42
3 0 -8 928.04 9.65
3 0 -8 868.15 8.69
3 0 -8 902.03 9.81
-3 0 8 826.02 10.44
-3 0 8 1143.26 10.4
3 0 -8 932.14 11.16
3 0 -8 978.91 12.04
3 0 -8 895.42 8.1
3 0 -8 888.5 8.82
3 0 -8 902.17 8.88
-3 0 8 1159.48 10.75
3 0 -8 865.65 7.76
3 0 -8 834.6 7.68
3 0 -8 912.79 9.31
-3 0 8 638.77 10.55
3 0 -7 9.64 1.15
3 0 -7 7.6 1.19
-3 0 7 7.41 1.53
-3 0 7 188.03 4
-3 0 7 6.58 1.68
3 0 -7 7.49 1.56
3 0 -7 7.07 1.56
3 0 -7 8.27 1.12
-3 0 7 203.42 4.46
3 0 -7 7.81 1.1
-3 0 7 6.53 1.26
3 0 -7 6.79 0.97
3 0 -7 8.76 0.99
3 0 -7 8.81 1.38
3 0 -7 7.76 1.4
3 0 -7 8.28 0.95
3 0 -7 9.06 1.1
-3 0 7 4.46 1.52
3 0 -6 248.25 4.45
3 0 -6 214.59 4.58
3 0 -6 228.79 4.1
-3 0 6 221.5 4.65
-3 0 6 202.69 4.18
3 0 -6 245.77 5.73
3 0 -6 176.44 4.9
3 0 -6 244.35 4.89
-3 0 6 172.85 5.68
-3 0 6 207.13 5.74
3 0 -6 233.43 4.56
-3 0 6 226.7 4.33
3 0 -6 235.22 3.85
3 0 -6 264.3 4.16
3 0 -6 250.72 4.37
-3 0 6 220.25 5.94
-3 0 5 139.55 2.93
-3 0 5 130.94 3.43
-3 0 5 139.28 3.5
3 0 -5 151.44 3.57
3 0 -5 132.02 3.1
-3 0 5 586.85 6.52
3 0 -5 150.04 3.47
3 0 -5 148.55 4.14
3 0 -5 178.37 3.79
-3 0 5 176.91 5.18
-3 0 5 162.23 5.09
-3 0 5 154.13 3.79
3 0 -5 179.83 3.75
-3 0 5 588.96 7.22
-3 0 5 139.09 3.49
-3 0 5 151.33 3.22
3 0 -5 153.39 3.64
3 0 -5 142.6 3.18
3 0 -5 145.24 3.19
-3 0 5 143.2 4.33
-3 0 4 32.12 1.54
-3 0 4 30.16 1.58
3 0 -4 36.21 1.68
-3 0 4 37.39 1.82
3 0 -4 35.18 1.62
-3 0 4 44.48 2.6
3 0 -4 32.22 2.08
-3 0 4 44.18 2.5
-3 0 4 32.79 1.65
3 0 -4 30.98 1.68
-3 0 4 37.92 1.83
-3 0 4 11.21 1.73
-3 0 4 23.22 1.51
-3 0 4 33.15 1.52
3 0 -4 34.92 1.61
3 0 -4 31.42 1.48
3 0 -4 33.91 1.62
-3 0 4 35.99 2
3 0 -4 35.52 1.5
-3 0 4 35.57 2.01
3 0 -3 804.77 7.54
-3 0 3 704.89 6.8
-3 0 3 734.36 7.77
3 0 -3 696.19 6.62
-3 0 3 840.26 8.53
3 0 -3 756.06 7.11
-3 0 3 918.12 9.63
-3 0 3 668.17 7.3
3 0 -3 714.14 7.96
3 0 -3 784.47 8.96
-3 0 3 737.28 8.06
3 0 -3 758.08 7.02
3 0 -3 735.88 6.85
-3 0 3 783.54 8.26
-3 0 3 762.17 7.95
-3 0 3 709.63 7.6
3 0 -3 762.78 7.23
-3 0 3 748.87 7.41
-3 0 3 849.58 9.09
3 0 -2 973.2 7.94
-3 0 2 849.46 7.58
-3 0 2 969.76 8.76
3 0 -2 1008.1 9.64
3 0 -2 971.56 8.9
3 0 -2 904.89 7.82
-3 0 2 1034.34 9.22
-3 0 2 939.31 8.71
3 0 -2 918.1 7.97
-3 0 2 989.13 8.49
-3 0 2 970.39 8.24
3 0 -2 880.91 7.65
-3 0 2 903.86 8.6
-3 0 2 967.4 10.19
-3 0 2 937.26 7.34
3 0 -1 203.46 3.22
-3 0 1 183.13 3.13
3 0 -1 210.55 3.69
3 0 -1 193.61 3.23
3 0 -1 200.83 3.67
-3 0 1 194.84 3.78
3 0 -1 197.97 3.4
3 0 -1 190.07 3.25
-3 0 1 229.24 4.03
3 0 -1 194.7 3.43
-3 0 1 204.24 3.17
-3 0 1 145.78 2.1
-3 0 1 218.4 3.48
-3 0 1 170.57 4.23
-3 0 1 185.26 3.67
-3 0 1 210.55 2.86
3 0 0 3.5 0.62
-3 0 0 0.68 0.47
-3 0 0 0.4 0.57
3 0 0 0.85 0.57
-3 0 0 2.57 0.68
3 0 0 0.27 0.54
3 0 0 0.98 0.53
3 0 0 0.5 0.72
3 0 0 1.2 0.56
-3 0 0 0.47 0.51
3 0 0 0.61 0.74
3 0 0 0.43 0.64
-3 0 0 0.77 0.47
-3 0 0 2.55 0.56
-3 0 0 0.77 0.49
-3 0 0 0.59 0.36
3 0 0 1 0.58
-3 0 0 0.77 0.36
-3 0 -1 182.04 3.21
-3 0 -1 208.48 4.09
3 0 1 178.45 3.12
3 0 1 197.46 3.31
3 0 1 196.07 3.27
3 0 1 193.98 3.02
-3 0 -1 204.45 3.82
-3 0 -1 205.77 3.96
3 0 1 187.88 3.72
3 0 1 186.04 2.55
-3 0 -1 204.87 3.28
-3 0 -1 203.77 3.27
-3 0 -1 169.95 2.88
-3 0 -1 169.25 2.33
-3 0 -1 212.43 4.4
-3 0 -1 195.62 2.6
-3 0 -2 247.12 4
-3 0 -2 244.65 4.48
-3 0 -2 284.03 5.22
3 0 2 267.18 4.5
-3 0 -2 270.14 5.12
-3 0 -2 267.59 5.21
3 0 2 254.47 3.68
3 0 2 256.82 3.49
-3 0 -2 306.05 5.09
3 0 2 226.47 3.86
-3 0 -2 270.39 4.77
3 0 2 282.66 5.01
3 0 2 257.94 2.96
-3 0 -2 290.18 4.12
-3 0 -2 229.85 3.1
3 0 2 258.65 5.04
-3 0 -2 299.65 4.93
-3 0 -3 269.2 4.53
-3 0 -3 300.29 4.66
-3 0 -3 234.66 4.49
3 0 3 277.03 5.24
3 0 3 280.36 3.94
-3 0 -3 269.92 5.38
-3 0 -3 264.11 5.47
-3 0 -3 232.25 4.81
3 0 3 270.19 3.67
3 0 3 258.06 4.7
-3 0 -3 260.68 4.95
3 0 3 302.45 3.54
-3 0 -3 267.96 4.42
-3 0 -3 318.26 4.5
-3 0 -3 288.92 5.51
3 0 3 288.6 5.75
-3 0 -3 255.36 3.61
3 0 3 247.38 5.23
-3 0 -4 1874.68 14.58
-3 0 -4 2179.12 14.33
-3 0 -4 1866.14 12.68
3 0 4 1686.82 15.87
3 0 4 1969.99 12.47
-3 0 -4 1707.63 15.51
-3 0 -4 1658.97 15.74
-3 0 -4 1783.6 14.74
-3 0 -4 1907.3 13.02
3 0 4 2083.62 13.08
3 0 4 1953.5 15.96
-3 0 -4 1650.55 14.46
3 0 4 1923.82 17.14
3 0 4 1820.49 11.73
-3 0 -4 2351.67 14.68
-3 0 -4 1778.4 15.66
-3 0 -4 1921.47 11.97
3 0 4 2114.63 16.47
-3 0 -5 498.57 5.86
3 0 5 366.98 7.58
-3 0 -5 402.27 7.11
-3 0 -5 421.43 7.44
-3 0 -5 358.1 7.53
3 0 5 424.84 5.68
-3 0 -5 490.94 6.9
3 0 5 366.4 5.52
3 0 5 342.36 7.13
-3 0 -5 358.31 6.21
3 0 5 395.88 7.91
3 0 5 394.43 5.2
-3 0 -5 520.1 6.98
-3 0 -5 402.84 7.04
3 0 5 379.45 7.83
-3 0 -5 402.05 5
-3 0 -5 466.57 6.3
-3 0 -5 351.82 6.41
3 0 6 76.6 3.9
-3 0 -6 97.25 3.53
3 0 6 70.71 2.85
-3 0 -6 92.29 3.95
3 0 6 60.85 3.42
3 0 6 59.94 3.54
3 0 6 80.23 3.81
3 0 6 77.49 2.48
-3 0 -6 92.45 3.15
-3 0 -6 95.25 3.39
3 0 6 77.18 3.86
-3 0 -6 72.81 2.3
-3 0 -6 90.76 2.76
-3 0 -6 93.66 3.33
-3 0 -6 56.66 2.74
3 0 7 1.23 1.64
3 0 7 2.46 1.41
3 0 7 2.49 1.29
-3 0 -7 2.11 0.93
-3 0 -7 2.97 1.28
3 0 7 1.78 1.05
3 0 7 -0.34 2.04
3 0 7 1.59 2.12
-3 0 -7 1.71 0.8
3 0 7 1.31 1.58
3 0 7 1.04 0.91
-3 0 -7 1.57 0.92
-3 0 -7 1.92 0.86
-3 0 -7 1.98 0.95
-3 0 -7 2.01 0.84
-3 0 -8 90.23 2.72
3 0 8 89.09 4.11
3 0 8 93.25 3.19
-3 0 -8 105.07 3.84
3 0 8 80.8 3.01
3 0 8 92.05 4.3
3 0 8 80.09 4.06
3 0 8 98.77 3.65
-3 0 -9 130.42 3.01
3 0 9 124.9 4.45
-3 0 -10 0.04 0.27
3 0 10 0.1 0.29
-3 0 -11 289.68 4.59
-3 0 -11 273.18 4.33
-3 -1 12 132.23 2.96
-3 -1 11 0.59 1.17
-3 -1 10 2.43 1.33
3 1 -10 2.42 0.78
3 1 -10 -0.04 0.87
3 1 -9 217.72 4.57
3 1 -9 188.85 3.74
3 1 -9 202.08 3.94
3 1 -9 184.99 3.46
3 1 -9 212.94 4.45
3 1 -9 219.29 4.19
3 1 -8 321.17 5.56
3 1 -8 318.03 5.03
3 1 -8 309.42 6.11
3 1 -8 318.96 5.35
-3 -1 8 336.68 7.24
3 1 -8 315.04 5.27
3 1 -8 341.08 5.29
3 1 -8 305.9 5.36
3 1 -8 316.28 4.99
3 1 -8 323.17 6.27
3 1 -7 864.18 9.15
3 1 -7 863.22 8.56
-3 -1 7 742.19 10.02
-3 -1 7 1090.51 10.46
3 1 -7 862.15 10.79
3 1 -7 884.09 9.6
3 1 -7 905.13 10.88
-3 -1 7 748.07 12.39
-3 -1 7 744.77 9.36
-3 -1 7 838.75 12.32
3 1 -7 835.28 8.67
3 1 -7 903.1 12.68
3 1 -7 924.44 9.13
3 1 -6 92.22 2.78
3 1 -6 96.17 3.15
-3 -1 6 87.78 4.15
3 1 -6 100.67 2.93
-3 -1 6 12.91 1.49
3 1 -6 108.15 3.58
-3 -1 6 74.09 3.9
-3 -1 6 104 3.69
3 1 -6 104.37 3.33
-3 -1 6 18.35 1.62
-3 -1 6 73.6 2.7
3 1 -6 88.87 2.61
3 1 -6 91.62 2.8
3 1 -6 74.69 3.71
3 1 -6 93.83 2.95
-3 -1 6 79.99 3.81
3 1 -5 165.09 3.74
3 1 -5 191.08 4.13
-3 -1 5 328.36 4.99
3 1 -5 175.79 4.68
3 1 -5 187.71 3.77
3 1 -5 130.37 3.7
3 1 -5 188.98 4.56
-3 -1 5 370.71 5.61
-3 -1 5 152.41 5.2
3 1 -5 159.8 3.5
-3 -1 5 151.94 3.44
3 1 -5 187.52 4.05
3 1 -5 155.53 3.51
3 1 -5 154.41 4.95
3 1 -5 176.63 3.85
-3 -1 5 160.85 5.19
3 1 -4 262.91 4.4
-3 -1 4 217.31 4.58
3 1 -4 275.69 4.45
3 1 -4 182.62 4.6
3 1 -4 249.23 4.02
3 1 -4 205.95 4.19
3 1 -4 273.14 4.13
-3 -1 4 240.33 4.65
3 1 -4 182.67 4.55
-3 -1 4 244.49 4.26
-3 -1 4 236.43 3.89
-3 -1 4 228.59 3.93
3 1 -4 274.62 4.32
-3 -1 4 231.53 4.08
-3 -1 4 322.34 6.99
-3 -1 4 230.4 5.96
-3 -1 4 225.18 3.67
3 1 -3 28.87 1.41
-3 -1 3 29.99 1.62
-3 -1 3 26.35 1.4
-3 -1 3 25.31 1.53
3 1 -3 28.83 1.41
3 1 -3 25.52 1.68
3 1 -3 34.49 1.49
-3 -1 3 34.35 1.8
3 1 -3 24.42 1.72
-3 -1 3 39.64 1.78
-3 -1 3 31.99 1.7
-3 -1 3 28.1 1.34
-3 -1 3 25.95 1.46
3 1 -3 28.29 1.35
3 1 -3 27.69 1.34
-3 -1 3 27.69 1.94
-3 -1 2 345.99 5.54
-3 -1 2 318.18 4.09
-3 -1 2 363.01 5.24
3 1 -2 302.66 4.18
3 1 -2 318.86 5.04
-3 -1 2 361.2 5.91
-3 -1 2 297.41 4.77
3 1 -2 317.21 5.39
-3 -1 2 352.08 5.8
-3 -1 2 321.28 4.92
3 1 -2 309.14 4.12
3 1 -2 300.6 4.11
-3 -1 2 289.84 5.06
-3 -1 1 16.07 0.9
-3 -1 1 17.41 1.63
3 1 -1 15.72 1.11
-3 -1 1 15.01 1.58
-3 -1 1 19.95 1.31
3 1 -1 14.63 1.02
-3 -1 1 15.17 1.15
-3 -1 1 13.27 1.06
3 1 -1 14.69 1.04
-3 -1 1 10.57 0.88
-3 -1 0 377.05 4.01
-3 -1 0 455.87 5.85
-3 -1 0 292.32 5.68
3 1 0 394.87 4.7
-3 -1 0 283.1 5.81
-3 -1 0 530.41 6.49
-3 -1 0 366.18 5.11
3 1 0 392.77 5.09
-3 -1 0 343.5 3.13
-3 -1 -1 1.26 0.4
-3 -1 -1 1.2 0.67
3 1 1 1.13 0.55
3 1 1 1.44 0.49
-3 -1 -1 1.06 0.62
3 1 1 1.89 0.64
3 1 1 1.07 0.64
3 1 1 1.53 0.8
-3 -1 -1 1.38 0.53
3 1 1 0.97 0.75
-3 -1 -1 2.07 0.34
3 1 1 2.76 0.8
-3 -1 -2 1091.7 7.63
-3 -1 -2 1203.06 9.97
-3 -1 -2 1281.67 10.67
3 1 2 1091.48 8.96
-3 -1 -2 1394.23 11.31
3 1 2 1112.36 8.29
-3 -1 -2 1416.96 11.69
3 1 2 1138.27 8.58
-3 -1 -2 1025.64 9.23
3 1 2 1196.06 10.22
3 1 2 1233.18 7.93
-3 -1 -2 1003.66 6.67
-3 -1 -3 223.22 3.3
-3 -1 -3 256.5 4.4
-3 -1 -3 224.76 3.93
-3 -1 -3 258.82 4.84
3 1 3 199.87 4.25
-3 -1 -3 266.46 4.46
3 1 3 235.43 3.41
-3 -1 -3 265.95 4.45
3 1 3 234.11 4.08
3 1 3 230.95 3.22
-3 -1 -3 246.73 4.54
3 1 3 262.32 5.24
-3 -1 -3 268.24 3.34
3 1 3 205.54 4.64
-3 -1 -4 474.5 5.46
-3 -1 -4 498.99 5.93
-3 -1 -4 626.67 6.18
3 1 4 411.06 6.78
-3 -1 -4 479.48 6.98
-3 -1 -4 470.21 7.06
3 1 4 539.47 5.32
3 1 4 513.63 7.14
-3 -1 -4 534.15 5.97
-3 -1 -4 523.55 5.94
-3 -1 -4 490.99 7.34
3 1 4 536.61 5.16
-3 -1 -4 738.3 8.16
3 1 4 509.9 8.17
-3 -1 -4 586.52 5.55
3 1 4 503.51 7.58
3 1 4 260.72 5.35
-3 -1 -5 116.29 2.86
3 1 5 147.57 2.84
3 1 5 128.32 4.04
-3 -1 -5 109.37 3.31
-3 -1 -5 106.74 3.47
-3 -1 -5 117.37 4.08
-3 -1 -5 120.77 3.84
3 1 5 135.2 2.81
3 1 5 101.6 3.68
-3 -1 -5 105.7 2.41
3 1 5 148.66 2.92
-3 -1 -5 195.42 4.49
-3 -1 -5 108.6 2.42
-3 -1 -5 156.29 3.14
3 1 5 117.21 4.07
-3 -1 -5 131.99 2.79
3 1 5 146.96 4.15
-3 -1 -5 108.71 2.39
3 1 6 9.96 1.84
-3 -1 -6 13.27 1.28
-3 -1 -6 13.65 1.69
-3 -1 -6 12.49 1.35
3 1 6 14.56 1.16
3 1 6 10.45 1.05
-3 -1 -6 12.27 1.72
3 1 6 10.25 1.2
3 1 6 9.55 2.11
3 1 6 13.41 1.32
-3 -1 -6 16.65 1.55
-3 -1 -6 13.83 1.26
-3 -1 -6 13.28 1.02
3 1 6 14.48 1.66
3 1 7 107.93 4.14
3 1 7 86.23 3.92
-3 -1 -7 107.22 4
3 1 7 73.24 2.68
3 1 7 85.6 3.9
3 1 7 84.29 4.14
3 1 7 76.1 2.64
-3 -1 -7 95.89 3.44
3 1 7 96.58 4.3
-3 -1 -7 85.9 2.89
-3 -1 -7 86.29 2.25
3 1 7 85.85 2.94
-3 -1 -8 2012.05 14.67
3 1 8 1882.99 18.37
3 1 8 1648.45 14.27
3 1 8 2141.46 19.81
3 1 8 2013.65 19.71
3 1 8 2254.86 19.73
3 1 8 1810.94 14.21
-3 -1 -8 1983.73 16.66
3 1 8 2165.97 19.47
-3 -1 -8 1609.42 14.62
-3 -1 -8 1956.27 12.93
-3 -1 -9 479.2 6.44
3 1 9 553.21 9.38
3 1 9 505.54 9.2
3 1 9 551.21 8.45
3 1 9 519.88 8.5
3 1 10 56.86 3.02
3 1 10 56.27 3.02
3 1 10 53.67 2.35
-3 -1 -10 55.52 2.07
-3 -1 -11 75.78 2.71
-3 -1 -11 70.97 2.51
-3 -2 11 79.03 2.71
-3 -2 10 73.45 3.1
3 2 -10 410.01 5.01
3 2 -10 417.42 5.42
3 2 -9 460.44 6.4
3 2 -9 455.97 6.7
3 2 -9 460.91 7.07
-3 -2 8 301.51 7.07
3 2 -8 266.96 5.51
-3 -2 8 279.59 5.16
3 2 -8 313.78 5.56
3 2 -8 349.1 5.87
3 2 -8 320.71 5.55
3 2 -8 336.35 6.21
3 2 -7 104.48 3.12
-3 -2 7 99.92 4.56
3 2 -7 102.99 2.84
-3 -2 7 133.01 4.38
3 2 -7 98.75 3.58
3 2 -7 93.28 3.17
-3 -2 7 86.93 3.17
3 2 -7 100.08 3.2
-3 -2 7 74.18 3.28
3 2 -7 91.94 3.84
3 2 -7 113.58 3.45
3 2 -7 108.53 3.59
3 2 -6 86.85 2.99
3 2 -6 83.43 2.81
-3 -2 6 76.11 3.3
-3 -2 6 71.54 3.95
3 2 -6 79.85 2.7
3 2 -6 81.23 2.87
-3 -2 6 71.05 2.96
3 2 -6 74.78 2.73
3 2 -6 77.02 3.46
3 2 -6 89.02 3.33
3 2 -6 78.29 3.04
3 2 -5 103.77 3.12
3 2 -5 111.49 3.25
3 2 -5 117.75 4.03
3 2 -5 99.33 2.92
3 2 -5 115.02 3.23
3 2 -5 112.99 3.16
3 2 -5 96.61 3
-3 -2 5 83.33 4.17
3 2 -5 73.85 3.27
-3 -2 5 112.38 3.99
3 2 -5 110.77 3.42
-3 -2 4 206.29 3.87
3 2 -4 281.18 4.82
3 2 -4 295.48 4.82
-3 -2 4 219.94 6.18
3 2 -4 275.91 5.87
3 2 -4 243.77 4.37
-3 -2 4 207.75 4.22
3 2 -4 278.13 4.48
3 2 -4 252.52 4.48
3 2 -4 230.96 5.15
-3 -2 4 215.71 3.63
-3 -2 4 195.66 3.73
3 2 -3 1665.6 11.69
3 2 -3 1811.3 12.22
-3 -2 3 2064.83 17.81
3 2 -3 1222.14 12.84
3 2 -3 1070.5 9.65
-3 -2 3 1969.33 16.25
-3 -2 3 1637.67 12.71
3 2 -3 1663.89 11.33
-3 -2 3 1629.04 12.38
3 2 -3 1699.58 11.41
-3 -2 3 1520.41 11.36
3 2 -2 1264.53 11.2
-3 -2 2 1324.65 11.64
3 2 -2 1194.69 9.47
-3 -2 2 1244.54 11.17
3 2 -2 1082.25 10.78
-3 -2 2 1116.26 10.1
-3 -2 2 1212.14 9.51
-3 -2 2 1247.17 10.85
3 2 -2 1151.47 9.03
3 2 -2 1136.84 8.44
-3 -2 2 1222.48 10.54
3 2 -1 2139.69 14.14
-3 -2 1 2125.72 12.91
-3 -2 1 2135.58 16.11
-3 -2 1 2093.02 15.1
-3 -2 0 74.83 2.57
-3 -2 0 69.97 2.29
3 2 0 50.5 1.63
3 2 0 58.91 2.17
-3 -2 0 46.47 2.38
-3 -2 0 48.16 2.46
3 2 0 54.71 1.88
-3 -2 -1 662.96 8.53
-3 -2 -1 763.18 5.3
-3 -2 -1 1097.25 9.64
3 2 1 750.01 6.51
3 2 1 774.79 6.02
-3 -2 -1 988.59 8.62
3 2 1 856.64 7.87
3 2 1 790.25 6.89
-3 -2 -1 866.12 8.25
-3 -2 -2 2258.86 14.4
3 2 2 1941.68 12.37
-3 -2 -2 2387.51 14.81
3 2 2 2025.48 12.87
3 2 2 2009.83 13.31
-3 -2 -2 2325.99 15.77
3 2 2 2135.88 14.11
-3 -2 -2 2120.65 14.74
-3 -2 -2 2378.05 16.05
-3 -2 -2 2236.76 15.75
-3 -2 -3 387.43 4.82
3 2 3 302.57 4.57
-3 -2 -3 337.44 5.14
-3 -2 -3 354.39 5.28
-3 -2 -3 299.85 5.49
3 2 3 304.06 4.04
3 2 3 326.75 4.63
-3 -2 -3 339.46 5.13
3 2 3 333.11 5.81
-3 -2 -3 344.05 5.58
-3 -2 -3 325.35 4.9
-3 -2 -4 395.67 5.68
-3 -2 -4 386.82 7.59
3 2 4 366.37 6.78
3 2 4 395.31 6.31
3 2 4 395.1 4.42
-3 -2 -4 396.13 5.27
3 2 4 367.31 4.55
3 2 4 301.15 5.1
3 2 4 399.6 4.82
-3 -2 -4 309.96 5.76
-3 -2 -4 368.33 4.98
-3 -2 -4 314.13 4.39
-3 -2 -4 375.64 6.62
-3 -2 -4 399.43 6.49
-3 -2 -4 355.42 3.76
-3 -2 -4 374.83 4.96
3 2 5 298.25 5.98
3 2 5 248.79 5.82
-3 -2 -5 211.82 5.4
-3 -2 -5 221.54 3.81
-3 -2 -5 213.83 4.03
3 2 5 270.31 3.54
3 2 5 271.24 4.07
3 2 5 171.67 4.46
3 2 5 267.01 3.95
-3 -2 -5 244.04 5.26
3 2 5 225.05 6.03
-3 -2 -5 183.08 3.82
-3 -2 -5 222.34 3.76
-3 -2 -5 255.84 3.18
-3 -2 -5 210.64 3.48
3 2 5 163.36 4.63
-3 -2 -6 10.22 1.66
3 2 6 14.2 1.18
3 2 6 12.53 1.06
3 2 6 8.64 1.87
3 2 6 12.86 1.19
3 2 6 16.74 2.04
3 2 6 14.65 2.29
-3 -2 -6 10.09 1.29
-3 -2 -6 11.59 0.85
3 2 7 1143.72 12.64
3 2 7 810.67 11.05
-3 -2 -7 1086.46 13.26
3 2 7 927.68 9.22
3 2 7 795.01 8.8
3 2 7 819.17 11.37
3 2 7 794.61 8.75
-3 -2 -7 824.37 7.01
3 2 7 923.67 10.59
-3 -2 -8 70.21 2.91
3 2 8 63.72 2.44
3 2 8 57.37 2.53
3 2 8 71.61 3.7
3 2 8 60.45 3.6
3 2 8 66.48 2.67
3 2 8 77.6 4.07
3 2 8 59.77 3.42
3 2 8 62.39 2.65
-3 -2 -9 395.94 6.37
3 2 9 339.84 7.23
-3 -2 -9 509.25 8.05
3 2 9 341.37 6.06
3 2 9 424.23 8.06
3 2 9 358.51 7.61
3 2 9 359.39 6.09
3 2 9 416.7 8.17
3 2 9 235.73 5.41
-3 -2 -10 0.61 0.97
-3 -2 -10 2.04 1.21
3 2 10 1.19 1.49
3 2 10 1.51 1.67
3 2 10 2.3 1.39
3 2 10 1.65 1.37
-3 -2 -10 1.68 1.23
-3 -2 -11 0.07 0.87
-3 -2 -11 0.03 0.29
-3 -2 -11 0.47 0.92
3 2 11 0.1 1.3
3 2 11 -0.14 0.61
-3 -2 -12 106.84 2.46
-3 -3 10 166.93 4.16
3 3 -10 11.48 1.11
-3 -3 9 145.26 3.85
-3 -3 9 179.22 4.95
3 3 -9 169.41 3.75
3 3 -9 168.49 3.62
3 3 -9 168.31 3.74
3 3 -9 149.83 3.46
3 3 -9 169.96 3.71
-3 -3 8 224.64 5.79
3 3 -8 251.38 5.08
3 3 -8 231.62 4.69
3 3 -8 246.53 5.2
-3 -3 7 23.49 2.57
3 3 -7 26.36 1.87
3 3 -7 28.47 2
-3 -3 6 277.46 7.52
3 3 -6 311.13 6.47
-3 -3 6 238.64 5.3
3 3 -6 291.65 5.48
3 3 -6 269.36 5.12
3 3 -6 313.51 6.15
3 3 -5 1.1 1.07
3 3 -5 1.5 0.9
3 3 -5 1.01 0.9
-3 -3 5 0.2 1.76
3 3 -5 0.83 1
3 3 -5 0.62 0.8
-3 -3 5 0.93 1.2
3 3 -5 1.31 0.9
3 3 -4 298.19 5.35
3 3 -4 352.51 6.16
3 3 -4 319.94 5.16
3 3 -4 334.24 6.81
3 3 -4 304.44 4.86
-3 -3 4 278.01 5.96
3 3 -4 285.43 5.24
3 3 -4 327.13 6
3 3 -3 199.43 4.01
-3 -3 3 150.88 3.61
3 3 -3 212.06 4
-3 -3 3 173.08 4.88
3 3 -3 207.81 5.22
3 3 -3 205.4 3.55
-3 -3 3 167.56 3.53
3 3 -2 202.72 4.26
3 3 -2 180.53 3.59
-3 -3 2 145.26 4.13
-3 -3 2 149.01 3.96
3 3 -2 123 3.86
-3 -3 2 207.16 5.45
-3 -3 2 169.07 4.21
-3 -3 2 161.79 4.44
-3 -3 2 165.66 4.18
3 3 -2 169.67 3.29
-3 -3 2 178.24 3.95
-3 -3 2 175.09 4.33
3 3 -1 229.12 4.52
-3 -3 1 235.84 5.26
-3 -3 1 225.75 4.5
3 3 -1 211.34 4.49
-3 -3 1 190.81 4.05
-3 -3 1 202 5.05
-3 -3 1 236.95 5.25
-3 -3 1 253.5 4.98
-3 -3 1 234.71 5.24
3 3 -1 213.55 3.5
-3 -3 1 244.84 5.3
3 3 0 28.83 1.68
-3 -3 0 40.18 1.97
-3 -3 0 37.13 2.3
-3 -3 0 42.16 1.97
3 3 0 43.84 1.83
-3 -3 0 38.31 2.33
-3 -3 0 30.51 1.62
-3 -3 0 30.36 2.26
-3 -3 0 39.6 2.37
-3 -3 0 38.09 2.34
-3 -3 0 41.92 2.23
3 3 1 2011.4 13.44
3 3 1 1960.33 13.26
-3 -3 -1 1760.24 15.91
-3 -3 -1 1785.7 15.99
3 3 1 2102.91 11.66
-3 -3 -1 2066.71 14.63
-3 -3 -1 1745.98 15.9
-3 -3 -1 1795.33 15.86
3 3 2 2600.4 14.53
-3 -3 -2 2407.76 17.99
3 3 2 2223.36 14.94
3 3 2 2389.06 14.98
-3 -3 -2 2456.99 19.41
-3 -3 -2 2426.75 18.16
-3 -3 -2 2234.55 16.53
3 3 3 237.71 4.5
-3 -3 -3 269.8 5.19
3 3 3 214.59 4.68
-3 -3 -3 234.29 4.84
-3 -3 -3 220.21 4.68
3 3 3 248.19 3.93
3 3 3 245.86 4.31
-3 -3 -3 279.77 5.97
-3 -3 -3 264.76 5.18
-3 -3 -3 263.34 5.18
-3 -3 -3 268.58 4.88
-3 -3 -3 270.49 5.1
-3 -3 -4 8.62 1.09
3 3 4 11.18 1.66
-3 -3 -4 7.14 1.09
-3 -3 -4 8.46 1.52
-3 -3 -4 8.34 1.36
3 3 4 9.89 0.84
3 3 4 11.45 1.11
-3 -3 -4 10.71 1.63
-3 -3 -4 8.35 1.15
-3 -3 -4 8.61 1.09
-3 -3 -4 8.9 1.03
-3 -3 -4 9.42 1.13
-3 -3 -5 598.98 9.53
-3 -3 -5 551.43 6.69
3 3 5 535.99 8.65
-3 -3 -5 505.98 6.4
-3 -3 -5 475.15 8.37
-3 -3 -5 584.29 9.99
3 3 5 579.78 6.19
3 3 5 376.87 6.41
-3 -3 -5 447.91 6
-3 -3 -5 464.87 6.57
-3 -3 -5 533.12 6.15
3 3 5 369.14 6.57
-3 -3 -6 143.22 3.04
3 3 6 169.47 5.3
-3 -3 -6 164.56 5.9
-3 -3 -6 142.05 4.89
-3 -3 -6 168.82 5.61
3 3 6 185.01 3.48
3 3 6 137.33 4.23
3 3 6 140.07 4.42
-3 -3 -7 140.41 5.45
3 3 7 174.25 5.67
-3 -3 -7 187.47 5.74
-3 -3 -7 146.33 5.63
3 3 7 192.7 4.31
3 3 7 178.29 3.83
3 3 7 146.49 4.67
3 3 7 175.04 5.38
-3 -3 -8 1179.32 15.61
-3 -3 -8 854.58 10.93
3 3 8 1331.37 13.79
3 3 8 1120.32 11.66
-3 -3 -8 1003.44 14.58
3 3 8 1017.27 13.14
3 3 8 923.83 10.13
3 3 8 1011.94 12.71
-3 -3 -8 1168.97 15.61
3 3 8 1045.44 13.57
-3 -3 -9 244.68 5.4
3 3 9 189.67 5.35
-3 -3 -9 268.51 6.61
-3 -3 -9 263.77 6.95
3 3 9 207.2 4.6
-3 -3 -9 264.77 6.68
3 3 9 193.8 4.24
3 3 9 212.68 5.81
3 3 9 255.98 6.8
-3 -3 -10 34.09 2.13
-3 -3 -10 40.8 2.39
-3 -3 -10 36.42 2.41
-3 -3 -10 38.24 2.55
3 3 10 36.04 2.53
3 3 10 30.82 2.57
3 3 10 40.21 2.78
-3 -3 -11 47.41 2.09
-3 -3 -11 64.31 2.54
-3 -3 -11 75.44 2.51
3 3 11 58.03 2.85
3 3 11 71.17 2.88
3 3 11 64.15 2.82
3 3 12 0.23 1.05
3 4 -9 555.35 5.4
3 4 -9 556.08 5.49
-3 -4 8 170.1 4.47
3 4 -8 207.73 4.21
3 4 -8 183.34 3.73
3 4 -8 164.32 3.41
3 4 -8 198.02 4.03
3 4 -7 1.99 1
-3 -4 7 1.43 1.51
3 4 -7 2.87 1.16
3 4 -7 1.81 0.99
3 4 -7 1.46 1.07
3 4 -7 2.28 1.07
3 4 -6 4.3 1.14
-3 -4 6 3.65 1.8
3 4 -6 4.87 1.17
-3 -4 6 1.42 1.24
3 4 -6 4.62 1.14
3 4 -6 4.17 1.28
3 4 -6 5.17 1.33
3 4 -5 4.91 1.28
3 4 -5 8.73 1.32
3 4 -5 6.68 1.32
-3 -4 5 4.87 1.46
3 4 -5 5.01 1.02
-3 -4 5 5.86 2.07
3 4 -5 5.89 1.54
3 4 -4 146.53 4.09
3 4 -4 152.34 4.66
3 4 -4 134.32 3.72
3 4 -4 138.38 4.07
3 4 -3 1273.29 11.03
-3 -4 3 768.94 12.55
-3 -4 3 954.44 9.73
3 4 -3 1361.67 13.72
-3 -4 3 907.87 10.08
-3 -4 3 986.97 9.91
-3 -4 2 371 6.52
3 4 -2 510.26 7.19
-3 -4 2 456.76 8.82
-3 -4 2 407.12 6.31
3 4 -2 453.27 7.61
-3 -4 2 500.15 7.64
-3 -4 2 462.55 8.17
-3 -4 2 400.74 7.24
-3 -4 2 382.8 7.13
-3 -4 2 395.06 6.66
-3 -4 2 375.46 6.09
-3 -4 2 376.59 6.64
-3 -4 2 391.52 6.3
3 4 -1 5.41 1.07
3 4 -1 5.82 0.95
-3 -4 1 7.58 1.55
-3 -4 1 8.84 1.37
-3 -4 1 7.31 1.28
3 4 -1 3.15 0.99
-3 -4 1 4.78 1.1
-3 -4 1 5.24 1.37
-3 -4 1 5.03 1.58
-3 -4 1 4.54 1.52
-3 -4 1 4.96 1.22
-3 -4 1 5.74 1.53
-3 -4 1 6.85 1.15
-3 -4 1 4.37 1.27
3 4 0 34.54 1.98
-3 -4 0 37.23 2.21
-3 -4 0 31.93 2.26
-3 -4 0 30.34 2.12
-3 -4 0 33.89 2.42
-3 -4 0 33.78 2.21
3 4 0 33.15 1.81
-3 -4 0 27.28 2.55
-3 -4 0 29.86 2.27
-3 -4 0 29.09 2.41
-3 -4 0 28.04 2.44
-3 -4 0 33.52 2.39
-3 -4 0 33.06 2.14
3 4 1 27.12 1.71
-3 -4 -1 34.07 2.4
3 4 1 34.17 1.78
-3 -4 -1 35.79 2
-3 -4 -1 35.66 2.5
-3 -4 -1 29.62 2.63
-3 -4 -1 34.46 1.7
-3 -4 -1 34.72 2.13
-3 -4 -1 27.5 2.45
-3 -4 -1 37.97 2.5
3 4 2 909.64 8.95
3 4 2 908.4 9.7
-3 -4 -2 771.37 9.97
-3 -4 -2 910.83 9.89
-3 -4 -2 958.77 10.26
-3 -4 -2 781.71 10.1
-3 -4 -2 912.36 9.32
-3 -4 -2 873.04 12.03
-3 -4 -2 759.28 9.83
3 4 3 305.54 4.42
3 4 3 276.15 5.42
-3 -4 -3 303.15 6.09
-3 -4 -3 305.72 5.85
-3 -4 -3 238.26 5.03
-3 -4 -3 309.1 5.88
-3 -4 -3 310.26 6.22
-3 -4 -3 285.58 5.76
-3 -4 -3 276.03 5.35
-3 -4 -3 344.09 7.59
3 4 3 294.49 4.67
-3 -4 -3 315.66 6.98
3 4 3 294.12 5.13
-3 -4 -3 321.7 7.04
-3 -4 -3 322.47 6.29
-3 -4 -3 302.32 5.75
-3 -4 -4 423.26 6.76
-3 -4 -4 438.96 7.02
-3 -4 -4 437.7 7.76
-3 -4 -4 408.82 7.17
-3 -4 -4 442.65 6.7
-3 -4 -4 502.97 8.99
3 4 4 449.37 5.34
-3 -4 -4 466.89 8.2
-3 -4 -4 455.43 6.69
3 4 4 463.89 6.27
-3 -4 -4 465.95 8.17
3 4 4 439.14 6.32
-3 -4 -4 431.72 7.02
-3 -4 -4 443.6 6.6
-3 -4 -5 377.25 5.76
3 4 5 430.87 7.75
-3 -4 -5 361.53 5.93
-3 -4 -5 377.57 6.1
-3 -4 -5 410.77 8.18
-3 -4 -5 364.68 5.64
-3 -4 -5 345.09 7.31
-3 -4 -5 398.26 7.51
-3 -4 -5 408.97 7.44
3 4 5 416.32 5.51
-3 -4 -5 412.16 7.35
3 4 5 418.25 5.97
-3 -4 -5 344.41 5.86
-3 -4 -5 358.73 5.47
-3 -4 -5 338.91 6.23
3 4 6 29.38 2.55
-3 -4 -6 20.68 1.55
-3 -4 -6 26.86 2.63
-3 -4 -6 20.56 1.49
-3 -4 -6 25.36 2.44
-3 -4 -6 30.76 2.34
3 4 6 30.81 1.55
3 4 6 29.47 1.72
-3 -4 -6 23.75 1.46
-3 -4 -6 19.82 1.52
3 4 6 23.36 2.24
3 4 7 22.45 2.47
-3 -4 -7 19 2.32
-3 -4 -7 20.52 2.57
-3 -4 -7 20.76 2.49
3 4 7 24.62 1.51
3 4 7 28.77 1.88
3 4 7 22.85 2.26
3 4 8 99.19 3.4
-3 -4 -8 71.55 3.38
-3 -4 -8 104.38 4.56
-3 -4 -8 111.05 4.78
3 4 8 110.28 3.83
-3 -4 -8 85.06 4.23
3 4 8 88.17 3.79
3 4 8 107.8 3.6
3 4 8 94.43 4.4
3 4 8 96.19 3.93
-3 -4 -9 139.88 4.42
-3 -4 -9 165.84 5.26
3 4 9 149.03 5.12
-3 -4 -9 171.12 5.16
-3 -4 -9 182.48 5.56
3 4 9 148.24 4.25
3 4 9 132.08 4.41
3 4 9 148.2 4.22
3 4 9 151.92 4.98
-3 -4 -10 -0.16 1.12
3 4 10 -1.79 1.59
3 4 10 3.39 1.4
-3 -4 -10 0.43 1.08
-3 -4 -10 0.24 1.04
3 4 10 0.12 1.52
-3 -4 -10 0.27 0.95
-3 -4 -11 53.92 2.41
3 4 11 49.55 2.1
3 4 11 53.99 2.81
3 4 12 157.55 3.48
-3 -4 -12 167.41 3.02
-3 -5 8 76.27 2.27
3 5 -8 79.75 1.9
-3 -5 7 68.76 2.92
3 5 -7 68.59 2.01
-3 -5 6 231.96 6.01
3 5 -6 265.21 4.36
3 5 -6 257.9 4.56
3 5 -6 233.79 4.36
3 5 -5 556.51 7.28
3 5 -5 537.29 7.2
3 5 -4 4.3 1.03
3 5 -4 4.03 1.07
3 5 -4 4.27 1.15
-3 -5 4 8.33 2.13
-3 -5 4 2.86 1.56
3 5 -4 3.22 0.99
3 5 -4 3.89 1.23
3 5 -3 220.32 5.38
3 5 -3 193.21 4.35
3 5 -2 288.46 5.67
-3 -5 2 236.34 5.1
-3 -5 2 225.65 6.58
-3 -5 2 231.32 5.39
-3 -5 2 343.61 6.72
-3 -5 2 241.22 5.27
3 5 -2 286.97 6.28
-3 -5 2 242.3 6.22
-3 -5 2 241.12 5.72
-3 -5 2 225.81 5.46
-3 -5 2 229.04 5.61
-3 -5 2 240.54 5.37
-3 -5 2 250.75 5.55
3 5 -2 293.87 5.3
-3 -5 1 6.69 1.43
3 5 -1 8.11 1.29
-3 -5 1 10.85 1.88
-3 -5 1 5.78 1.34
-3 -5 1 5.77 1.35
3 5 -1 4.99 1.16
-3 -5 1 6.18 1.48
-3 -5 1 5.13 1.46
-3 -5 1 7.04 1.97
-3 -5 1 5.73 1.7
-3 -5 1 5.07 1.67
-3 -5 1 4.91 1.38
-3 -5 1 3.71 1.58
-3 -5 1 6.85 1.47
3 5 0 535.24 7.79
-3 -5 0 477.54 8.24
-3 -5 0 532.77 8.28
-3 -5 0 477.5 7.48
-3 -5 0 458.77 8.34
3 5 0 343.54 6.2
-3 -5 0 455.26 9.38
-3 -5 0 458.35 8.95
-3 -5 0 426.48 7.59
-3 -5 0 421.31 8.67
-3 -5 0 420.35 8.77
-3 -5 0 475.62 8.92
-3 -5 0 446.94 8.13
-3 -5 0 480.06 8.86
-3 -5 -1 2146.04 19.11
-3 -5 -1 2190.27 19.66
-3 -5 -1 2276.11 20.92
-3 -5 -1 2196.29 20.68
-3 -5 -1 1847.63 20.63
-3 -5 -1 2485.25 17.6
-3 -5 -1 1800.96 19.47
-3 -5 -1 2004.68 20.78
-3 -5 -1 2075.67 19.16
-3 -5 -1 2256.04 20.73
3 5 2 321.51 5.84
-3 -5 -2 446.76 7.35
-3 -5 -2 389.87 8.15
-3 -5 -2 405.86 5.81
-3 -5 -2 377.49 8.03
-3 -5 -2 306.65 8.13
-3 -5 -2 291.04 7.52
-3 -5 -2 345.54 7.31
-3 -5 -2 385.7 8.03
3 5 3 51.71 2.17
-3 -5 -3 53.9 2.86
-3 -5 -3 51.5 2.64
-3 -5 -3 56.35 2.99
-3 -5 -3 52.33 2.4
-3 -5 -3 56.5 3.08
3 5 3 57.09 2.16
-3 -5 -3 59.66 3.64
-3 -5 -3 52.53 2.84
-3 -5 -4 222.06 5.26
-3 -5 -4 187.64 5.15
-3 -5 -4 227.28 5.42
-3 -5 -4 235.84 5.75
-3 -5 -4 201.63 5.05
-3 -5 -4 231.24 5.65
-3 -5 -4 252.58 6.89
-3 -5 -4 214.76 5.43
-3 -5 -4 237.83 6.42
3 5 4 226.46 4.4
-3 -5 -4 229.93 6.32
3 5 4 225.74 4.67
-3 -5 -4 218.99 5.23
-3 -5 -4 234.65 5.66
-3 -5 -5 248.99 5.23
-3 -5 -5 203.77 5.39
-3 -5 -5 269.94 5.53
-3 -5 -5 277.38 6.55
-3 -5 -5 250.36 6.17
-3 -5 -5 263.9 5.67
-3 -5 -5 305.65 7.19
-3 -5 -5 234.77 5.45
-3 -5 -5 274.53 6.53
3 5 5 272.91 4.36
-3 -5 -5 268.78 6.53
3 5 5 269.27 4.92
-3 -5 -5 249.6 5.33
-3 -5 -5 257.21 5.59
-3 -5 -6 302.57 5.43
-3 -5 -6 347.93 7.58
-3 -5 -6 355.77 6.9
3 5 6 396.71 7.95
-3 -5 -6 323.61 5.7
-3 -5 -6 296.8 7.25
-3 -5 -6 314.75 5.87
3 5 6 368.27 5.98
-3 -5 -6 341.68 6.83
-3 -5 -6 278.01 5.66
-3 -5 -6 345.02 6.89
3 5 6 365.72 5.66
-3 -5 -6 312.1 5.75
-3 -5 -6 293.67 5.8
3 5 7 977.76 11.62
3 5 7 948.71 12.88
-3 -5 -7 860.93 12.17
-3 -5 -7 736.53 11.97
-3 -5 -7 735.88 9.07
-3 -5 -7 1091.75 11.54
3 5 7 1071.47 11.53
-3 -5 -7 904.57 10.53
3 5 7 1096.97 10.57
-3 -5 -7 735.65 9.14
3 5 7 879.97 11.32
3 5 8 722.51 9.61
3 5 8 716.97 11.35
-3 -5 -8 772.02 10.76
3 5 8 792.1 10.25
3 5 8 839.22 9.81
3 5 8 720.64 10.12
3 5 9 83.7 4.19
-3 -5 -9 56.43 2.98
-3 -5 -9 91.21 3.97
3 5 9 65.2 3.05
3 5 9 65.45 3.09
-3 -5 -10 134.08 3.65
3 5 10 100.36 3.34
-3 -5 -10 207.2 5.26
3 5 10 184.33 5.11
3 5 10 152.35 4.08
3 5 10 162.29 4.46
-3 -5 -11 9.79 1.28
3 5 11 8.28 1.46
-3 -5 -12 1.96 0.69
-3 -6 7 172.68 3.72
3 6 -6 19.91 1.12
-3 -6 6 110.28 3.58
-3 -6 5 520.16 8.43
3 6 -5 666.68 7.5
-3 -6 4 297.79 7.08
-3 -6 3 141.79 5.32
3 6 -3 211.75 4.06
-3 -6 2 163.87 4.32
-3 -6 2 147.12 5.31
3 6 -2 204.64 4.87
-3 -6 2 165.46 4.45
-3 -6 2 188.06 4.74
-3 -6 2 172.34 4.6
3 6 -1 76.47 3
-3 -6 1 83.27 3.33
-3 -6 1 80.97 3.76
-3 -6 1 62.67 3.25
-3 -6 1 64.41 3.38
-3 -6 1 68.01 3.45
-3 -6 1 66.47 3.46
-3 -6 1 68.25 3.38
3 6 0 35.52 2.14
-3 -6 0 37.38 2.33
-3 -6 0 39.49 2.5
-3 -6 0 35.86 2.79
-3 -6 0 34.92 2.89
-3 -6 0 41.3 3.33
-3 -6 0 35.26 2.99
-3 -6 0 36.89 3.02
-3 -6 0 37.43 2.96
3 6 1 649.05 8.81
-3 -6 -1 701.71 9.53
-3 -6 -1 656.21 11.21
-3 -6 -1 681.66 11.85
-3 -6 -1 623.35 12.04
-3 -6 -1 600.24 11.19
-3 -6 -1 638.19 11.76
-3 -6 -1 623.84 11.65
-3 -6 -1 628.12 11.24
-3 -6 -1 682.68 11.85
-3 -6 -2 342.62 8.52
-3 -6 -2 264.06 8.1
-3 -6 -2 273.37 7.78
-3 -6 -2 339.77 8.6
-3 -6 -2 335 8.3
-3 -6 -3 304.92 7.28
-3 -6 -3 313.33 7.6
-3 -6 -3 313.18 7.75
-3 -6 -4 93.89 3.86
-3 -6 -4 99.97 4.2
-3 -6 -4 106.78 3.46
-3 -6 -4 105.69 4.48
-3 -6 -4 127.33 5.39
-3 -6 -4 116.36 4.95
-3 -6 -4 107.88 4.53
-3 -6 -4 117.68 5.05
3 6 4 113.66 3.25
-3 -6 -4 104.83 4.27
-3 -6 -4 112.95 4.54
-3 -6 -5 216.5 6.04
-3 -6 -5 257.15 6.05
-3 -6 -5 257.06 5.92
-3 -6 -5 248.68 6.25
-3 -6 -5 302.71 7.61
3 6 5 266.57 5.13
-3 -6 -5 282.58 7.01
-3 -6 -5 272.22 6.9
3 6 5 252.91 4.52
-3 -6 -5 236.57 5.94
-3 -6 -5 261.16 6.29
3 6 6 558.65 9.01
-3 -6 -6 506.88 8.94
3 6 6 669.92 10.3
-3 -6 -6 526.12 8.09
-3 -6 -6 522.4 9.29
-3 -6 -6 498.04 8.2
-3 -6 -6 618.15 9.99
3 6 6 621.95 8.44
-3 -6 -6 585.04 9.3
-3 -6 -6 557.54 9.09
3 6 6 612.02 7.17
-3 -6 -6 489.63 8.26
-3 -6 -7 0.13 1.22
3 6 7 -0.04 1.58
-3 -6 -7 0.33 1.31
-3 -6 -7 0.89 0.93
-3 -6 -7 0.14 0.89
3 6 7 0.44 1.18
-3 -6 -7 -0.45 1.21
3 6 7 0.57 0.92
-3 -6 -7 -0.53 1.21
-3 -6 -7 0.27 0.87
-3 -6 -8 108.93 3.25
3 6 8 97.13 4.17
-3 -6 -8 77.87 3.75
3 6 8 83.41 3.17
3 6 9 1.72 1.74
-3 -6 -9 -0.14 1.2
3 6 9 0.87 1.23
3 6 10 12.3 1.56
3 6 10 59.49 2.31
3 6 11 117.36 2.61
-3 -7 4 24.23 1.78
-3 -7 3 9.64 1.62
-3 -7 3 54.62 3.26
-3 -7 2 42.95 2.61
-3 -7 2 96.54 4.27
-3 -7 1 280.12 5.69
-3 -7 1 206.98 4.93
-3 -7 1 203.37 4.85
-3 -7 1 302.59 7.09
-3 -7 1 260.11 5.44
-3 -7 1 239.49 5.27
-3 -7 0 755.37 8.98
-3 -7 0 641.35 10.13
-3 -7 0 660.47 10.29
-3 -7 0 744.73 10.74
-3 -7 0 718.62 10.67
-3 -7 -1 582.42 8.35
-3 -7 -1 509.8 9.84
-3 -7 -1 560.56 10.87
-3 -7 -1 527.98 10.13
-3 -7 -1 540.22 10.12
-3 -7 -1 539.25 10.31
-3 -7 -2 180.1 6.24
-3 -7 -2 173.08 6.47
-3 -7 -2 164.77 6.03
-3 -7 -2 172.25 6.11
-3 -7 -3 46.7 3.42
-3 -7 -3 44.4 3.71
-3 -7 -3 40.84 3.45
-3 -7 -3 46.44 3.43
-3 -7 -4 5.71 1.57
-3 -7 -4 11.07 2.04
-3 -7 -4 6.97 2
-3 -7 -5 1.48 1.36
-3 -7 -5 3.1 1.41
-3 -7 -5 2.73 1.45
-3 -7 -5 3.44 1.78
-3 -7 -5 2.96 1.7
-3 -7 -5 2.17 1.59
-3 -7 -6 167.13 4.9
-3 -7 -6 165.47 4.53
-3 -7 -6 170.47 4.65
3 7 6 209.83 5.3
-3 -7 -6 206.24 5.42
-3 -7 -6 180.86 4.47
-3 -7 -6 202.68 5.32
-3 -7 -7 139.42 4.1
3 7 7 119.65 3.97
-3 -7 -7 89.79 2.91
-3 -7 -7 106.05 3.64
-3 -7 -7 83.95 2.83
-3 -7 -7 121.29 3.65
-3 -7 -7 115.05 3.55
-3 -7 -8 412.19 5.97
-3 -7 -8 263.14 5.65
-3 -7 -9 2.19 0.92
3 7 10 98.5 2.48
-3 -7 -10 102.99 2.79
-3 -8 3 11.12 1.61
-3 -8 2 277.44 5.77
-3 -8 1 816.23 10.24
-3 -8 0 40.12 2.11
-3 -8 0 27.6 1.76
-3 -8 -1 1.31 1.3
-3 -8 -1 1.42 1.27
-3 -8 -2 297.43 5.24
-3 -8 -2 281.54 6.59
-3 -8 -2 276.73 6.58
-3 -8 -3 0.38 1.45
-3 -8 -3 -0.56 1.26
-3 -8 -3 -0.72 1.74
-3 -8 -4 155.75 4.93
-3 -8 -4 170.21 5.26
-3 -8 -5 291.5 5.89
-3 -8 -5 265.95 5.78
-3 -8 -5 354.25 6.96
-3 -8 -5 347.1 6.84
-3 -8 -6 12.9 1.58
-3 -8 -6 16.32 1.69
-3 -8 -6 14.72 1.61
-3 -8 -7 1.65 0.99
-3 -8 -7 2.86 0.96
-3 -8 -8 114.58 2.64
-3 -9 -4 15.04 1.6
4 -5 -5 19.05 1.6
-4 5 5 17.82 1.23
4 -5 -5 24.99 1.68
4 -5 -5 14.93 1.45
4 -5 -5 24.76 1.65
-4 5 5 26.17 1.5
4 -5 -4 5.75 1.5
-4 5 4 6.46 1.12
-4 5 4 8.62 1.03
4 -5 -4 8.41 1.58
4 -5 -4 8.14 1.52
-4 5 4 8.18 1.17
4 -5 -4 6.64 1.44
4 -5 -3 513.61 8.28
-4 5 3 528.23 6.52
-4 5 3 532.12 7.21
4 -5 -2 410.78 7.28
4 -5 -2 401.87 7.2
-4 5 2 405.42 5.52
4 -5 -1 97.52 3.5
-4 5 1 136.43 3.34
-4 5 1 109.61 2.53
4 -5 -1 103.6 3.54
4 -5 -1 81.24 3.29
4 -5 -1 109.5 3.52
-4 5 1 142.4 3.43
4 -5 0 27.34 1.69
4 -5 0 28.04 1.68
4 -4 -8 174.56 3.55
4 -4 -7 220.37 4.56
4 -4 -7 287.38 4.22
4 -4 -6 4.1 1.1
-4 4 6 5.26 0.92
4 -4 -6 4.51 1.29
-4 4 6 6.3 1.08
4 -4 -6 8.68 1.25
4 -4 -6 4.81 1.16
4 -4 -6 4.63 1.12
-4 4 6 5.65 0.99
4 -4 -6 3.47 1.1
-4 4 6 6.64 1.16
4 -4 -5 24.45 2.07
4 -4 -5 17.74 1.8
-4 4 5 23.47 1.75
4 -4 -5 38.12 2.07
4 -4 -5 28.17 2.05
4 -4 -5 22.24 2.03
-4 4 5 26.61 1.47
4 -4 -5 31.46 2.13
-4 4 5 27.42 1.9
-4 4 5 26.35 1.8
4 -4 -4 159.05 5.11
-4 4 4 129.46 4.05
-4 4 4 153.75 4.1
4 -4 -4 184 4.3
4 -4 -4 170.88 4.96
4 -4 -4 140.39 5.01
-4 4 4 141.77 3.21
4 -4 -4 165.33 4.87
-4 4 4 134.1 4.2
-4 4 4 141.86 3.62
-4 4 4 154.4 4.06
-4 4 3 8.43 1.23
4 -4 -3 7.77 2.23
-4 4 3 8.65 1.28
4 -4 -3 9.42 1.6
-4 4 3 7.7 1.57
4 -4 -3 7.85 2.25
-4 4 3 8.91 1.1
-4 4 3 10.41 1.29
-4 4 2 110.71 3.64
-4 4 2 109.47 3.49
4 -4 -2 107.66 3.4
4 -4 -2 109.79 4.69
-4 4 2 112.66 3.75
4 -4 -2 111.62 4.77
-4 4 2 122.81 3.78
-4 4 1 91.5 3.49
-4 4 1 91.95 3.12
4 -4 -1 101.29 3.56
-4 4 1 89.73 3.09
4 -4 -1 96.87 4.4
4 -4 -1 95.85 4.99
-4 4 1 99.59 3.69
4 -4 -1 100.89 4.48
-4 4 1 114.96 3.98
-4 4 1 103.29 3.45
-4 4 1 90.8 3.09
4 -4 0 5.68 2.1
-4 4 0 9.22 1.1
-4 4 0 9.51 1.41
-4 4 0 7.42 1.36
4 -4 0 8.99 1.6
-4 4 0 6.09 1.19
4 -4 0 6.51 1.89
4 -4 0 7.89 1.84
-4 4 0 9.82 1.4
4 -4 0 8.45 2.16
-4 4 0 8.3 1.2
4 -4 1 75.92 3.33
-4 4 -1 111.92 3.25
-4 4 -1 83.02 3.2
4 -4 1 92.43 3.7
4 -4 1 81.7 3.26
4 -4 1 75.88 3.44
-4 4 -1 87.89 3.48
4 -4 1 85.4 3.25
-4 4 -1 107.72 3.15
-4 4 -1 87.84 3.01
-4 4 -2 212.9 3.68
4 -4 2 165.26 4.73
-4 4 -2 168.32 4.36
-4 4 -3 42.76 2.14
-4 4 -3 54.26 2.29
4 -4 4 6.04 1.07
-4 4 -4 6.71 0.93
-4 4 -4 7.7 0.87
4 -3 -9 49.88 1.8
-4 3 9 43.94 1.96
4 -3 -8 60.83 2.17
4 -3 -8 55.34 2.05
4 -3 -7 48.66 2.04
4 -3 -7 42.39 2.08
4 -3 -6 25.59 1.89
4 -3 -6 32.96 1.81
-4 3 6 25.5 1.64
-4 3 6 32.79 2.1
4 -3 -6 26.14 1.75
4 -3 -6 24.87 1.94
-4 3 6 34.57 1.75
4 -3 -6 29.16 1.8
4 -3 -6 32 1.94
-4 3 6 31.81 1.87
-4 3 6 30.03 2.07
-4 3 5 42.86 2.21
4 -3 -5 35.58 1.92
-4 3 5 43.12 2.4
4 -3 -5 45.44 2.3
4 -3 -5 44.35 2.55
4 -3 -5 46.67 2.48
4 -3 -5 49.1 2.85
-4 3 5 50.14 2.17
4 -3 -5 46.31 2.51
-4 3 5 44.69 2.47
-4 3 5 46.29 2.44
4 -3 -5 49.23 2.73
-4 3 4 413.44 6.92
-4 3 4 444.61 7.38
4 -3 -4 423.72 7.25
4 -3 -4 480.95 8.01
4 -3 -4 487.25 8.24
-4 3 4 394.01 7.56
-4 3 4 427.86 6.81
-4 3 4 443.5 7.3
4 -3 -4 474.94 8.77
-4 3 3 799.76 10.26
-4 3 3 740.92 9.45
-4 3 3 828.85 10.34
4 -3 -3 865.02 10.83
4 -3 -3 723.03 8.88
-4 3 3 754.79 9.2
4 -3 -3 916.38 12.36
-4 3 3 912.38 12.31
-4 3 3 673.07 10.64
-4 3 3 779.67 9.05
-4 3 3 858.03 10.49
4 -3 -3 907.22 13.3
-4 3 2 120.07 4.11
-4 3 2 120.59 4
-4 3 2 122.49 3.91
4 -3 -2 129.44 4.32
4 -3 -2 113.34 3.69
-4 3 2 113.3 3.71
-4 3 2 124.67 4.26
-4 3 2 129.95 4.43
4 -3 -2 114.87 3.91
-4 3 2 95.57 4.12
-4 3 2 111.74 3.2
-4 3 2 131.21 4.06
-4 3 2 117.91 3.87
4 -3 -2 120.8 5.4
-4 3 1 3.95 1.2
-4 3 1 0.18 0.88
-4 3 1 0.06 0.82
4 -3 -1 0.85 1.6
4 -3 -1 -0.32 1.17
-4 3 1 -0.07 0.99
4 -3 -1 0.47 1.35
4 -3 -1 0.18 1.71
-4 3 1 0.19 0.96
4 -3 -1 0.95 1.13
-4 3 1 0.84 0.98
4 -3 -1 -0.09 1.66
-4 3 1 -0.03 0.76
-4 3 1 0.12 0.72
-4 3 1 0.15 0.77
-4 3 0 55.29 2.99
-4 3 0 46.13 2.34
4 -3 0 45.03 2.68
4 -3 0 54.46 3.06
-4 3 0 51.68 2.92
4 -3 0 36.91 3.21
4 -3 0 51.54 3.43
-4 3 0 51.67 3.07
-4 3 0 61.49 3.23
4 -3 0 54.41 3.43
-4 3 0 58.92 3.21
-4 3 0 56.42 3.02
-4 3 0 55.28 2.78
-4 3 0 43.14 2.24
-4 3 0 46.81 2.67
4 -3 0 50.77 3.88
-4 3 -1 87.52 3.7
-4 3 -1 92.37 3.97
-4 3 -1 101.81 3.14
4 -3 1 108.05 4.38
-4 3 -1 87.55 3.83
4 -3 1 77.61 4.25
4 -3 1 100.71 4.19
4 -3 1 103.94 4.92
-4 3 -1 88.54 3.96
4 -3 1 98.29 4.1
4 -3 1 99.93 4.15
-4 3 -1 105.31 3.65
-4 3 -1 90.78 3.47
-4 3 -1 87.63 3.75
4 -3 1 91.09 4.41
-4 3 -2 456.04 8.02
-4 3 -2 393.23 8.29
-4 3 -2 451.72 6.89
4 -3 2 445.08 9.1
-4 3 -2 388.03 8.15
4 -3 2 402.78 7.2
4 -3 2 395.81 8.03
4 -3 2 359.75 7.75
4 -3 2 408.32 7.11
-4 3 -2 406.75 8.24
-4 3 -2 445.94 6.81
-4 3 -2 386.66 6.89
4 -3 2 386.41 7.54
4 -3 3 59.06 2.55
-4 3 -3 219.18 5.04
-4 3 -3 166.96 5.19
-4 3 -3 218.15 5.53
-4 3 -3 173.12 3.64
4 -3 3 159.58 5.44
-4 3 -3 168.51 5.24
4 -3 3 49.18 2.39
4 -3 3 163.31 4.93
-4 3 -3 186.66 5.23
-4 3 -3 36.12 1.73
-4 3 -4 692.51 8.97
-4 3 -4 668.74 9.03
4 -3 5 55.22 2.73
-4 3 -5 63.92 2.23
4 -3 6 49.83 1.94
-4 3 -6 60.39 1.96
-4 2 10 4.27 0.94
-4 2 10 -0.12 0.3
-4 2 9 318.36 5.23
4 -2 -9 295.17 4.11
-4 2 9 3.27 1
4 -2 -8 129.48 3.11
4 -2 -8 136.02 3.42
-4 2 8 82.11 2.37
4 -2 -8 127.19 3.3
-4 2 8 77.4 2.68
4 -2 -8 119.28 3.13
4 -2 -7 252.91 4.84
-4 2 7 12.77 1.37
4 -2 -7 213.76 4.65
-4 2 7 12.22 1.67
-4 2 7 234.76 4.37
4 -2 -7 253.31 4.48
4 -2 -7 215.1 4.35
4 -2 -6 34.49 1.98
-4 2 6 24.44 1.79
4 -2 -6 32.2 1.85
-4 2 6 21.84 1.54
4 -2 -6 38.37 1.96
-4 2 6 106.42 2.93
4 -2 -6 21.7 2.09
4 -2 -6 25.09 1.99
4 -2 -6 22.12 1.57
-4 2 6 122.25 3.97
-4 2 6 21.85 2.03
-4 2 6 29.92 1.76
4 -2 -6 25.15 1.69
-4 2 6 26.55 2.03
-4 2 5 13.48 1.58
4 -2 -5 19.05 1.63
-4 2 5 13.97 1.47
4 -2 -5 18.56 1.56
4 -2 -5 18.76 1.5
-4 2 5 13.22 1.51
4 -2 -5 13.07 1.64
4 -2 -5 14.29 1.56
4 -2 -5 14.51 1.71
4 -2 -5 13.96 1.51
4 -2 -5 15.95 1.6
-4 2 5 9.67 1.57
-4 2 5 15.76 1.48
4 -2 -5 12.23 1.63
4 -2 -5 15.76 1.58
-4 2 5 14.75 1.63
-4 2 5 15.38 1.72
-4 2 5 13.14 1.55
4 -2 -5 14.21 1.71
4 -2 -4 34.69 1.97
-4 2 4 37.07 2.09
-4 2 4 36.94 2.17
4 -2 -4 43.08 2.25
4 -2 -4 39.25 2.01
-4 2 4 31.69 2.3
4 -2 -4 35.09 2.55
-4 2 4 36.51 2.24
4 -2 -4 37.39 2.55
4 -2 -4 36.96 2.38
4 -2 -4 37.07 2.37
-4 2 4 35 2.01
4 -2 -4 34.21 2.26
4 -2 -4 35.99 2.33
-4 2 4 35.48 2.51
4 -2 -4 33.66 2.49
-4 2 4 35.7 2.41
-4 2 4 36.42 2.22
-4 2 4 32.58 2.44
-4 2 4 34.16 2.09
-4 2 4 30.9 1.83
4 -2 -4 37.55 2.54
-4 2 3 386.85 6.6
-4 2 3 371.5 6.75
4 -2 -3 402.8 6.59
4 -2 -3 428.44 8.56
4 -2 -3 346.46 5.47
-4 2 3 357.14 6.53
-4 2 3 388.28 6.86
4 -2 -3 385.11 7.48
4 -2 -3 411.68 7.37
4 -2 -3 380.3 6.53
-4 2 3 351.04 6.4
4 -2 -3 328.13 5.39
4 -2 -3 415.25 7.59
4 -2 -3 419.94 7.74
-4 2 3 417.05 8.11
4 -2 -3 412.19 8.15
4 -2 -3 359.97 6.57
-4 2 3 339.74 7.32
-4 2 3 394.19 6.43
-4 2 3 384.78 6.76
-4 2 3 360.17 7.78
-4 2 3 372.05 5.75
4 -2 -3 409.27 8.02
-4 2 2 302.41 5.84
-4 2 2 286.37 6.18
4 -2 -2 287.26 5.61
4 -2 -2 322.27 7.9
-4 2 2 293.99 6.21
-4 2 2 304.35 6.02
4 -2 -2 306.48 6.46
4 -2 -2 321.22 6.02
4 -2 -2 294.87 5.64
-4 2 2 271.45 5.83
4 -2 -2 226.3 4.85
-4 2 2 301.72 6.52
-4 2 2 330.29 6.96
4 -2 -2 286.04 5.85
-4 2 2 238.25 6.27
-4 2 2 285.3 5.06
-4 2 2 253.85 6.71
-4 2 2 304.72 5.95
-4 2 2 275.7 5.7
4 -2 -2 291.29 7.15
-4 2 1 18.08 1.6
-4 2 1 19.58 1.84
-4 2 1 17.86 1.73
-4 2 1 16.5 1.57
4 -2 -1 15.03 1.88
4 -2 -1 19.02 1.91
4 -2 -1 21.05 1.91
4 -2 -1 16.43 1.74
-4 2 1 16.02 1.74
4 -2 -1 14.52 1.52
4 -2 -1 15.83 2.21
4 -2 -1 13.73 2.11
-4 2 1 18.29 1.89
-4 2 1 19.19 1.81
4 -2 -1 16.26 1.74
-4 2 1 17.85 1.57
-4 2 1 17.84 1.57
-4 2 1 16.25 1.64
-4 2 0 154.29 4.47
-4 2 0 141.3 4.67
4 -2 0 147.13 5.67
-4 2 0 121.7 3.69
4 -2 0 130.47 4.12
4 -2 0 149.1 4.28
4 -2 0 145.52 4.6
-4 2 0 140.89 4.61
4 -2 0 140.27 4.16
4 -2 0 138.36 4.99
4 -2 0 138.61 4.97
-4 2 0 149.35 4.91
-4 2 0 155.92 4.62
4 -2 0 143.61 4.5
-4 2 0 152.26 4.8
-4 2 0 155.4 4.37
-4 2 0 156.19 5.05
-4 2 0 121.55 3.62
-4 2 0 142.87 4.62
4 -2 0 137.54 5.34
-4 2 -1 167.7 4.78
-4 2 -1 137.97 4.62
-4 2 -1 157.76 5.2
4 -2 1 170.92 5.87
-4 2 -1 128.94 3.59
4 -2 1 138.68 4.16
4 -2 1 171.71 5
4 -2 1 179.65 5.57
-4 2 -1 157.91 5.18
4 -2 1 143.28 4.31
4 -2 1 165.35 5.18
4 -2 1 173.22 5.36
-4 2 -1 182.07 5.26
4 -2 1 162.93 5.54
-4 2 -1 152.77 5.07
-4 2 -1 165.71 4.72
-4 2 -1 154.46 4.35
-4 2 -1 179.02 5.06
4 -2 1 164.75 5.61
4 -2 2 3.05 1.49
-4 2 -2 4.19 1.08
-4 2 -2 3.91 1.19
4 -2 2 4.73 1.78
4 -2 2 4.87 1.71
-4 2 -2 4.53 1.38
-4 2 -2 7.49 1.28
-4 2 -2 4.55 1.15
4 -2 2 3.67 1.35
4 -2 2 5.12 1.78
-4 2 -2 4.17 1.42
4 -2 2 3.81 1.62
4 -2 2 4.23 1.31
4 -2 2 4.18 1.43
-4 2 -2 3.94 1.35
4 -2 2 4.29 1.42
-4 2 -2 4.69 1.3
4 -2 2 3.77 1.44
-4 2 -2 4.76 0.91
-4 2 -2 4.87 1.05
-4 2 -2 4.28 1.13
-4 2 -3 0.5 0.92
4 -2 3 0.25 1.29
-4 2 -3 0.41 0.83
4 -2 3 0.5 1.53
4 -2 3 -0.05 1.68
4 -2 3 0.05 1.04
-4 2 -3 0.2 1.03
-4 2 -3 0.77 1.01
4 -2 3 0.5 0.99
-4 2 -3 0.08 0.62
-4 2 -3 -0.31 0.78
4 -2 3 -0.5 1.48
-4 2 -4 34.06 2.07
-4 2 -4 32.74 2.51
4 -2 4 25.56 2.78
4 -2 4 30.07 2.44
4 -2 4 25 2.85
4 -2 4 20.51 2.23
-4 2 -4 37.5 2.41
-4 2 -4 36.71 2.4
-4 2 -5 3.04 1.1
4 -2 5 1.66 1.65
4 -2 5 0.7 1.26
-4 2 -5 1.84 1.09
-4 2 -5 3.28 0.94
4 -2 5 1.22 1.28
-4 2 -5 2.23 0.87
4 -2 6 366.03 7.1
-4 2 -6 413.96 6.51
-4 2 -6 17.32 1.16
4 -2 6 327.26 5.29
-4 2 -6 388.85 6.73
-4 2 -7 401.72 5.25
-4 2 -7 412.28 5.98
4 -1 -10 883.06 6.93
-4 1 10 847.79 7.31
4 -1 -9 0.48 0.73
-4 1 9 -0.32 1.13
4 -1 -8 30 1.82
-4 1 8 34.39 2.29
-4 1 8 0.54 0.93
4 -1 -8 35.74 2.06
-4 1 8 0.54 1.01
4 -1 -7 21.93 1.57
-4 1 7 30.13 1.78
4 -1 -7 19.54 1.96
4 -1 -7 14.88 1.81
-4 1 7 30.78 2.11
-4 1 7 18.97 1.59
4 -1 -6 82.6 2.77
-4 1 6 63.8 2.65
-4 1 6 59.79 2.39
4 -1 -6 63.22 2.85
-4 1 6 65.98 2.9
4 -1 -6 74.57 2.94
-4 1 6 63.46 2.97
-4 1 6 73.18 2.64
4 -1 -6 77.84 2.58
-4 1 6 67.34 3.5
4 -1 -5 413.01 6.12
-4 1 5 338.67 5.87
-4 1 5 325.73 6.03
4 -1 -5 315.23 5.82
-4 1 5 313.14 5.55
4 -1 -5 335.2 6
-4 1 5 332.31 6.13
4 -1 -5 328.84 6.02
-4 1 5 365.2 6.18
4 -1 -5 342.33 5.39
4 -1 -5 352.76 5.54
-4 1 5 270.32 6.27
-4 1 5 350.85 5.6
-4 1 5 332.22 6.06
-4 1 5 314.2 6.31
4 -1 -5 382.01 5.63
4 -1 -5 335.06 5.61
-4 1 5 331.7 6.49
4 -1 -4 2188.67 15.19
-4 1 4 1796.39 14.34
-4 1 4 1941.3 17.09
-4 1 4 1795.73 15.38
4 -1 -4 1715.75 14.56
4 -1 -4 1956.72 16.24
4 -1 -4 1940.63 14.08
-4 1 4 1916.05 16.05
-4 1 4 1762.76 15.62
-4 1 4 1887.01 16.12
4 -1 -4 1821.9 17.56
4 -1 -4 1772.15 14.27
-4 1 4 1820.79 14.93
4 -1 -4 1915.24 13.36
4 -1 -4 1880.38 14.65
4 -1 -4 1908.63 14.81
-4 1 4 1323.61 15.22
-4 1 4 1809.86 13.94
4 -1 -4 1730.18 14.67
-4 1 4 1856.16 16.35
-4 1 4 1763.15 15.67
4 -1 -4 1815.51 15.02
-4 1 4 1765.67 14.8
4 -1 -3 1300.93 11.19
-4 1 3 1115.21 10.71
-4 1 3 1159.74 11.94
4 -1 -3 1213.07 11.58
4 -1 -3 1279.92 13.45
-4 1 3 1171.11 12.01
-4 1 3 1130.84 12.9
4 -1 -3 1267.77 11.31
-4 1 3 1196.08 12.22
4 -1 -3 1192.89 13.13
-4 1 3 1159.22 11.73
4 -1 -3 970.71 9.87
4 -1 -3 1181.96 11.73
4 -1 -3 1193.66 11.74
-4 1 3 1187.33 13.44
4 -1 -3 1148.04 11.41
4 -1 -3 1183.32 11.43
-4 1 3 1131.1 13.12
-4 1 3 1125.3 11.39
4 -1 -3 1168.19 12.23
-4 1 3 1151.58 10.53
-4 1 3 1188.43 13.79
4 -1 -2 26.43 1.7
-4 1 2 27.52 1.68
-4 1 2 24.4 1.8
4 -1 -2 26.52 2.25
4 -1 -2 28.25 1.76
-4 1 2 23.76 1.79
-4 1 2 21.02 2.05
4 -1 -2 22.44 1.65
-4 1 2 31.67 1.96
4 -1 -2 25.13 1.85
4 -1 -2 26.6 1.91
4 -1 -2 23.98 1.72
-4 1 2 23.89 1.77
4 -1 -2 23.79 1.56
-4 1 2 30.37 2.12
4 -1 -2 23.1 1.7
4 -1 -2 27.35 1.73
-4 1 2 21.2 2.07
-4 1 2 23.61 1.6
-4 1 2 25.99 1.69
-4 1 2 24.23 1.76
-4 1 2 22.24 2.16
4 -1 -2 28.38 2.22
4 -1 -1 98.65 2.92
-4 1 1 110.1 3.24
4 -1 -1 109.54 4.31
4 -1 -1 128.93 3.49
-4 1 1 111.7 3.76
4 -1 -1 91.76 2.91
-4 1 1 116.8 3.52
4 -1 -1 115.7 3.53
4 -1 -1 127.26 3.78
4 -1 -1 109.71 3.23
4 -1 -1 112 3.42
4 -1 -1 110.33 3.33
-4 1 1 108.46 3.64
4 -1 -1 115.92 3.26
-4 1 1 122.7 4.07
4 -1 -1 106.11 3.38
4 -1 -1 123.58 3.37
-4 1 1 85.25 3.73
-4 1 1 122.44 3.45
-4 1 1 111.16 3.7
-4 1 1 91.54 3.95
4 -1 -1 94.43 3.85
-4 1 0 21.46 1.54
4 -1 0 19.79 1.52
-4 1 0 20.24 1.81
-4 1 0 15.96 1.42
4 -1 0 18.02 1.72
4 -1 0 19.43 1.65
4 -1 0 20.51 1.8
4 -1 0 18.71 1.73
-4 1 0 20.52 1.81
4 -1 0 20.72 1.53
-4 1 0 20.65 1.89
-4 1 0 19.62 1.71
4 -1 0 23.46 1.9
4 -1 0 19.26 1.53
-4 1 0 20.99 1.51
-4 1 0 20.62 1.81
-4 1 -1 36.16 2.06
-4 1 -1 31.7 2.23
4 -1 1 34.22 2.72
-4 1 -1 36.77 2.43
-4 1 -1 35.51 2.35
-4 1 -1 26.7 1.65
4 -1 1 27.63 2.06
4 -1 1 36.09 2.48
-4 1 -1 34.95 2.4
4 -1 1 36.5 1.88
4 -1 1 30.61 2.34
4 -1 1 30.84 1.71
4 -1 1 31.82 2.3
-4 1 -1 43.84 2.56
-4 1 -1 39.36 2.45
4 -1 1 40.37 2.43
4 -1 1 29.97 1.83
-4 1 -1 40.41 2.42
-4 1 -1 36.98 1.97
4 -1 1 32.96 2.6
-4 1 -1 40.73 2.53
-4 1 -2 1146.76 12.21
-4 1 -2 1098.42 11.84
-4 1 -2 921.12 11.65
-4 1 -2 1111.24 11.74
4 -1 2 1158.37 12.34
4 -1 2 1099.15 12.07
-4 1 -2 989.41 12.87
4 -1 2 914.36 9.7
4 -1 2 1114.98 13.42
4 -1 2 1128.18 13.01
4 -1 2 1092.88 11.96
-4 1 -2 1119.59 12.36
-4 1 -2 1043.37 12.93
4 -1 2 1121.87 12.66
-4 1 -2 1097.23 11.62
-4 1 -2 1054.65 9.97
-4 1 -2 983.21 10.62
4 -1 2 1084.59 12.57
-4 1 -3 226.74 5.42
-4 1 -3 253.25 5.71
-4 1 -3 239.18 5.02
4 -1 3 247.07 5.76
-4 1 -3 217.57 6.14
-4 1 -3 245.98 4.98
4 -1 3 276.24 6.48
4 -1 3 229.93 6.04
4 -1 3 210.7 5.94
4 -1 3 236.77 4.91
4 -1 3 244.48 5.23
-4 1 -3 209.69 5.83
4 -1 3 253.47 5.26
4 -1 3 203.51 4.42
4 -1 3 219.45 5.8
-4 1 -3 211.34 5.72
4 -1 3 231.35 5.68
-4 1 -3 237.81 4.9
-4 1 -3 262.92 4.93
4 -1 3 232.57 5.34
-4 1 -4 202.98 5.33
-4 1 -4 302.85 5.78
-4 1 -4 202.7 4.32
-4 1 -4 221.82 6.2
-4 1 -4 225.88 4.4
4 -1 4 266.34 6.85
4 -1 4 230.26 6.13
4 -1 4 245.45 6.39
-4 1 -4 223.49 6.3
4 -1 4 231.99 5.24
-4 1 -4 221.69 6.06
-4 1 -4 285.63 6.46
4 -1 4 207.8 4.58
4 -1 4 254.82 6.15
-4 1 -4 230.72 5.81
4 -1 4 267.42 5.85
-4 1 -4 215.33 4.38
-4 1 -4 293.28 5.54
4 -1 4 226.44 4.86
4 -1 5 4.45 1.89
4 -1 5 7.85 1.76
4 -1 5 6.49 1.8
-4 1 -5 7.84 1.53
-4 1 -5 8.94 1.48
-4 1 -5 6.13 1.71
4 -1 5 5.02 1.43
-4 1 -5 7.65 1.24
4 -1 5 6.13 1.58
4 -1 5 5 1.23
-4 1 -5 7.31 1.19
4 -1 6 4.06 1.86
4 -1 6 3.66 1.34
-4 1 -6 3.86 1.11
-4 1 -6 3.93 1.58
-4 1 -6 3.36 0.81
-4 1 -6 4.42 1.07
-4 1 -6 2.92 0.75
4 -1 7 96.2 3.89
-4 1 -7 99.87 3.03
-4 1 -8 2.72 1.13
4 -1 8 3.68 1.18
-4 1 -8 -0.12 0.16
-4 1 -8 2.13 1.08
-4 1 -9 48.72 1.9
-4 0 11 41.85 1.58
4 0 -10 150.29 2.79
-4 0 10 1.03 1.06
4 0 -9 263.5 4.66
4 0 -9 245.71 4.04
-4 0 9 14.07 1.54
-4 0 9 215.75 4.39
4 0 -9 57.2 1.8
4 0 -9 217.78 3.6
4 0 -8 20.02 1.5
4 0 -8 18.28 1.56
4 0 -8 18.83 1.4
-4 0 8 18.76 1.85
4 0 -8 18.05 1.31
4 0 -8 21.16 1.42
4 0 -8 19.77 1.41
4 0 -7 6.45 1.04
4 0 -7 4.68 1.1
-4 0 7 4.28 1.57
-4 0 7 9.24 1.66
-4 0 7 7.23 1.24
4 0 -7 5.82 1.37
4 0 -7 5.81 1.31
4 0 -7 5.13 0.99
4 0 -7 6.92 1.61
4 0 -7 5.53 0.99
-4 0 7 6.96 1.33
-4 0 7 5.1 1.2
4 0 -7 5.53 0.91
4 0 -7 5.29 0.95
4 0 -6 69.38 2.86
4 0 -6 74.99 2.59
-4 0 6 536.79 6.33
4 0 -6 67.96 2.83
4 0 -6 74.67 3.09
-4 0 6 58.76 3.45
-4 0 6 568.46 7.42
-4 0 6 65.27 2.61
4 0 -6 75.81 2.26
4 0 -6 76.6 2.48
-4 0 6 59.3 3.3
4 0 -5 2.33 0.83
4 0 -5 0.21 0.7
-4 0 5 0.82 0.8
4 0 -5 -0.13 0.95
-4 0 5 0.17 1.57
4 0 -5 0.33 1.24
4 0 -5 0.43 0.93
4 0 -5 0.29 1.23
-4 0 5 0.41 0.8
4 0 -5 5.47 0.91
4 0 -5 1.08 0.68
4 0 -5 5 0.86
-4 0 5 0.43 0.86
-4 0 5 5.91 1.22
4 0 -5 -0.32 0.82
4 0 -5 1.22 0.88
4 0 -5 1.05 0.72
-4 0 5 0.18 1.18
4 0 -4 32.03 1.85
-4 0 4 31.83 1.96
-4 0 4 31.44 1.71
-4 0 4 30.65 1.92
4 0 -4 29.88 1.78
-4 0 4 30.78 1.94
-4 0 4 34.63 2.1
4 0 -4 27.1 2.26
-4 0 4 35.73 2.16
4 0 -4 32.07 1.91
4 0 -4 31.01 1.84
-4 0 4 32.34 1.92
4 0 -4 29.64 1.74
-4 0 4 35.46 2.08
-4 0 4 22.1 1.85
-4 0 4 31 1.71
4 0 -4 34.72 1.91
4 0 -4 29.41 1.61
-4 0 4 32.22 2.06
-4 0 4 38.12 2.91
4 0 -4 30.22 1.57
-4 0 4 24.4 2.01
4 0 -3 6.31 1.05
-4 0 3 3.88 0.75
-4 0 3 4.47 0.96
4 0 -3 4.98 0.94
-4 0 3 4.74 1.6
-4 0 3 4.45 1.23
4 0 -3 6.06 1.29
4 0 -3 4.56 1.01
4 0 -3 4.4 1.02
4 0 -3 4.83 1.08
-4 0 3 4 0.96
4 0 -3 3.49 0.91
4 0 -3 4.77 1.03
-4 0 3 4.51 0.96
-4 0 3 4.61 1.12
-4 0 3 4.55 1
-4 0 3 4.63 1.26
-4 0 3 4.85 1.26
4 0 -3 4.27 0.84
-4 0 3 4.03 1.27
-4 0 3 4.92 1.13
-4 0 3 5.36 1.11
4 0 -2 154.49 3.68
-4 0 2 139.03 3.23
-4 0 2 153.49 4.1
-4 0 2 151.64 4.78
4 0 -2 150.66 3.57
-4 0 2 145.82 4.55
-4 0 2 160.82 4.25
4 0 -2 151.7 4.15
4 0 -2 131.29 3.22
4 0 -2 140.66 3.48
-4 0 2 140.34 3.86
4 0 -2 135.57 3.65
4 0 -2 139.87 3.17
-4 0 2 158.4 4.41
4 0 -2 147.47 3.58
4 0 -2 157.05 3.85
4 0 -2 136.09 3.31
4 0 -2 141.45 3.21
-4 0 2 143.26 4.64
-4 0 2 137.43 3.81
-4 0 2 135.39 3.8
4 0 -1 335.21 5.29
-4 0 1 290.1 4.8
-4 0 1 250.89 6.37
4 0 -1 306.34 5.03
-4 0 1 286.92 5.6
-4 0 1 305.63 5.69
4 0 -1 300.45 5.37
4 0 -1 279.24 4.93
4 0 -1 290.68 5.1
-4 0 1 283.29 5.55
4 0 -1 298.54 5.16
4 0 -1 294.4 5.17
4 0 -1 279.58 4.27
-4 0 1 339.48 6.33
4 0 -1 299.57 5.27
4 0 -1 279.17 4.69
4 0 -1 304.56 4.57
-4 0 1 235.66 6.09
-4 0 1 314.8 5.16
4 0 -1 293.06 5.04
-4 0 1 297.93 5.69
4 0 0 509.7 6.39
-4 0 0 451.63 6.02
-4 0 0 489.99 7.58
4 0 0 484.34 6.38
-4 0 0 484.23 7.57
-4 0 0 389.92 6.14
-4 0 0 528.09 7.43
4 0 0 461.15 6.71
4 0 0 459.23 6.67
-4 0 0 454.35 7.29
4 0 0 467.91 6.31
4 0 0 468.02 6.81
4 0 0 452.98 5.37
4 0 0 472.06 6.46
4 0 0 476.44 6.85
-4 0 0 484.48 6.3
4 0 0 473.31 6.55
-4 0 0 454.83 7.35
4 0 1 909.16 8.68
-4 0 -1 931.23 9.19
-4 0 -1 970.48 11.32
-4 0 -1 1058.89 12.24
4 0 1 979.75 9.52
-4 0 -1 961.29 11.63
-4 0 -1 1025.37 10.62
4 0 1 996.93 10.77
4 0 1 983.35 10.69
-4 0 -1 1029.24 12.25
4 0 1 1024.35 10.95
4 0 1 997.06 8.49
-4 0 -1 994.91 11.89
-4 0 -1 959.04 9.03
4 0 1 1023.74 10.27
-4 0 -1 981.97 11.63
-4 0 -2 41.11 1.95
-4 0 -2 35.89 2.21
4 0 2 39.76 1.96
-4 0 -2 44.38 2.39
-4 0 -2 38.78 2.42
-4 0 -2 41.48 2.33
4 0 2 42.88 2.02
-4 0 -2 38.61 2.4
-4 0 -2 42.44 2.22
4 0 2 42.92 2.53
4 0 2 42.14 2.55
-4 0 -2 39.81 2.47
-4 0 -2 37.91 2.28
4 0 2 39 1.81
-4 0 -2 38.02 2.46
4 0 2 40.22 1.67
-4 0 -2 41.71 2.29
-4 0 -2 41.6 2.38
4 0 2 44.12 2.58
4 0 2 48.72 2.6
-4 0 -2 41.47 2.36
-4 0 -2 38.99 1.94
4 0 2 37.98 2.07
-4 0 -3 4.51 0.89
-4 0 -3 4.62 1.06
4 0 3 2.8 0.95
-4 0 -3 4.19 1.22
-4 0 -3 4.68 1.04
-4 0 -3 6.01 1.12
4 0 3 5.71 1.33
-4 0 -3 4.18 1.5
-4 0 -3 3.95 1.09
-4 0 -3 4.19 1.33
-4 0 -3 5.66 1.43
4 0 3 3.46 0.81
-4 0 -3 5.01 1.24
4 0 3 4.84 0.92
4 0 3 3.69 1.48
-4 0 -3 3.61 1.05
4 0 3 7.51 1.75
-4 0 -3 4.61 1.07
4 0 3 4.3 1.41
-4 0 -3 5.63 1.11
-4 0 -3 4.86 1.01
4 0 3 4.73 1.03
-4 0 -4 0.28 0.72
-4 0 -4 0.49 0.7
4 0 4 0.71 0.98
-4 0 -4 0.07 0.72
-4 0 -4 0.12 0.93
-4 0 -4 -0.13 0.76
4 0 4 -0.28 1.42
4 0 4 0.08 1.55
-4 0 -4 -0.38 0.81
4 0 4 -0.34 1.51
-4 0 -4 -0.04 1.03
4 0 4 0.1 0.92
-4 0 -4 -0.21 1.39
4 0 4 0.92 0.7
-4 0 -4 0.2 0.86
4 0 4 0.04 1.36
4 0 4 0.14 0.79
-4 0 -4 0.22 0.73
4 0 4 0.68 1.23
-4 0 -4 -0.09 0.7
-4 0 -4 1.07 0.81
-4 0 -4 0.42 0.7
-4 0 -4 0.11 0.71
-4 0 -5 4.77 1.21
4 0 5 5.33 1.89
4 0 5 4.96 1.83
4 0 5 3.05 1.66
-4 0 -5 5.21 1.41
4 0 5 4.56 1.05
-4 0 -5 4.7 1.87
-4 0 -5 5.1 1.09
4 0 5 4.25 1.61
4 0 5 3.38 1.1
-4 0 -5 4.78 0.99
4 0 5 4.31 1.95
4 0 5 5.98 1.5
-4 0 -5 4.8 1.09
-4 0 -5 5.93 1.24
-4 0 -6 1543.5 14.48
4 0 6 1152.67 15.15
4 0 6 1399.37 15.25
4 0 6 1478.87 15.07
-4 0 -6 1614.18 15.11
4 0 6 1050.05 12.68
-4 0 -6 1164.08 15.94
4 0 6 1083.53 11.16
4 0 6 1501.56 14.39
4 0 6 1417.43 16.18
4 0 6 1436.09 13.23
-4 0 -6 1502.34 13.93
-4 0 -6 1496.29 12.01
4 0 7 380.69 8.26
4 0 7 448.09 7.54
4 0 7 442.5 7.17
-4 0 -7 443.79 6.74
-4 0 -7 476.1 9.55
4 0 7 344.19 5.88
4 0 7 433.64 6.32
4 0 8 259.62 6.12
-4 0 -8 328.41 7.03
4 0 8 280.47 4.7
-4 0 -8 343.52 7.3
-4 0 -9 2.53 1.15
4 0 9 0.88 0.99
-4 0 -9 1.19 1.04
-4 0 -10 32.02 1.55
-4 0 -10 31.1 1.58
-4 -1 11 145.99 2.93
-4 -1 10 450.28 5.96
4 1 -9 7.44 1.02
4 1 -9 6.9 1.06
4 1 -9 7.2 1.05
4 1 -8 18.17 1.53
4 1 -8 15.82 1.53
4 1 -8 19.26 1.44
-4 -1 8 13.08 1.58
-4 -1 8 11.38 1.79
4 1 -8 18.99 1.44
4 1 -8 18.34 1.41
4 1 -8 17.83 1.26
-4 -1 8 17.13 1.93
4 1 -8 20.08 1.52
4 1 -7 25.79 1.7
4 1 -7 26.5 1.89
4 1 -7 24.89 1.64
-4 -1 7 22.59 2.12
-4 -1 7 23.3 1.89
4 1 -7 24.31 1.54
4 1 -7 25.47 1.54
4 1 -7 27.78 1.77
4 1 -6 206.15 4.42
4 1 -6 199.27 4.84
4 1 -6 197.83 4.14
4 1 -6 224.64 5.97
4 1 -6 209.58 4.7
-4 -1 6 158.89 4.02
-4 -1 6 163.63 5.66
4 1 -6 202.5 3.93
4 1 -6 214.49 4.33
4 1 -6 203.14 4.41
4 1 -5 574.53 7.78
4 1 -5 632.8 8.5
-4 -1 5 470.73 9.64
4 1 -5 552.31 7.31
4 1 -5 463.03 8.81
4 1 -5 606.53 7.9
4 1 -5 674.6 8.34
4 1 -5 679.17 9.02
-4 -1 5 527.81 7.1
4 1 -5 622.23 8.44
4 1 -5 582.3 7.55
-4 -1 4 290.68 5.79
4 1 -4 355.61 5.9
-4 -1 4 395.96 8.47
-4 -1 4 303.15 5.46
-4 -1 4 288.08 5.12
4 1 -4 334.93 5.48
4 1 -4 362.64 5.59
-4 -1 4 294.07 5.65
4 1 -4 278.39 5.97
-4 -1 4 304.29 5.03
-4 -1 4 293.97 5.37
4 1 -4 343.33 5.65
4 1 -4 298.52 5.14
-4 -1 4 292.96 5.52
-4 -1 4 323.94 5.79
4 1 -4 347.92 5.45
4 1 -4 260.54 6.4
-4 -1 4 283.47 4.95
-4 -1 3 709.29 9.08
-4 -1 3 620.47 7.48
-4 -1 3 671 8.79
4 1 -3 676.73 7.94
-4 -1 3 835.71 11.69
-4 -1 3 678.51 9.02
-4 -1 3 641.13 8.46
4 1 -3 646.66 9.4
4 1 -3 627.81 7.36
4 1 -3 650.2 7.27
-4 -1 3 572.27 7.7
4 1 -3 549.56 8.5
-4 -1 3 709.66 9.49
-4 -1 3 557.28 9.03
-4 -1 3 712.47 9.42
4 1 -3 638.82 7.49
4 1 -3 617.48 7.21
-4 -1 3 708.61 9.36
4 1 -3 655.74 7.7
-4 -1 2 3.3 1.2
4 1 -2 3.65 0.83
-4 -1 2 6.64 1.54
-4 -1 2 5.15 0.79
-4 -1 2 4.34 0.98
-4 -1 2 3.41 0.94
-4 -1 2 3.62 1.22
4 1 -2 4.93 1.12
-4 -1 2 3.69 1.26
-4 -1 2 3.47 0.89
4 1 -2 3.83 1.11
4 1 -2 3.39 0.97
-4 -1 2 3.86 0.89
-4 -1 2 5.36 1.3
4 1 -2 3.53 0.89
-4 -1 2 4.85 1.32
4 1 -2 3.14 0.78
-4 -1 2 3.72 1.25
4 1 -2 3.66 0.81
-4 -1 2 3.96 1.27
4 1 -1 194.81 3.84
-4 -1 1 185.98 5.19
-4 -1 1 196.34 3.51
-4 -1 1 192.3 5.22
-4 -1 1 202.37 4.52
-4 -1 1 200.48 5.39
4 1 -1 210.53 4.46
-4 -1 1 228.25 4.84
4 1 -1 192 3.84
-4 -1 1 206.11 5.69
4 1 -1 190.23 3.79
-4 -1 1 198.52 4.49
4 1 -1 211.72 4.75
4 1 -1 193.61 3.92
-4 -1 1 201.55 5.51
4 1 -1 204.95 4.38
-4 -1 1 186.16 3.78
4 1 -1 188.85 3.95
-4 -1 1 200.9 5.53
4 1 -1 187.5 3.9
-4 -1 1 201.09 4.51
-4 -1 0 209.27 3.65
-4 -1 0 248.29 5.33
4 1 0 188.55 3.95
-4 -1 0 245.2 5.57
-4 -1 0 158.54 4.9
-4 -1 0 166.5 5.18
4 1 0 196.74 3.91
-4 -1 0 208.79 4.54
4 1 0 181.36 3.86
4 1 0 187.18 3.92
-4 -1 0 154.26 4.87
4 1 0 183.1 3.94
4 1 0 200.02 4.07
-4 -1 0 247.37 5.34
4 1 0 191.72 4.11
-4 -1 0 165.36 5.07
-4 -1 0 194.6 4.52
-4 -1 -1 15.18 1.01
-4 -1 -1 20.09 1.73
-4 -1 -1 13.68 1.44
-4 -1 -1 16.62 1.74
4 1 1 14 1.08
-4 -1 -1 15.5 1.45
4 1 1 13.66 1.46
4 1 1 13.03 1.39
-4 -1 -1 15.43 1.51
4 1 1 15.09 1.24
4 1 1 13.72 1.41
4 1 1 14.67 1.23
4 1 1 13.61 1.42
-4 -1 -1 12.62 1.43
4 1 1 16.3 1.6
-4 -1 -2 248.72 5.51
-4 -1 -2 218.7 3.66
-4 -1 -2 215.41 4.94
-4 -1 -2 263.83 5.64
-4 -1 -2 255.58 5.46
-4 -1 -2 247.86 5.54
-4 -1 -2 216.75 5.16
-4 -1 -2 231.31 5.09
-4 -1 -2 270 5.74
-4 -1 -2 239.91 5.5
-4 -1 -2 215.87 5.08
4 1 2 225.24 4.12
4 1 2 202.96 3.65
-4 -1 -2 260.85 5.72
4 1 2 235.55 5.14
4 1 2 223.92 3.61
-4 -1 -2 262.2 5.61
-4 -1 -3 393.44 6.5
-4 -1 -3 373.59 6.19
-4 -1 -3 402.26 6.48
-4 -1 -3 381.44 6.31
-4 -1 -3 365.07 7
4 1 3 386.4 6.26
-4 -1 -3 380.25 7.67
-4 -1 -3 367.67 6.71
-4 -1 -3 368.32 7.18
-4 -1 -3 391.83 7.42
4 1 3 378.7 5.23
-4 -1 -3 350.39 6.9
-4 -1 -3 420.33 6.68
4 1 3 381.67 5.14
-4 -1 -3 396.79 6.58
4 1 3 410.07 7.43
4 1 3 384.93 4.58
-4 -1 -3 385.76 6.53
-4 -1 -3 382.84 7.56
4 1 3 319.82 6.8
-4 -1 -4 288.29 5.11
-4 -1 -4 358.88 5.48
-4 -1 -4 280.36 4.99
-4 -1 -4 247.59 5.82
-4 -1 -4 279.53 4.92
4 1 4 274.08 5.98
-4 -1 -4 288.93 7.37
-4 -1 -4 253.94 5.72
-4 -1 -4 252.34 6.04
-4 -1 -4 314.51 7.29
4 1 4 308.62 4.77
-4 -1 -4 319.72 6.31
4 1 4 294.43 4.47
4 1 4 298.33 5.69
-4 -1 -4 280.11 5.07
4 1 4 314.24 7.19
4 1 4 321.61 4.35
-4 -1 -4 308.39 5.93
-4 -1 -4 278.81 5.04
-4 -1 -4 275.01 4.99
4 1 4 306.2 7.04
4 1 4 280.91 6.66
-4 -1 -5 1056.96 12.05
-4 -1 -5 840.35 8.62
4 1 5 899.7 12.26
-4 -1 -5 1056.91 12.23
-4 -1 -5 1078.53 12.51
-4 -1 -5 1071.28 14.75
4 1 5 1154.68 9.79
4 1 5 1182.6 10.43
4 1 5 1094.75 12.53
4 1 5 1092.79 9.36
-4 -1 -5 919.23 9.01
-4 -1 -5 1331.43 13.13
-4 -1 -5 819.23 8.31
-4 -1 -5 905.62 9.01
4 1 5 990.19 13.77
-4 -1 -5 1060.84 9.2
4 1 5 1269.51 13.98
-4 -1 -6 43.16 2.47
-4 -1 -6 37.3 2.15
4 1 6 27.31 2.69
-4 -1 -6 40.81 2.33
4 1 6 25.6 1.79
-4 -1 -6 31.91 3.07
4 1 6 23.05 2.62
4 1 6 27.66 1.7
-4 -1 -6 38.12 2.31
-4 -1 -6 31.97 1.51
4 1 7 234.31 6.68
-4 -1 -7 243.4 7.29
4 1 7 259.09 5.83
4 1 7 273.72 7.09
-4 -1 -7 253.49 5.48
4 1 8 3.4 1.59
-4 -1 -8 3.77 1.59
4 1 8 3.12 1.4
4 1 8 2.76 1.37
-4 -1 -8 4.03 1.63
4 1 8 2.82 1.12
4 1 8 1.86 1.91
4 1 8 3.72 1.65
-4 -1 -8 2.15 0.8
-4 -1 -9 1.41 1.22
4 1 9 0.14 0.96
4 1 9 0.05 0.4
-4 -1 -9 1.52 1.29
4 1 9 1.22 1.22
-4 -1 -10 13.88 1.46
-4 -2 10 -0.06 1.11
-4 -2 9 14.55 1.39
4 2 -9 14.22 1.14
4 2 -9 17.9 1.36
4 2 -8 0.43 0.77
-4 -2 8 0.15 1.28
4 2 -8 0.26 0.78
-4 -2 8 0.55 0.97
4 2 -8 0.52 0.93
4 2 -8 -0.16 0.87
4 2 -8 0.26 0.77
4 2 -7 1.27 0.88
-4 -2 7 0.04 1.59
4 2 -7 0.73 0.89
-4 -2 7 1.6 1.19
4 2 -7 2.22 1
-4 -2 7 0.25 1.09
4 2 -7 0.52 0.91
4 2 -7 1.05 0.93
4 2 -6 121.09 3.56
4 2 -6 127.28 3.95
-4 -2 6 111.57 4.95
4 2 -6 141.97 4.67
4 2 -6 139.29 3.8
4 2 -6 135.65 4.06
4 2 -6 117.63 3.37
4 2 -6 120.37 3.6
4 2 -5 0.54 0.93
-4 -2 5 0.31 1.84
4 2 -5 0.14 1.04
4 2 -5 0.69 1.05
4 2 -5 0.3 1.06
4 2 -5 1.1 1.01
4 2 -5 0.13 1
-4 -2 5 0.31 1.04
4 2 -5 0.61 1.07
4 2 -5 0.5 0.89
-4 -2 4 3.22 0.85
4 2 -4 4.73 1.13
4 2 -4 4.92 1.14
-4 -2 4 4.6 2.01
-4 -2 4 6.23 1.9
4 2 -4 3.48 1.27
4 2 -4 3.95 1.07
4 2 -4 4.03 1.31
4 2 -4 4.79 1.14
4 2 -3 276.9 5.07
4 2 -3 300.18 5.31
-4 -2 3 345.53 7.89
4 2 -3 220.86 5.5
-4 -2 3 270.29 5.23
-4 -2 3 251.67 5.28
-4 -2 3 334.36 7.22
-4 -2 3 271.54 5.23
4 2 -3 287.89 4.71
-4 -2 3 279.99 5.64
-4 -2 3 251.97 5.16
4 2 -3 206.54 5.69
-4 -2 3 272.89 5.01
4 2 -3 284.98 5.01
-4 -2 3 245.23 5.34
-4 -2 3 235.18 4.94
4 2 -3 280.42 4.96
-4 -2 3 255.29 4.96
-4 -2 2 61.04 2.92
4 2 -2 57.67 2.28
-4 -2 2 63.18 2.95
-4 -2 2 62.3 2.82
-4 -2 2 67.72 3.28
4 2 -2 58.2 2.69
-4 -2 2 70.52 2.77
-4 -2 2 61.44 2.82
-4 -2 2 59.61 2.51
4 2 -2 54.11 2.9
-4 -2 2 61.08 2.33
4 2 -2 56.82 2.17
-4 -2 2 62.32 2.92
-4 -2 2 65.87 3.11
4 2 -2 56.78 2.22
-4 -2 2 58.79 2.67
-4 -2 1 2322.58 17.71
4 2 -1 1767.62 13.72
-4 -2 1 2137.07 18.47
-4 -2 1 1997.27 17.57
-4 -2 1 2061.26 15.49
-4 -2 1 2164.44 18.02
4 2 -1 1878.73 14.69
4 2 -1 1744.56 12.78
-4 -2 1 1987.95 14.07
4 2 -1 1747.99 13.25
-4 -2 1 2089.16 18.3
-4 -2 1 2015.98 18.39
4 2 -1 1700.18 13.4
-4 -2 1 2100.43 18.75
-4 -2 1 1760.92 15.87
4 2 -1 1761.93 13.67
-4 -2 1 2107.24 18.1
-4 -2 0 523.52 5.73
-4 -2 0 679.69 9.21
-4 -2 0 571.27 8.31
-4 -2 0 473.79 8.56
-4 -2 0 606.94 8.09
-4 -2 0 507.44 7.13
4 2 0 540.66 6.65
4 2 0 474.77 6.11
4 2 0 461.6 5.95
-4 -2 0 565.88 7.74
4 2 0 553.44 7.77
-4 -2 0 550.99 6.83
-4 -2 0 507.78 9
-4 -2 0 492.02 8.79
-4 -2 0 486.99 8.96
4 2 0 514.09 7.02
-4 -2 -1 130.8 4.58
-4 -2 -1 214.59 5.06
-4 -2 -1 191.85 4.63
-4 -2 -1 152.38 4.62
-4 -2 -1 201.37 4.64
-4 -2 -1 164.86 4.18
-4 -2 -1 172.79 4.22
-4 -2 -1 199.32 4.66
4 2 1 179.72 4.09
4 2 1 168.61 3.95
-4 -2 -1 173.98 3.73
4 2 1 166.56 3.66
4 2 1 168.54 3.15
-4 -2 -1 177.39 4.4
4 2 1 182.21 4.39
-4 -2 -2 103.14 3.4
-4 -2 -2 110.05 3.86
-4 -2 -2 108.51 3.7
-4 -2 -2 103.15 3.45
-4 -2 -2 91.52 3.38
-4 -2 -2 93.09 3.28
-4 -2 -2 110.92 3.64
-4 -2 -2 87.77 3.19
4 2 2 92.64 2.76
4 2 2 94.34 2.93
-4 -2 -2 86.81 2.6
4 2 2 96.59 3.19
-4 -2 -2 98.43 3.74
-4 -2 -2 106.51 3.78
4 2 2 90.95 2.99
-4 -2 -2 100.15 3.45
-4 -2 -2 113.91 3.91
4 2 2 98.37 3.59
-4 -2 -2 102.11 3.78
-4 -2 -3 66.08 2.75
-4 -2 -3 72.79 2.59
-4 -2 -3 66.3 2.79
-4 -2 -3 64.45 2.73
-4 -2 -3 63.33 2.79
4 2 3 52.17 2.28
-4 -2 -3 59.01 2.76
-4 -2 -3 65.18 2.95
-4 -2 -3 57.45 2.88
4 2 3 56.03 2.02
4 2 3 69.12 3.14
4 2 3 60.6 2.15
-4 -2 -3 63.29 2.73
-4 -2 -3 68 2.87
4 2 3 60.07 2.84
-4 -2 -3 63.21 2.97
-4 -2 -3 58.98 3.04
-4 -2 -3 58.93 2.55
-4 -2 -4 51.42 2.25
-4 -2 -4 50.8 2.32
-4 -2 -4 45.81 2.39
4 2 4 38.61 2.35
-4 -2 -4 53.02 3.29
-4 -2 -4 45.8 2.68
-4 -2 -4 50.38 2.27
-4 -2 -4 50.4 2.26
-4 -2 -4 46.97 2.57
-4 -2 -4 52.91 3.09
4 2 4 49.91 1.86
4 2 4 52.12 1.92
-4 -2 -4 49 2.27
-4 -2 -4 44.38 2.06
4 2 4 55.41 3.12
-4 -2 -4 52.25 2.82
4 2 4 45.07 2.94
-4 -2 -4 48.62 2.1
-4 -2 -5 553.59 6.58
-4 -2 -5 586.87 7.83
-4 -2 -5 543.12 6.65
4 2 5 486.82 8.33
-4 -2 -5 606.15 11.19
-4 -2 -5 524.43 8.77
-4 -2 -5 506.25 6.33
-4 -2 -5 582.98 8.33
-4 -2 -5 632.69 11.01
4 2 5 678.42 6.73
4 2 5 654.69 6.9
4 2 5 601.34 8.54
4 2 5 684.22 6.78
-4 -2 -5 532.43 6.66
4 2 5 539.74 9.76
-4 -2 -5 519.94 6.48
-4 -2 -5 508.3 8.75
4 2 5 662.17 10.19
-4 -2 -5 528.93 6.24
-4 -2 -5 545.86 6.84
4 2 6 1927.95 19.01
-4 -2 -6 1765.82 21.23
-4 -2 -6 2253.13 20.18
4 2 6 2535.29 15.48
-4 -2 -6 1873.21 21.41
4 2 6 2470.14 16.25
4 2 6 1593.93 17.16
4 2 6 2330 15.26
4 2 6 2045.85 21.22
-4 -2 -6 1871.02 17.95
4 2 6 2447.53 20.24
4 2 7 182.26 5.74
4 2 7 190.5 3.97
-4 -2 -7 152.34 6.06
4 2 7 167.36 4.15
4 2 7 151.03 5.35
4 2 7 193.02 4.41
4 2 7 199.92 6.51
-4 -2 -7 196.5 4.88
4 2 7 197.61 5.21
4 2 8 140.51 3.85
4 2 8 146.54 5.15
4 2 9 13.92 2
4 2 9 14.48 2.21
4 2 9 17.54 2.09
4 2 9 17.92 2.21
-4 -2 -10 -0.03 0.99
4 2 10 0.38 0.9
4 2 10 0.03 0.33
4 2 10 0.8 1.4
4 2 10 0.99 1.09
-4 -2 -11 105.23 2.61
-4 -2 -11 107.76 2.73
-4 -3 9 0.61 0.83
-4 -3 9 0.11 1.33
4 3 -9 0.38 0.74
4 3 -8 200.02 3.98
4 3 -8 215.88 4
-4 -3 7 48.52 3.14
-4 -3 7 41.5 2.14
4 3 -7 56.75 2.42
4 3 -7 62.01 2.6
4 3 -7 63.88 2.62
4 3 -7 60.92 2.65
4 3 -6 347.82 5.87
4 3 -6 346.19 5.41
4 3 -6 324.91 6.68
-4 -3 6 302.65 7.86
-4 -3 6 278.61 5.68
4 3 -6 356.09 6.54
4 3 -6 329.07 5.81
4 3 -6 309.58 5.75
4 3 -6 408.13 7.28
4 3 -6 367.73 6.73
4 3 -5 1216.25 12.41
4 3 -5 1221.61 12.21
4 3 -5 1180.42 11.56
4 3 -5 1213.81 14
-4 -3 5 1048.67 12.06
4 3 -5 1325.74 14.56
4 3 -5 1126.34 11.9
4 3 -5 1251.78 13.26
4 3 -4 660.48 8.9
4 3 -4 693.4 8.85
-4 -3 4 425.53 9.87
-4 -3 4 625.52 10.21
4 3 -4 546.16 9.23
4 3 -4 574.35 10.18
4 3 -4 685.71 8.39
4 3 -4 590.36 8.26
4 3 -4 729.95 9.69
4 3 -3 30.76 1.9
4 3 -3 34.03 2
-4 -3 3 24.6 1.73
-4 -3 3 22.66 1.87
-4 -3 3 30.16 2.53
4 3 -3 20.42 1.93
-4 -3 3 24.43 1.71
4 3 -3 18.6 2.16
-4 -3 3 25.03 1.89
4 3 -3 33.93 1.86
-4 -3 3 22.73 1.83
4 3 -3 29.38 1.74
-4 -3 3 26.18 1.75
-4 -3 3 26.97 1.95
4 3 -2 27.38 1.74
4 3 -2 28 1.74
-4 -3 2 28.88 2.04
-4 -3 2 26.03 2.15
-4 -3 2 24.11 2.21
4 3 -2 22.66 1.84
-4 -3 2 28.25 1.99
-4 -3 2 22.57 1.83
-4 -3 2 28.15 2.17
-4 -3 2 27.1 2.21
4 3 -2 25.2 1.58
-4 -3 2 26.48 1.9
-4 -3 2 26.27 2.08
-4 -3 1 4.76 1.26
-4 -3 1 3.25 1.35
4 3 -1 3.41 0.93
-4 -3 1 4.15 1.48
-4 -3 1 4.29 1.35
-4 -3 1 3.76 1.21
-4 -3 1 5.45 0.98
4 3 -1 3.3 0.93
-4 -3 1 5.24 1.42
-4 -3 1 3.18 1.45
-4 -3 1 9.55 1.28
4 3 -1 2.82 1.23
-4 -3 1 5.01 1.27
-4 -3 1 3.52 1.32
-4 -3 1 2.86 1.39
4 3 -1 3.02 0.82
-4 -3 0 1053.9 12.85
-4 -3 0 1090.46 13.63
-4 -3 0 1014.57 10.82
-4 -3 0 970.3 10.09
-4 -3 0 1050.61 12.93
-4 -3 0 1069.86 11.98
4 3 0 919.42 8.99
-4 -3 0 1218.49 11.87
4 3 0 1084.37 12
-4 -3 0 1028.67 10.28
-4 -3 0 1066.19 13.74
-4 -3 0 1079.79 13.92
-4 -3 0 1048.37 13.35
-4 -3 0 1019.02 12.41
4 3 0 942.69 9.74
-4 -3 -1 610.93 8.21
-4 -3 -1 570.9 9.79
-4 -3 -1 581.14 8.12
-4 -3 -1 586.73 7.93
4 3 1 656.73 8.56
-4 -3 -1 571.04 6.94
-4 -3 -1 572.09 10.01
-4 -3 -1 567.18 9.88
-4 -3 -1 564.83 9.79
4 3 1 627.25 8.31
-4 -3 -2 835.29 9.39
-4 -3 -2 864.36 11.25
-4 -3 -2 785 10.05
-4 -3 -2 770.93 9.55
-4 -3 -2 856.33 11.41
4 3 2 852.88 9.29
4 3 2 807.95 9.27
4 3 2 752.99 8.33
4 3 2 844.53 10.58
-4 -3 -2 813.65 10.73
-4 -3 -3 585.68 8.95
-4 -3 -3 594.72 8.61
-4 -3 -3 610.99 9.1
-4 -3 -3 496.36 8.52
-4 -3 -3 590.52 8.67
-4 -3 -3 588.11 8.49
4 3 3 489.38 6.43
4 3 3 533.65 7.35
-4 -3 -3 578.77 8.82
4 3 3 526.22 7.84
-4 -3 -3 570.03 8.55
-4 -3 -3 598.71 8.94
-4 -3 -3 574.3 8.29
-4 -3 -4 30 1.94
-4 -3 -4 30.6 2.04
-4 -3 -4 30.86 2.55
-4 -3 -4 27.14 2.21
-4 -3 -4 29.79 1.95
-4 -3 -4 25.23 1.92
4 3 4 27.96 1.46
-4 -3 -4 27.46 1.93
4 3 4 24.89 2.16
4 3 4 27.72 1.67
4 3 4 31.72 1.85
-4 -3 -4 25.91 1.93
4 3 4 30.72 2.48
-4 -3 -4 31.17 2.11
-4 -3 -4 30.51 1.97
-4 -3 -4 31.06 1.89
-4 -3 -5 210.04 4.32
-4 -3 -5 192.43 4.31
4 3 5 170.69 4.99
-4 -3 -5 192.7 4.39
-4 -3 -5 187.03 5.7
-4 -3 -5 196.81 4.16
4 3 5 230.03 3.84
4 3 5 229.03 4.32
4 3 5 236.87 4.41
4 3 5 193.59 5.97
-4 -3 -5 199.76 4.4
-4 -3 -5 180.14 4.83
-4 -3 -5 211.89 4.27
4 3 5 209.75 6.17
-4 -3 -5 195.41 4.33
4 3 6 9.26 1.85
-4 -3 -6 9.81 1.86
4 3 6 14.33 1.3
4 3 6 7.59 1.84
4 3 6 14.52 1.41
4 3 6 13.26 2.49
4 3 6 16.79 2.27
4 3 7 15.95 2.2
-4 -3 -7 13.3 2.5
-4 -3 -7 19.84 2.24
4 3 7 18.71 1.67
-4 -3 -7 11.23 2.24
4 3 7 17.99 1.6
4 3 7 13.16 2.24
4 3 7 18.3 1.6
4 3 7 17.45 2.78
4 3 7 23.99 2.47
4 3 8 8 1.89
-4 -3 -8 10.32 2.21
-4 -3 -8 11.04 1.8
4 3 8 10.06 1.48
-4 -3 -8 8.85 2.1
4 3 8 10.43 1.48
4 3 8 9.24 2.17
4 3 8 10.32 1.55
4 3 8 11.71 2.35
4 3 8 9.42 1.71
4 3 9 184.46 5.3
-4 -3 -9 236.45 6.21
-4 -3 -9 256.99 5.69
-4 -3 -9 230.53 6.32
4 3 9 195.43 5.46
-4 -3 -10 438.37 7.13
-4 -3 -10 495.6 6.42
-4 -3 -10 454.1 7.45
4 3 10 395.41 6.8
4 3 10 455.1 7.49
4 3 10 443.08 7.5
-4 -3 -11 131.51 2.88
-4 -3 -11 130.9 3.01
4 3 11 122.89 3.1
-4 -4 8 40.08 2.03
4 4 -8 49.85 1.85
-4 -4 7 213.1 5.41
4 4 -7 235.84 4.23
4 4 -6 357.21 5.75
4 4 -6 383.31 6.36
-4 -4 5 15.6 2.53
4 4 -5 16.18 1.76
-4 -4 5 14.83 1.79
4 4 -5 18.54 1.95
4 4 -5 16.7 1.63
4 4 -5 17.19 1.85
4 4 -4 2.07 1.26
4 4 -4 1.51 1.06
4 4 -4 2.8 1.24
-4 -4 4 2.68 1.48
4 4 -4 2.22 1.06
-4 -4 3 99.87 4.78
-4 -4 3 86.86 3.13
-4 -4 3 92.95 2.88
-4 -4 3 95.35 3.01
4 4 -3 85.4 3.65
-4 -4 3 96.06 3.22
-4 -4 3 89.3 2.84
4 4 -2 306.37 5.69
4 4 -2 375.15 7.24
4 4 -2 312.25 5.49
-4 -4 2 337.06 8.04
-4 -4 2 271.62 5.58
-4 -4 2 269.98 5.93
-4 -4 2 290.73 6.26
-4 -4 2 287.79 5.8
4 4 -2 200.69 5.35
-4 -4 2 328.96 7.52
4 4 -2 296.57 4.99
-4 -4 2 285.27 6.23
-4 -4 2 275.95 5.61
4 4 -1 1705.98 16.36
-4 -4 1 1734.09 17.34
4 4 -1 1660.5 13.63
-4 -4 1 1895.58 18.22
-4 -4 1 1763.76 16.31
-4 -4 1 1797.34 17.69
-4 -4 1 1760.66 16.44
-4 -4 1 1678.2 13.13
-4 -4 1 1773.92 17.63
-4 -4 1 1795.43 16.44
-4 -4 0 591.76 10.58
-4 -4 0 592.42 8.99
-4 -4 0 579.74 9.64
-4 -4 0 614.12 9.16
-4 -4 0 562.39 10.15
-4 -4 0 518.58 7.03
-4 -4 0 581.73 9.64
4 4 0 567.3 9.12
-4 -4 0 570.41 10.29
-4 -4 0 594.07 9.72
4 4 0 509.92 6.92
-4 -4 -1 319.24 7.9
4 4 1 345.21 6.43
-4 -4 -1 321.72 6.01
-4 -4 -1 329.22 6.5
-4 -4 -1 309.95 7.65
-4 -4 -1 297.75 5.52
4 4 1 346.58 6.6
-4 -4 -1 298.17 7.52
-4 -4 -2 6.87 1.53
-4 -4 -2 8.33 1.69
-4 -4 -2 8.79 1.52
-4 -4 -2 8.47 1.41
-4 -4 -2 7.72 1.25
-4 -4 -2 6.6 1.59
4 4 2 7.86 1.22
-4 -4 -3 156.97 5.06
-4 -4 -3 153.62 4.66
-4 -4 -3 148.12 4.86
-4 -4 -3 118.19 3.9
-4 -4 -3 151.2 4.63
-4 -4 -3 108.97 3.79
-4 -4 -3 154.63 4.18
4 4 3 134.87 3.56
4 4 3 135.15 3.89
4 4 3 129.75 3.76
-4 -4 -3 151.28 4.89
-4 -4 -3 147.73 4.55
-4 -4 -4 841.71 10.63
-4 -4 -4 864.42 10.3
-4 -4 -4 752.06 9.71
-4 -4 -4 862.27 10.8
-4 -4 -4 725.2 10.55
-4 -4 -4 865.34 10.32
4 4 4 789.38 8.11
4 4 4 808.5 9.28
4 4 4 805.5 10.85
-4 -4 -4 840.8 10.79
-4 -4 -4 848.13 10.26
-4 -4 -5 535.57 7.49
-4 -4 -5 583.71 7.67
4 4 5 568.17 10.05
-4 -4 -5 574.13 7.92
-4 -4 -5 631.93 11.03
-4 -4 -5 587.97 7.75
4 4 5 605.82 7.14
4 4 5 499.61 9.39
-4 -4 -5 577.22 8
-4 -4 -5 587.44 7.53
-4 -4 -6 435.54 6.08
4 4 6 513.2 9.86
-4 -4 -6 387.11 6.12
-4 -4 -6 424.06 6.39
-4 -4 -6 483.31 10.3
-4 -4 -6 421.54 5.98
-4 -4 -6 396.08 8.54
-4 -4 -6 473.82 9.66
4 4 6 516.82 6.51
4 4 6 427.63 9.31
-4 -4 -6 420.57 6.37
4 4 7 8.87 1.93
4 4 7 7.39 2.09
-4 -4 -7 5.54 2.01
-4 -4 -7 5.3 1.67
4 4 7 10.95 1.52
-4 -4 -7 4.12 1.83
4 4 7 7.8 1.12
4 4 7 6.5 2.23
4 4 8 -0.11 1.51
-4 -4 -8 0.19 1.55
-4 -4 -8 1.08 1.36
4 4 8 1.53 1.14
-4 -4 -8 -0.14 1.48
4 4 8 0.53 0.91
4 4 8 0.72 1.72
4 4 8 1.29 1.92
4 4 8 3.32 1.66
4 4 9 8.54 1.77
-4 -4 -9 15.47 1.96
-4 -4 -9 14.56 1.81
-4 -4 -9 12.85 1.87
4 4 9 10.11 1.86
4 4 9 13.88 2.28
4 4 9 13.83 1.79
-4 -4 -10 1.27 1.02
-4 -4 -10 1.53 0.99
4 4 10 0.99 1.46
-4 -4 -11 43.16 1.65
4 4 11 43.77 2.21
4 5 -7 488.81 5.3
4 5 -7 454.67 4.81
4 5 -6 583.97 6.49
4 5 -6 576.68 6.61
4 5 -5 196.6 3.9
4 5 -5 197.66 4.08
4 5 -4 0.13 0.98
-4 -5 4 0.76 1.72
4 5 -4 0.18 0.8
4 5 -4 0.12 1.21
-4 -5 3 229.32 6.93
-4 -5 3 276.28 5.01
4 5 -3 299.11 6.34
4 5 -3 351.47 6.11
4 5 -3 361.13 6.44
4 5 -2 212.28 4.59
4 5 -2 254.73 6
-4 -5 2 170.17 4.32
-4 -5 2 197.38 6.2
-4 -5 2 178.02 4.58
-4 -5 2 174.22 4.75
4 5 -2 108.59 3.87
-4 -5 2 166.52 4.78
-4 -5 2 203.01 5.86
-4 -5 2 170.28 4.53
-4 -5 2 175.01 4.78
-4 -5 1 209.68 5.4
-4 -5 1 217.46 5.59
-4 -5 1 217.3 5.97
-4 -5 1 215.31 5.89
-4 -5 1 218.07 6.14
-4 -5 1 207.8 5.41
-4 -5 1 214.59 5.95
4 5 0 233.57 5.77
4 5 0 272.61 5.06
-4 -5 0 283.68 6.68
-4 -5 0 301.55 6.49
-4 -5 0 328.03 6.8
-4 -5 0 287.12 7.24
-4 -5 0 290.73 7.38
-4 -5 0 285.24 6.92
-4 -5 0 257.22 6.49
-4 -5 0 260.23 7.28
-4 -5 0 254.17 7.2
-4 -5 0 288.51 7.36
-4 -5 0 277.44 6.56
4 5 1 15.33 1.7
-4 -5 -1 16.89 2.11
-4 -5 -1 18.25 1.72
-4 -5 -1 16.89 2.24
-4 -5 -1 16.66 2.38
-4 -5 -1 17.27 1.43
-4 -5 -1 20.13 2
4 5 1 21.24 1.9
-4 -5 -1 13.97 2.52
-4 -5 -1 22.77 2.09
-4 -5 -1 15.97 2.57
-4 -5 -1 21.39 2.51
-4 -5 -1 17 2.03
-4 -5 -2 363.14 8.44
-4 -5 -2 365.86 8.65
-4 -5 -2 335.6 7.73
-4 -5 -2 375.66 6.21
4 5 2 435.85 7.13
-4 -5 -2 442.5 6.59
-4 -5 -2 402.18 7.52
-4 -5 -2 357.34 8.46
-4 -5 -2 309.19 7.25
-4 -5 -3 676.3 10.6
-4 -5 -3 588.88 9.23
-4 -5 -3 712.19 11.25
-4 -5 -3 705.04 10.76
-4 -5 -3 641.85 8.94
4 5 3 717.68 8.61
4 5 3 707.09 9.1
-4 -5 -3 733.3 12.4
-4 -5 -3 657.26 10.11
-4 -5 -4 763.28 10.88
-4 -5 -4 796.08 11.3
-4 -5 -4 791.12 11.66
-4 -5 -4 788.97 10.79
-4 -5 -4 684.62 10.09
-4 -5 -4 747.76 10.58
-4 -5 -4 822.39 12.61
4 5 4 797.03 9.47
4 5 4 752.01 9.42
-4 -5 -4 798.48 12.43
-4 -5 -4 789.29 11.19
-4 -5 -4 738.81 10.06
-4 -5 -5 89.22 3.3
-4 -5 -5 93.48 3.6
4 5 5 83.33 4.01
-4 -5 -5 95.5 4.36
-4 -5 -5 96.05 3.43
-4 -5 -5 91.08 3.53
-4 -5 -5 88.27 3.9
-4 -5 -5 90.55 3.46
4 5 5 98.27 2.99
4 5 5 99.79 3.26
-4 -5 -5 89.24 3.48
-4 -5 -5 90.39 3.18
-4 -5 -6 52.9 2.36
4 5 6 54.49 3.55
-4 -5 -6 54.06 2.42
-4 -5 -6 61.42 3.76
-4 -5 -6 53.31 3.24
-4 -5 -6 53.91 2.5
-4 -5 -6 45.26 2.39
4 5 6 63.7 2.31
4 5 6 66.61 2.67
-4 -5 -6 45.85 2.24
-4 -5 -6 51.7 2.44
4 5 7 28.11 2.91
-4 -5 -7 26.38 2.7
-4 -5 -7 20.87 1.56
4 5 7 32.69 2.02
4 5 7 27.31 2.82
-4 -5 -7 20.41 1.54
4 5 8 1.28 1.65
-4 -5 -8 -0.6 1.36
-4 -5 -8 0.49 1.28
4 5 8 3.42 1.89
4 5 9 9.85 1.72
-4 -5 -9 13.63 1.67
-4 -5 -9 16.31 1.82
4 5 9 12.84 2.08
4 5 9 12.69 1.83
-4 -5 -10 301.5 5.53
4 5 10 288.29 5.89
-4 -5 -11 193.83 3.49
-4 -6 6 8.15 1.11
-4 -6 5 41.45 2.39
4 6 -5 45.27 1.51
-4 -6 4 16.91 2.17
4 6 -4 19.61 1.37
-4 -6 3 194.72 5.79
4 6 -3 313.59 5.09
-4 -6 2 527.26 9.42
-4 -6 2 486.32 7.18
-4 -6 2 497.68 7.56
-4 -6 2 557 9.44
4 6 -2 586.51 7.01
-4 -6 2 503.26 7.56
-4 -6 1 126.85 4.43
-4 -6 1 108.1 3.92
-4 -6 1 107.61 4.09
-4 -6 1 97.63 4.07
-4 -6 1 110.14 4.1
4 6 -1 118.97 3.26
4 6 0 98.28 3.7
-4 -6 0 100.11 3.99
-4 -6 0 101.82 3.65
-4 -6 0 99.53 4.18
-4 -6 0 100.73 4.42
-4 -6 0 84.14 3.63
-4 -6 0 92.55 4.4
-4 -6 0 96.28 4.47
-4 -6 0 86.09 4.23
-4 -6 0 98.75 4.31
-4 -6 0 99.35 4.36
4 6 1 268.22 5.96
-4 -6 -1 351.14 7.91
-4 -6 -1 374.9 7.16
-4 -6 -1 353.84 8.15
-4 -6 -1 368.37 8.69
-4 -6 -1 359.7 8.66
4 6 1 335.28 6.5
-4 -6 -1 350.88 6.49
-4 -6 -1 284.66 7.81
-4 -6 -1 301.16 8.06
-4 -6 -1 338.46 7.96
-4 -6 -1 358.35 8.57
-4 -6 -2 0.04 1.32
-4 -6 -2 0.31 1.77
4 6 2 0.79 0.89
-4 -6 -2 -0.86 2.17
-4 -6 -2 0.85 1.56
-4 -6 -2 0.3 1.61
-4 -6 -3 5.61 1.7
-4 -6 -3 9.42 1.73
-4 -6 -3 6.32 1.7
-4 -6 -3 6.64 1.14
-4 -6 -3 6.41 1.88
4 6 3 6.35 1.22
-4 -6 -3 7.08 2.24
-4 -6 -4 951.12 12.29
-4 -6 -4 973.13 12.66
-4 -6 -4 851.3 10.37
-4 -6 -4 934.12 13.03
-4 -6 -4 907.95 13.04
-4 -6 -4 990.65 14.13
-4 -6 -4 966.98 14.04
4 6 4 910.09 10.01
-4 -6 -4 896.73 12.25
-4 -6 -4 982.46 13.2
-4 -6 -5 546.85 8.67
-4 -6 -5 588.57 9
-4 -6 -5 541.14 8.85
-4 -6 -5 534.66 9.08
-4 -6 -5 604.28 10.26
-4 -6 -5 530.66 9.1
4 6 5 578.39 7.57
-4 -6 -5 579.3 10.07
-4 -6 -5 532.44 8.89
-4 -6 -5 556.87 9.21
-4 -6 -6 119.42 3.88
4 6 6 91.04 3.97
-4 -6 -6 98.04 3.31
-4 -6 -6 93.19 3.92
-4 -6 -6 93.17 3.43
4 6 6 117 3.46
-4 -6 -6 98.58 3.49
-4 -6 -7 9.06 1.2
4 6 7 10.64 2.03
-4 -6 -7 8.58 1.66
-4 -6 -7 8.34 1.2
-4 -6 -7 8.69 1.21
4 6 8 74.33 3.65
-4 -6 -8 65.42 3.25
4 6 8 74.44 3.47
4 6 9 454.99 5.68
4 6 9 6.19 1.53
4 6 10 5.11 0.91
-4 -6 -11 337.76 4.21
-4 -7 3 48.61 2.26
-4 -7 2 0.02 0.77
-4 -7 1 23.16 1.81
-4 -7 1 21.59 1.78
-4 -7 0 191.96 5.22
-4 -7 0 192.73 5.37
-4 -7 0 198.03 5.36
-4 -7 -1 35.97 2.84
-4 -7 -1 34.24 2.85
-4 -7 -1 36.11 3.02
-4 -7 -1 34.9 2.89
-4 -7 -1 34.51 2.82
-4 -7 -2 0.59 1.7
-4 -7 -2 3.25 1.96
-4 -7 -2 1.15 1.67
-4 -7 -3 331.97 6.83
-4 -7 -3 269.97 7.1
-4 -7 -3 215.93 6.76
-4 -7 -3 243.74 7.07
-4 -7 -3 294.81 7.63
-4 -7 -4 115.07 4.12
-4 -7 -4 126.89 4.74
-4 -7 -4 129.02 4.9
-4 -7 -4 128.84 5.01
-4 -7 -5 297.99 6.54
-4 -7 -5 315.14 6.76
-4 -7 -5 354.03 7.41
-4 -7 -5 344.4 7.31
-4 -7 -5 323.77 6.86
-4 -7 -6 10.28 1.49
-4 -7 -6 9.7 1.42
-4 -7 -6 8.34 1.26
-4 -7 -6 7.77 1.36
-4 -7 -6 8.26 1.33
-4 -7 -7 11.97 1.21
-4 -7 -7 13.71 1.45
-4 -7 -7 10.78 1.19
4 7 8 83.02 2.49
-4 -7 -8 191.22 4.3
4 7 9 51.42 1.71
-4 -7 -9 242.64 4.29
-4 -8 2 400.44 6.93
-4 -8 1 39.29 2.42
-4 -8 -1 12.15 1.61
-4 -8 -1 12.86 1.56
-4 -8 -2 19.21 2.03
-4 -8 -2 17.85 1.96
-4 -8 -3 388.19 7.45
-4 -8 -3 372.66 7.51
-4 -8 -4 428.54 6.76
-4 -8 -4 418.31 7.67
-4 -8 -5 247.68 5.18
-4 -8 -5 250.34 5.19
-4 -8 -6 3.33 1.04
-4 -8 -6 1.27 0.89
-4 -8 -6 1.31 0.84
-4 -8 -7 412.56 4.93
5 -4 -4 156.14 3.31
5 -4 -4 143.31 3.13
5 -4 -3 27.28 1.96
-5 4 3 26.48 1.61
-5 4 3 22.39 1.46
5 -4 -3 21.38 1.79
-5 4 3 24.95 1.6
5 -4 -2 -0.57 1.14
5 -4 -2 0.44 1.18
5 -4 -1 30.09 2.08
-5 4 1 52.24 2.03
-5 4 1 44.39 1.84
5 -4 -1 34.53 2.14
5 -4 -1 28.03 2
5 -4 -1 38.88 2.1
-5 4 1 51.56 2
5 -3 -6 10.28 1.14
5 -3 -6 0.1 0.22
5 -3 -5 54.64 2.31
-5 3 5 61.61 2.21
-5 3 5 50.89 1.94
5 -3 -5 60.59 2.26
5 -3 -5 48.92 2.24
5 -3 -5 59.49 2.21
-5 3 5 64.59 1.89
-5 3 5 62.38 2.28
5 -3 -4 35.36 2.31
-5 3 4 37.07 2.14
-5 3 4 33.88 1.98
5 -3 -4 43.06 2.19
5 -3 -4 39.5 2.27
5 -3 -4 33.77 2.4
-5 3 4 37.49 1.67
5 -3 -4 39 2.23
-5 3 4 38.49 2.18
5 -3 -3 2.83 1.69
-5 3 3 0.4 1.05
-5 3 3 0.49 0.84
5 -3 -3 1.29 1.31
5 -3 -3 1.27 1.35
-5 3 3 0.33 0.85
5 -3 -3 1.81 1.57
-5 3 3 0.69 1.11
-5 3 2 198.83 4.41
5 -3 -2 203.24 4.59
-5 3 2 191.34 3.9
5 -3 -2 222.54 6.53
-5 3 2 219.69 5.53
5 -3 -2 243.5 6.52
-5 3 1 281.76 5.88
5 -3 -1 223.28 4.22
-5 3 1 227.24 4.56
5 -3 -1 256.13 6.17
5 -3 -1 249.74 6.15
-5 3 0 47.3 2.39
5 -3 0 38.44 2.08
-5 3 0 35.48 2.03
5 -3 0 39.85 2.65
5 -3 0 36.21 2.96
5 -3 0 42.57 2.6
-5 3 0 49.03 2.47
5 -3 0 41.91 2.94
5 -3 1 152.48 4.35
-5 3 -1 193.42 4.11
-5 3 -1 195.05 4.08
5 -3 1 164.72 4.2
-5 3 -1 140.36 3.92
5 -3 1 160.54 4.12
5 -3 1 148.61 4.45
5 -3 1 166.38 4.13
-5 3 -1 181.26 3.97
5 -3 2 -0.05 0.4
-5 3 -2 10.25 0.99
5 -3 2 8.07 1.4
-5 3 -2 0.03 0.28
-5 3 -2 7.92 1.21
5 -3 2 5.93 1.14
5 -3 2 6.95 1.32
5 -3 2 -0.02 0.37
-5 3 -2 0.18 0.27
5 -3 3 0.42 1.04
-5 3 -3 1 0.77
5 -2 -8 34.06 1.36
-5 2 8 35.71 1.72
5 -2 -8 31.02 1.27
5 -2 -7 61.17 1.84
5 -2 -7 60.22 2.05
5 -2 -6 629.64 6.16
5 -2 -6 531.65 6.5
-5 2 6 537.36 5.74
5 -2 -6 28.9 1.42
-5 2 5 169.31 4.03
-5 2 5 157.15 3.73
5 -2 -5 153.06 3.21
5 -2 -5 176.18 3.85
5 -2 -5 167.74 4.28
-5 2 5 181.23 3.69
5 -2 -5 177.08 3.93
-5 2 5 170.14 4.13
5 -2 -5 177.84 4.24
-5 2 4 0.11 0.72
5 -2 -4 0.4 1.24
-5 2 4 0.51 1.01
5 -2 -4 0.92 1.12
-5 2 4 0.91 1.08
5 -2 -4 0.65 1.11
-5 2 4 0.56 0.87
5 -2 -4 0.21 1.02
-5 2 4 0.51 1.06
-5 2 3 3.36 1
5 -2 -3 2.14 1.49
-5 2 3 2.08 0.87
-5 2 3 2.71 1.32
-5 2 3 2.84 1.08
5 -2 -3 3.08 1.31
5 -2 -3 2.14 1.26
-5 2 3 2.41 0.87
5 -2 -3 3.42 1.37
-5 2 3 3.31 1.04
5 -2 -3 2.51 1.37
-5 2 3 7.1 1.58
-5 2 2 28.27 2.12
-5 2 2 26.1 1.93
-5 2 2 26.25 1.99
5 -2 -2 28 2.22
5 -2 -2 31.69 2.3
-5 2 2 28.01 1.94
5 -2 -2 27.93 1.98
-5 2 2 24.24 2.39
5 -2 -2 28.78 2.8
-5 2 1 137.64 4.28
-5 2 1 129.04 4.61
-5 2 1 119.32 3.64
5 -2 -1 144.94 4.21
5 -2 -1 131.99 3.62
-5 2 1 142.17 4.3
5 -2 -1 136.3 4.9
5 -2 -1 143.21 4.28
5 -2 -1 130.08 4.8
-5 2 1 140.65 4.07
-5 2 0 187.27 5.21
-5 2 0 194.03 5.37
-5 2 0 222 5.72
5 -2 0 204.44 4.99
5 -2 0 197.46 4.89
-5 2 0 199.18 5.37
5 -2 0 199.62 5.8
5 -2 0 204.69 5.35
5 -2 0 192.9 5.67
-5 2 0 223.69 5.8
-5 2 0 183.92 4.93
5 -2 0 212.43 6.49
-5 2 -1 22.93 1.96
-5 2 -1 25.23 2.19
-5 2 -1 32.7 2.17
5 -2 1 25.29 2.02
5 -2 1 27.7 2.23
-5 2 -1 25.31 2.16
5 -2 1 26.51 2.36
5 -2 1 27.88 2.28
5 -2 1 29.5 2.38
-5 2 -1 30.65 2.18
-5 2 -1 24.06 2.03
5 -2 1 28.96 2.73
-5 2 -2 97.66 3.17
-5 2 -2 85.55 3.67
-5 2 -2 99.59 3.18
5 -2 2 95.99 3.88
-5 2 -2 84.77 3.65
5 -2 2 93.32 3.32
5 -2 2 94.35 3.3
-5 2 -2 95.05 3.13
-5 2 -2 80.48 3.55
5 -2 2 94.37 3.69
-5 2 -3 15.53 1.2
-5 2 -3 52.97 1.99
5 -2 3 49.27 2.95
-5 2 -3 52.2 2.8
5 -2 3 49.59 2.21
5 -2 3 5.52 1.08
5 -2 3 49.98 2.8
-5 2 -3 46.67 2.71
-5 2 -3 0.07 0.39
5 -2 3 8.32 1.24
5 -2 4 9.68 1.71
5 -2 4 11.75 1.56
5 -2 5 30.62 2.04
-5 2 -5 36.4 1.76
-5 1 9 1.51 0.68
-5 1 8 60.84 2.33
5 -1 -8 54.14 1.75
5 -1 -7 120.95 3.06
-5 1 7 110.32 2.85
5 -1 -6 5.44 0.97
5 -1 -6 4.54 0.92
5 -1 -6 5.22 0.94
5 -1 -6 4.01 1.09
5 -1 -6 4.14 1.29
-5 1 6 3.92 1.02
5 -1 -5 189.89 4.08
-5 1 5 140.14 3.91
5 -1 -5 166.5 3.93
-5 1 5 140.91 3.74
-5 1 5 135.88 3.5
5 -1 -5 191.53 3.82
5 -1 -5 169.67 4.32
5 -1 -5 149.22 4.01
5 -1 -5 159.3 3.7
-5 1 5 161.19 3.71
5 -1 -5 155.75 3.65
-5 1 5 144.71 3.87
5 -1 -5 159.52 4.01
5 -1 -4 1.74 0.8
-5 1 4 0.86 0.83
5 -1 -4 0.77 1.16
5 -1 -4 0.3 0.82
5 -1 -4 1.51 0.9
-5 1 4 1.11 1.04
5 -1 -4 0.7 1.04
5 -1 -4 0.52 1.14
-5 1 4 0.69 1.04
-5 1 4 0.45 0.77
5 -1 -4 1.63 1.03
-5 1 4 1.36 0.9
-5 1 4 -0.79 1.11
-5 1 3 1.53 0.92
5 -1 -3 2.05 1.33
5 -1 -3 2.12 0.99
-5 1 3 1.18 0.89
5 -1 -3 1.95 0.96
-5 1 3 0.89 1.21
5 -1 -3 2.28 1.08
5 -1 -3 1.39 1.22
-5 1 3 1.36 1.27
-5 1 3 1.06 0.87
5 -1 -3 2.29 1.21
5 -1 -3 1.59 1.02
-5 1 3 1.29 0.97
-5 1 3 0.69 1.23
5 -1 -3 1.59 1.02
-5 1 3 1.34 1.32
-5 1 2 92.75 3.66
5 -1 -2 89.95 3.26
5 -1 -2 100.61 4.4
-5 1 2 82.88 3.33
-5 1 2 78.84 4.03
5 -1 -2 84.59 2.67
-5 1 2 76.21 3.75
-5 1 2 76.66 3.28
5 -1 -2 89.59 3.56
-5 1 2 83.31 3.32
5 -1 -2 68.34 2.67
-5 1 2 79.82 4.03
5 -1 -2 94.05 3.85
-5 1 2 103.61 4.54
5 -1 -2 80.92 3.09
5 -1 -2 90.87 3.35
-5 1 2 81.87 4.03
5 -1 -2 90.23 4
-5 1 1 701.54 8.94
5 -1 -1 661.74 8.71
-5 1 1 571.62 10.59
5 -1 -1 641.61 11.23
-5 1 1 639.23 9.65
-5 1 1 518.03 8.27
5 -1 -1 691.8 9.77
5 -1 -1 706.9 9.07
5 -1 -1 675.06 9.12
-5 1 1 667.23 9.8
5 -1 -1 583.14 8.15
-5 1 1 561.8 10.58
5 -1 -1 640.99 8.99
5 -1 -1 713.71 9.33
-5 1 1 594.02 10.59
-5 1 1 652.95 9.52
5 -1 -1 598.66 10.35
-5 1 0 38.17 2.54
-5 1 0 41.16 2.96
-5 1 0 40.28 2.6
-5 1 0 41.71 2.85
5 -1 0 38.26 2.5
5 -1 0 42.26 2.51
5 -1 0 41.24 2.55
5 -1 0 39.57 2.33
-5 1 0 40.57 2.68
5 -1 0 37.58 2.15
5 -1 0 33.27 2.7
-5 1 0 39.49 2.96
5 -1 0 32.44 2.67
-5 1 0 41.96 2.72
5 -1 0 39.23 2.49
5 -1 0 36.23 2.26
-5 1 0 39.63 2.53
-5 1 -1 29.95 2.29
-5 1 -1 33.31 2.51
-5 1 -1 34.37 2.45
5 -1 1 26.01 2.1
5 -1 1 28.41 2.23
5 -1 1 33.54 2.54
5 -1 1 33.26 2.42
-5 1 -1 28.11 2.41
5 -1 1 28.55 1.93
5 -1 1 30.2 2.6
5 -1 1 32.77 2.45
-5 1 -1 34.9 2.52
-5 1 -1 30.05 2.35
5 -1 1 29.36 2.79
-5 1 -2 1.58 1.01
5 -1 2 1.58 1.61
-5 1 -2 1.43 1.06
5 -1 2 1.92 1.42
5 -1 2 0.78 1.51
-5 1 -2 0.94 1.11
-5 1 -2 0.84 1.26
5 -1 2 0.93 1.33
-5 1 -2 1.13 1.15
-5 1 -2 1.53 1.08
-5 1 -3 14.7 1.51
-5 1 -3 13.49 1.39
-5 1 -3 12.67 1.66
-5 1 -3 13.73 1.4
5 -1 3 12.39 1.59
5 -1 3 12.11 1.99
5 -1 3 12.86 2.17
5 -1 3 13.35 1.6
-5 1 -3 12.4 1.36
-5 1 -3 11.24 1.79
5 -1 3 13.76 1.82
-5 1 -4 9.67 0.96
-5 1 -4 108.7 3.98
-5 1 -4 86.76 2.5
5 -1 4 102.36 3.99
5 -1 4 90.41 4.24
-5 1 -4 111.8 4.11
-5 1 -4 89.07 3.96
-5 1 -4 0.09 0.27
5 -1 4 15.42 1.46
5 -1 5 344.21 6.32
-5 1 -5 369.74 6.56
5 -1 6 435.27 5.67
5 -1 6 421.08 7.39
-5 1 -6 436.59 5.89
5 0 -9 32.07 1.24
-5 0 9 29.58 1.4
5 0 -8 227.69 3.57
-5 0 8 222.56 4.33
5 0 -7 273.67 4.55
5 0 -7 231.24 4.28
5 0 -6 134.08 3.85
-5 0 6 137.36 3.55
5 0 -5 57.41 2.27
-5 0 5 40.26 2.26
-5 0 5 37.51 2
-5 0 5 37.95 1.89
5 0 -5 54.9 2.24
5 0 -5 36.95 2.63
5 0 -5 46.48 2.37
-5 0 5 34.16 1.83
5 0 -5 47.46 2.42
5 0 -5 46.51 2.02
-5 0 5 45.26 2.13
-5 0 5 40.99 2.14
5 0 -5 45.48 2.14
-5 0 4 43.56 2.47
5 0 -4 60.28 2.4
-5 0 4 50.4 2.56
5 0 -4 53.74 2.53
-5 0 4 51.11 2.64
-5 0 4 48.5 2.47
5 0 -4 58.14 2.48
5 0 -4 51.02 2.97
5 0 -4 48.36 2.45
5 0 -4 51.37 2.49
-5 0 4 50.42 2.46
5 0 -4 53.88 2.19
5 0 -4 52 2.33
5 0 -4 48.6 2.27
-5 0 4 40.2 2.77
-5 0 4 50.53 2.27
-5 0 4 54.9 2.78
5 0 -4 52.56 2.5
-5 0 3 52.45 2.96
5 0 -3 64.35 2.63
-5 0 3 52.97 2.29
-5 0 3 56.13 2.83
5 0 -3 59.57 3
5 0 -3 58.6 2.63
-5 0 3 59.2 3.15
-5 0 3 59.22 3.08
5 0 -3 54.47 2.43
5 0 -3 61 3.11
5 0 -3 55.63 2.53
-5 0 3 54.88 2.64
5 0 -3 45.94 2.18
-5 0 3 57.7 3.23
-5 0 3 41.07 3.08
-5 0 3 55.35 3.1
5 0 -3 57.96 2.57
5 0 -3 63.69 2.31
-5 0 3 58.94 3.22
5 0 -3 58.34 2.79
5 0 -2 157.99 4.08
-5 0 2 142.06 4.96
-5 0 2 151.18 3.73
-5 0 2 156.95 4.72
5 0 -2 166.29 5.12
5 0 -2 165.67 4.25
-5 0 2 155.37 5.27
5 0 -2 153.8 3.99
-5 0 2 149.28 5.08
-5 0 2 152.9 4.55
5 0 -2 164.04 4.7
5 0 -2 146.54 3.89
5 0 -2 149.6 3.92
-5 0 2 164.6 5.55
-5 0 2 144.2 4.3
5 0 -2 130.84 3.74
-5 0 2 154.48 5.29
-5 0 2 168.59 5.7
5 0 -2 142.99 3.83
5 0 -2 149.16 3.98
-5 0 2 161.1 5.49
5 0 -2 157.15 4.72
5 0 -1 514.34 7.32
-5 0 1 480.45 6.69
5 0 -1 563.51 7.84
5 0 -1 478.36 7.04
-5 0 1 498.49 8.3
5 0 -1 534.6 8.09
-5 0 1 441.8 9.11
5 0 -1 545.19 8.11
-5 0 1 483.04 9.78
5 0 -1 508.91 7.54
-5 0 1 497.43 8.3
5 0 -1 496.03 7.47
-5 0 1 434.92 9.14
-5 0 1 556.58 9.69
5 0 -1 466.91 7.28
5 0 -1 524.46 7.51
-5 0 1 474.64 9.57
-5 0 1 487.56 8.25
-5 0 0 507.92 7.19
-5 0 0 518.23 9.04
5 0 0 540.23 7.65
-5 0 0 482.73 8.51
5 0 0 515.13 8.07
5 0 0 480.75 7.35
5 0 0 503.76 7.91
-5 0 0 488.58 8.61
5 0 0 500.91 7.36
5 0 0 528.74 8.43
-5 0 0 547.84 9.37
5 0 0 549.21 8.66
5 0 0 522.56 7.57
5 0 0 543.77 8.17
-5 0 0 476.1 8.48
-5 0 -1 127.52 4.45
5 0 1 146.83 4
-5 0 -1 149.17 5.04
-5 0 -1 144.97 4.88
5 0 1 121.93 4.05
5 0 1 145.61 4.54
5 0 1 139.55 4.29
-5 0 -1 148.01 5.07
5 0 1 148.84 4.69
5 0 1 145.37 3.46
5 0 1 149.1 4.7
-5 0 -1 143.33 4.93
5 0 1 135.9 3.88
-5 0 -1 156.81 5.13
5 0 1 135.06 4.13
-5 0 -1 132.41 4.66
-5 0 -2 1.46 1.11
5 0 2 3.11 1.61
-5 0 -2 3.41 1.12
-5 0 -2 2.33 1.21
-5 0 -2 2.55 1.2
-5 0 -2 2.86 1.19
5 0 2 2.64 1.26
5 0 2 3.75 1.61
-5 0 -2 3.26 1.27
5 0 2 4.07 1.72
5 0 2 4.33 1.57
5 0 2 2.88 0.91
5 0 2 7.31 1.17
5 0 2 2.61 1.51
-5 0 -2 2.56 1.16
5 0 2 1.98 1.01
5 0 2 0.92 1.05
-5 0 -2 3.84 1.36
-5 0 -2 1.99 1.19
-5 0 -3 753.9 9.64
-5 0 -3 860.32 10.44
5 0 3 826.76 11.21
-5 0 -3 812.12 9.8
-5 0 -3 677.55 11.01
-5 0 -3 814.97 9.76
5 0 3 784.47 9.18
-5 0 -3 687.23 11.21
5 0 3 768.7 8.78
5 0 3 800.17 10.04
5 0 3 694.79 8.59
5 0 3 778.37 11.37
5 0 3 788.87 9.79
-5 0 -3 750.46 9.68
-5 0 -3 769.67 9.85
5 0 3 748.62 10.89
-5 0 -3 781.77 9.71
5 0 3 765.29 9.2
5 0 3 771.88 10.42
-5 0 -4 22.43 1.59
-5 0 -4 22.94 1.57
-5 0 -4 22.86 2.11
-5 0 -4 20.31 2.25
5 0 4 23.43 2.54
-5 0 -4 22.92 2.22
5 0 4 22.62 1.69
-5 0 -4 19.84 2.02
5 0 4 22.85 1.78
5 0 4 18.04 1.6
5 0 4 21.4 2.36
5 0 4 24.4 2.24
-5 0 -4 22.02 1.59
5 0 4 19.07 1.83
-5 0 -5 35.78 2.3
-5 0 -5 21.66 2.36
5 0 5 23.17 1.74
5 0 5 30.41 2.59
5 0 5 36.5 2.78
-5 0 -5 44.56 2.57
-5 0 -5 22.41 2.17
5 0 5 34.97 2.55
5 0 5 34.33 2.28
-5 0 -5 32.01 2.5
5 0 6 129.19 4.19
5 0 6 131.84 4.12
-5 0 -6 134.63 3.65
5 0 6 142.2 3.85
-5 0 -6 130.36 4.21
-5 0 -7 22.52 1.96
5 0 7 20.86 1.72
-5 0 -7 20.77 1.75
-5 0 -8 11.32 1.21
5 1 -9 50.71 1.44
5 1 -8 177.07 3.11
-5 -1 8 154.29 3.48
5 1 -7 67.51 2.31
5 1 -7 65.86 2.19
5 1 -7 64.08 1.92
5 1 -6 47.84 2.37
-5 -1 6 45.44 3.05
5 1 -6 54.59 2.15
-5 -1 6 57.34 2.97
5 1 -6 48.35 2.35
5 1 -6 44.51 2.33
-5 -1 6 41.18 2.1
5 1 -6 54.57 1.88
5 1 -6 56.17 2.15
5 1 -5 31.02 2.04
-5 -1 5 25.77 2.72
-5 -1 5 39.84 2.79
5 1 -5 22.73 2.25
5 1 -5 33.44 2.13
5 1 -5 33.9 2.18
-5 -1 5 30.28 1.87
5 1 -5 31.88 1.54
5 1 -5 32.5 2.15
5 1 -5 33.27 1.81
5 1 -5 30.03 1.76
5 1 -4 11.55 1.39
-5 -1 4 10.26 1.46
5 1 -4 13.04 1.5
-5 -1 4 15.9 2.38
-5 -1 4 10.11 1.34
-5 -1 4 11.58 1.5
-5 -1 4 14.34 2.13
5 1 -4 9.47 1.67
5 1 -4 10.3 1.43
-5 -1 4 10.99 1.39
5 1 -4 12.74 1.57
-5 -1 4 11.91 1.43
5 1 -4 11.49 1.35
5 1 -4 13.26 1.5
5 1 -4 10.55 1.21
-5 -1 4 11.91 1.54
5 1 -4 12.86 1.3
-5 -1 4 9.82 1.24
5 1 -3 633.91 8.44
-5 -1 3 617.39 9.28
-5 -1 3 814.9 12.7
-5 -1 3 643.68 9.63
-5 -1 3 623.52 9.21
5 1 -3 645.44 10.16
5 1 -3 644.31 8.37
5 1 -3 613.79 7.78
-5 -1 3 558.55 8.28
5 1 -3 492.77 7.82
-5 -1 3 589.15 9.26
5 1 -3 618.83 8.14
5 1 -3 557.4 7.42
-5 -1 3 666 10.04
-5 -1 3 671.77 10.16
5 1 -3 639.81 7.51
-5 -1 3 626.29 9.33
-5 -1 2 330.86 7.34
5 1 -2 346.85 6.15
-5 -1 2 319.9 5.5
5 1 -2 316.62 5.74
-5 -1 2 363.06 7.84
-5 -1 2 324.35 7.26
5 1 -2 340.32 6.84
5 1 -2 314.44 5.81
5 1 -2 297.36 5.36
-5 -1 2 313.37 6.22
5 1 -2 287 6
5 1 -2 303.88 5.55
-5 -1 2 318.21 5.67
-5 -1 2 343.37 7.76
-5 -1 2 351.58 7.98
5 1 -2 303.13 5.32
-5 -1 2 338.34 7.74
5 1 -2 313.37 5.81
5 1 -1 745.16 8.99
-5 -1 1 628.15 10.85
-5 -1 1 794.32 10.96
5 1 -1 711.03 8.86
-5 -1 1 689.7 11.38
-5 -1 1 668.43 11.01
-5 -1 1 717.35 10.07
5 1 -1 710.84 9.2
5 1 -1 675.86 8.37
-5 -1 1 695.49 9.7
5 1 -1 672.73 8.99
5 1 -1 709.76 8.88
5 1 -1 744.71 8.85
5 1 -1 626.49 7.83
-5 -1 1 715.1 11.95
-5 -1 1 673.95 11.46
-5 -1 1 687.9 8.63
5 1 -1 718 9.13
5 1 -1 649.05 8.23
5 1 -1 691.62 8.07
-5 -1 1 695.07 11.61
5 1 0 839.15 9.52
-5 -1 0 853.32 11.55
5 1 0 790.9 9.38
-5 -1 0 669.54 11.34
5 1 0 771.97 8.99
-5 -1 0 908.51 11.15
5 1 0 740.8 9.12
5 1 0 764.35 9.41
5 1 0 759.26 9.51
-5 -1 0 702.6 11.87
5 1 0 779.28 8.64
-5 -1 0 651.25 11.35
-5 -1 0 743.25 9.13
5 1 0 763.84 9.7
-5 -1 0 694.71 11.67
5 1 0 762.83 9.47
-5 -1 0 759.34 10.53
5 1 1 190.93 4.34
-5 -1 -1 171.49 5.5
-5 -1 -1 185.06 5.36
5 1 1 191.58 4.61
-5 -1 -1 193.16 5.69
-5 -1 -1 182.24 5.27
-5 -1 -1 212.75 5.31
5 1 1 184.15 4.79
5 1 1 188.92 4.93
5 1 1 194.76 4.48
5 1 1 190.39 5
5 1 1 190.89 4.02
-5 -1 -1 210.93 6.13
5 1 1 192.38 5.09
5 1 1 188.03 4.7
-5 -1 -1 185.05 5.35
5 1 2 136.9 3.62
-5 -1 -2 173.82 5.13
-5 -1 -2 136.41 4.41
5 1 2 167.75 4.41
-5 -1 -2 186.35 5.28
-5 -1 -2 176.19 5.11
-5 -1 -2 161.09 5.14
-5 -1 -2 156.51 4.65
-5 -1 -2 157.09 4.61
5 1 2 166.88 4.95
5 1 2 170.22 5.02
-5 -1 -2 169.14 5.34
5 1 2 163.22 3.99
5 1 2 176.5 5.17
5 1 2 159.7 3.53
-5 -1 -2 178.57 5.25
-5 -1 -2 182.77 5.32
-5 -1 -2 186.03 5.29
5 1 2 153.03 4.43
-5 -1 -3 1010.72 11.58
-5 -1 -3 1103.53 11.75
5 1 3 908.95 10.78
-5 -1 -3 1082.73 11.84
-5 -1 -3 1070.4 11.66
-5 -1 -3 866.52 12.3
-5 -1 -3 989.23 12.96
-5 -1 -3 936.83 11.59
5 1 3 1100.27 13.5
5 1 3 1061.29 13.41
-5 -1 -3 943.86 12.98
5 1 3 1040.5 10.22
5 1 3 1021.84 9.44
-5 -1 -3 1014.06 11.77
-5 -1 -3 1036.43 11.75
-5 -1 -3 1000.46 11.67
5 1 3 858.07 10.83
-5 -1 -3 955.17 13.57
5 1 4 823.48 9.9
-5 -1 -4 832 9.6
-5 -1 -4 904.19 9.87
-5 -1 -4 915.9 9.88
-5 -1 -4 797.41 11.31
-5 -1 -4 943.07 13.5
-5 -1 -4 944.59 11.3
-5 -1 -4 908.85 10.06
5 1 4 969.7 13.51
-5 -1 -4 843.59 11.96
5 1 4 1021.52 9.79
-5 -1 -4 984.02 13.1
5 1 4 1085.92 10.24
5 1 4 1056.28 14.13
5 1 4 886.62 12.4
-5 -1 -4 805.55 9.41
-5 -1 -4 894.05 9.99
5 1 4 879.75 10.53
-5 -1 -4 831.9 12.7
-5 -1 -4 808.04 9.16
-5 -1 -5 10.31 1.12
-5 -1 -5 8.57 1.12
-5 -1 -5 14.54 1.59
-5 -1 -5 9.71 2.02
-5 -1 -5 15.67 1.65
-5 -1 -5 8.94 1.1
-5 -1 -5 14.61 1.74
5 1 5 11.49 1.29
-5 -1 -5 10.64 1.98
5 1 5 9.94 1.29
5 1 5 13.21 2.14
5 1 5 12.36 2.38
5 1 5 10.63 1.83
-5 -1 -5 8.58 1.11
-5 -1 -5 9.62 1.65
5 1 5 8.35 1.31
-5 -1 -6 107.56 4.66
5 1 6 143.69 4.96
5 1 6 141.87 4.81
-5 -1 -6 159.57 4.1
-5 -1 -6 109.77 4.6
5 1 6 154.96 4.78
5 1 6 152.58 4.43
-5 -1 -6 142.59 4.62
-5 -1 -7 12.39 1.95
5 1 7 10.89 1.83
5 1 7 12.39 1.8
-5 -1 -7 8.6 1.74
5 1 7 12.02 1.62
5 1 7 10.04 1.3
-5 -1 -7 10.03 1.25
-5 -1 -8 0.8 1.11
5 1 8 1.25 1.08
5 1 8 0.32 1
-5 -1 -8 1.08 1.1
5 1 8 0.09 0.3
-5 -1 -9 114.33 3.01
5 1 9 102.15 2.9
5 2 -8 277.25 3.77
5 2 -8 289.38 4.08
-5 -2 7 303.2 6.25
5 2 -7 313.65 4.63
-5 -2 7 288.52 5.1
5 2 -7 342.19 4.67
5 2 -7 319.92 4.59
5 2 -7 335.55 4.38
5 2 -6 215.18 4.42
5 2 -6 200.06 4.59
5 2 -6 212.37 4.22
-5 -2 6 204.47 5.06
5 2 -6 207.51 3.9
5 2 -6 214.56 4.06
5 2 -5 0.78 0.96
5 2 -5 0.72 0.96
5 2 -5 1.01 1.04
-5 -2 5 2.15 1.74
5 2 -5 0.99 1.02
-5 -2 5 1.23 1.45
5 2 -5 0.91 1.14
5 2 -5 1.57 1.15
5 2 -5 0.38 0.87
5 2 -5 0.14 1.12
5 2 -4 339.84 6.22
5 2 -4 369.64 6.54
-5 -2 4 327.04 8.23
-5 -2 4 288.65 5.21
-5 -2 4 272.48 5.45
-5 -2 4 413.49 8.17
5 2 -4 248.6 6.81
5 2 -4 347.11 6.07
-5 -2 4 280.76 5.13
5 2 -4 384.18 6.04
5 2 -4 364.86 7.02
5 2 -4 343.92 6.21
5 2 -4 296.75 5.53
-5 -2 4 259.64 5.37
5 2 -4 346.76 6.03
5 2 -3 22.13 1.73
-5 -2 3 24.25 2.69
-5 -2 3 19.87 1.8
-5 -2 3 21.23 1.98
-5 -2 3 27.6 2.62
5 2 -3 18.15 2.06
5 2 -3 21.26 1.7
-5 -2 3 21.97 1.89
5 2 -3 22.45 1.72
-5 -2 3 22.39 1.87
5 2 -3 17.81 1.9
-5 -2 3 19.24 1.93
-5 -2 3 22.34 1.82
5 2 -3 21.18 1.68
5 2 -3 20.96 1.63
-5 -2 3 19.05 1.97
-5 -2 3 17.77 1.88
-5 -2 3 17.71 1.7
5 2 -2 364.58 6.27
5 2 -2 359.18 6.26
-5 -2 2 373.37 7.51
-5 -2 2 396.78 8.06
-5 -2 2 378.18 7.74
5 2 -2 371.24 7.27
-5 -2 2 394.54 8.05
-5 -2 2 389.5 7.7
5 2 -2 336.8 5.6
-5 -2 2 379.94 6.92
5 2 -2 334.05 7.18
5 2 -2 366.91 7.31
-5 -2 2 374.89 6.28
5 2 -2 391.36 6.34
5 2 -2 334.52 5.86
-5 -2 2 417.64 8.49
-5 -2 2 343.61 7.28
5 2 -2 341.62 5.99
-5 -2 2 362.69 7.19
5 2 -1 157.38 4.01
-5 -2 1 196.57 5.52
-5 -2 1 172.41 5.71
-5 -2 1 180.6 5.78
-5 -2 1 179.1 5.61
-5 -2 1 179.74 4.91
5 2 -1 171.37 4.43
-5 -2 1 167.5 5.52
-5 -2 1 194.95 5.81
5 2 -1 162.39 3.96
5 2 -1 177.2 4.82
-5 -2 1 173.16 4.29
5 2 -1 162.41 4.1
-5 -2 1 174.12 5.67
-5 -2 1 186.35 6.06
5 2 -1 150 3.98
-5 -2 1 163.98 5.25
5 2 0 244.08 5.04
-5 -2 0 236.58 6.8
-5 -2 0 300.1 6.88
-5 -2 0 247.87 6.92
-5 -2 0 262.95 5.46
-5 -2 0 264.61 5.81
5 2 0 234.54 4.71
5 2 0 233.58 4.77
5 2 0 234.59 4.96
5 2 0 265.87 5.64
-5 -2 0 264.74 5.32
5 2 0 234.25 5.06
-5 -2 0 229.26 6.69
-5 -2 0 251.14 7.14
5 2 0 229.8 5.05
-5 -2 -1 119.96 4.42
5 2 1 105.77 3.56
-5 -2 -1 100.09 4.33
-5 -2 -1 125.22 4.35
-5 -2 -1 108.57 3.72
-5 -2 -1 111.38 3.82
-5 -2 -1 93.25 4.26
5 2 1 102.35 3.39
5 2 1 105.52 3.47
-5 -2 -1 123.81 4.29
5 2 1 113.29 3.58
5 2 1 104.37 3.57
5 2 1 113.9 3.55
-5 -2 -1 104.58 3.36
5 2 1 107.44 3.69
-5 -2 -1 83.66 3.88
-5 -2 -2 876.39 11.97
-5 -2 -2 757.55 10.56
5 2 2 778.38 10.07
-5 -2 -2 917.5 12.27
-5 -2 -2 895.67 11.98
-5 -2 -2 830.25 11.4
-5 -2 -2 784.82 10.75
-5 -2 -2 815.07 10.86
-5 -2 -2 859.44 11.99
5 2 2 802.41 10.39
5 2 2 805.84 10.5
-5 -2 -2 866.23 11.85
5 2 2 800.66 9.22
5 2 2 803.05 10.56
5 2 2 806.56 9.08
-5 -2 -2 689.2 8.51
5 2 2 792.52 10.07
5 2 2 806.55 10.75
5 2 2 816.75 8.52
-5 -2 -2 856.46 11.88
-5 -2 -2 930.82 12.54
-5 -2 -2 808.3 11.47
5 2 2 847.82 12.06
-5 -2 -2 789.41 11.05
-5 -2 -3 1205.93 12.06
-5 -2 -3 1226.18 13.06
-5 -2 -3 1218.58 13.28
-5 -2 -3 945.25 12.32
-5 -2 -3 1088.69 13.74
-5 -2 -3 1118.76 12.7
-5 -2 -3 1049.76 12.98
-5 -2 -3 1203.56 13.08
5 2 3 1172.81 13.86
5 2 3 1121.69 13.47
-5 -2 -3 1082.15 13.49
5 2 3 1065.98 10.32
5 2 3 1072.49 10.21
5 2 3 1162.81 13.37
5 2 3 1071.95 9.31
-5 -2 -3 1202.58 13.32
-5 -2 -3 1049.26 12.01
-5 -2 -3 1067 13.81
-5 -2 -3 1076.89 12.01
-5 -2 -4 56.46 2.58
-5 -2 -4 48 2.49
-5 -2 -4 36.38 2.35
-5 -2 -4 45.99 3.25
-5 -2 -4 43.32 2.76
-5 -2 -4 60.48 2.67
-5 -2 -4 43.45 2.7
-5 -2 -4 50.99 3.18
5 2 4 48.92 2.1
5 2 4 49.32 2.12
-5 -2 -4 42.09 2.32
5 2 4 50.15 3.3
5 2 4 52.79 2.01
-5 -2 -4 47.14 2.45
-5 -2 -4 40.75 2.32
-5 -2 -4 43.96 2.9
-5 -2 -4 52.98 2.41
-5 -2 -5 2.72 0.8
-5 -2 -5 1.62 1.65
-5 -2 -5 1.45 1.29
-5 -2 -5 3.75 0.91
-5 -2 -5 3.94 0.89
-5 -2 -5 2.54 1.09
-5 -2 -5 1.61 1.52
5 2 5 2.74 0.81
5 2 5 2.03 0.86
5 2 5 1.81 1.93
-5 -2 -5 4.18 0.91
-5 -2 -5 2.56 1.15
5 2 5 -0.57 1.69
-5 -2 -6 88.75 4.52
-5 -2 -6 140.95 4.37
-5 -2 -6 119.01 3.35
-5 -2 -6 84.85 4.33
5 2 6 96.07 4.68
-5 -2 -6 110.61 3.93
5 2 7 46.53 3.03
-5 -2 -7 61.19 3.62
-5 -2 -7 84.04 3.07
5 2 7 65.24 3.43
-5 -2 -7 49.91 3.34
5 2 7 67.28 3.26
5 2 7 66.47 3.11
-5 -2 -7 55.64 2.47
-5 -2 -8 396.85 7.78
5 2 8 388.07 7
5 2 8 381.9 6.62
-5 -2 -8 397.92 7.75
5 2 8 379.4 6.22
5 2 8 371.16 5.85
-5 -2 -9 265.92 5.18
5 2 9 263.9 4.51
5 2 9 266.18 4.28
-5 -2 -9 270.51 5.18
-5 -3 8 278.22 4.21
5 3 -8 314.57 3.89
-5 -3 7 37.95 2.3
5 3 -7 42.46 1.54
-5 -3 7 35.24 1.72
5 3 -6 7.36 1.08
-5 -3 6 5.64 1.69
5 3 -6 7.21 1.15
-5 -3 6 6.69 1.35
5 3 -6 6.74 1.09
5 3 -6 5.65 0.99
5 3 -6 7.51 1.22
5 3 -5 2.32 1.05
5 3 -5 1.02 1.14
-5 -3 5 0.14 1.68
5 3 -5 1.7 1.46
-5 -3 5 3.94 1.98
5 3 -5 0.39 0.8
5 3 -4 98.42 3.43
5 3 -4 100.25 3.44
-5 -3 4 67.36 3.99
-5 -3 4 94.39 3.92
5 3 -4 54.08 3.11
-5 -3 4 66.46 2.33
5 3 -4 97.88 3.13
5 3 -4 102.61 3.98
5 3 -4 96.59 3.25
5 3 -4 86.98 3.13
5 3 -3 801.86 9.77
5 3 -3 804.52 9.56
-5 -3 3 698.99 8.86
-5 -3 3 616.5 9.04
-5 -3 3 728.93 10.67
5 3 -3 538.9 9.37
-5 -3 3 711.58 8.92
5 3 -3 725.84 8.57
5 3 -3 552.72 9.95
-5 -3 3 639.21 9.05
5 3 -3 780.78 9.13
-5 -3 3 690.42 9.56
-5 -3 3 639.89 8.54
-5 -3 3 645.05 9.47
5 3 -2 255.38 5.27
5 3 -2 268.43 5.48
-5 -3 2 298.18 7.44
-5 -3 2 280.21 6.29
-5 -3 2 282.85 6.78
-5 -3 2 231.95 5.72
5 3 -2 257.04 6.18
-5 -3 2 279.15 6.27
5 3 -2 245.59 4.63
5 3 -2 231.14 6.4
-5 -3 2 242 5.52
-5 -3 2 267.61 6.67
5 3 -2 242.63 4.97
-5 -3 2 285.48 6.92
5 3 -2 249.68 5.03
-5 -3 2 270.57 6.05
-5 -3 2 263.89 6.46
5 3 -1 190.19 4.57
-5 -3 1 215.48 6.06
-5 -3 1 235.16 6.38
-5 -3 1 231.41 6.74
-5 -3 1 229.54 6.71
-5 -3 1 208 4.81
-5 -3 1 215.44 5.07
-5 -3 1 218.37 6.16
-5 -3 1 200.85 5.05
5 3 -1 190.16 4.21
-5 -3 1 236.3 6.81
5 3 -1 184.89 4.4
-5 -3 1 222.42 6.5
-5 -3 1 214.53 5.9
5 3 0 128.5 3.8
-5 -3 0 154.32 4.87
-5 -3 0 159.12 5.56
-5 -3 0 154.8 5.82
-5 -3 0 143.92 4.13
-5 -3 0 147.33 5.52
-5 -3 0 176.4 5.01
5 3 0 150.76 4.71
5 3 0 132.34 3.56
5 3 0 152.86 4.71
-5 -3 0 148.12 4.19
5 3 0 136.3 3.77
-5 -3 0 157.96 5.92
5 3 0 124.79 3.77
-5 -3 0 151.36 5.61
-5 -3 0 158.7 5.91
-5 -3 0 143.99 5.18
5 3 0 142.9 4.16
5 3 1 218.49 5.11
-5 -3 -1 244.51 7.14
-5 -3 -1 238.29 5.61
5 3 1 216.99 4.58
5 3 1 218.17 4.65
5 3 1 257.16 5.84
5 3 1 218.11 4.79
5 3 1 246.47 5.68
-5 -3 -1 236.9 4.99
-5 -3 -1 246.71 7.24
-5 -3 -1 240.05 7.15
-5 -3 -1 230.92 6.89
5 3 1 240.03 5.72
-5 -3 -2 236.07 6.37
-5 -3 -2 193.82 5.36
-5 -3 -2 228.9 6.37
-5 -3 -2 236.53 5.97
5 3 2 192.52 4.54
5 3 2 185.12 4.44
-5 -3 -2 226.58 6.43
-5 -3 -2 236.64 6.69
-5 -3 -2 208.96 5.88
5 3 2 216.64 5.9
-5 -3 -3 499.96 8.98
-5 -3 -3 531.56 8.95
-5 -3 -3 542.99 9.31
-5 -3 -3 441.79 8.61
-5 -3 -3 410.4 7.87
-5 -3 -3 526.51 8.83
-5 -3 -3 458.57 8.27
5 3 3 419.97 6.37
5 3 3 439.19 7.65
5 3 3 451.34 6.74
-5 -3 -3 520.2 9.07
-5 -3 -3 496.45 8.84
-5 -3 -3 486.48 8.26
5 3 3 424.42 8.8
-5 -3 -4 239.1 5.46
-5 -3 -4 238.23 5.64
-5 -3 -4 228.77 6.62
-5 -3 -4 199.53 5.7
-5 -3 -4 237.19 5.45
-5 -3 -4 202.03 5.16
5 3 4 231.44 4.48
-5 -3 -4 230.34 5.51
5 3 4 249.06 6.46
5 3 4 226.32 4.37
-5 -3 -4 238.41 5.65
5 3 4 231.67 6
-5 -3 -4 218.8 5.31
-5 -3 -4 224.26 5.12
-5 -3 -5 26.03 1.76
-5 -3 -5 23.89 1.78
-5 -3 -5 25.34 2.76
-5 -3 -5 27.39 1.74
-5 -3 -5 23.68 2.25
-5 -3 -5 25.01 1.69
5 3 5 26.92 1.59
5 3 5 28.78 1.72
5 3 5 26.02 2.79
5 3 5 29.63 1.73
5 3 5 24.16 2.66
-5 -3 -5 25.23 1.79
-5 -3 -5 21.13 1.62
-5 -3 -5 22.58 1.75
-5 -3 -6 23.78 1.6
-5 -3 -6 26.08 2.86
-5 -3 -6 37.4 2.63
5 3 6 35.79 1.95
-5 -3 -6 25.61 2.69
5 3 6 32.49 1.85
5 3 6 27.61 3
5 3 6 35.19 1.95
5 3 6 28.21 2.92
-5 -3 -6 24.61 1.58
5 3 6 35.02 2.92
-5 -3 -7 4.64 1.8
-5 -3 -7 7.96 1.48
-5 -3 -7 4.95 1.74
5 3 7 8.36 2.29
5 3 7 10.4 2.26
5 3 7 3.68 1.52
-5 -3 -8 154.11 4.08
5 3 8 126.98 4.69
5 3 9 107.73 3.53
5 3 9 104.83 3.31
5 3 9 104.71 3.05
5 3 9 97.17 2.84
-5 -3 -10 127.62 2.96
5 3 10 124.99 2.74
5 3 10 119.68 2.54
-5 -4 7 170.57 3.77
-5 -4 6 0.7 1.33
-5 -4 6 1.32 0.98
5 4 -6 0.37 0.78
5 4 -5 29.36 1.83
-5 -4 5 22.81 2.44
5 4 -5 30.41 1.75
-5 -4 5 32.11 2.13
5 4 -5 27.81 1.72
5 4 -5 29.14 1.73
5 4 -5 38.21 2.17
5 4 -5 31.31 1.96
5 4 -4 63.52 2.72
-5 -4 4 57.02 2.9
5 4 -4 58.71 2.57
5 4 -3 163 4.34
5 4 -3 169.35 4.14
-5 -4 3 124.16 3.32
-5 -4 3 147.13 5.55
-5 -4 3 123.43 3.7
-5 -4 3 126.75 3.42
5 4 -3 119.9 4.64
5 4 -3 155.44 3.74
5 4 -3 144.01 4.01
-5 -4 3 129.95 3.74
5 4 -2 243.39 5.16
-5 -4 2 212.87 5.57
5 4 -2 257.67 5.21
-5 -4 2 257.34 6.95
-5 -4 2 224.15 5.24
-5 -4 2 224.04 5.78
-5 -4 2 236.98 5.47
5 4 -2 242.92 4.79
-5 -4 2 229.69 5.83
5 4 -2 229.55 4.62
-5 -4 2 226.6 5.3
5 4 -1 210.4 4.85
-5 -4 1 241.41 6.8
5 4 -1 202.96 4.67
-5 -4 1 236.08 6.29
-5 -4 1 240.88 6.11
-5 -4 1 244.76 6.75
-5 -4 1 237.7 6.14
5 4 -1 211.65 6.13
-5 -4 1 245.84 6.77
5 4 -1 202.22 4.5
-5 -4 1 242.14 6.2
-5 -4 0 18.34 2.53
5 4 0 15.51 1.56
-5 -4 0 18.89 1.99
-5 -4 0 20.24 2.39
-5 -4 0 18.51 2.56
-5 -4 0 17.6 1.59
-5 -4 0 20.56 2.43
5 4 0 20.42 2.09
-5 -4 0 17.6 2.54
-5 -4 0 17.5 2.47
5 4 0 15.84 1.51
-5 -4 0 18.15 2.24
5 4 0 14.07 1.46
5 4 1 455.15 7.37
-5 -4 -1 481.17 7.88
-5 -4 -1 555.58 11.15
-5 -4 -1 484.01 7.72
-5 -4 -1 521.63 10.74
5 4 1 550.95 8.94
-5 -4 -1 524.48 10.82
5 4 1 484.67 7.85
-5 -4 -1 546.77 11.24
-5 -4 -2 144.26 5.25
-5 -4 -2 148.34 4.74
-5 -4 -2 136.06 4.29
-5 -4 -2 147.63 5.33
5 4 2 148.65 4.3
5 4 2 145.88 4.38
-5 -4 -2 149.35 5.31
5 4 2 145.82 4.7
-5 -4 -3 118.24 4.73
-5 -4 -3 113.77 4.38
-5 -4 -3 113.61 4.62
-5 -4 -3 94.39 4.07
-5 -4 -3 90.83 3.69
-5 -4 -3 113.42 4.37
-5 -4 -3 117.57 4.02
5 4 3 91.48 3
5 4 3 97.52 3.42
5 4 3 93.42 3.31
-5 -4 -3 116.96 4.67
-5 -4 -3 115.16 4.31
5 4 3 96.63 4.24
-5 -4 -4 50.74 2.95
-5 -4 -4 54.65 2.86
-5 -4 -4 54.63 3.01
-5 -4 -4 53.76 3.36
-5 -4 -4 52.76 2.86
5 4 4 45.72 2.04
5 4 4 49.33 2.36
5 4 4 48.67 2.85
5 4 4 53.31 2.53
5 4 4 43.78 2.6
-5 -4 -4 52.77 2.94
-5 -4 -4 52.33 2.8
5 4 4 41.79 3.22
-5 -4 -5 8.6 1.28
-5 -4 -5 8.07 1.32
-5 -4 -5 8.72 1.42
-5 -4 -5 8.76 2
-5 -4 -5 8.82 1.33
-5 -4 -5 7.8 1.64
5 4 5 10.7 1.28
5 4 5 10.55 2.09
5 4 5 9.07 1.25
5 4 5 7.38 1.83
-5 -4 -5 7.6 1.37
-5 -4 -5 8.52 1.22
5 4 5 10.57 2.33
-5 -4 -6 0.83 0.73
-5 -4 -6 1.2 1.35
-5 -4 -6 1.24 0.79
-5 -4 -6 1.16 0.84
5 4 6 1.31 0.83
5 4 6 0.59 1.77
5 4 6 0.84 0.92
5 4 6 0.92 1.66
-5 -4 -6 1.24 0.82
-5 -4 -7 84.4 3.65
5 4 7 72.79 4.08
5 4 7 69.54 3.78
5 4 7 92.97 4.07
-5 -4 -8 385.6 7.86
5 4 8 365.63 7.82
5 4 8 386.19 7.01
5 4 9 371.96 6.93
5 4 9 355.64 6.67
-5 -4 -10 119.62 2.79
-5 -4 -10 123.28 2.42
5 4 10 121.2 3.07
5 4 10 119.96 2.88
5 5 -6 5.91 0.84
-5 -5 5 198.85 4.08
5 5 -5 247.8 3.85
5 5 -4 765.38 8.19
5 5 -4 812.9 8.75
5 5 -3 371.97 5.92
-5 -5 3 376.71 7.11
5 5 -3 384.4 6.28
5 5 -2 26.82 1.82
-5 -5 2 24.17 1.75
-5 -5 2 25.39 2.5
-5 -5 2 24.14 1.85
-5 -5 2 25.08 2
-5 -5 2 26.31 2.53
-5 -5 2 25 1.93
5 5 -1 717.25 8.89
5 5 -1 722.99 8.35
-5 -5 1 765.21 10.19
-5 -5 1 773.61 10.91
-5 -5 1 750.47 11.11
-5 -5 1 781.2 10.6
5 5 -1 596.83 10.16
-5 -5 1 803.48 11.69
5 5 -1 657.52 7.45
-5 -5 1 781.98 11.23
5 5 0 50.62 2.31
-5 -5 0 53.63 2.74
-5 -5 0 60.87 3.33
-5 -5 0 51.45 3.36
-5 -5 0 57.55 3.63
-5 -5 0 61.88 3.44
-5 -5 0 52.24 2.17
5 5 0 52.32 3
-5 -5 0 54.08 3.24
-5 -5 0 58.9 3.61
5 5 0 49.24 2.2
-5 -5 0 56.29 3.2
5 5 1 53.45 2.46
-5 -5 -1 53.5 2.54
-5 -5 -1 57.59 3.73
-5 -5 -1 58.78 3.89
-5 -5 -1 55.71 2.4
5 5 1 60.22 3.02
-5 -5 -1 57.63 3.08
5 5 1 58.84 3
-5 -5 -1 61.93 3.88
-5 -5 -1 58.2 3.43
5 5 1 56.93 2.55
-5 -5 -2 767.88 12.21
-5 -5 -2 762.61 9.52
5 5 2 863.57 10.51
5 5 2 838.65 10.61
-5 -5 -2 811.09 13.22
-5 -5 -2 691.75 11.35
5 5 2 817.78 10.63
-5 -5 -3 918.59 12.58
-5 -5 -3 874.89 12.77
-5 -5 -3 964.74 13.59
-5 -5 -3 917.5 12.68
-5 -5 -3 750.86 10.06
5 5 3 788.63 9.08
5 5 3 874.53 10.55
-5 -5 -3 831.25 11.79
5 5 3 831.82 11.65
-5 -5 -4 55.03 2.92
-5 -5 -4 48.53 2.93
-5 -5 -4 54.71 3.12
-5 -5 -4 56.03 2.97
-5 -5 -4 43.48 2.61
5 5 4 49.21 2.27
-5 -5 -4 57.03 3.16
-5 -5 -4 49.33 2.75
5 5 4 44.06 3
-5 -5 -5 43.71 2.34
-5 -5 -5 41.73 2.51
-5 -5 -5 44.55 2.39
-5 -5 -5 44.81 2.81
5 5 5 44.71 2.08
5 5 5 43.2 2.73
-5 -5 -5 40.52 2.45
5 5 5 38.2 3.06
-5 -5 -6 0.89 0.76
-5 -5 -6 0.86 1.51
-5 -5 -6 1.08 0.81
-5 -5 -6 0.98 0.9
5 5 6 0.47 1.37
-5 -5 -6 1.4 0.88
5 5 6 2.9 1.83
-5 -5 -7 63.31 3.45
5 5 7 53.26 3.08
-5 -5 -8 11 1.69
-5 -5 -8 13.27 1.6
5 5 8 10.85 1.97
5 5 8 9.87 1.74
5 5 8 11.91 1.8
-5 -5 -9 196.81 4.24
-5 -5 -9 197.63 4.29
-5 -5 -10 31.55 1.41
-5 -6 5 40.31 1.75
-5 -6 4 16.44 1.64
-5 -6 3 37.88 2.36
-5 -6 3 58.45 2.65
-5 -6 2 108.32 3.74
-5 -6 2 103.08 2.88
-5 -6 2 101.05 3.04
-5 -6 2 117.01 3.92
5 6 -2 112.34 2.91
-5 -6 2 105.42 3.02
5 6 -1 3.5 0.96
5 6 -1 4.9 0.89
-5 -6 1 5.02 1.33
-5 -6 1 2.6 1.07
-5 -6 1 3.52 1.24
-5 -6 1 4.1 1.28
-5 -6 1 3.12 1.56
-5 -6 1 4.2 1.29
5 6 0 72.87 2.57
-5 -6 0 84.31 3.48
-5 -6 0 73.79 2.79
-5 -6 0 83.48 3.67
-5 -6 0 82.52 3.86
-5 -6 0 66.6 3.15
-5 -6 0 81.78 3.79
-5 -6 -1 922.43 12.53
-5 -6 -1 920.2 12.83
-5 -6 -1 934.19 13.7
-5 -6 -1 907.06 10.01
-5 -6 -1 924.74 13.47
5 6 2 179 4.01
-5 -6 -2 204.42 6.53
-5 -6 -2 183.23 3.82
-5 -6 -2 201.37 6.39
-5 -6 -3 60.57 3.42
-5 -6 -3 61.79 3.48
-5 -6 -3 58.54 2.42
5 6 3 60.62 2.84
-5 -6 -4 7.28 1.52
-5 -6 -4 5.6 1.21
-5 -6 -4 7.3 1.6
-5 -6 -4 8.79 1.71
-5 -6 -4 9.02 1.7
5 6 4 6.11 1.38
-5 -6 -5 5.86 1.22
-5 -6 -5 5.48 1.26
-5 -6 -5 5.48 1.27
-5 -6 -5 5.87 1.36
-5 -6 -5 5.22 1.3
5 6 5 5.12 1.42
-5 -6 -6 259.88 4.78
-5 -6 -6 269.8 4.96
-5 -6 -6 240.09 5.62
-5 -6 -6 242.9 4.91
-5 -6 -6 248.9 5.04
5 6 6 235.77 6.14
-5 -6 -7 -0.12 0.24
-5 -6 -7 0.05 0.23
-5 -6 -8 408.12 6.52
5 6 8 322.85 5.71
-5 -7 1 0.51 0.81
-5 -7 1 0.38 0.83
-5 -7 0 34.63 2.14
-5 -7 0 32.74 2.24
-5 -7 0 35.12 2.24
-5 -7 -1 50.55 2.86
-5 -7 -1 52.87 3.09
-5 -7 -1 54.61 3.02
-5 -7 -2 15.78 2.17
-5 -7 -2 14.74 2.08
-5 -7 -3 309.71 7
-5 -7 -4 50.37 2.81
-5 -7 -4 50.26 2.9
-5 -7 -4 53.11 2.94
-5 -7 -5 248.24 5.09
-5 -7 -5 251.15 5.34
-5 -7 -5 261.54 5.47
-5 -7 -6 33.6 1.76
-5 -7 -6 28.95 1.7
-5 -7 -6 31.74 1.78
-5 -7 -7 0.63 0.76
-5 -7 -8 1.22 0.71
-5 -8 -1 166.52 3.55
-5 -8 -1 157.28 3.45
-5 -8 -2 2.2 1.18
-5 -8 -2 1.75 1.1
-5 -8 -3 56.45 2.64
-5 -8 -4 79.04 2.87
-5 -8 -5 105.53 2.86
-5 -8 -5 104.57 2.83
-5 -8 -6 243.06 3.4
-6 2 4 103.48 2.27
-6 2 4 117.12 2.41
6 -2 -4 191.65 3.38
6 -2 -4 157.33 2.98
6 -2 -4 149.09 2.92
-6 2 3 252.12 4.51
-6 2 3 215.6 3.99
6 -2 -3 279.85 4.42
6 -2 -3 293.29 4.82
6 -2 -3 271.22 5.12
-6 2 3 259.75 3.81
6 -2 -3 294.71 4.87
-6 2 3 243.7 4.53
6 -2 -3 294.14 5.24
-6 2 2 76.75 2.76
6 -2 -2 74.56 2.55
6 -2 -2 79.38 3.24
-6 2 2 75.94 2.76
6 -2 -2 83.57 3.24
6 -2 -1 161.9 4.1
6 -2 -1 169.56 4.14
6 -2 0 6.99 1.6
-6 2 0 7.1 1.1
-6 2 0 6.55 1.07
-6 2 0 3.39 0.82
6 -2 0 7 1.37
6 -2 0 6.27 1.38
6 -2 0 6.76 1.58
-6 2 0 6.16 1.08
6 -2 1 90.44 3.21
-6 2 -1 72.53 2.13
-6 2 -1 77.37 2.19
-6 2 -1 50.77 1.97
6 -2 1 96.89 2.91
6 -2 1 85.98 3.07
6 -2 1 89.4 2.93
-6 2 -1 70.03 2.14
-6 1 6 38.25 1.69
6 -1 -6 35.89 1.38
-6 1 5 6.52 1.18
6 -1 -5 6.9 1.08
6 -1 -5 -0.01 0.22
-6 1 5 6.22 0.88
6 -1 -5 -0.11 0.25
6 -1 -4 2.87 1.05
-6 1 4 1.01 0.78
-6 1 4 0.82 1.08
-6 1 4 0.05 0.78
6 -1 -4 0.43 1.02
-6 1 4 2.01 0.85
6 -1 -4 4.13 0.92
-6 1 4 0.66 0.74
6 -1 -4 3.72 0.92
-6 1 4 0.61 0.85
-6 1 3 157.33 4.11
-6 1 3 142.75 3.76
6 -1 -3 188.2 4.15
-6 1 3 136.58 3.16
6 -1 -3 178.33 4.08
-6 1 3 149.3 3.26
6 -1 -3 171.71 4.03
-6 1 3 147.4 4.11
6 -1 -3 178.64 4.42
-6 1 2 82.08 3.38
-6 1 2 75.12 3.14
6 -1 -2 93.56 3.13
6 -1 -2 100.15 3.24
-6 1 2 76.32 2.64
-6 1 2 84.79 3.48
6 -1 -2 98.37 3.77
-6 1 1 14.5 1.83
6 -1 -1 12.68 1.53
6 -1 -1 16.84 1.77
-6 1 1 12.96 1.37
6 -1 -1 12.91 1.35
-6 1 1 16.16 1.44
-6 1 1 14.42 1.8
6 -1 -1 14.6 2.1
-6 1 0 10.34 1.55
6 -1 0 -0.02 0.36
6 -1 0 24.76 2.24
-6 1 0 11.15 1.4
6 -1 0 15.5 2.1
6 -1 0 9.57 1.37
-6 1 0 10.17 1.32
6 -1 0 15.18 2.2
-6 1 -1 189.97 4.46
-6 1 -1 187.72 4.36
6 -1 1 207.71 4.42
-6 1 -1 154.39 4.29
6 -1 1 207.71 4.95
6 -1 1 184.08 4.53
-6 1 -1 150.1 3.49
6 -1 1 203.94 4.98
-6 1 -1 190.12 4.5
6 -1 1 209.21 5.39
-6 1 -2 68.96 2.36
-6 1 -2 69.8 2.37
6 -1 2 61.44 2.4
-6 1 -2 56.73 2.56
6 -1 2 81.8 2.93
6 -1 2 69.02 2.88
-6 1 -2 67.08 2.14
6 -1 2 87.63 2.98
-6 1 -2 67.13 2.36
6 -1 2 89.72 3.36
-6 1 -3 35.85 1.46
6 -1 3 35.46 2.01
6 -1 3 37.98 2.2
-6 1 -4 52.26 1.9
6 0 -7 20.41 0.94
-6 0 7 18.76 1.15
6 0 -6 49.05 1.57
-6 0 6 50.03 2.04
6 0 -5 254.76 3.69
-6 0 5 252.91 4.84
6 0 -5 241.42 4.3
6 0 -5 181.94 3.66
-6 0 5 195.5 3.64
-6 0 4 198.11 3.99
-6 0 4 204.82 4.34
6 0 -4 281.48 4.19
-6 0 4 261.83 5.28
6 0 -4 220.15 4.51
-6 0 4 206.38 4.12
6 0 -4 221.59 4.38
6 0 -4 243.49 4.28
-6 0 4 220.35 4.08
-6 0 4 202.21 4.41
6 0 -4 240.22 4.55
-6 0 3 259.6 5.65
-6 0 3 250.96 5.32
6 0 -3 306.22 4.6
-6 0 3 249.09 5.24
-6 0 3 256.21 5.37
6 0 -3 258.77 4.92
-6 0 3 232.68 4.78
6 0 -3 300.9 5.38
-6 0 3 256.77 5.76
6 0 -3 274.29 5.44
-6 0 2 64.33 3.24
-6 0 2 60.99 3.07
6 0 -2 65.9 2.83
6 0 -2 63.98 2.66
-6 0 2 58.43 2.56
6 0 -2 69.04 3.01
-6 0 2 63.07 2.49
6 0 -2 64.66 2.7
-6 0 2 63.09 3.27
6 0 -2 67.31 3.12
6 0 -1 1.86 1.47
-6 0 1 0.24 0.92
6 0 -1 1.13 1.2
-6 0 1 1.11 1.29
-6 0 1 1.33 0.93
6 0 -1 0.93 0.86
-6 0 1 0.62 0.92
6 0 -1 0.84 0.99
-6 0 1 1.58 1.32
-6 0 0 104.97 3.87
-6 0 0 106.53 4.04
-6 0 0 112.82 3.97
6 0 0 114.79 3.79
6 0 0 121.98 3.69
6 0 0 118.83 3.63
-6 0 0 109.13 3.87
6 0 0 100.39 3.87
6 0 0 106.66 3.32
-6 0 0 105.84 3.31
6 0 0 118.34 3.61
-6 0 -1 581.84 8.76
-6 0 -1 808.11 10.51
-6 0 -1 789.43 10.21
6 0 1 665.65 8.67
6 0 1 750.88 9.14
6 0 1 787.8 9.71
-6 0 -1 702.09 10.1
6 0 1 711.71 9.95
6 0 1 713.08 9.16
-6 0 -1 616.16 7.79
-6 0 -1 789.86 10.56
6 0 1 697.63 10.34
-6 0 -2 354.72 6.15
-6 0 -2 373.57 6.24
6 0 2 327.1 5.86
6 0 2 375.56 6.8
6 0 2 341.82 5.85
6 0 2 415.12 7.01
6 0 2 360.88 6.7
-6 0 -2 298.59 4.8
-6 0 -2 359.79 6.32
-6 0 -2 300.62 6.49
6 0 2 403.34 7.29
-6 0 -3 121.66 3.17
-6 0 -3 116.01 3.14
-6 0 -3 119.24 3.18
6 0 3 130.6 3.54
6 0 3 126.67 4.18
6 0 3 130.83 3.98
-6 0 -3 107 3.69
6 0 3 141.01 3.65
6 0 3 120.95 4.09
-6 0 -3 116.48 3.19
-6 0 -3 101.34 3.73
6 0 3 138.46 3.91
6 0 4 0.05 0.28
-6 0 -4 31.22 1.41
-6 0 -4 28.6 1.38
6 0 4 0.01 0.27
6 0 4 26.16 2.13
-6 0 -4 0.04 0.18
-6 0 -4 47.55 2.23
6 0 4 30.04 2.24
6 0 5 3.23 1.2
6 0 5 1.43 1.17
-6 0 -5 2.24 0.67
6 1 -7 35.92 1.24
-6 -1 6 92.37 2.69
6 1 -5 5.22 0.87
-6 -1 5 5.21 1.25
6 1 -5 3.6 0.99
6 1 -5 3.57 1.07
-6 -1 5 3.3 0.95
6 1 -4 2.5 0.79
6 1 -4 2.37 1.01
6 1 -4 1.94 0.88
-6 -1 4 1.92 0.86
-6 -1 4 2.11 1.29
6 1 -4 1.96 1.02
-6 -1 4 1.47 0.83
6 1 -4 2.41 1.13
-6 -1 4 1.22 0.96
6 1 -4 2.7 0.86
6 1 -4 2.33 0.97
-6 -1 4 1.57 0.93
6 1 -3 7.49 1.04
6 1 -3 7.49 1.23
-6 -1 3 6.79 1.31
-6 -1 3 9.89 1.48
6 1 -3 9.08 1.25
-6 -1 3 6.18 1.5
6 1 -3 6.81 1.27
-6 -1 3 7.27 1.33
6 1 -3 8.8 1.34
-6 -1 3 7.45 1.18
6 1 -3 8.93 1.27
-6 -1 3 7.34 1.2
-6 -1 3 7.29 1.45
6 1 -3 7.34 1.33
6 1 -2 173.18 4.11
6 1 -2 180.7 4.43
-6 -1 2 174.9 5.11
-6 -1 2 188.66 5.48
6 1 -2 171.58 4.09
-6 -1 2 179.39 5.11
6 1 -2 176.09 4.09
-6 -1 2 178.94 4.6
-6 -1 2 181.17 4.19
6 1 -2 176.68 4.3
-6 -1 2 195.72 5.67
6 1 -2 178.58 4.76
6 1 -1 160.19 4.06
-6 -1 1 162.22 4.85
6 1 -1 174.94 4.4
-6 -1 1 168.48 5.45
-6 -1 1 156.83 5.18
6 1 -1 158.87 3.99
-6 -1 1 144.99 5.03
6 1 -1 155.61 3.99
6 1 -1 155.11 3.71
-6 -1 1 158.26 4.5
-6 -1 1 161.98 4.08
6 1 -1 166.12 4.22
-6 -1 1 169.68 5.62
-6 -1 0 432.8 8.07
6 1 0 527.75 7.68
-6 -1 0 450.6 8.93
6 1 0 410.66 6.37
6 1 0 506.76 7.91
6 1 0 455.39 6.81
-6 -1 0 489.52 8.25
6 1 0 395.68 6.19
-6 -1 0 453.49 6.93
6 1 0 503.32 7.47
-6 -1 0 464.74 9.26
-6 -1 -1 163.88 4.86
6 1 1 201.65 4.71
-6 -1 -1 202.99 5.6
-6 -1 -1 181.47 5.28
6 1 1 182.31 4.82
-6 -1 -1 195.93 5.56
6 1 1 191.93 4.72
6 1 1 173.18 4.35
-6 -1 -1 158.23 3.97
6 1 1 213.52 5.49
6 1 1 196.81 4.72
6 1 1 200 4.99
-6 -1 -2 166.08 4.47
-6 -1 -2 189.85 4.99
-6 -1 -2 197.61 5.2
-6 -1 -2 154.13 4.81
6 1 2 158.93 4.43
-6 -1 -2 193.13 5.07
6 1 2 163.08 4.48
6 1 2 187.18 5
-6 -1 -2 158.84 4.93
6 1 2 191.76 5.31
-6 -1 -2 146.38 3.5
6 1 2 153.32 4.12
-6 -1 -2 190.9 5.13
6 1 2 157.58 4.39
6 1 2 172.33 5.12
-6 -1 -3 28.27 1.86
-6 -1 -3 26.5 1.86
-6 -1 -3 20.83 1.89
6 1 3 25.83 2
-6 -1 -3 27.03 1.88
6 1 3 27.97 2.37
6 1 3 26.09 2.16
6 1 3 26.09 2.47
-6 -1 -3 26.15 2.13
6 1 3 28.55 2.06
6 1 3 26.16 2.31
6 1 3 19.23 1.71
-6 -1 -3 25.18 1.87
-6 -1 -3 19.01 1.94
6 1 3 26.6 2.22
6 1 4 3.01 1.18
-6 -1 -4 1.96 0.8
-6 -1 -4 2.14 0.82
6 1 4 4.3 1.3
6 1 4 1.87 1.59
6 1 4 1.98 1.41
6 1 4 1.57 1.63
-6 -1 -4 2.03 0.84
-6 -1 -4 3.23 1.09
6 1 4 2.96 1.06
6 1 4 2.74 1.36
-6 -1 -4 2.38 1.05
-6 -1 -4 2.56 0.86
-6 -1 -5 22.87 1.79
6 1 5 28.06 1.87
6 1 5 24.92 2.26
-6 -1 -5 38.16 1.86
6 1 5 38.57 2.48
6 1 5 38.91 2.36
-6 -1 -6 209.23 4.15
6 1 6 213.9 5.01
6 1 7 221.98 3.71
6 1 7 194.91 4.06
6 2 -7 0.39 0.48
6 2 -6 350.13 4.17
-6 -2 6 291.98 4.5
-6 -2 5 690.33 8.09
6 2 -5 632.03 6.9
6 2 -4 226.03 4.45
-6 -2 4 136.88 3.05
-6 -2 4 161.22 3.7
-6 -2 4 212.84 4.76
-6 -2 4 165.01 3.38
6 2 -4 212.13 4.32
6 2 -4 206.31 3.93
6 2 -4 218.44 3.67
-6 -2 4 186.63 4.14
6 2 -4 200.97 3.33
6 2 -4 208.44 4.49
6 2 -4 218.66 4.01
-6 -2 4 172.34 3.8
6 2 -3 151.56 3.88
6 2 -3 156.28 4.05
-6 -2 3 149.05 3.96
-6 -2 3 143.33 4.22
-6 -2 3 132.13 3.87
-6 -2 3 150.66 3.97
6 2 -3 155.71 3.95
6 2 -3 154.13 3.61
-6 -2 3 136.22 3.78
6 2 -3 149.09 3.86
6 2 -3 132.76 3.29
-6 -2 3 144.08 4.25
6 2 -3 145.54 3.46
6 2 -2 29.62 1.94
-6 -2 2 33.43 2.37
-6 -2 2 31.52 2.48
6 2 -2 30.11 1.97
-6 -2 2 33.25 2.38
6 2 -2 28.37 1.81
-6 -2 2 30.08 2.05
-6 -2 2 28.15 1.95
6 2 -2 28.61 1.84
6 2 -2 26.73 1.68
-6 -2 2 31.54 2.5
6 2 -1 1.12 0.98
6 2 -1 1.02 0.91
-6 -2 1 2.18 1.42
6 2 -1 2.23 1.09
-6 -2 1 1.35 1.32
6 2 -1 2.32 1.05
-6 -2 1 1.5 1.53
6 2 -1 0.61 0.88
-6 -2 1 0.66 1.03
6 2 -1 1.56 0.82
6 2 -1 1.9 0.96
-6 -2 1 2.46 1.49
6 2 0 118.18 3.7
-6 -2 0 101.89 4.09
6 2 0 107.09 3.51
-6 -2 0 107.83 4.67
6 2 0 95.64 2.93
-6 -2 0 101.51 3.29
6 2 0 108.61 3.6
6 2 0 102.4 3.11
-6 -2 0 106.28 4.72
6 2 1 1520.2 13.71
-6 -2 -1 1189.29 14.06
6 2 1 1539.48 14.15
-6 -2 -1 1410.14 16.07
-6 -2 -1 1346.98 15.86
6 2 1 1385.24 12.74
6 2 1 1464.52 13.46
-6 -2 -1 1607.51 16.03
6 2 1 1453.38 13.29
6 2 1 1510.71 14.14
6 2 1 1492.02 12.46
-6 -2 -1 1202.19 11.64
6 2 1 1521.17 14.48
6 2 1 1419.64 13.34
6 2 1 1465.82 14.08
-6 -2 -2 469.63 7.7
6 2 2 527.09 8.06
-6 -2 -2 588.77 9.4
-6 -2 -2 593.96 9.76
-6 -2 -2 505.24 7.72
-6 -2 -2 532.15 8.56
-6 -2 -2 581.94 9.41
6 2 2 517.91 8.06
6 2 2 539.65 8.4
-6 -2 -2 500.37 8.76
6 2 2 503.74 7.17
6 2 2 541.04 8.55
6 2 2 551.84 8.81
-6 -2 -2 586.35 9.67
6 2 2 514.5 8.23
6 2 3 334.28 6.4
-6 -2 -3 388.29 6.85
-6 -2 -3 364.66 6.85
-6 -2 -3 345.26 6.68
-6 -2 -3 335.55 6.63
-6 -2 -3 382.74 6.86
6 2 3 384.35 7.34
6 2 3 384.72 7.42
-6 -2 -3 287.85 6.38
6 2 3 375.74 7.53
6 2 3 363.77 7.37
-6 -2 -3 375.78 6.98
6 2 3 307.04 6.29
-6 -2 -4 6.14 1.13
-6 -2 -4 5.83 1.49
-6 -2 -4 6.7 1.34
-6 -2 -4 6.82 1.13
6 2 4 5.91 1.75
6 2 4 5.72 1.78
-6 -2 -4 5.48 1.1
-6 -2 -4 7.47 1.28
6 2 4 5.3 1.74
6 2 4 5.72 1.27
-6 -2 -4 5.61 1.14
-6 -2 -5 27.17 1.44
-6 -2 -5 26.14 2.2
-6 -2 -5 45.77 2.23
-6 -2 -5 24.52 1.39
6 2 5 25.5 2.45
6 2 5 27.25 2.53
-6 -2 -5 -0.07 0.33
-6 -2 -5 36.3 1.82
6 2 5 27.14 1.64
6 2 5 31.43 2.38
6 2 5 29.16 1.81
-6 -2 -5 -0.07 0.29
6 2 5 5.3 1.01
-6 -2 -6 8.94 1.51
6 2 6 11.36 1.84
6 2 6 13.17 1.81
6 2 6 13.14 1.61
-6 -2 -7 39.1 2.08
6 2 7 42.7 2.27
6 2 7 42.42 2.12
6 3 -6 38.33 1.29
-6 -3 6 35.11 1.53
6 3 -6 34.53 1.23
6 3 -5 12.21 1.06
-6 -3 5 10.62 1.34
6 3 -5 10.34 0.95
6 3 -4 4.46 0.95
-6 -3 4 2.72 1.57
6 3 -4 4.92 1.04
6 3 -4 4.87 0.99
6 3 -4 4.06 0.97
6 3 -4 4.27 0.85
6 3 -3 66.13 2.61
-6 -3 3 55.26 2.21
-6 -3 3 53.89 2.47
-6 -3 3 53.36 2.21
6 3 -3 61.12 2.42
6 3 -3 62.07 2.44
6 3 -3 54.94 2.27
-6 -3 3 53.33 2.44
6 3 -3 62.72 2.42
6 3 -2 183.77 4.32
-6 -3 2 182.64 4.74
-6 -3 2 182.97 5.2
-6 -3 2 188.07 4.82
6 3 -2 171.74 4.06
6 3 -2 169.59 3.62
6 3 -2 171.05 4.05
6 3 -2 160.1 3.93
-6 -3 2 188.9 5.3
6 3 -1 195.09 4.64
6 3 -1 188.54 4.53
-6 -3 1 212.4 5.84
-6 -3 1 223.61 6.45
-6 -3 1 211.42 5.83
6 3 -1 169.22 3.83
-6 -3 1 177.43 4.58
6 3 -1 180.3 4.24
6 3 -1 179.07 4.24
-6 -3 1 218.41 6.42
6 3 -1 174.95 4.3
6 3 0 115.4 3.58
-6 -3 0 126.63 4.97
-6 -3 0 122.98 5.32
-6 -3 0 139.41 4.53
6 3 0 107.49 3.79
6 3 0 104.82 3.19
6 3 0 116.17 3.87
-6 -3 0 92.01 3.25
6 3 0 110.91 3.4
6 3 0 99.08 3.29
-6 -3 0 115.3 5.14
6 3 0 102.86 3.44
6 3 1 89.21 3.19
-6 -3 -1 79.06 4.27
6 3 1 79.2 2.79
6 3 1 86.84 3.21
6 3 1 82.68 3.01
6 3 1 85.71 3.1
6 3 1 81.03 3.09
-6 -3 -1 81.8 4.33
6 3 1 84.24 3.27
6 3 2 12.25 1.53
6 3 2 12.98 1.56
-6 -3 -2 14.19 2.01
-6 -3 -2 13.47 1.63
-6 -3 -2 14.84 2.06
6 3 2 11.43 1.48
6 3 2 12.78 1.58
-6 -3 -2 12.57 1.68
6 3 2 10.84 1.31
6 3 2 12.66 1.67
6 3 2 11.92 1.37
6 3 2 13.34 1.68
6 3 3 55.83 2.65
6 3 3 60.11 2.9
-6 -3 -3 72.98 3.23
-6 -3 -3 68.47 3.31
-6 -3 -3 58.25 3
-6 -3 -3 58.54 2.93
-6 -3 -3 69.65 3.21
6 3 3 60.02 2.91
6 3 3 65.57 3.1
-6 -3 -3 58.41 2.9
6 3 3 62.53 3.13
6 3 3 62.17 3.11
-6 -3 -3 70.43 3.33
6 3 3 60.97 3.05
6 3 4 190.01 5
-6 -3 -4 205.3 4.66
-6 -3 -4 202.36 4.8
-6 -3 -4 203.81 5.56
-6 -3 -4 175.36 4.86
-6 -3 -4 208.25 4.69
6 3 4 214.37 5.53
6 3 4 216.68 5.66
-6 -3 -4 221.89 4.88
6 3 4 207.61 5.67
6 3 4 203.46 5.7
-6 -3 -4 200.13 4.81
6 3 4 176.15 5.02
-6 -3 -5 522.74 6.49
-6 -3 -5 461.84 6.31
-6 -3 -5 506.78 8.9
-6 -3 -5 526.94 6.45
-6 -3 -5 510.7 7.94
6 3 5 510 8.74
6 3 5 476.54 8.57
6 3 5 478.69 8.54
-6 -3 -5 494.78 6.53
6 3 5 540.17 8.29
-6 -3 -6 219.36 5.67
6 3 6 251.16 6.04
6 3 6 272.06 6.29
6 3 6 298.88 6.42
6 3 6 304.97 5.38
-6 -3 -7 216.35 5.05
6 3 7 216.46 5.11
6 3 7 241.39 5.13
6 3 7 238.15 4.87
-6 -3 -8 50.38 2.1
6 3 8 46.37 1.96
6 4 -5 368.22 3.85
-6 -4 5 338.2 4.74
6 4 -4 125.59 2.84
6 4 -4 130.8 2.97
6 4 -3 43.28 2.03
-6 -4 3 38.98 2.67
-6 -4 3 35.04 1.81
-6 -4 3 35.58 1.65
6 4 -3 41.77 1.75
-6 -4 3 46.02 2.68
6 4 -3 39.09 1.84
-6 -4 3 33.83 1.77
6 4 -2 173.41 4.15
6 4 -2 165.34 3.82
-6 -4 2 177.69 5.19
-6 -4 2 150.07 3.84
-6 -4 2 157.48 4.41
-6 -4 2 163.52 4.12
6 4 -2 161.93 3.59
-6 -4 2 177.45 5.28
6 4 -2 158.28 3.56
-6 -4 2 158.96 4.42
6 4 -1 52.35 2.31
-6 -4 1 53.42 2.83
-6 -4 1 53.97 3.19
-6 -4 1 57.59 2.97
6 4 -1 45.37 2.07
-6 -4 1 56.09 3.21
6 4 -1 46.09 2.1
6 4 0 168.86 4.18
-6 -4 0 201.05 5.83
-6 -4 0 196.41 6.24
-6 -4 0 195.09 5.76
6 4 0 152.46 3.8
-6 -4 0 190.41 6.13
6 4 0 159.76 3.97
6 4 1 437.03 7.06
6 4 1 428.21 6.89
-6 -4 -1 483.48 9.96
-6 -4 -1 465.42 7.41
6 4 1 405.1 6.18
-6 -4 -1 473.2 9.8
6 4 1 408.62 6.78
6 4 2 30.06 2.04
6 4 2 28.5 2.01
-6 -4 -2 33.35 2.69
-6 -4 -2 34.86 2.73
-6 -4 -2 28.24 2.05
6 4 2 29.44 1.97
6 4 2 27.04 1.94
6 4 2 29.5 2.11
-6 -4 -3 62.81 3.15
-6 -4 -3 64.8 3.35
-6 -4 -3 66.67 3.22
6 4 3 50.91 2.36
6 4 3 54.5 2.54
6 4 3 55.6 2.71
6 4 3 49.86 2.64
-6 -4 -3 64.29 3.33
6 4 3 54.53 2.78
6 4 3 55.73 3.19
6 4 4 31.52 2.22
-6 -4 -4 33.84 2.09
-6 -4 -4 31.59 2.18
-6 -4 -4 31.04 2.44
-6 -4 -4 35.77 2.15
-6 -4 -4 26.99 2.14
6 4 4 30.8 2.18
6 4 4 32.32 2.3
6 4 4 30.56 2.33
6 4 4 29.9 2.29
-6 -4 -4 32.4 2.17
6 4 4 24.9 2.48
6 4 5 169.53 4.73
-6 -4 -5 184.17 3.89
-6 -4 -5 165.21 3.87
-6 -4 -5 179.24 5.28
-6 -4 -5 181.32 3.87
-6 -4 -5 158.7 4.58
6 4 5 178.74 4.92
6 4 5 171.18 4.92
6 4 5 161.86 4.82
6 4 5 192.38 4.73
-6 -4 -5 172.76 3.95
6 4 5 177.92 5.54
-6 -4 -6 38.96 1.52
-6 -4 -6 36.07 2.52
-6 -4 -6 46.38 2.4
6 4 6 36.34 2.52
6 4 6 38.31 2.57
-6 -4 -6 -0.03 0.21
6 4 6 37.51 2.54
6 4 6 34.08 2.36
-6 -4 -6 0.01 0.19
-6 -4 -7 12.66 1.6
-6 -4 -7 16.88 1.46
6 4 7 11.27 1.68
6 4 7 11.82 1.77
6 4 7 10.88 1.65
6 4 7 10.02 1.62
-6 -4 -8 86.35 2.74
-6 -4 -8 90.76 2.26
6 4 8 75.08 2.61
6 4 8 79.7 2.69
6 4 8 84.05 2.62
-6 -5 4 125.07 3.43
6 5 -3 34.42 1.5
6 5 -3 33.06 1.55
-6 -5 2 91.02 2.51
-6 -5 2 87.57 2.62
-6 -5 2 90.26 2.87
6 5 -2 88.31 2.62
-6 -5 2 86.09 2.74
6 5 -1 497.11 6.72
-6 -5 1 529.57 7.48
-6 -5 1 549.55 7.97
-6 -5 1 524.45 8.22
-6 -5 1 533.43 7.69
6 5 -1 454.19 5.59
-6 -5 1 535.48 8.26
6 5 -1 445.97 5.53
-6 -5 1 536.13 8.22
6 5 0 79.32 2.72
6 5 0 81.02 2.64
-6 -5 0 91.8 3.66
-6 -5 0 95.97 4.3
-6 -5 0 89.31 3.76
-6 -5 0 80.9 3.43
6 5 0 72.07 2.38
-6 -5 0 91.31 4.08
6 5 0 73.32 2.43
6 5 1 22.68 1.63
6 5 1 19.47 1.49
-6 -5 -1 22.28 2.51
-6 -5 -1 17.89 1.73
-6 -5 -1 22.4 2.44
6 5 1 19.17 1.46
6 5 2 3.02 0.96
-6 -5 -2 3.28 1.45
-6 -5 -2 3.8 1.05
-6 -5 -2 2.73 1.52
6 5 2 2.27 0.93
6 5 2 2.58 0.99
6 5 3 13.84 1.53
-6 -5 -3 16.35 1.85
-6 -5 -3 17.54 2.09
-6 -5 -3 18.36 1.95
-6 -5 -3 14.32 1.51
6 5 3 13.43 1.38
6 5 3 12.25 1.37
-6 -5 -3 17.28 2.03
6 5 3 15.05 1.73
6 5 4 51.49 2.54
-6 -5 -4 61.92 2.74
-6 -5 -4 58.56 2.86
-6 -5 -4 63.12 2.78
-6 -5 -4 50.62 2.59
6 5 4 51.78 2.31
6 5 4 52.57 2.46
-6 -5 -4 58.91 2.83
6 5 4 50.46 2.92
-6 -5 -5 468.18 6.34
-6 -5 -5 477.34 6.39
-6 -5 -5 450.32 6.49
6 5 5 426.12 6.4
6 5 5 437.75 6.76
-6 -5 -5 460.45 6.54
-6 -5 -6 361.47 4.51
-6 -5 -6 385.99 4.63
6 5 6 320.39 5.62
6 5 6 304.59 5.6
-6 -5 -7 8.62 1.2
6 5 7 4.94 1.3
6 5 7 5.49 1.33
6 5 7 6.16 1.3
6 5 7 4.77 1.17
-6 -5 -8 4.41 0.83
6 5 8 2.41 0.98
6 5 8 2.79 1.02
6 5 8 2.56 0.98
-6 -6 2 29.9 1.65
-6 -6 1 117.39 3.02
-6 -6 1 117.08 3.19
-6 -6 1 103.13 2.96
6 6 -1 104.51 2.54
-6 -6 1 122.82 3.18
-6 -6 0 160.26 3.96
-6 -6 0 162.11 4.21
-6 -6 0 161.21 4.44
-6 -6 0 164.83 4.42
-6 -6 -1 397.76 6.99
-6 -6 -1 388.95 7.22
-6 -6 -1 388.01 7.61
-6 -6 -1 399.77 7.59
-6 -6 -2 42.27 2.88
-6 -6 -2 44.58 2.81
6 6 2 34.76 1.64
-6 -6 -3 64.78 2.96
-6 -6 -3 66.9 3.11
-6 -6 -3 61.82 2.23
-6 -6 -4 65.66 2.7
-6 -6 -4 69.54 2.86
-6 -6 -4 67.64 2.91
-6 -6 -4 70.56 2.96
-6 -6 -5 -0.15 0.75
-6 -6 -5 0.74 0.82
-6 -6 -5 -0.06 0.79
-6 -6 -5 -0.45 0.87
6 6 5 0.34 0.82
-6 -6 -5 0.45 0.83
-6 -6 -6 61.63 1.83
-6 -6 -6 52.14 2.16
6 6 6 46.66 1.86
-6 -6 -6 0.12 0.26
6 6 6 48.83 1.99
-6 -6 -6 0.15 0.27
6 6 7 31.94 1.56
6 6 7 32.06 1.62
-6 -7 0 258.84 3.99
-6 -7 -1 14.53 1.5
-6 -7 -1 17.52 1.57
-6 -7 -1 15.45 1.52
-6 -7 -2 27.48 2.03
-6 -7 -2 25.56 2
-6 -7 -3 190.26 4.43
-6 -7 -4 465.29 6.38
-6 -7 -4 480.98 6.74
-6 -7 -4 482.44 6.68
-6 -7 -5 262.5 4.11
-6 -7 -5 257.45 4.14
-7 0 2 312.83 4.17
-7 0 2 368.06 4.51
7 0 -2 489.49 5.29
7 0 -2 480.2 5.22
-7 0 1 70.46 2.36
-7 0 1 67.97 2.32
-7 0 0 24.13 1.45
-7 0 0 24.18 1.47
-7 0 0 64.57 1.96
7 0 0 66.95 2.3
7 0 0 30.83 1.75
-7 0 -1 55.55 1.8
7 0 1 59.93 2.09
7 0 1 54.98 1.97
7 1 -3 26.5 1.34
7 1 -3 32.58 1.29
-7 -1 2 79.44 2.38
-7 -1 2 74.84 2.54
-7 -1 2 81.21 2.41
7 1 -2 84.75 2.37
7 1 -2 92.11 2.51
-7 -1 2 76.66 2.58
7 1 -2 92.75 2.71
-7 -1 1 705.92 8.08
-7 -1 1 696.38 8.44
-7 -1 1 731.6 8.2
7 1 -1 756.9 7.91
7 1 -1 792.61 7.66
-7 -1 1 714.97 8.65
7 1 -1 792.29 8.69
-7 -1 0 69.74 2.83
7 1 0 121.48 3.22
-7 -1 0 116.04 3.1
7 1 0 84.79 2.93
-7 -1 -1 99.02 2.94
-7 -1 -1 95.96 2.99
7 1 1 103 2.77
-7 -1 -1 102.95 2.99
-7 -1 -1 103.66 3.12
-7 -1 -2 7.14 0.99
-7 -1 -2 7.42 1.05
-7 -1 -2 7.98 0.99
7 1 2 12.16 1.41
-7 -1 -2 7.01 0.96
7 1 2 9.89 1.25
-7 -1 -2 8.33 1.04
7 1 2 10.19 1.45
-7 -2 4 36.94 1.58
7 2 -3 195.26 2.89
7 2 -3 163.47 3.07
-7 -2 2 481.26 5.94
7 2 -2 588.07 5.65
-7 -2 2 446.97 6.29
-7 -2 2 465.7 5.89
7 2 -2 507.05 6.12
7 2 -2 481.31 5.37
7 2 -2 568.83 6.13
-7 -2 2 465.94 6.42
7 2 -2 547.23 6.31
-7 -2 1 77.7 2.93
7 2 -1 54.84 1.93
-7 -2 1 68.71 2.91
-7 -2 1 74.03 2.91
7 2 -1 50.8 2.05
7 2 -1 50.31 2.18
7 2 -1 59.85 2.29
-7 -2 1 68.35 2.95
7 2 -1 50.42 2.28
-7 -2 0 12.52 1.68
7 2 0 14.34 1.46
7 2 0 13.63 1.36
7 2 0 15.45 1.4
-7 -2 0 15.04 1.74
7 2 0 14.19 1.68
-7 -2 -1 17.18 1.64
-7 -2 -1 17.65 1.63
7 2 1 18.61 1.61
7 2 1 16.5 1.49
-7 -2 -1 16.15 1.43
7 2 1 15.16 1.59
7 2 1 16.69 1.44
-7 -2 -2 21.38 1.56
-7 -2 -2 20.34 1.6
-7 -2 -2 21.33 1.57
7 2 2 23.12 1.55
-7 -2 -2 26.32 1.63
7 2 2 27.34 1.88
-7 -2 -2 23.86 1.71
7 2 2 25.05 2.01
-7 -2 -3 218.59 3.66
-7 -2 -3 207.06 3.69
-7 -2 -3 223.77 3.69
7 2 3 197.9 3.84
7 2 3 238.41 4.07
-7 -2 -3 229.83 3.85
7 2 3 253.67 4.27
-7 -2 -3 200.39 3.61
7 2 3 255.44 4.49
7 2 4 151.02 3.1
7 2 4 121.7 3.01
7 3 -3 104.62 2.19
-7 -3 3 115.92 2.91
-7 -3 2 81.61 2.21
7 3 -2 87.53 2.32
-7 -3 2 71.82 2.4
-7 -3 2 80.98 2.29
7 3 -2 89.61 2.39
7 3 -2 94.29 2.28
7 3 -2 86.77 2.39
-7 -3 2 76.61 2.45
7 3 -2 90.5 2.38
-7 -3 1 115.61 3.19
7 3 -1 111.23 2.8
-7 -3 1 112.24 3.49
-7 -3 1 122.14 3.31
7 3 -1 122.85 3.04
7 3 -1 110.78 2.49
7 3 -1 116.97 2.89
-7 -3 1 114.95 3.49
7 3 -1 122.91 3.19
-7 -3 0 13.53 1.56
7 3 0 8.78 1.27
-7 -3 0 13.71 1.76
-7 -3 0 14.33 1.63
7 3 0 9.02 1.27
7 3 0 9.8 1.15
-7 -3 0 13.06 1.74
-7 -3 -1 2.39 1.15
7 3 1 1.65 0.98
-7 -3 -2 27.48 1.84
-7 -3 -2 27.77 1.98
-7 -3 -2 28.03 1.87
7 3 2 24.39 1.77
7 3 2 24.27 1.64
7 3 2 25.73 1.65
-7 -3 -2 26.49 1.91
-7 -3 -3 6.85 1.05
-7 -3 -3 7.63 1.08
7 3 3 9.73 1.38
7 3 3 5.48 1.23
7 3 3 6.65 1.01
-7 -3 -3 6.02 1.09
7 3 3 7.13 1.28
7 3 3 11.64 1.38
-7 -3 -3 6.95 1.12
7 3 3 10.45 1.49
-7 -3 -4 8.17 0.85
-7 -3 -4 7.16 0.86
-7 -3 -4 7.87 0.86
7 3 4 8.15 1.16
7 3 4 8.68 1.14
7 3 4 8.35 1.06
7 3 4 7.21 1.27
-7 -3 -4 6.28 0.84
7 3 4 8.23 1.17
7 3 5 55.05 1.97
7 4 -3 296.61 3.25
-7 -4 2 92.67 2.05
-7 -4 2 244.1 4.06
-7 -4 1 31.89 1.67
-7 -4 1 25.18 1.74
-7 -4 1 28.98 1.64
7 4 -1 24.11 1.34
-7 -4 1 21.86 1.65
-7 -4 1 27.59 1.76
-7 -4 0 94.97 2.98
-7 -4 0 96.6 3.31
-7 -4 0 100.95 3.11
7 4 0 93.98 2.53
7 4 0 90.07 2.4
-7 -4 0 94.7 3.24
7 4 1 1.75 0.95
7 4 1 2.6 0.8
-7 -4 -1 3.02 1.35
7 4 1 2.16 0.78
-7 -4 -1 3.93 1.37
-7 -4 -2 9.23 1.31
-7 -4 -2 9.9 1.37
7 4 2 6.88 1.05
-7 -4 -3 297.91 4.87
-7 -4 -3 286.37 5.05
-7 -4 -3 294.93 4.89
7 4 3 281.37 4.62
-7 -4 -3 283.33 5.02
-7 -4 -4 499.13 5.47
-7 -4 -4 448.41 5.43
-7 -4 -4 519.48 5.59
7 4 4 515.26 6.11
7 4 4 522.95 6.44
-7 -4 -4 465.81 5.5
7 5 -1 10.22 0.9
-7 -5 1 11.63 0.93
-7 -5 0 10.25 1.08
-7 -5 0 10.89 1.19
-7 -5 0 10.01 1.24
7 5 0 8.22 0.82
-7 -5 0 9.73 1.23
-7 -5 -1 70.12 2.5
-7 -5 -1 72.37 2.78
7 5 1 68.93 2.04
-7 -5 -1 72.5 2.77
-7 -5 -2 184.28 3.97
-7 -5 -2 188.08 4.1
-7 -5 -3 23.68 1.5
-7 -5 -3 26.02 1.59
-7 -5 -3 28.21 1.74
-7 -5 -3 26.91 1.67
-7 -5 -4 83.8 2.16
-7 -5 -4 88 2.24
-7 -5 -4 82.02 2.25
-7 -5 -4 85.76 2.27
-7 -6 -1 23.88 1.27
-7 -6 -1 24.18 1.38
-7 -6 -2 128.54 3.04
-7 -6 -2 127.79 3.01
-7 -6 -3 159.74 3
-7 -6 -3 177.41 3.27
