#------------------------------------------------------------------------------
#$Date: 2019-11-11 03:15:36 +0200 (Mon, 11 Nov 2019) $
#$Revision: 226237 $
#$URL: file:///home/coder/svn-repositories/cod/cif/4/00/31/4003133.cif $
#------------------------------------------------------------------------------
#
# This file is available in the Crystallography Open Database (COD),
# http://www.crystallography.net/
#
# All data on this site have been placed in the public domain by the
# contributors.
#
data_4003133
loop_
_publ_author_name
'Hodges, James M.'
'Xia, Yi'
'Malliakas, Christos D.'
'Alexander, Grant C. B.'
'Chan, Maria K. Y.'
'Kanatzidis, Mercouri G.'
_publ_section_title
;
 Two-Dimensional CsAg5Te3--xSx Semiconductors: Multi-anion Chalcogenides
 with Dynamic Disorder and Ultralow Thermal Conductivity
;
_journal_issue                   20
_journal_name_full               'Chemistry of Materials'
_journal_page_first              7245
_journal_paper_doi               10.1021/acs.chemmater.8b03306
_journal_volume                  30
_journal_year                    2018
_chemical_formula_moiety         '2(Ag2.5 Cs0.5 S Te0.5)'
_chemical_formula_sum            'Ag5 Cs S2 Te'
_chemical_formula_weight         863.98
_space_group_crystal_system      tetragonal
_space_group_IT_number           123
_space_group_name_Hall           '-P 4 2'
_space_group_name_H-M_alt        'P 4/m m m'
_atom_sites_solution_primary     direct
_audit_creation_date             2018-07-30
_audit_creation_method
;
Olex2 1.2
(compiled 2018.05.29 svn.r3508 for OlexSys, GUI svn.r5506)
;
_cell_angle_alpha                90
_cell_angle_beta                 90
_cell_angle_gamma                90
_cell_formula_units_Z            1
_cell_length_a                   4.3160(3)
_cell_length_b                   4.3160(3)
_cell_length_c                   11.2486(8)
_cell_measurement_reflns_used    2963
_cell_measurement_temperature    298(2)
_cell_measurement_theta_max      29.99
_cell_measurement_theta_min      4.72
_cell_volume                     209.54(3)
_computing_cell_refinement       'SAINT V8.34A (Bruker, 2017)'
_computing_data_collection       'APEX2 V2017.3 (Bruker, 2017)'
_computing_data_reduction        'Bruker SAINT'
_computing_molecular_graphics    'Olex2 (Dolomanov et al., 2009)'
_computing_publication_material  'Olex2 (Dolomanov et al., 2009)'
_computing_structure_refinement  'XL (Sheldrick, 2008)'
_computing_structure_solution    'ShelXS (Sheldrick, 2008)'
_diffrn_ambient_temperature      298(2)
_diffrn_detector_area_resol_mean 8
_diffrn_measured_fraction_theta_full 0.987
_diffrn_measured_fraction_theta_max 0.991
_diffrn_measurement_device_type  'Bruker Kappa APEX CCD area detector'
_diffrn_measurement_method       '\w and \f scans'
_diffrn_radiation_monochromator  'MX optics'
_diffrn_radiation_type           MoK\a
_diffrn_radiation_wavelength     0.71073
_diffrn_reflns_av_R_equivalents  0.0312
_diffrn_reflns_av_unetI/netI     0.0129
_diffrn_reflns_Laue_measured_fraction_full 0.987
_diffrn_reflns_Laue_measured_fraction_max 0.991
_diffrn_reflns_limit_h_max       5
_diffrn_reflns_limit_h_min       -6
_diffrn_reflns_limit_k_max       6
_diffrn_reflns_limit_k_min       -6
_diffrn_reflns_limit_l_max       15
_diffrn_reflns_limit_l_min       -15
_diffrn_reflns_number            3780
_diffrn_reflns_point_group_measured_fraction_full 0.987
_diffrn_reflns_point_group_measured_fraction_max 0.991
_diffrn_reflns_theta_full        25.242
_diffrn_reflns_theta_max         30.022
_diffrn_reflns_theta_min         4.723
_diffrn_source                   microsource
_exptl_absorpt_coefficient_mu    19.569
_exptl_absorpt_correction_T_max  0.7460
_exptl_absorpt_correction_T_min  0.4551
_exptl_absorpt_correction_type   multi-scan
_exptl_absorpt_process_details
;
SADABS-2014/5 (Bruker,2014/5) was used for absorption correction.
wR2(int) was 0.0949 before and 0.0438 after correction.
The Ratio of minimum to maximum transmission is 0.6101.
The \l/2 correction factor is Not present.
;
_exptl_crystal_colour            black
_exptl_crystal_colour_primary    black
_exptl_crystal_density_diffrn    6.847
_exptl_crystal_description       plate
_exptl_crystal_F_000             374
_exptl_crystal_size_max          0.052
_exptl_crystal_size_mid          0.048
_exptl_crystal_size_min          0.019
_refine_diff_density_max         1.488
_refine_diff_density_min         -0.672
_refine_diff_density_rms         0.144
_refine_ls_extinction_coef       0.0032(7)
_refine_ls_extinction_expression Fc^*^=kFc[1+0.001xFc^2^\l^3^/sin(2\q)]^-1/4^
_refine_ls_extinction_method     'SHELXL-2014/7 (Sheldrick 2014'
_refine_ls_goodness_of_fit_ref   1.152
_refine_ls_hydrogen_treatment    undef
_refine_ls_matrix_type           full
_refine_ls_number_parameters     15
_refine_ls_number_reflns         229
_refine_ls_number_restraints     0
_refine_ls_restrained_S_all      1.152
_refine_ls_R_factor_all          0.0146
_refine_ls_R_factor_gt           0.0144
_refine_ls_shift/su_max          0.000
_refine_ls_shift/su_mean         0.000
_refine_ls_structure_factor_coef Fsqd
_refine_ls_weighting_details
'w=1/[\s^2^(Fo^2^)+(0.0197P)^2^+0.4468P] where P=(Fo^2^+2Fc^2^)/3'
_refine_ls_weighting_scheme      calc
_refine_ls_wR_factor_gt          0.0403
_refine_ls_wR_factor_ref         0.0405
_reflns_Friedel_coverage         0.000
_reflns_number_gt                225
_reflns_number_total             229
_reflns_threshold_expression     'I > 2\s(I)'
_cod_data_source_file            cm8b03306_si_001.cif
_cod_data_source_block           csag5tes2_296k
_cod_database_code               4003133
_shelx_shelxl_version_number     2014/7
_shelx_space_group_comment
;
The symmetry employed for this shelxl refinement is uniquely defined
by the following loop, which should always be used as a source of
symmetry information in preference to the above space-group names.
They are only intended as comments.
;
_shelx_estimated_absorpt_t_max   0.707
_shelx_estimated_absorpt_t_min   0.429
_olex2_refinement_description
;
;
_shelx_res_file
;
    csag5tes2_296k.res created by SHELXL-2014/7

TITL rt_a.res in P4/mmm
REM Old TITL RT in P4/mmm
REM SHELXT solution in P4/mmm
REM R1 0.128, Rweak 0.019, Alpha 0.032, Orientation as input
REM Formula found by SHELXT: S2 Te5 Cs2
CELL 0.71073 4.316 4.316 11.2486 90 90 90
ZERR 1 0.0003 0.0003 0.0008 0 0 0
LATT 1
SYMM -X,-Y,+Z
SYMM -Y,+X,+Z
SYMM +Y,-X,+Z
SYMM -X,+Y,-Z
SYMM +X,-Y,-Z
SYMM +Y,+X,-Z
SYMM -Y,-X,-Z
SFAC Ag Cs S Te
UNIT 5 1 2 1

L.S. 4
PLAN  20
SIZE 0.019 0.048 0.052
TEMP 25(2)
list 4
fmap 2
acta
REM <olex2.extras>
REM <HklSrc "%.\\CsAg5TeS2_296K.hkl">
REM </olex2.extras>

WGHT    0.019700    0.446800
EXTI    0.003234
FVAR       0.41023
CS1   2    0.500000    0.500000    0.500000    10.06250    0.02750    0.02750 =
         0.02466    0.00000    0.00000    0.00000
TE1   4    0.500000    0.500000    0.000000    10.06250    0.02284    0.02284 =
         0.01912    0.00000    0.00000    0.00000
AG1   1    0.000000    0.000000    0.000000    10.06250    0.02326    0.02326 =
         0.03304    0.00000    0.00000    0.00000
AG2   1    0.000000    0.500000    0.196438    10.25000    0.04308    0.01892 =
         0.03412    0.00000    0.00000    0.00000
S1    3    0.000000    0.000000    0.318651    10.12500    0.01489    0.01489 =
         0.01968    0.00000    0.00000    0.00000
HKLF 4

REM  rt_a.res in P4/mmm
REM R1 =  0.0144 for     225 Fo > 4sig(Fo)  and  0.0146 for all     229 data
REM     15 parameters refined using      0 restraints

END

WGHT      0.0197      0.4468

REM Highest difference peak  1.488,  deepest hole -0.672,  1-sigma level  0.144
Q1    1   0.0000  0.5000  0.2532  10.25000  0.05    1.49
Q2    1   0.5000  0.5000  0.4539  10.12500  0.05    0.68
Q3    1   0.0000  0.5000  0.0400  10.25000  0.05    0.54
Q4    1   0.0000  0.0000  0.0548  10.12500  0.05    0.52
Q5    1   0.5000  0.5000  0.0535  10.12500  0.05    0.38
Q6    1   0.5000  0.5000  0.3267  10.12500  0.05    0.32
Q7    1   0.2582  0.2582  0.0000  10.25000  0.05    0.30
Q8    1   0.0000  0.0000  0.1931  10.12500  0.05    0.29
Q9    1   0.3673  0.3673  0.4213  10.50000  0.05    0.28
Q10   1  -0.1185  0.3374  0.1134  11.00000  0.05    0.25
Q11   1   0.1645  0.1645  0.0768  10.50000  0.05    0.23
Q12   1   0.0000  0.0000  0.5000  10.06250  0.05    0.21
Q13   1   0.3307  0.3307  0.0897  10.50000  0.05    0.21
Q14   1  -0.0379  0.2255  0.2329  11.00000  0.05    0.21
Q15   1   0.1209  0.1209  0.0000  10.25000  0.05    0.20
Q16   1   0.0000  0.3986  0.1729  10.50000  0.05    0.20
Q17   1   0.1542  0.1542  0.5000  10.25000  0.05    0.19
Q18   1   0.5000  0.2066  0.0000  10.25000  0.05    0.19
Q19   1   0.3803  0.2522  0.5000  10.50000  0.05    0.18
Q20   1   0.4009  0.2635  0.0830  11.00000  0.05    0.18
;
_shelx_res_checksum              90826
_shelx_hkl_file
;
   0   1   0  105.49    4.10
   0   1   0  107.79    4.20
   0   1   0  107.69    4.10
   0  -1   0  111.79    4.20
  -1   0   0  117.89    4.80
  -1   0   0  118.09    4.20
  -1   0   0  110.99    4.10
   0  -1   0  106.79    4.10
  -1  -1   0    0.40    0.20
  -1  -1   0    0.50    0.20
  -1  -1   0    0.20    0.20
   1  -1   0    0.20    0.10
  -1   1   0    0.10    0.10
  -1   1   0    0.50    0.20
   1  -2   0   34.10    1.70
   1  -2   0   35.80    1.70
  -1   2   0   36.30    1.70
   1  -2   0   37.50    1.80
   1  -2   0   35.40    1.60
  -2  -1   0   37.80    1.60
  -2  -1   0   34.80    1.60
  -1   2   0   38.30    2.00
  -1   2   0   33.90    1.60
  -2  -1   0   34.20    1.80
   0  -2   0 9999.00  334.57
   0  -2   0 9694.13  333.87
   0   2   0 9626.54  335.77
   0  -2   0 9679.83  335.07
   0   2   0 9409.96  333.67
  -2   0   0 8433.66  341.97
   0   2   0 9284.87  333.37
   0  -2   0 9170.18  333.57
   0   2   0 9309.77  333.57
   2  -1   0   36.10    1.70
  -1  -2   0   35.00    1.70
  -1  -2   0   34.40    1.60
  -2   1   0   36.60    1.80
   1   2   0   35.30    1.70
  -1  -2   0   37.80    1.80
  -2  -2   0 5723.13  210.38
   2  -2   0 5805.22  210.78
  -2  -2   0 6036.90  211.68
  -2   2   0 5917.31  211.58
  -2  -2   0 5877.31  211.88
   2  -2   0 6185.68  210.78
  -2   3   0   46.10    2.40
   2  -3   0   47.60    2.40
  -3  -2   0   46.60    2.30
   2  -3   0   49.40    2.80
  -3  -2   0   48.60    2.60
   2  -3   0   47.80    2.50
   2  -3   0   46.10    2.60
   2  -3   0   45.30    2.40
   1  -3   0    6.50    0.80
   3   1   0    5.60    0.60
   1  -3   0    5.70    1.00
  -1   3   0    6.20    0.70
  -3  -1   0    7.00    0.80
  -3  -1   0    6.00    0.70
  -1   3   0    6.80    1.10
   1  -3   0    5.30    0.70
   1  -3   0    7.80    1.00
   1  -3   0    5.00    0.80
  -3  -1   0    5.70    0.80
  -3   0   0  109.09    6.20
   0   3   0  113.49    4.50
   0  -3   0  112.49    4.60
   0   3   0  104.29    4.40
  -3   0   0  107.79    4.40
   3   0   0  110.99    4.50
   0  -3   0  112.39    4.80
  -3   0   0  113.09    4.60
   0   3   0  116.89    5.00
  -3   0   0  119.89    4.80
   0  -3   0  108.79    4.80
  -3   1   0    7.10    0.90
  -3   1   0    7.60    0.90
  -1  -3   0    6.30    0.70
   3  -1   0    5.10    0.70
  -1  -3   0    7.10    1.00
  -1  -3   0    8.60    0.90
   3  -1   0    6.50    0.70
  -3   1   0    5.60    0.60
   3  -2   0   46.30    2.40
   3  -2   0   46.60    2.40
  -2  -3   0   46.60    2.60
  -2  -3   0   46.70    2.20
  -3   2   0   47.90    2.50
   3  -3   0   12.50    1.40
  -3  -3   0   14.60    1.20
   3  -3   0   14.90    1.50
   3  -3   0   14.80    1.80
  -3   3   0   13.70    1.40
   3  -3   0   14.60    1.40
   3  -4   0    1.20    0.80
   3  -4   0    0.60    0.60
   3  -4   0    0.70    0.60
  -3   4   0    1.70    0.70
   3  -4   0    1.00    0.60
  -4  -3   0    1.60    0.60
  -4  -3   0    3.00    0.90
   3  -4   0    1.80    0.80
  -2   4   0 1805.02   66.79
   2  -4   0 1835.22   66.79
  -4  -2   0 1874.11   67.19
   2  -4   0 1899.61   66.79
   2  -4   0 1853.91   66.89
   2  -4   0 1923.21   67.39
  -4  -2   0 1866.61   66.69
   2  -4   0 1844.72   67.19
   1  -4   0    1.80    0.70
  -4  -1   0    0.80    0.40
  -1   4   0    0.30    0.50
  -1   4   0    0.40    0.40
  -4  -1   0    0.80    0.50
  -4  -1   0    0.60    0.40
   1  -4   0    1.30    0.60
   1  -4   0    0.70    0.50
   1  -4   0   -0.10    0.50
  -4   0   0 2730.53   93.39
   0   4   0 2702.13   94.29
   0  -4   0 2705.73   93.69
   4   0   0 2646.14   94.29
   0   4   0 2665.53   93.59
   0  -4   0 2641.54   93.89
  -4   0   0 2449.95   96.39
   0  -4   0 2410.16   93.79
  -4   0   0 2612.64   93.89
  -4   0   0 2681.83   93.69
  -1  -4   0    1.60    0.70
  -1  -4   0    0.50    0.60
   4  -1   0    0.40    0.40
  -4   1   0    0.80    0.60
  -1  -4   0    0.20    0.50
  -4   1   0    2.10    0.60
  -4   1   0    0.50    0.30
  -4   1   0    0.30    0.80
  -2  -4   0 1963.50   66.79
  -2  -4   0 1756.02   67.29
   4  -2   0 1869.21   67.09
   4  -2   0 1938.31   66.89
  -4   2   0 1844.52   67.09
  -4   2   0 1831.52   67.29
   4  -3   0    0.60    0.60
  -4   3   0    2.50    0.80
  -4   3   0    1.70    0.70
  -3  -4   0    2.00    0.90
  -3  -4   0    0.70    0.50
   4  -3   0    1.70    0.70
   4  -4   0  684.93   25.70
  -4   4   0  675.63   25.80
   4  -4   0  703.03   25.60
  -4  -4   0  685.23   25.30
   4  -4   0  675.13   25.70
   3  -5   0    7.40    1.30
   3  -5   0    9.80    1.60
   3  -5   0    8.70    1.50
   3  -5   0   10.30    1.90
  -5  -3   0    8.20    1.50
  -3   5   0   11.60    2.00
  -5  -3   0    9.30    1.40
   2  -5   0   27.40    2.50
   2  -5   0   29.40    2.40
   2  -5   0   30.40    2.60
  -5  -2   0   31.90    2.10
  -5  -2   0   31.00    2.40
   1  -5   0    7.40    1.40
   1  -5   0    8.70    1.40
  -5  -1   0   10.60    1.30
  -5  -1   0    9.10    1.40
   1  -5   0    7.00    1.40
  -1   5   0    7.70    1.50
  -5   0   0   58.69    3.10
   0   5   0   52.09    3.50
  -5   0   0   57.29    3.30
   0  -5   0   55.29    3.20
  -5   0   0   58.49    2.80
   0  -5   0   49.40    3.20
   0   5   0   51.79    2.90
   0  -5   0   49.90    3.20
  -1  -5   0    6.40    1.30
  -5   1   0    9.90    1.60
  -1  -5   0    8.40    1.40
  -5   1   0   10.20    1.40
   5  -1   0    7.00    1.10
  -1  -5   0    5.40    1.20
  -5   2   0   30.40    2.20
   5  -2   0   29.70    2.10
  -2  -5   0   29.00    2.50
  -5   2   0   25.40    2.20
  -5   3   0    7.60    1.40
  -5   3   0    8.50    1.40
   5  -3   0    9.60    1.50
  -3  -5   0    7.20    1.60
   0  -6   0  471.85   19.90
   0  -6   0  529.25   20.00
  -6   0   0  529.55   20.20
   0   6   0  522.25   19.80
  -6   0   0  537.65   19.30
   0  -6   0  479.85   20.10
   0  -1  -1  159.58    5.80
  -1   0  -1  151.68    5.80
  -1   0  -1  158.98    5.70
   0   1  -1  152.98    5.70
   0   1  -1  153.38    5.70
   0   1  -1  150.38    5.80
   0  -1  -1  155.48    5.70
  -1   0  -1  167.28    6.50
  -1   0   1  159.08    6.40
  -1   0   1  148.09    5.90
  -1   0   1  158.08    5.80
   0  -1   1  148.39    5.70
   0   1   1  157.98    5.90
   0   1   1  152.18    5.70
   0  -1   1  165.58    5.80
  -1   1  -1   90.39    3.50
  -1  -1  -1   94.89    3.60
   1  -1  -1   90.89    3.50
  -1   1  -1   91.29    3.50
   1  -1   1   88.29    3.50
  -1  -1   1   89.59    3.50
  -1   1   1   85.49    3.50
  -1  -1   1   93.09    3.60
   1  -1   1   97.49    3.50
  -1   1   1   90.69    3.50
  -1   2  -1   96.29    3.90
  -2  -1  -1   99.19    4.10
   1  -2  -1   99.19    4.10
  -1   2  -1  100.39    4.00
   1  -2  -1  100.19    4.20
   1  -2  -1   98.59    4.00
  -1   2  -1  105.79    4.30
  -2  -1  -1   99.79    3.90
   1  -2  -1   98.29    4.00
   1  -2  -1   97.89    3.90
  -2  -1  -1   94.39    3.80
  -2  -1   1   94.79    3.90
   1  -2   1   92.09    3.90
   1  -2   1  103.89    4.10
   1  -2   1  100.49    4.00
   1  -2   1   99.59    3.90
  -2  -1   1  100.39    4.00
  -2  -1   1   99.49    4.10
  -2  -1   1  106.79    4.30
  -1   2   1   99.99    3.90
  -1   2   1   93.79    3.90
   1  -2   1   95.19    4.00
  -1   2   1  110.59    4.30
  -2   0  -1  647.64   22.80
   0  -2  -1  639.94   23.10
   0  -2  -1  642.94   23.00
   0   2  -1  622.64   22.80
   0   2  -1  633.94   22.90
   0  -2  -1  633.54   23.10
  -2   0  -1  641.54   22.90
  -2   0  -1  642.54   23.10
   0  -2  -1  633.54   22.90
   0   2  -1  617.44   23.20
  -2   0  -1  663.33   24.40
  -2   0   1  630.14   22.80
  -2   0   1  622.34   24.30
   0   2   1  635.24   22.90
   0   2   1  624.34   23.20
   0  -2   1  634.04   22.90
   0  -2   1  650.73   23.10
   0   2   1  631.54   22.90
   0  -2   1  650.33   22.90
   0   2   1  614.74   22.80
  -2   0   1  639.44   23.00
   2   0   1  634.24   22.90
  -2   0   1  675.13   23.10
   2  -1  -1   97.69    3.80
  -1  -2  -1  104.49    4.10
  -1  -2  -1  100.99    3.80
  -2   1  -1   99.29    4.00
  -2   1  -1  100.99    4.00
  -1  -2  -1   90.19    3.90
   1   2  -1   97.59    4.00
   2  -1   1  100.89    3.90
  -1  -2   1   89.19    3.70
  -1  -2   1  102.39    4.10
  -2   1   1   95.39    4.00
   1   2   1   98.79    4.00
   2  -1   1  100.49    3.90
  -2   1   1   92.59    3.70
   2  -2  -1  386.76   14.40
   2  -2  -1  370.36   14.20
  -2  -2  -1  381.36   14.10
  -2  -2  -1  394.96   14.50
  -2   2  -1  383.56   14.30
   2  -2  -1  399.66   14.10
   2  -2   1  385.36   14.20
   2  -2   1  366.56   14.20
  -2   2   1  382.26   14.30
  -2  -2   1  394.96   14.50
   2  -2   1  405.26   14.10
  -2  -2   1  364.26   14.00
  -2  -2   1  386.46   14.30
   2  -3  -1   26.00    1.90
  -2   3  -1   25.30    1.60
  -3  -2  -1   25.00    1.50
   2  -3  -1   26.50    1.80
   2  -3  -1   24.40    1.60
  -3  -2  -1   23.00    1.70
   2  -3  -1   25.30    1.60
   2  -3   1   25.30    1.70
  -3  -2   1   24.70    1.90
  -3  -2   1   26.00    1.70
   2  -3   1   25.10    1.60
  -2   3   1   25.60    1.60
   2  -3   1   25.50    1.70
   2  -3   1   23.90    1.60
  -3  -2   1   24.10    1.50
  -1   3  -1   20.40    1.70
  -3  -1  -1   22.10    1.50
   1  -3  -1   23.40    1.60
  -1   3  -1   22.30    1.40
   1  -3  -1   24.20    1.70
  -1   3  -1   19.30    1.40
  -3  -1  -1   20.40    1.30
   3   1  -1   21.20    1.10
   1  -3  -1   19.30    1.50
  -3  -1  -1   22.80    1.30
   1  -3  -1   26.40    1.50
  -1   3   1   20.30    1.70
  -3  -1   1   22.50    1.40
   1  -3   1   18.60    1.30
   1  -3   1   20.40    1.60
  -3  -1   1   23.00    1.30
  -1   3   1   22.70    1.30
   1  -3   1   20.70    1.50
   1  -3   1   20.00    1.50
  -3  -1   1   22.30    1.50
   3   1   1   19.50    1.10
   0   3  -1   33.30    1.70
  -3   0  -1   32.90    1.70
  -3   0  -1   39.70    2.00
  -3   0  -1   30.60    1.60
   0  -3  -1   33.70    2.00
   0   3  -1   32.40    1.70
   0   3  -1   32.10    2.00
   0  -3  -1   31.90    1.80
  -3   0  -1   34.00    3.00
   0  -3  -1   30.20    1.90
  -3   0   1   33.60    3.00
   0   3   1   32.40    1.70
   3   0   1   32.90    1.70
  -3   0   1   33.80    1.80
   0   3   1   31.10    2.00
   0  -3   1   34.40    1.80
  -3   0   1   32.70    1.60
  -3   0   1   35.60    2.00
   0  -3   1   34.80    2.00
   0  -3   1   33.60    1.90
  -1  -3  -1   21.60    1.50
  -3   1  -1   19.10    1.10
  -3   1  -1   19.80    1.40
  -1  -3  -1   18.60    1.50
   1   3  -1   20.70    1.20
  -3   1  -1   20.90    1.50
   1   3  -1   23.20    1.20
  -1  -3  -1   18.40    1.10
  -1  -3   1   17.60    1.30
  -3   1   1   19.40    1.10
   3  -1   1   19.80    1.30
  -3   1   1   22.40    1.40
   3  -1   1   21.30    1.30
   1   3   1   19.40    1.70
  -1  -3   1   18.60    1.10
  -3   1   1   23.90    1.60
  -1  -3   1   22.60    1.60
  -2  -3  -1   23.70    1.70
  -2  -3  -1   23.40    1.40
  -3   2  -1   25.10    1.70
   3  -2  -1   26.00    1.60
   3  -2   1   26.90    1.50
   3  -2   1   26.90    1.60
  -2  -3   1   25.30    1.80
   3  -2   1   25.70    1.60
  -3   2   1   23.70    1.60
  -2  -3   1   26.00    1.40
   3  -3  -1    5.50    1.00
   3  -3  -1    6.80    1.30
   3  -3  -1    7.20    1.00
  -3   3  -1    9.90    1.30
  -3  -3  -1    7.30    1.00
   3  -3   1    4.50    0.90
  -3  -3   1    6.30    0.90
   3  -3   1    4.20    0.90
  -3  -3   1    8.30    1.30
   3  -3   1    5.30    0.90
  -3   3   1    7.70    1.10
  -3  -3   1    6.80    1.20
   3  -4  -1   11.70    1.60
   3  -4  -1   12.30    1.40
  -4  -3  -1   10.80    1.30
  -3   4  -1   12.00    1.40
   3  -4  -1    9.90    1.60
   3  -4  -1   10.70    1.40
  -4  -3  -1   14.40    1.70
   3  -4  -1   11.70    1.40
   3  -4   1   11.50    1.40
   3  -4   1   14.20    2.00
  -3   4   1   11.30    1.30
  -4  -3   1   14.30    1.30
   3  -4   1   13.70    1.60
   3  -4   1   10.30    1.40
   3  -4   1   11.20    1.40
  -4  -3   1   13.50    1.60
   2  -4  -1  113.39    5.40
  -4  -2  -1  110.89    4.90
  -2   4  -1  115.79    5.10
   2  -4  -1  112.49    5.20
   2  -4  -1  116.79    5.50
   2  -4  -1  113.39    5.10
   2  -4  -1  115.39    5.10
  -4  -2  -1  114.09    5.30
  -4  -2   1  118.69    5.40
   2  -4   1  123.09    5.70
   2  -4   1  117.99    5.10
   2  -4   1  117.49    5.00
  -4  -2   1  115.09    5.00
   2  -4   1  116.69    5.40
  -2   4   1  108.89    5.10
   2  -4   1  113.39    5.20
  -1   4  -1   34.80    2.50
  -4  -1  -1   35.30    2.00
   1  -4  -1   33.80    2.20
   1  -4  -1   32.20    2.30
  -1   4  -1   32.10    2.00
  -4  -1  -1   37.40    2.00
   1  -4  -1   34.30    2.30
  -4  -1  -1   35.00    2.20
  -4  -1   1   34.50    2.00
   1  -4   1   32.60    2.30
  -1   4   1   34.80    2.50
  -1   4   1   32.70    2.00
  -4  -1   1   34.20    2.20
   1  -4   1   35.40    2.20
   1  -4   1   36.20    2.40
  -4  -1   1   36.10    2.00
   0   4  -1  165.38    6.60
   4   0  -1  162.28    6.50
   0  -4  -1  160.48    6.80
  -4   0  -1  168.18    6.70
  -4   0  -1  162.08    6.80
  -4   0  -1  153.98    8.80
   0  -4  -1  163.58    7.00
   0   4  -1  156.88    7.20
   0  -4  -1  151.08    6.90
  -4   0  -1  166.68    6.50
   0  -4   1  152.28    6.90
   0  -4   1  171.98    6.70
   4   0   1  162.78    6.50
  -4   0   1  153.78    8.90
  -4   0   1  159.38    6.70
  -4   0   1  160.38    6.50
  -4   0   1  166.38    7.00
   0   4   1  175.28    6.60
   0  -4   1  162.88    7.00
   0   4   1  167.58    7.20
  -1  -4  -1   31.40    2.10
   4  -1  -1   35.90    2.00
  -4   1  -1   32.30    1.70
  -4   1  -1   34.00    2.10
  -1  -4  -1   31.90    2.20
  -1  -4  -1   32.50    2.10
  -4   1  -1   33.50    2.20
  -4   1  -1   36.10    3.60
  -4   1   1   35.60    2.30
  -1  -4   1   31.50    2.10
  -1  -4   1   32.20    2.00
  -1  -4   1   31.30    2.20
  -4   1   1   30.20    3.50
   4  -1   1   36.20    2.00
  -4   1   1   32.80    1.80
  -4   1   1   36.70    2.10
   4  -2  -1  110.99    5.00
  -2  -4  -1  105.89    4.60
  -2  -4  -1  106.59    5.20
  -4   2  -1  111.69    5.00
  -4   2  -1  107.89    5.10
   4  -2   1  117.49    5.00
  -4   2   1  116.89    5.30
  -2  -4   1  104.09    5.20
  -4   2   1  104.89    5.00
   4  -2   1  116.59    4.90
  -4   3  -1   12.50    1.40
   4  -3  -1   14.10    1.50
   4  -3  -1   11.70    1.50
   4  -3  -1   11.60    1.30
  -3  -4  -1   11.60    1.20
  -3  -4  -1   10.50    1.60
  -4   3  -1   12.00    1.40
  -3  -4   1   11.70    1.20
   4  -3   1   10.50    1.40
  -4   3   1   13.80    1.50
   4  -3   1   12.40    1.50
  -3  -4   1   10.20    1.60
  -4  -4  -1   45.30    2.60
   4  -4  -1   44.20    3.10
   4  -4  -1   49.00    3.00
   4  -4  -1   42.00    3.00
  -4   4  -1   44.10    3.00
   4  -4   1   43.40    2.90
   4  -4   1   46.30    3.00
   4  -4   1   47.40    3.00
  -4  -4   1   48.00    2.70
  -4   4   1   40.40    2.90
   3  -5  -1    1.00    0.80
  -5  -3  -1    1.40    0.70
  -5  -3  -1    1.30    0.80
   3  -5  -1    0.70    0.90
  -3   5  -1    1.70    0.90
   3  -5  -1    1.40    0.90
   3  -5   1    1.70    0.90
   3  -5   1   -0.30    0.60
  -5  -3   1    2.30    1.00
   3  -5   1    1.20    1.10
  -5  -3   1    0.80    0.70
   3  -5   1    0.40    1.00
   2  -5  -1    2.40    1.00
  -5  -2  -1    1.90    0.70
   2  -5  -1    2.80    1.00
  -5  -2  -1    1.50    0.80
   2  -5  -1    1.90    0.80
   2  -5   1    1.40    0.90
  -5  -2   1    2.00    0.70
   2  -5   1    1.70    0.90
   2  -5   1    1.50    1.00
  -5  -2   1    2.70    0.80
  -5  -1  -1    4.80    1.20
   1  -5  -1    5.60    1.20
   1  -5  -1    2.90    1.00
  -5  -1  -1    4.00    0.90
   1  -5  -1    4.30    1.10
  -1   5  -1    2.10    1.10
   1  -5   1    2.30    1.00
  -5  -1   1    4.70    1.00
   1  -5   1    2.60    1.00
   1  -5   1    4.10    1.10
  -5  -1   1    3.90    0.80
  -1   5   1    1.20    0.80
   0   5  -1    1.90    0.80
   0  -5  -1    2.40    0.90
   0   5  -1    1.90    0.90
  -5   0  -1    2.40    0.90
  -5   0  -1    2.60    0.80
   0  -5  -1    1.10    0.80
  -5   0  -1    2.40    0.60
   0  -5  -1    1.60    0.80
  -5   0   1    2.90    0.80
   0   5   1    1.20    0.70
   0  -5   1    1.70    0.90
  -5   0   1    2.40    0.60
   0  -5   1    0.70    0.80
   0   5   1    1.90    0.90
   0  -5   1    1.70    0.80
  -5   0   1    2.80    0.80
  -1  -5  -1    4.80    1.20
   5  -1  -1    3.20    0.80
   1   5  -1    4.10    1.10
  -1  -5  -1    3.20    1.00
  -5   1  -1    2.90    0.90
  -5   1  -1    4.50    1.00
  -5   1   1    3.50    0.90
  -1  -5   1    1.50    0.90
  -5   1   1    2.20    0.80
  -1  -5   1    3.20    1.00
   1   5   1    3.70    1.00
  -1  -5   1    2.90    1.10
   5  -1   1    2.90    0.80
  -5   2  -1    3.10    0.90
  -2  -5  -1    3.10    1.10
   5  -2  -1    2.00    0.70
  -5   2  -1    1.50    0.80
   5  -2   1    1.20    0.70
  -5   2   1    1.90    0.90
  -2  -5   1    2.40    1.00
  -5   2   1    3.00    0.90
   5  -3  -1    1.00    0.80
  -5   3  -1    3.40    1.10
  -5   3  -1    1.30    0.80
  -3  -5   1    2.60    1.20
  -5   3   1    1.50    0.80
  -5   3   1    1.40    0.80
   5  -3   1    1.60    0.80
   0  -6  -1   30.70    2.80
   0   6  -1   34.90    3.30
   0   6  -1   39.70    2.70
   0  -6  -1   32.70    3.00
  -6   0  -1   37.50    2.90
  -6   0  -1   33.90    2.30
   0  -6  -1   32.00    3.00
   0  -6   1   34.70    2.90
  -6   0   1   34.00    2.40
  -6   0   1   38.80    2.80
   0   6   1   45.20    3.30
   0  -6   1   41.90    3.00
   0  -6   1   35.20    2.90
   0   6   1   32.70    3.10
  -6   0   1   32.50    3.10
   0   1  -2  725.73   25.60
  -1   0  -2  722.83   25.70
  -1   0  -2  695.43   25.60
   0   1  -2  742.33   25.70
  -1   0  -2  732.23   26.30
   0   1   2  783.72   25.90
   1   0   2  701.43   25.60
  -1   0   2  690.23   26.30
  -1   0   2  649.24   25.90
  -1   0   2  701.83   25.70
   0  -1   2  753.22   25.70
   0  -1   2  716.33   25.60
  -1   1  -2 6849.52  244.58
  -1  -1  -2 6959.70  245.28
  -1   1  -2 7052.29  243.88
  -1   1   2 6338.37  244.28
   1  -1   2 7106.79  243.98
  -1   1   2 7153.48  243.78
  -1  -1   2 6527.85  243.98
   1   1   2 6721.03  245.18
  -1  -1   2 7246.77  245.08
   1  -1   2 6727.43  244.18
   1  -2  -2  460.65   16.60
   1  -2  -2  440.36   16.60
   1  -2  -2  465.55   16.60
  -1   2  -2  453.25   16.60
   1  -2  -2  460.55   16.80
  -2  -1  -2  465.75   16.60
  -2  -1  -2  454.95   16.80
  -1   2  -2  453.45   16.70
  -2  -1   2  478.05   17.10
  -1   2   2  508.15   17.00
   1  -2   2  455.55   16.70
   1  -2   2  434.16   16.60
  -2  -1   2  445.76   16.60
  -2  -1   2  464.75   16.80
  -1   2   2  454.65   16.60
  -2  -1   2  453.25   16.80
   1  -2   2  466.05   16.60
   1  -2   2  443.76   16.70
  -1   2   2  436.06   16.60
   1  -2   2  486.55   16.80
   2   1   2  424.26   16.50
   0  -2  -2    4.80    0.60
   0   2  -2    4.70    0.70
   0  -2  -2    4.80    0.70
   0   2  -2    4.50    0.50
  -2   0  -2    4.60    0.50
   0  -2  -2    5.40    0.70
   0   2  -2    5.30    0.60
  -2   0  -2    6.20    0.60
   0   2  -2    3.20    0.40
  -2   0  -2    5.60    0.50
   0  -2  -2    5.60    0.50
   0  -2   2    5.00    0.60
  -2   0   2    5.60    0.50
   0  -2   2    5.50    0.50
   2   0   2    6.00    0.60
   2   0   2    4.50    0.50
   0  -2   2    5.40    0.60
  -2   0   2    5.60    0.60
   0  -2   2    5.30    0.40
   0   2   2    5.30    0.50
  -2   0   2    4.90    1.10
  -2   0   2    8.10    0.70
   0   2   2    6.10    0.50
   1   2  -2  439.86   16.80
  -1  -2  -2  474.15   16.90
  -1  -2  -2  449.46   16.80
  -1  -2  -2  469.45   16.60
  -2   1  -2  457.45   16.80
  -2   1  -2  465.35   16.80
  -1  -2   2  472.05   17.00
   2  -1   2  442.96   16.80
   2  -1   2  450.85   16.80
  -2   1   2  462.85   16.60
  -1  -2   2  464.15   16.60
   1   2   2  467.55   16.60
  -2   1   2  460.65   16.80
   1   2   2  467.85   17.00
  -2  -2  -2    1.90    0.40
  -2  -2  -2    0.40    0.40
  -2   2  -2    0.70    0.40
   2  -2  -2    1.80    0.50
   2  -2  -2    0.60    0.30
   2  -2  -2    0.30    0.40
   2  -2   2    0.70    0.30
  -2  -2   2    0.40    0.30
  -2   2   2    0.60    0.30
  -2  -2   2    0.90    0.40
   2  -2   2   -0.40    0.40
   2  -2   2    0.70    0.40
   2  -2   2    0.70    0.40
  -2   2   2    2.00    0.50
  -2  -2   2    0.30    0.40
  -2   3  -2  149.39    6.10
  -3  -2  -2  144.99    6.20
   2  -3  -2  148.89    6.00
   2  -3  -2  144.69    6.00
  -3  -2  -2  150.58    5.90
   2  -3  -2  142.79    6.30
   2  -3  -2  145.29    6.30
  -2   3   2  143.29    5.90
   2  -3   2  147.89    6.10
   2  -3   2  155.48    6.20
  -3  -2   2  144.79    5.90
  -2   3   2  142.19    6.30
   2  -3   2  149.39    6.00
  -3  -2   2  150.28    6.20
   2  -3   2  142.69    6.00
  -3  -2   2  147.89    6.50
  -3  -1  -2 2490.35   90.19
  -1   3  -2 2626.04   90.29
   1  -3  -2 2553.24   90.29
   1  -3  -2 2575.04   90.59
   1  -3  -2 2625.34   90.59
   1  -3  -2 2548.65   90.19
  -1   3  -2 2523.45   90.19
  -3  -1  -2 2649.24   90.09
  -3  -1  -2 2521.45   90.79
   1  -3   2 2517.75   90.29
  -1   3   2 2589.54   90.79
   3   1   2 2365.06   90.19
  -3  -1   2 2383.86   90.79
  -1   3   2 2406.46   90.09
   1  -3   2 2499.35   90.09
  -3  -1   2 2490.85   90.29
   1  -3   2 2744.73   90.49
  -3  -1   2 2527.15   90.39
  -3  -1   2 2524.55   90.09
   0  -3  -2  168.18    6.60
   0  -3  -2  174.68    6.80
  -3   0  -2  174.98    6.40
  -3   0  -2  174.58    6.50
   0   3  -2  168.38    6.50
   0   3  -2  162.48    6.90
  -3   0  -2  169.98    6.70
  -3   0  -2  163.08    8.20
   0  -3  -2  156.48    6.20
   0   3  -2  169.98    6.50
   0  -3  -2  168.98    6.80
  -3   0   2  155.18    8.30
   3   0   2  168.88    6.40
  -3   0   2  152.58    6.80
   0  -3   2  169.88    6.80
   3   0   2  164.08    6.40
   0   3   2  159.88    6.50
  -3   0   2  164.88    6.60
  -3   0   2  179.88    6.80
   0  -3   2  169.28    6.50
  -3   0   2  163.68    6.40
   0   3   2  161.38    6.90
  -1  -3  -2 2404.56   89.59
  -1  -3  -2 2704.33   89.69
  -3   1  -2 2560.54   90.09
  -1  -3  -2 2573.44   89.19
  -1  -3  -2 2460.65   89.49
   1   3  -2 2561.64   89.39
  -3   1  -2 2418.36   89.19
  -3   1  -2 2522.85   91.69
  -3   1  -2 2586.14   90.59
  -1  -3   2 2553.14   89.79
  -1  -3   2 2221.58   89.09
   3  -1   2 2513.65   89.99
  -3   1   2 2638.04   89.59
   3  -1   2 2624.34   89.49
  -3   1   2 2370.76   89.29
   1   3   2 2512.75   89.89
  -3   2  -2  148.49    6.10
   3  -2  -2  141.59    5.90
  -3   2  -2  144.09    6.10
  -2  -3  -2  148.59    5.80
  -2  -3  -2  147.99    6.10
  -2  -3  -2  154.18    6.30
   3  -2   2  149.19    6.10
  -2  -3   2  143.29    5.80
  -3   2   2  153.98    6.10
  -2  -3   2  146.39    6.30
   3  -2   2  149.09    6.10
   3  -3  -2 1156.48   41.70
   3  -3  -2 1198.48   42.20
  -3   3  -2 1147.79   42.00
   3  -3  -2 1114.09   41.80
  -3  -3  -2 1154.08   41.60
   3  -3   2 1155.18   41.80
  -3  -3   2 1118.89   42.30
  -3  -3   2 1179.18   42.20
   3  -3   2 1160.48   41.90
  -3  -3   2 1191.08   41.70
  -3   3   2 1139.09   41.90
   3  -3   2 1158.98   41.90
   3  -4  -2   86.69    4.20
   3  -4  -2   87.79    4.30
   3  -4  -2   93.79    4.40
  -4  -3  -2   85.79    4.00
  -3   4  -2   88.09    4.40
   3  -4  -2   82.19    4.50
   3  -4  -2   86.79    4.60
  -4  -3   2   86.49    4.50
   3  -4   2   91.89    4.30
  -4  -3   2   90.29    4.10
   3  -4   2   84.89    4.40
   3  -4   2   86.29    4.30
  -3   4   2   87.09    4.30
  -2   4  -2    1.30    0.60
   2  -4  -2    1.50    0.70
   2  -4  -2   -0.40    0.60
  -4  -2  -2    0.80    0.50
   2  -4  -2    0.80    0.60
   2  -4  -2    2.20    0.80
  -4  -2  -2    0.50    0.60
  -4  -2   2    0.30    0.50
   2  -4   2    0.80    0.50
  -2   4   2    0.50    0.50
   2  -4   2    1.20    0.70
   2  -4   2    1.20    0.70
  -2   4   2    1.10    0.60
   2  -4   2    0.70    0.70
  -4  -1  -2  229.98    8.60
   1  -4  -2  231.08    9.20
  -1   4  -2  217.78    8.70
  -4  -1  -2  223.88    9.00
   1  -4  -2  205.58    9.00
   1  -4  -2  220.48    8.80
  -1   4   2  215.08    9.30
  -4  -1   2  219.88    9.00
   1  -4   2  218.68    8.80
  -4  -1   2  222.28    8.60
   1  -4   2  220.78    9.00
  -4  -1   2  210.88    8.80
   1  -4   2  224.38    9.20
  -4   0  -2    2.70    1.20
  -4   0  -2    0.60    0.40
  -4   0  -2    0.60    0.40
   0   4  -2    0.70    0.60
   0  -4  -2    0.00    0.60
  -4   0  -2    0.40    0.40
   0   4  -2   -0.90    0.50
   0  -4  -2    0.80    0.60
   4   0  -2   -0.30    0.30
   0  -4  -2    0.80    0.60
   0  -4   2   -0.80    0.60
   0   4   2   -0.20    0.40
   0  -4   2    0.70    0.60
  -4   0   2    0.20    0.80
   4   0   2    0.40    0.40
   0   4   2    0.70    0.50
  -4   0   2   -0.20    0.30
  -4   0   2    0.40    0.40
   0  -4   2    0.60    0.50
  -1  -4  -2  220.68    8.70
  -4   1  -2  220.88   11.00
  -4   1  -2  222.38    8.60
  -1  -4  -2  205.78    8.80
  -4   1  -2  223.48    8.70
  -1  -4  -2  207.48    8.70
  -4   1   2  214.68    8.90
   4  -1   2  223.08    8.50
  -1  -4   2  209.58    8.60
  -4   1   2  219.08    8.70
  -1  -4   2  203.68    8.80
  -4   1   2  213.08    8.30
   4  -1   2  226.78    8.50
  -4   1   2  195.08   11.00
  -2  -4  -2    1.00    0.70
  -4   2  -2    1.20    0.60
  -4   2  -2    1.00    0.60
  -2  -4  -2    1.00    0.70
  -2  -4  -2    1.80    0.60
  -2  -4   2    1.00    0.70
   4  -2   2    2.00    0.70
   4  -2   2    0.90    0.50
  -4   2   2    1.00    0.60
  -3  -4  -2   84.19    4.00
   4  -3  -2   89.59    4.40
  -4   3  -2   87.89    4.40
   4  -3  -2   86.39    4.20
  -3  -4   2   82.99    4.70
  -3  -4   2   86.79    4.00
  -4   3   2   91.79    4.40
   4  -3   2   89.39    4.30
   4  -3   2   87.39    4.30
   4  -4  -2    2.00    0.90
   4  -4  -2    2.60    1.00
   4  -4  -2    0.70    0.80
  -4   4  -2    1.60    0.90
  -4  -4  -2    1.80    0.70
  -4   4   2    0.20    0.70
   4  -4   2    1.80    0.90
  -4  -4   2    1.30    0.80
   4  -4   2    1.30    0.70
   4  -4   2    1.50    0.80
  -4  -4   2    1.40    1.10
   3  -5  -2  308.47   11.90
  -3   5  -2  288.47   11.90
   3  -5  -2  290.07   12.50
   3  -5  -2  277.07   12.00
  -5  -3  -2  295.67   11.60
   3  -5  -2  274.47   12.20
  -5  -3  -2  304.57   12.50
   3  -5   2  278.97   12.60
  -5  -3   2  300.27   12.30
   3  -5   2  291.07   11.70
   3  -5   2  303.87   12.30
   3  -5   2  285.87   12.10
  -5  -3   2  302.67   11.60
   2  -5  -2   14.20    1.90
   2  -5  -2   17.00    2.10
  -2   5  -2   16.90    3.20
  -5  -2  -2   18.90    1.60
  -5  -2  -2   18.50    1.90
   2  -5  -2   20.00    2.00
   2  -5   2   15.90    1.90
   2  -5   2   17.10    2.10
  -2   5   2   15.10    1.90
  -5  -2   2   20.30    1.90
  -5  -2   2   20.20    1.60
   2  -5   2   17.90    2.00
   1  -5  -2  543.45   21.60
  -5  -1  -2  589.64   20.90
   1  -5  -2  532.25   21.60
  -5  -1  -2  573.04   21.50
   1  -5  -2  575.84   21.30
  -5  -1   2  573.64   20.90
   1  -5   2  583.34   21.30
  -5  -1   2  584.74   21.30
  -5  -1   2  571.34   21.50
  -1   5   2  539.35   22.00
   1  -5   2  527.05   21.60
   1  -5   2  542.45   21.40
   0  -5  -2   19.50    1.90
   0   5  -2   19.10    2.00
   0   5  -2   18.60    1.80
  -5   0  -2   20.00    1.50
   0  -5  -2   19.30    2.00
  -5   0  -2   20.00    1.70
   0  -5  -2   18.80    1.90
  -5   0  -2   20.50    1.80
   0  -5   2   18.70    1.80
   0  -5   2   17.40    1.90
   0  -5   2   19.90    1.90
  -5   0   2   17.90    1.80
  -5   0   2   17.50    1.50
   0   5   2   15.30    2.00
  -5   0   2   19.60    1.70
   0   5   2   19.70    1.80
  -1  -5  -2  527.15   21.20
  -1  -5  -2  536.45   21.40
   1   5  -2  548.35   20.90
  -1  -5  -2  570.44   21.10
  -5   1  -2  595.44   21.20
  -5   1  -2  566.24   21.20
   5  -1  -2  576.74   21.00
  -5   1   2  544.05   20.80
  -1  -5   2  514.25   21.30
  -5   1   2  567.54   21.20
  -5   1   2  557.74   21.50
   5  -1   2  594.44   21.00
  -2  -5  -2   17.40    2.00
  -5   2  -2   19.10    1.80
   5  -2  -2   18.70    1.70
  -5   2  -2   17.10    1.70
  -2  -5   2   15.60    1.90
  -5   2   2   18.50    1.80
   5  -2   2   17.30    1.70
  -5   2   2   20.00    2.00
  -5   3  -2  271.87   11.60
   5  -3  -2  273.17   11.60
   5  -3   2  304.87   11.70
  -3  -5   2  264.87   12.10
  -5   3   2  290.07   12.20
  -5   3   2  289.97   11.80
   5  -3   2  300.97   11.70
  -6   0  -2    0.20    0.60
   0  -6  -2    0.70    0.80
   0  -6  -2   -1.20    1.00
   0  -6  -2   -0.70    0.80
   0   6  -2    0.90    0.80
  -6   0  -2    1.20    1.00
  -6   0   2   -0.80    0.50
   0  -6   2    2.40    1.00
  -6   0   2    0.40    0.70
   0  -6   2    2.00    1.00
   0   6   2    0.40    0.80
   0  -6   2    0.00    0.80
   0   0   3  805.82   27.40
   0   0   3  719.23   27.30
  -1   0  -3  637.84   23.50
   0   1  -3  675.13   23.50
  -1   0  -3  675.53   24.10
   0   1  -3  652.43   23.70
  -1   0  -3  667.93   23.50
   0   1  -3  613.14   23.50
  -1   0   3  649.34   23.60
  -1   0   3  646.14   24.10
   0  -1   3  672.03   23.50
   1   0   3  677.23   23.60
   0  -1   3  637.04   23.50
   0   1   3  628.94   23.50
   0  -1   3  679.03   23.60
   1   0   3  643.04   23.50
   0   1   3  715.23   23.90
  -1   0   3  638.14   23.80
  -1   1  -3 4276.27  149.99
  -1   1  -3 3882.41  149.09
  -1  -1  -3 4283.57  149.19
  -1   1  -3 4342.27  149.39
   1  -1   3 4130.69  149.59
  -1   1   3 4459.55  150.68
   1   1   3 4271.37  149.49
  -1   1   3 4095.49  149.79
   1  -1   3 4161.18  149.49
  -1  -1   3 4124.79  150.28
  -1   1   3 4205.98  149.39
  -1  -1   3 3892.41  149.29
  -1  -1   3 4405.56  149.59
   1  -1   3 4240.28  149.39
   1  -2  -3  278.67   10.40
  -1   2  -3  284.07   10.30
  -2  -1  -3  272.27   10.50
   1  -2  -3  288.47   10.60
  -2  -1  -3  281.57   10.30
  -1   2  -3  290.17   10.50
   1  -2  -3  277.97   10.40
  -2  -1   3  279.97   10.80
  -2  -1   3  263.47   10.60
   1  -2   3  273.57   10.40
   1  -2   3  282.57   10.40
   2   1   3  272.37   10.30
  -2  -1   3  269.77   10.30
  -1   2   3  300.37   10.80
  -1   2   3  273.37   10.30
   1  -2   3  275.67   10.30
   1  -2   3  291.77   10.40
  -1   2   3  275.17   10.30
  -2  -1   3  275.77   10.50
   0  -2  -3  373.26   14.00
  -2   0  -3  402.86   15.30
   0  -2  -3  401.76   14.20
  -2   0  -3  387.36   14.10
   0   2  -3  399.26   14.10
  -2   0  -3  385.46   13.90
   0  -2  -3  387.16   14.20
   0   2  -3  385.66   13.90
  -2   0  -3  391.86   13.90
   0   2  -3  385.86   14.00
  -2   0   3  377.76   13.90
   0   2   3  359.66   13.90
  -2   0   3  384.86   14.10
   2   0   3  373.46   14.00
   0   2   3  397.66   14.40
   0  -2   3  379.96   13.80
   2   0   3  379.96   14.10
   0   2   3  375.26   13.90
  -2   0   3  350.46   14.40
   0  -2   3  388.36   14.10
   0  -2   3  380.56   14.00
   0  -2   3  374.96   13.90
  -2   0   3  375.56   15.30
  -1  -2  -3  281.47   10.60
  -1  -2  -3  294.47   10.40
   1   2  -3  271.47   10.60
  -2   1  -3  290.37   10.60
  -2   1  -3  277.97   10.50
  -2   1   3  272.77   10.60
   2  -1   3  280.37   10.60
  -1  -2   3  286.47   10.70
   2  -1   3  278.97   10.50
  -1  -2   3  289.87   10.30
   1   2   3  287.37   10.40
   2  -1   3  285.27   10.40
  -2  -2  -3  197.58    7.60
  -2   2  -3  202.68    7.80
  -2   2  -3  185.98    7.60
   2  -2  -3  193.88    7.60
   2  -2  -3  200.98    7.80
   2  -2   3  200.98    7.70
  -2  -2   3  197.48    8.00
  -2   2   3  208.98    7.80
  -2  -2   3  193.48    7.70
  -2  -2   3  197.78    7.50
   2  -2   3  189.38    7.70
   2  -2   3  203.38    7.60
  -2   2   3  214.28    7.90
   2  -3  -3  184.18    7.30
   2  -3  -3  184.78    7.30
   2  -3  -3  182.18    7.60
  -3  -2  -3  174.48    7.50
  -3  -2  -3  181.28    7.10
  -2   3  -3  190.38    7.40
  -3  -2   3  194.48    7.50
  -2   3   3  182.48    7.70
   2  -3   3  175.48    7.20
   2  -3   3  181.38    7.30
  -3  -2   3  178.18    7.10
  -3  -2   3  192.28    7.90
   2  -3   3  178.38    7.30
  -2   3   3  173.58    7.20
   1  -3  -3 1584.14   55.59
  -3  -1  -3 1536.35   55.39
  -1   3  -3 1525.45   55.49
   1  -3  -3 1531.35   55.89
   1  -3  -3 1580.34   55.69
  -3  -1  -3 1598.04   55.49
  -3  -1  -3 1560.54   55.79
  -1   3  -3 1598.64   55.59
   1  -3  -3 1578.44   55.89
  -3  -1   3 1505.05   55.69
   3   1   3 1563.84   55.59
  -3  -1   3 1499.25   56.19
  -3  -1   3 1580.14   55.79
   1  -3   3 1526.15   55.39
  -1   3   3 1559.44   56.09
  -3  -1   3 1528.15   55.49
   1  -3   3 1553.14   55.59
  -1   3   3 1488.15   55.39
   1  -3   3 1646.44   55.79
   3   1   3 1511.05   55.39
  -3   0  -3  339.27   13.80
   0  -3  -3  306.77   12.00
  -3   0  -3  326.77   11.80
   0  -3  -3  320.57   11.90
   0   3  -3  315.97   12.30
   0   3  -3  330.47   11.80
  -3   0  -3  307.27   11.90
   0  -3  -3  324.07   12.10
  -3   0  -3  313.47   11.60
   0   3  -3  302.47   11.80
   0  -3  -3  315.17   11.50
  -3   0   3  333.77   12.10
  -3   0   3  307.37   13.80
   3   0   3  308.07   11.70
   0  -3   3  308.07   11.50
   0  -3   3  320.17   11.80
   0  -3   3  315.37   12.00
   3   0   3  317.17   11.80
  -3   0   3  285.57   12.20
   0   3   3  317.37   12.30
   0   3   3  299.97   11.70
  -3   0   3  309.77   11.90
  -3   0   3  306.07   11.70
  -1  -3  -3 1598.94   55.99
   1   3  -3 1611.64   55.79
  -3   1  -3 1401.86   55.39
  -1  -3  -3 1582.94   55.89
  -3   1  -3 1551.64   55.89
  -1  -3  -3 1597.54   55.99
  -3   1  -3 1628.94   57.99
  -3   1  -3 1595.84   55.89
  -1  -3  -3 1520.15   55.59
   3  -1   3 1530.65   55.79
   3  -1   3 1556.74   55.79
  -1  -3   3 1634.94   56.19
  -3   1   3 1519.65   55.69
  -3   1   3 1580.44   55.89
  -1  -3   3 1528.75   55.49
   1   3   3 1511.75   56.19
  -2  -3  -3  185.38    7.10
  -3   2  -3  187.28    7.30
  -3   2  -3  182.58    7.40
   3  -2  -3  177.38    7.10
  -2  -3  -3  187.38    7.50
   3  -2   3  178.48    7.30
  -2  -3   3  183.48    7.60
   3  -2   3  181.98    7.30
  -2  -3   3  177.78    7.00
   3  -2   3  181.08    7.10
  -3   2   3  178.18    7.30
  -3  -3  -3  755.82   26.70
  -3   3  -3  739.23   27.10
   3  -3  -3  739.73   27.20
   3  -3  -3  712.03   26.80
  -3  -3   3  745.93   27.40
  -3  -3   3  726.53   27.40
   3  -3   3  733.03   26.90
   3  -3   3  723.63   26.90
  -3  -3   3  734.73   26.70
   3  -3   3  735.03   27.00
  -3   3   3  707.83   26.90
   3  -4  -3   40.90    2.80
   3  -4  -3   43.20    3.00
   3  -4  -3   39.90    2.50
  -4  -3  -3   40.60    2.40
   3  -4  -3   41.40    2.60
  -3   4  -3   38.00    2.60
   3  -4   3   40.00    2.50
  -4  -3   3   42.50    2.40
   3  -4   3   41.30    2.80
   3  -4   3   43.40    2.70
  -3   4   3   37.70    2.50
  -4  -3   3   43.00    3.10
  -4  -2  -3   42.40    2.60
   2  -4  -3   38.00    2.50
  -2   4  -3   39.40    2.50
  -4  -2  -3   40.80    2.20
   2  -4  -3   38.60    2.70
   2  -4  -3   39.70    2.40
   2  -4  -3   37.80    2.70
  -4  -2   3   39.80    2.20
   2  -4   3   36.20    2.40
   2  -4   3   38.90    2.60
  -4  -2   3   42.00    3.10
  -4  -2   3   38.00    2.50
  -2   4   3   36.90    2.70
   2  -4   3   37.50    2.20
   2  -4   3   40.50    2.60
  -4  -1  -3   45.40    2.70
   1  -4  -3   44.30    2.60
  -1   4  -3   47.20    2.60
  -4  -1  -3   46.80    2.40
   1  -4  -3   45.80    2.80
  -4  -1   3   46.50    2.70
   1  -4   3   48.60    2.80
  -1   4   3   45.50    3.00
   1  -4   3   49.60    2.70
  -4  -1   3   43.70    2.40
  -4  -1   3   48.00    2.80
  -4  -1   3   47.20    3.20
   0   4  -3   65.39    3.30
  -4   0  -3   70.19    3.50
   0  -4  -3   71.39    3.50
   0  -4  -3   67.29    3.60
   0   4  -3   61.69    3.70
   0  -4  -3   63.69    3.60
  -4   0  -3   65.79    5.00
   0   4  -3   66.79    3.20
  -4   0  -3   70.79    3.10
  -4   0  -3   70.09    3.30
   0  -4   3   65.09    3.60
   4   0   3   73.19    3.40
   0   4   3   68.79    3.80
  -4   0   3   67.39    3.40
   0  -4   3   65.09    3.50
   0  -4   3   71.69    3.40
   0   4   3   70.49    3.30
   4   0   3   65.99    3.20
  -4   0   3   67.09    3.70
  -4   0   3   66.09    5.10
  -4   0   3   65.99    3.10
  -4   0   3   69.49    3.60
  -4   1  -3   45.20    2.60
  -1  -4  -3   45.20    2.60
  -1  -4  -3   45.60    2.70
  -1  -4  -3   41.90    2.70
  -4   1  -3   47.50    2.60
  -4   1  -3   43.10    4.00
  -4   1   3   45.70    4.30
  -1  -4   3   44.50    2.60
  -4   1   3   44.20    2.60
   4  -1   3   45.30    2.50
  -4   1   3   46.10    2.30
  -4   1   3   48.50    2.90
  -1  -4   3   46.50    2.80
   4  -1   3   44.70    2.40
  -4   2  -3   40.10    2.40
  -2  -4  -3   35.70    2.40
  -2  -4  -3   38.70    2.10
  -4   2  -3   38.50    2.40
  -2  -4  -3   37.00    2.50
   4  -2   3   40.20    2.40
   4  -2   3   36.20    2.30
  -2  -4   3   35.90    2.60
  -4   2   3   38.50    2.50
  -4   3  -3   39.20    2.60
  -3  -4  -3   39.60    2.30
   4  -3   3   40.60    2.60
  -3  -4   3   38.60    2.90
   4  -3   3   43.40    2.60
  -3  -4   3   41.10    2.30
  -4   3   3   40.30    2.60
   4  -4  -3    7.80    1.30
   4  -4  -3    4.70    1.20
  -4  -4  -3    5.10    1.00
   4  -4  -3    6.40    1.20
   4  -4  -3    6.40    1.40
  -4   4  -3    6.10    1.30
  -4  -4   3    5.40    1.10
  -4   4   3    7.00    1.30
   4  -4   3    5.00    1.20
   4  -4   3    5.70    1.20
  -4  -4   3    7.70    1.70
   4  -4   3    4.20    1.10
   3  -5  -3  196.08    9.10
   3  -5  -3  207.38    8.90
  -3   5  -3  202.98    8.90
   3  -5  -3  211.58    8.70
   3  -5  -3  194.08    9.30
  -5  -3  -3  208.98    8.50
  -5  -3   3  214.38    8.60
   3  -5   3  203.18    9.60
   3  -5   3  206.78    8.60
   3  -5   3  204.08    9.00
   2  -5  -3   81.59    4.60
   2  -5  -3   74.69    4.50
  -5  -2  -3   81.99    4.40
  -2   5  -3   75.49    4.00
   2  -5  -3   81.69    4.30
  -5  -2  -3   82.19    3.90
   2  -5   3   79.29    4.70
  -5  -2   3   84.39    4.00
  -2   5   3   78.49    4.70
   2  -5   3   77.99    4.40
  -5  -2   3   78.59    4.30
   2  -5   3   84.09    4.40
   1  -5  -3  395.26   15.10
  -5  -1  -3  421.76   14.70
  -5  -1  -3  381.36   15.10
   1  -5  -3  353.46   15.30
   1  -5  -3  374.36   15.40
  -5  -1   3  390.16   15.20
  -1   5   3  368.36   15.70
  -5  -1   3  388.66   15.10
   1  -5   3  388.86   15.00
   1  -5   3  384.66   15.20
  -5  -1   3  406.26   14.70
   1  -5   3  352.86   15.30
   0  -5  -3  106.99    5.80
  -5   0  -3  121.49    5.20
   0   5  -3  119.49    5.50
   0  -5  -3  114.89    5.90
   0  -5  -3  127.89    5.80
  -5   0  -3  131.09    5.80
  -5   0   3  127.69    5.40
   0   5   3  130.79    5.60
   0  -5   3  118.59    5.80
  -5   0   3  130.79    5.70
   0  -5   3  111.89    5.70
   0  -5   3  122.39    5.60
  -5   0   3  127.19    5.90
   0   5   3  116.09    6.20
  -5   1  -3  408.96   14.70
   1   5  -3  364.36   14.40
   5  -1  -3  382.16   14.40
  -1  -5  -3  352.16   14.90
  -1  -5  -3  381.06   14.70
  -1  -5  -3  350.56   14.70
  -5   1  -3  391.26   14.70
  -5   1   3  384.56   14.70
   5  -1   3  392.26   14.40
   1   5   3  367.06   14.40
  -1  -5   3  344.97   14.50
  -1  -5   3  350.56   14.80
  -5   1   3  375.26   14.20
  -5   1   3  386.26   15.10
  -5   2  -3   80.69    4.20
  -2  -5  -3   76.89    4.50
  -5   2  -3   86.79    4.30
   5  -2  -3   82.49    4.20
  -5   2   3   81.59    4.60
   5  -2   3   83.69    4.20
  -5   2   3   83.09    4.30
  -2  -5   3   76.89    4.50
   5  -3  -3  207.48    9.00
  -5   3   3  215.58    9.80
   5  -3   3  218.38    9.00
   5  -3   3  216.58    9.00
  -5   3   3  195.88    9.40
   0   0  -4 3279.37  124.59
   0   0   4 3438.36  124.19
   0   0   4 3744.63  125.19
   0  -1  -4  387.66   14.10
   0   1  -4  359.56   13.70
  -1   0  -4  395.36   13.80
   0   1  -4  359.56   13.80
  -1   0  -4  393.66   13.70
  -1   0  -4  374.76   13.90
   0   1  -4  374.86   14.10
   0  -1  -4  382.26   14.00
   0  -1  -4  369.86   13.80
   0  -1   4  366.06   13.70
   0   1   4  361.66   13.80
  -1   0   4  435.26   13.80
   0  -1   4  395.46   13.80
  -1   0   4  362.26   13.90
   1   0   4  351.86   13.90
   1   0   4  377.26   13.80
   1   0   4  375.56   13.80
  -1   0   4  377.46   14.10
  -1   1  -4  802.62   29.60
   1  -1  -4  869.81   30.00
  -1   1  -4  869.01   29.80
   1  -1  -4  806.42   29.70
  -1  -1  -4  828.12   30.20
   1   1  -4  806.12   30.40
   1  -1  -4  824.52   29.70
  -1   1  -4  863.61   29.90
  -1   1   4  798.62   29.80
   1  -1   4  765.52   29.80
   1  -1   4  820.62   29.80
   1   1   4  903.81   30.10
  -1  -1   4  817.32   30.00
   1  -1   4  837.22   29.80
  -1   1   4  880.71   30.00
  -1  -1   4  781.82   29.60
  -1  -1   4  867.61   29.70
   1  -1   4  812.52   29.80
  -1   2  -4  216.38    8.10
  -2  -1  -4  212.78    8.30
   1  -2  -4  209.98    8.10
  -2  -1  -4  217.68    8.10
   1  -2  -4  222.38    8.40
  -1   2  -4  219.08    8.30
   1  -2  -4  220.58    8.10
  -2  -1   4  212.38    8.60
   1  -2   4  220.28    8.10
  -2  -1   4  214.68    8.20
   1  -2   4  209.48    8.20
   2   1   4  213.98    8.10
  -2  -1   4  210.48    8.40
   1  -2   4  208.98    8.20
  -1   2   4  216.48    8.50
  -1   2   4  209.28    8.10
   1  -2   4  200.18    8.10
  -2  -1   4  213.68    8.10
  -2   0  -4 2061.99   73.19
   0   2  -4 2102.39   73.19
  -2   0  -4 2206.28   74.59
   0  -2  -4 2255.17   73.69
   0   2  -4 2035.90   73.29
  -2   0  -4 2022.00   73.29
  -2   0  -4 2088.19   73.39
   0   2  -4 2182.98   73.49
   0  -2  -4 1987.90   73.29
   0  -2  -4 2109.59   73.49
   0   2   4 1920.21   73.19
   2   0   4 1955.20   73.19
  -2   0   4 2068.59   73.49
   0  -2   4 2186.18   73.69
  -2   0   4 2090.29   74.69
   0  -2   4 1986.40   73.19
  -2   0   4 1932.51   73.19
   2   0   4 1875.71   73.29
   0  -2   4 2015.10   73.19
   0   2   4 2169.58   73.79
  -2   0   4 1950.01   73.79
   0  -2   4 2115.89   73.39
   2  -1  -4  217.18    8.20
  -1  -2  -4  222.88    8.50
  -2   1  -4  218.98    8.20
  -1  -2  -4  218.78    8.30
  -1  -2  -4  215.68    8.10
   1   2  -4  214.08    8.20
  -2   1  -4  209.18    8.10
  -2   1  -4  193.78    7.80
  -1  -2   4  217.68    8.40
   1   2   4  212.28    8.00
  -2   1   4  212.58    8.20
   2  -1   4  215.78    8.00
   2  -1   4  209.28    8.10
   2  -1   4  211.08    8.20
  -1  -2   4  219.88    8.00
   2  -2  -4 1324.47   46.10
   2  -2  -4 1251.97   45.80
  -2   2  -4 1174.08   45.70
  -2   2  -4 1345.67   46.10
  -2  -2  -4 1297.27   45.80
   2  -2   4 1302.07   45.90
   2  -2   4 1236.88   46.00
  -2  -2   4 1269.77   45.80
  -2  -2   4 1298.47   46.30
  -2   2   4 1246.08   45.90
  -2   2   4 1398.16   46.20
  -2  -2   4 1207.08   45.90
   2  -2   4 1280.37   46.00
   2  -2   4 1289.67   45.90
  -3  -2  -4  107.69    5.10
   2  -3  -4  120.99    5.20
   2  -3  -4  113.89    4.80
  -2   3  -4  115.09    5.00
   2  -3  -4  115.79    4.90
  -3  -2  -4  114.89    4.80
  -2   3   4  109.59    4.80
   2  -3   4  115.29    5.00
  -3  -2   4  116.79    5.00
  -3  -2   4  112.69    5.40
  -3  -2   4  115.09    4.70
  -2   3   4  115.49    5.30
   2  -3   4  116.89    5.00
   2  -3   4  106.09    4.80
   1  -3  -4  356.66   13.60
  -3  -1  -4  361.26   13.70
  -1   3  -4  369.36   13.60
   1  -3  -4  355.56   13.90
  -3  -1  -4  361.06   13.40
   1  -3  -4  359.46   13.50
  -1   3  -4  378.16   13.50
   1  -3  -4  386.06   13.90
  -1   3   4  358.06   14.00
   3   1   4  352.06   13.40
   1  -3   4  353.36   13.50
  -3  -1   4  350.86   13.40
  -3  -1   4  368.96   13.70
   1  -3   4  354.46   13.50
  -3  -1   4  366.46   14.20
  -3  -1   4  342.37   13.70
  -1   3   4  333.57   13.30
   3   1   4  352.26   13.70
   1  -3   4  387.46   13.70
   1  -3   4  357.66   13.40
   0  -3  -4  176.48    7.30
   0  -3  -4  184.38    7.20
   0   3  -4  173.58    7.10
  -3   0  -4  180.98    6.90
  -3   0  -4  185.28    7.20
   0  -3  -4  181.58    7.40
  -3   0  -4  190.68    7.10
   0   3  -4  187.08    7.20
  -3   0  -4  184.48    8.80
   0   3   4  172.78    7.00
  -3   0   4  176.68    7.00
   0   3   4  183.68    7.70
   0  -3   4  173.48    6.80
   0  -3   4  174.38    7.00
   3   0   4  183.78    7.20
  -3   0   4  182.08    7.30
  -3   0   4  184.58    7.40
  -3   0   4  162.58    7.60
   3   0   4  174.38    7.00
  -3   0   4  176.88    8.90
   0  -3   4  190.08    7.30
  -1  -3  -4  370.06   13.80
  -1  -3  -4  363.26   13.70
  -1  -3  -4  357.96   13.60
  -3   1  -4  362.46   15.30
  -1  -3  -4  382.36   13.30
   1   3  -4  385.36   13.70
  -3   1  -4  357.16   13.50
  -3   1  -4  361.96   13.50
  -3   1  -4  314.77   13.10
  -3   1   4  360.76   13.60
  -3   1   4  351.96   13.40
  -1  -3   4  361.36   13.80
   3  -1   4  354.06   13.40
   1   3   4  342.27   14.00
   3  -1   4  363.16   13.50
  -3   2  -4  119.39    5.10
  -2  -3  -4  119.59    5.20
  -3   2  -4  109.29    4.90
  -2  -3  -4  120.99    4.80
   3  -2   4  114.49    5.00
  -3   2   4  118.39    5.10
  -2  -3   4  113.29    5.30
   3  -2   4  116.39    5.00
  -2  -3   4  114.09    4.70
  -3   3  -4  193.68    7.90
   3  -3  -4  187.68    7.60
   3  -3  -4  194.68    8.00
  -3  -3  -4  191.18    7.50
  -3  -3   4  183.18    7.40
   3  -3   4  184.98    7.80
  -3  -3   4  174.78    8.10
   3  -3   4  187.08    7.80
  -3   3   4  178.98    7.70
   3  -3   4  193.98    7.70
   3  -4  -4   31.10    2.20
  -4  -3  -4   32.10    2.10
   3  -4  -4   30.40    2.50
   3  -4  -4   32.00    2.30
  -3   4  -4   35.50    2.50
   3  -4  -4   29.70    2.50
  -3   4   4   30.40    2.20
  -4  -3   4   33.00    2.10
   3  -4   4   33.50    2.20
   3  -4   4   35.00    2.50
  -4  -3   4   30.90    2.90
   3  -4   4   33.80    2.40
  -4  -2  -4  413.16   16.50
   2  -4  -4  424.86   16.10
  -4  -2  -4  439.56   16.00
  -2   4  -4  421.76   16.20
   2  -4  -4  402.36   16.60
   2  -4  -4  430.36   16.60
   2  -4  -4  421.06   16.20
  -2   4   4  396.06   16.70
   2  -4   4  454.35   16.40
  -4  -2   4  417.36   16.40
  -4  -2   4  421.36   16.00
   2  -4   4  418.26   16.00
   2  -4   4  422.36   16.30
  -4  -2   4  464.85   17.20
  -4  -1  -4   58.19    2.80
  -1   4  -4   52.59    2.90
   1  -4  -4   54.39    3.30
   1  -4  -4   54.89    3.00
  -4  -1  -4   56.09    3.10
  -1   4  -4   56.69    3.00
   1  -4  -4   55.39    3.30
   1  -4   4   58.79    3.20
  -4  -1   4   54.49    3.10
  -4  -1   4   54.59    2.80
  -4  -1   4   55.79    3.60
  -1   4   4   57.59    3.50
  -4  -1   4   54.89    3.10
   1  -4   4   55.89    3.00
   0  -4  -4  593.14   22.90
  -4   0  -4  602.74   25.00
  -4   0  -4  602.84   22.70
   0   4  -4  599.74   22.50
  -4   0  -4  613.64   22.20
  -4   0  -4  618.34   22.40
   0   4  -4  614.94   22.50
   0  -4  -4  596.44   22.90
   0  -4  -4  610.34   22.60
  -4   0   4  613.94   25.30
  -4   0   4  619.24   22.90
   4   0   4  616.34   22.40
   0   4   4  612.74   22.40
   0  -4   4  596.94   22.70
  -4   0   4  572.94   23.10
   0   4   4  600.64   23.30
  -4   0   4  593.84   22.70
  -4   0   4  624.64   22.40
   0  -4   4  628.74   22.50
   4   0   4  628.34   22.40
  -4   1  -4   57.99    4.60
  -1  -4  -4   58.99    3.10
  -4   1  -4   53.99    2.90
  -4   1  -4   59.29    3.00
  -1  -4  -4   54.99    3.20
  -1  -4  -4   52.19    3.10
  -1  -4  -4   55.19    2.70
  -4   1   4   56.89    3.30
   4  -1   4   58.39    2.90
  -4   1   4   53.79    2.70
   4  -1   4   55.69    3.00
  -1  -4   4   55.19    3.20
  -4   1   4   56.79    3.10
  -4   1   4   52.39    4.80
  -2  -4  -4  419.96   15.50
  -2  -4  -4  413.76   16.00
  -4   2  -4  409.86   15.80
  -4   2  -4  429.06   16.00
   4  -2   4  420.66   15.90
  -4   2   4  424.36   16.00
   4  -2   4  423.96   15.80
  -2  -4   4  385.06   16.20
  -4   3  -4   31.90    2.30
  -3  -4  -4   29.00    2.00
  -4   3   4   36.10    2.40
  -3  -4   4   29.30    2.30
   4  -3   4   31.40    2.20
   4  -3   4   31.60    2.30
  -3  -4   4   30.60    2.60
   4  -4  -4  164.98    7.10
   4  -4  -4  165.68    7.20
  -4   4  -4  158.28    7.30
   4  -4  -4  155.08    7.60
  -4  -4  -4  159.28    6.90
   4  -4   4  165.38    7.40
  -4  -4   4  159.88    8.00
  -4  -4   4  160.08    6.90
   4  -4   4  161.28    7.30
  -4   4   4  159.38    7.20
   4  -4   4  166.68    7.20
   3  -5  -4   55.39    3.90
   3  -5  -4   59.79    3.60
  -5  -3  -4   54.49    3.10
   3  -5  -4   54.09    3.70
  -3   5  -4   53.09    3.50
  -5  -3   4   57.29    3.30
   3  -5   4   55.09    4.10
  -5  -2  -4   36.40    2.70
  -5  -2  -4   40.80    2.40
   2  -5  -4   33.70    2.70
   2  -5  -4   31.50    2.80
  -2   5  -4   34.50    2.50
   2  -5  -4   36.20    2.90
   2  -5   4   42.00    2.90
   2  -5   4   38.40    2.80
  -5  -2   4   39.30    2.50
   2  -5   4   32.30    2.90
  -5  -2   4   35.50    2.70
  -2   5   4   37.10    3.00
   1  -5  -4   85.89    5.00
   1  -5  -4   93.49    4.80
  -5  -1  -4   97.19    4.40
   1  -5  -4   96.99    5.10
  -5  -1  -4  101.39    4.90
  -5  -1   4   89.49    4.80
   1  -5   4   88.79    5.10
  -5  -1   4   97.69    4.90
   1  -5   4   95.29    4.90
  -5  -1   4   92.49    5.40
  -5  -1   4   98.59    4.50
   1  -5   4   96.59    4.80
  -1   5   4   88.09    5.30
   0  -5  -4   50.09    3.50
   0  -5  -4   48.60    3.30
  -5   0  -4   61.09    3.30
  -5   0  -4   51.39    2.70
   0  -5  -4   58.99    3.40
   0   5  -4   54.39    3.20
   0  -5   4   49.50    3.30
   0   5   4   50.89    3.60
   0  -5   4   53.99    3.40
  -5   0   4   60.59    3.80
  -5   0   4   54.79    3.40
  -5   0   4   57.49    3.00
   0  -5   4   52.59    3.20
  -5   0   4   53.59    3.30
   5   0   4   58.29    3.80
   0   5   4   55.39    3.20
  -5   1  -4   97.39    4.80
  -5   1  -4  102.49    4.80
  -1  -5  -4  100.19    4.90
  -1  -5  -4   93.69    5.00
  -1  -5  -4   96.09    5.10
   1   5   4   98.09    4.70
   5  -1   4   99.79    4.70
  -5   1   4   89.59    4.40
  -5   1   4   99.09    5.20
  -1  -5   4   92.79    5.00
  -5   1   4  100.39    4.90
  -5   2  -4   35.30    2.50
  -2  -5  -4   37.70    2.80
  -5   2   4   37.50    2.90
  -2  -5   4   34.50    2.80
   5  -2   4   37.90    2.50
   5  -2   4   38.10    2.60
  -5   2   4   38.70    2.70
  -5   3   4   52.59    3.90
   5  -3   4   58.49    3.50
   5  -3   4   60.39    3.50
   0   0  -5 2940.91  107.49
   0   0  -5 3069.59  107.29
   0   0   5 3224.48  107.89
   0   0   5 2862.71  106.59
   0   0   5 2930.21  106.99
   0   1  -5   27.60    1.50
   0   1  -5   26.90    1.60
  -1   0  -5   30.20    1.50
   0  -1  -5   28.70    1.80
   0  -1  -5   26.30    1.60
   0  -1  -5   26.00    1.50
  -1   0  -5   28.60    1.70
   0  -1   5   29.10    1.50
  -1   0   5   28.50    1.50
   1   0   5   27.20    1.50
   1   0   5   25.10    1.60
   0  -1   5   30.00    1.50
  -1   0   5   28.40    1.70
   0   1   5   32.00    1.50
   0  -1   5   31.00    1.60
   1   0   5   29.00    1.50
   1  -1  -5 1475.55   53.79
  -1   1  -5 1598.44   54.09
  -1   1  -5 1580.14   53.89
  -1  -1  -5 1559.14   54.39
   1  -1  -5 1500.25   53.89
   1  -1  -5 1533.75   54.19
   1   1  -5 1519.15   53.89
  -1   1  -5 1486.05   54.09
   1  -1   5 1372.46   53.99
  -1  -1   5 1492.15   53.79
   1  -1   5 1490.05   53.99
  -1  -1   5 1442.76   53.69
   1  -1   5 1520.95   53.99
   1  -1   5 1527.95   53.89
  -1   1   5 1415.16   53.99
  -1  -1   5 1476.55   54.19
   1   1   5 1612.54   54.19
  -1   1   5 1614.34   54.29
  -1   2  -5   34.30    1.90
  -1   2  -5   32.80    1.80
  -2  -1  -5   36.40    1.70
   1  -2  -5   33.60    1.80
   1  -2  -5   33.70    2.00
   1  -2  -5   32.30    1.80
  -1   2   5   35.40    2.10
  -1   2   5   31.90    1.70
  -2  -1   5   30.70    1.70
   2   1   5   32.60    1.80
   1  -2   5   33.40    1.90
   1  -2   5   33.90    1.70
  -2  -1   5   31.80    1.70
  -2  -1   5   33.40    2.10
   1  -2   5   30.50    1.80
   0  -2  -5 1736.53   63.59
   0   2  -5 1744.13   63.49
  -2   0  -5 1836.42   63.39
  -2   0  -5 1801.82   63.59
   0   2  -5 1876.71   63.89
   0   2  -5 1753.22   63.59
  -2   0  -5 1815.92   63.49
   0  -2  -5 1865.41   63.89
   0  -2   5 1863.81   63.49
  -2   0   5 1756.42   63.79
  -2   0   5 1724.83   63.99
   2   0   5 1635.04   63.69
  -2   0   5 1813.72   64.79
   0   2   5 1844.82   64.29
   0  -2   5 1696.23   63.39
   0   2   5 1731.53   63.49
  -2   0   5 1764.72   63.49
   2   0   5 1736.83   63.49
   0  -2   5 1850.61   63.69
  -1  -2  -5   37.90    2.20
  -2   1  -5   32.80    1.70
   2  -1  -5   32.60    1.80
  -1  -2  -5   32.60    1.90
  -2   1  -5   30.10    1.50
  -2   1  -5   33.30    2.50
  -2   1  -5   34.40    1.80
   1   2  -5   31.80    1.80
   2  -1   5   33.20    1.70
   2  -1   5   32.30    1.80
  -2   1   5   34.00    1.90
  -2   1   5   32.20    2.20
   2  -1   5   33.30    1.90
  -1  -2   5   33.30    1.60
  -1  -2   5   32.60    1.90
  -2   2  -5 1127.29   39.60
  -2  -2  -5 1103.89   39.30
   2  -2  -5 1075.09   39.30
   2  -2  -5 1104.39   39.70
   2  -2  -5 1058.19   39.30
  -2  -2   5 1014.60   39.60
  -2   2   5 1098.79   39.50
   2  -2   5 1103.79   39.60
   2  -2   5 1086.39   39.60
  -2  -2   5 1068.79   39.30
   2  -2   5 1110.69   39.50
  -2   2   5 1149.19   39.70
  -2  -2   5 1101.19   39.90
   2   2   5 1122.69   39.70
  -3  -2  -5    0.80    0.40
  -2   3  -5    0.40    0.50
   2  -3  -5    0.50    0.50
   2  -3  -5    0.60    0.50
   2  -3  -5    0.50    0.50
   2  -3   5    0.60    0.40
  -2   3   5    1.00    0.50
  -3  -2   5    0.80    0.70
   2  -3   5    1.30    0.60
  -3  -2   5    1.00    0.50
  -3  -2   5    1.30    0.50
  -2   3   5    1.80    0.70
   2  -3   5    0.80    0.50
   1  -3  -5  536.45   20.80
   1  -3  -5  551.64   20.50
   1  -3  -5  549.35   20.40
   1  -3  -5  564.14   20.90
  -1   3  -5  571.84   20.50
  -1   3  -5  585.44   20.70
  -3  -1  -5  550.54   20.70
  -3  -1  -5  567.94   20.30
  -3  -1   5  545.75   20.80
   1  -3   5  544.25   20.50
   1  -3   5  549.05   20.50
   3   1   5  528.85   20.70
   3   1   5  555.74   20.40
   1  -3   5  547.35   20.30
   1  -3   5  575.94   20.60
  -1   3   5  572.54   21.20
  -3  -1   5  554.94   20.40
  -3  -1   5  546.65   21.10
  -3  -1   5  550.94   20.60
  -3   0  -5    0.60    0.80
  -3   0  -5    0.20    0.30
  -3   0  -5    0.10    0.30
   0   3  -5    0.20    0.40
  -3   0  -5    0.30    0.20
   0   3  -5    0.60    0.40
   0  -3  -5   -0.10    0.40
   0  -3  -5    0.10    0.40
   0  -3  -5   -0.10    0.40
  -3   0   5    0.00    0.30
   0   3   5    0.90    0.50
  -3   0   5    0.80    0.60
  -3   0   5    1.10    0.80
   3   0   5    1.40    0.50
   0  -3   5    0.30    0.40
   0  -3   5    0.70    0.50
   3   0   5    0.80    0.40
   0   3   5    1.60    0.60
   0  -3   5    0.30    0.30
  -3   0   5   -0.30    0.30
   1   3  -5  594.14   21.10
  -3   1  -5  570.34   22.50
  -3   1  -5  555.54   20.70
  -3   1  -5  577.04   20.90
  -1  -3  -5  586.14   20.60
  -1  -3  -5  564.24   20.90
  -1  -3  -5  559.14   21.10
   1   3   5  523.75   21.40
   3  -1   5  552.14   20.90
  -1  -3   5  570.94   21.10
  -3   1   5  551.44   20.90
   3  -1   5  563.44   20.80
  -3   2  -5    1.30    0.60
  -2  -3  -5    1.20    0.50
  -2  -3   5    1.10    0.60
   3  -2   5    0.60    0.60
  -2  -3   5    0.70    0.40
  -3   2   5    0.40    0.50
  -3   3  -5  229.28    9.80
   3  -3  -5  250.57   10.00
   3  -3  -5  238.08    9.40
   3  -3  -5  238.58    9.50
  -3  -3  -5  245.78    9.40
   3  -3   5  245.98    9.80
  -3  -3   5  237.98   10.20
  -3   3   5  231.68    9.60
  -3  -3   5  237.28    9.40
   3  -3   5  245.98    9.60
   3  -3   5  241.08    9.80
   3  -4  -5    4.40    1.20
   3  -4  -5    5.00    1.20
  -4  -3  -5    4.40    0.90
   3  -4  -5    4.20    0.90
  -3   4  -5    4.90    1.10
   3  -4  -5    3.50    0.90
  -4  -3   5    4.90    1.50
   3  -4   5    4.40    0.90
   3  -4   5    5.10    1.10
   3  -4   5    6.10    1.30
  -4  -3   5    6.20    1.10
   2  -4  -5  309.17   13.10
  -4  -2  -5  304.17   12.90
   2  -4  -5  338.07   13.10
  -2   4  -5  326.77   12.80
  -4  -2  -5  326.67   12.50
   2  -4  -5  320.17   12.70
   2  -4  -5  325.17   12.60
  -4  -2   5  335.77   13.60
  -2   4   5  314.97   13.30
   2  -4   5  334.67   12.50
  -4  -2   5  334.77   12.50
   2  -4   5  324.67   12.80
  -4  -2   5  314.67   12.80
  -4  -1  -5   28.40    1.90
   1  -4  -5   28.20    2.10
  -1   4  -5   28.40    2.10
   1  -4  -5   29.30    2.30
  -4  -1  -5   29.30    2.10
   1  -4  -5   28.60    2.30
   4   1   5   30.30    2.10
  -1   4   5   34.00    2.60
  -4  -1   5   30.90    2.30
   1  -4   5   29.60    2.20
  -4  -1   5   32.00    2.00
  -4  -1   5   28.60    2.60
  -4  -1   5   29.20    2.10
   1  -4   5   30.00    2.10
   0   4  -5  493.75   18.20
   0   4  -5  470.85   18.10
  -4   0  -5  493.75   18.10
  -4   0  -5  481.65   18.20
   0  -4  -5  470.85   18.60
   0  -4  -5  477.35   18.60
  -4   0  -5  501.25   17.90
   0  -4  -5  487.45   18.30
   4   0   5  496.95   18.20
   0   4   5  493.75   19.00
  -4   0   5  483.65   20.70
   0  -4   5  501.55   18.50
  -4   0   5  476.25   18.00
   0  -4   5  493.25   18.10
  -4   0   5  479.65   18.40
  -4   0   5  438.56   18.70
   4   0   5  490.25   18.00
   0   4   5  473.75   18.10
  -4   0   5  467.95   18.50
  -1  -4  -5   29.30    2.20
  -4   1  -5   30.70    2.00
  -1  -4  -5   30.00    2.20
  -4   1  -5   31.40    3.30
  -1  -4  -5   28.40    2.30
   1   4  -5   27.80    2.00
  -1  -4  -5   29.80    1.80
  -4   1  -5   31.30    2.00
   4  -1   5   32.50    2.00
   1   4   5   30.20    2.00
  -1  -4   5   30.00    2.10
   4  -1   5   26.70    2.00
  -4   1   5   30.30    2.10
  -1  -4   5   27.90    2.20
  -4   2  -5  328.07   12.90
  -2  -4  -5  325.47   12.40
  -2  -4  -5  326.87   13.00
  -2  -4   5  303.27   13.10
   4  -2   5  343.27   12.80
  -4   2   5  335.37   12.90
   4  -2   5  321.77   12.80
  -4   3  -5    5.60    1.20
  -3  -4  -5    4.80    0.90
  -3  -4   5    4.20    1.20
   4  -3   5    4.30    1.10
   4  -3   5    4.90    1.00
  -4   3   5    5.00    1.10
  -4  -4  -5  115.79    5.40
   4  -4  -5  132.59    5.70
   4  -4  -5  117.79    6.30
  -4   4   5  117.99    5.80
   4  -4   5  122.19    6.00
  -4  -4   5  115.89    6.50
   4  -4   5  116.39    5.90
  -4  -4   5  116.59    5.40
   4  -4   5  121.99    5.80
   2  -5  -5    2.50    1.00
  -5  -2  -5    2.90    1.00
  -2   5  -5    4.30    1.10
  -5  -2  -5    4.20    0.90
   2  -5  -5    3.60    1.20
   2  -5  -5    4.50    1.30
  -5  -2   5    5.60    1.30
  -2   5   5    4.70    1.30
   2  -5   5    7.40    1.40
   2  -5   5    2.80    1.20
  -5  -2   5    4.10    1.00
  -5  -2   5   10.70    2.20
   1  -5  -5  123.49    5.90
  -1   5  -5  118.09    5.70
   1  -5  -5  117.59    6.20
  -5  -1  -5  124.39    6.00
  -5  -1  -5  134.59    5.60
   1  -5  -5  127.99    6.40
   1  -5   5  127.19    5.90
   1  -5   5  124.89    6.00
  -5  -1   5  130.29    6.20
  -5  -1   5  122.99    6.00
   1  -5   5  120.39    6.30
  -5  -1   5  128.99    5.70
  -5  -1   5  126.49    6.60
  -1   5   5  121.09    6.60
   0  -5  -5   11.20    1.80
   0   5  -5   11.20    1.60
   0  -5  -5    9.10    1.50
  -5   0  -5   11.80    1.20
   0  -5  -5    7.10    1.40
  -5   0  -5    8.70    1.40
   0   5   5    9.00    1.70
  -5   0   5    7.80    1.80
   0  -5   5    7.90    1.40
  -5   0   5    9.40    1.30
  -5   0   5    9.60    1.60
   5   0   5   11.80    1.50
   0  -5   5    9.20    1.60
  -5   0   5    8.50    1.40
   0   5   5   11.40    1.50
   0  -5   5    8.30    1.40
  -5   1  -5  129.19    5.90
  -5   1  -5  128.29    5.80
  -1  -5  -5  121.09    6.20
  -1  -5  -5  126.39    6.00
  -1  -5  -5  118.99    6.10
  -5   1   5  121.69    6.20
  -1  -5   5  115.29    6.00
   5  -1   5  126.99    5.70
   1   5   5  129.89    5.80
  -5   1   5  129.29    6.00
  -5   2  -5    4.70    1.10
  -2  -5  -5    5.20    1.30
   5  -2   5    4.70    1.00
  -5   2   5    3.00    1.10
  -5   2   5    4.30    1.10
   5  -2   5    4.50    1.10
   0   0  -6 3981.70  142.29
   0   0  -6 3881.71  141.99
   0   0   6 4220.68  141.49
   0   0   6 4049.19  141.89
   0   0   6 3749.22  141.09
   0   1  -6   84.09    4.00
  -1   0  -6   89.99    4.20
   0  -1  -6   98.99    4.40
   1   0  -6   94.59    4.30
  -1   0  -6  102.49    4.00
   0   1  -6   94.99    4.20
   0  -1   6   96.19    4.10
   0  -1   6   94.89    3.90
  -1   0   6  103.39    4.00
   1   0   6   88.99    4.10
   1   0   6   90.19    4.00
  -1   0   6   97.69    4.20
   0   1   6   90.59    4.00
   0  -1   6   90.39    3.90
   1   0   6   92.89    4.00
  -1   0   6   93.79    4.20
  -1   1  -6  575.54   20.60
  -1   1  -6  558.04   20.80
   1  -1  -6  562.54   20.50
  -1   1  -6  606.64   20.80
   1  -1  -6  595.64   20.90
   1   1  -6  528.65   20.90
  -1  -1  -6  592.74   21.10
   1  -1  -6  531.15   20.40
  -1   1   6  535.05   20.70
   1  -1   6  523.75   20.70
   1   1   6  588.74   20.90
   1  -1   6  574.84   20.60
   1  -1   6  553.64   20.70
  -1   1   6  598.04   21.00
  -1  -1   6  554.94   20.50
   1  -1   6  566.64   20.60
  -1  -1   6  547.35   20.80
   1  -2  -6   55.39    2.90
   1  -2  -6   51.79    2.50
  -2  -1  -6   51.19    2.50
   1  -2  -6   51.69    2.50
  -1   2  -6   55.29    2.80
  -1   2   6   54.89    3.00
  -2  -1   6   48.90    2.90
   1  -2   6   52.39    2.70
  -1   2   6   51.79    2.50
   1  -2   6   51.19    2.60
  -2  -1   6   58.79    2.60
   2   1   6   50.59    2.60
  -2  -1   6   49.30    2.50
   1  -2   6   49.80    2.50
  -2   0  -6 2640.34   89.79
   0  -2  -6 2425.86   90.09
   0   2  -6 2573.54   90.09
   0   2  -6 2676.93   90.19
   0   2  -6 2438.66   89.79
  -2   0  -6 2589.84   89.89
  -2   0  -6 2611.84   89.59
   0  -2  -6 2499.85   89.79
  -2   0  -6 2555.44   89.79
   0  -2   6 2555.14   89.79
   0  -2   6 2418.06   89.59
  -2   0   6 2508.65   90.29
   2   0   6 2288.27   89.89
  -2   0   6 2574.14   90.89
   2   0   6 2537.05   89.79
   2   0   6 2544.45   90.09
   0  -2   6 2513.55   89.79
  -2   0   6 2472.95   90.09
   0   2   6 2427.66   89.69
   0   2   6 2579.64   90.59
  -2   1  -6   53.99    3.30
  -2   1  -6   50.59    2.30
  -1  -2  -6   54.89    3.10
  -1  -2  -6   50.29    2.70
   2  -1  -6   53.49    2.70
  -2   1  -6   52.19    2.60
   1   2  -6   60.99    2.90
  -2   1  -6   51.99    2.40
  -1  -2   6   54.09    2.80
   2  -1   6   51.09    2.50
  -2   1   6   51.09    3.00
   2  -1   6   51.49    2.70
  -2   1   6   58.49    2.50
  -2   1   6   51.99    2.70
   2  -1   6   54.49    2.60
  -1  -2   6   53.59    2.60
   2  -2  -6 1676.73   60.69
   2  -2  -6 1768.82   61.09
   2  -2  -6 1701.43   60.69
  -2   2  -6 1701.33   60.99
  -2  -2  -6 1695.23   60.69
   2  -2   6 1718.63   60.99
  -2   2   6 1652.53   60.99
  -2   2   6 1737.83   60.89
   2  -2   6 1713.13   60.79
  -2  -2   6 1607.24   61.19
   2   2   6 1760.72   60.99
   2  -2   6 1650.53   60.99
  -2  -2   6 1690.03   60.69
  -3  -2  -6   31.10    1.90
  -2   3  -6   29.40    2.10
   2  -3  -6   32.80    2.30
   2  -3  -6   27.90    1.90
   2  -3  -6   31.30    2.00
  -3  -2   6   30.30    2.40
   2  -3   6   30.30    2.10
   2  -3   6   30.60    2.10
   2  -3   6   29.70    1.90
  -2   3   6   31.30    2.30
  -3  -2   6   28.50    1.80
  -2   3   6   28.10    1.90
   1  -3  -6  297.47   11.10
  -3  -1  -6  275.67   11.20
   1  -3  -6  280.97   11.00
  -3  -1  -6  293.87   10.90
   1  -3  -6  292.17   11.50
  -1   3  -6  298.57   11.40
  -3  -1   6  294.77   11.20
  -1   3   6  291.07   11.80
   1  -3   6  286.07   11.10
   3   1   6  290.47   11.00
  -3  -1   6  291.37   11.00
   3   1   6  262.67   11.30
   1  -3   6  272.97   10.90
  -3  -1   6  290.37   11.80
   0   3  -6   54.39    3.00
   0  -3  -6   53.29    2.80
   0  -3  -6   56.99    3.10
   0   3  -6   56.19    2.80
  -3   0  -6   53.69    2.50
   0  -3  -6   54.09    3.00
  -3   0  -6   51.89    2.60
  -3   0  -6   53.69    2.80
   0  -3   6   56.19    2.90
   3   0   6   56.89    2.70
   3   0   6   51.29    2.90
   0   3   6   53.79    3.30
  -3   0   6   55.89    3.90
  -3   0   6   53.39    2.70
   0  -3   6   52.19    2.60
   0   3   6   53.49    2.70
  -3   0   6   53.39    2.90
  -3   0   6   50.69    3.20
  -1  -3  -6  288.57   11.30
  -1  -3  -6  305.27   11.10
  -3   1  -6  293.27   12.60
   1   3  -6  288.37   11.50
  -3   1  -6  299.47   11.20
  -1  -3  -6  276.57   11.50
  -3   1  -6  282.17   11.00
   1   3   6  289.77   11.00
  -3   1   6  286.37   11.40
   3  -1   6  284.37   11.30
   1   3   6  268.17   11.90
  -1  -3   6  306.07   11.50
   3  -1   6  298.67   11.10
  -3   1   6  275.97   11.80
  -3   2  -6   29.50    2.00
  -2  -3  -6   32.60    1.90
   3  -2   6   28.20    2.20
  -3   2   6   30.40    2.10
   3  -2   6   31.80    2.00
  -2  -3   6   27.70    2.20
   3  -3  -6  159.78    6.70
  -3   3  -6  154.58    7.10
   3  -3  -6  191.68    8.10
  -3  -3  -6  159.48    6.70
   3  -3  -6  160.78    6.70
   3  -3   6  160.48    7.10
  -3  -3   6  161.78    7.50
   3  -3   6  163.78    7.10
  -3   3   6  155.58    6.90
   3  -3   6  160.68    6.90
  -3  -3   6  157.88    6.70
  -3   4  -6    6.30    1.30
   3  -4  -6    4.20    1.20
   3  -4  -6    4.30    1.00
   3  -4  -6    4.40    1.00
   3  -4  -6    7.20    1.50
  -4  -3  -6    3.70    0.90
   3  -4   6    4.70    1.20
   3  -4   6    3.80    1.10
  -4  -3   6    2.40    1.20
   3  -4   6    5.40    1.00
  -4  -3   6    4.80    1.10
   2  -4  -6  572.74   22.50
  -4  -2  -6  578.94   21.70
   2  -4  -6  593.94   21.90
  -2   4  -6  585.64   22.10
   2  -4  -6  593.14   22.40
   2  -4  -6  586.44   21.80
  -4  -2   6  615.84   21.80
   2  -4   6  563.64   21.70
  -2   4   6  562.44   22.60
   2  -4   6  585.04   22.00
  -4  -1  -6    8.20    1.10
   1  -4  -6   10.60    1.60
  -4  -1  -6   11.10    1.60
   1  -4  -6    9.00    1.30
  -1   4  -6   10.30    1.50
   1  -4  -6    8.60    1.40
  -4  -1   6    8.80    1.20
  -1   4   6    8.90    1.60
  -4  -1   6    7.50    1.70
  -4  -1   6    7.60    1.30
   1  -4   6    7.80    1.30
  -4  -1   6   11.10    1.40
   1  -4   6    8.30    1.30
   4   1   6    9.40    1.40
  -4   0  -6  843.52   30.90
   0   4  -6  830.22   30.90
   0   4  -6  858.41   31.10
   0  -4  -6  773.72   31.30
   0  -4  -6  838.12   31.00
   0  -4  -6  839.62   31.30
  -4   0  -6  857.41   30.60
   4   0   6  849.41   31.00
  -4   0   6  875.31   33.60
   0  -4   6  809.22   30.70
   0   4   6  855.31   31.90
  -4   0   6  816.02   30.70
   0  -4   6  865.81   31.20
  -4   0   6  836.92   31.20
  -4   0   6  823.82   31.60
   0   4   6  844.42   30.80
   4   0   6  873.31   30.80
  -4   0   6  847.02   31.30
  -1  -4  -6    8.20    1.30
  -4   1  -6    9.10    1.10
   1   4  -6    9.80    1.40
   1   4  -6    9.30    1.30
  -4   1  -6    7.30    1.20
  -1  -4  -6    7.30    1.30
  -4   1  -6    8.40    2.10
  -1  -4  -6    9.00    1.40
  -1  -4  -6    8.00    1.10
   1   4   6    7.90    1.20
  -1  -4   6   10.60    1.60
   4  -1   6    8.30    1.20
   4  -1   6    9.00    1.40
  -4   1   6    7.40    1.30
  -2  -4  -6  602.84   22.60
  -2  -4  -6  607.64   22.00
  -4   2  -6  587.34   22.40
  -4   2   6  596.84   22.50
   4  -2   6  616.64   22.30
  -2  -4   6  548.15   22.60
   4  -2   6  600.54   22.40
  -3  -4  -6    6.50    1.10
  -4   3  -6    4.50    1.10
  -3  -4   6    5.90    1.50
   4  -3   6    5.10    1.20
   4  -3   6    5.40    1.10
   4  -3   6    3.10    1.10
  -4   3   6    3.80    1.00
   2  -5  -6    8.40    1.60
  -2   5  -6   10.30    1.70
   2  -5  -6    7.70    1.60
   2  -5  -6   10.80    1.80
  -5  -2  -6    8.00    1.30
  -2   5   6   12.40    2.10
  -5  -2   6   11.30    2.20
  -5  -2   6    8.30    1.40
   2  -5   6   11.90    1.90
  -1   5  -6   89.99    4.60
   1  -5  -6   89.49    4.70
   1  -5  -6   93.19    5.20
  -5  -1  -6   86.69    4.70
  -5  -1  -6   93.89    4.30
   1  -5  -6   82.09    5.00
  -5  -1   6   91.19    4.40
   1  -5   6   86.99    4.70
  -5  -1   6   95.79    5.40
  -5  -1   6   88.29    4.90
  -5  -1   6   94.09    4.80
  -1   5   6   82.69    5.30
   1  -5   6   93.59    4.90
   0  -5  -6   13.70    2.00
   0   5  -6   15.60    2.00
   0  -5  -6   16.20    2.20
   0  -5  -6   16.30    2.00
  -5   0  -6   17.30    2.40
  -5   0  -6   17.80    1.70
   0   5   6   15.90    2.10
  -5   0   6   17.30    1.90
  -5   0   6   16.50    1.90
  -5   0   6   14.40    2.30
   0  -5   6   15.90    2.00
  -5   0   6   15.80    1.60
   0  -5   6   15.20    1.90
   5   0   6   18.20    1.70
   0   5   6   16.60    2.00
  -1  -5  -6   90.09    4.80
  -5   1  -6   90.39    5.20
  -1  -5  -6  104.59    5.20
  -1  -5  -6   87.19    5.00
  -5   1  -6   94.09    4.70
   1   5  -6   91.79    4.70
   5  -1   6  101.39    4.60
   5  -1   6   91.69    4.70
  -5   1   6   89.39    4.80
   1   5   6   93.79    4.70
  -5   1   6   84.29    5.00
  -1  -5   6   81.89    4.90
  -2  -5  -6   11.40    1.80
  -5   2  -6   11.60    1.70
  -5   2   6    9.80    1.60
   5  -2   6    8.10    1.50
   5  -2   6    9.30    1.40
  -5   2   6    8.80    1.80
  -2  -5   6    7.40    1.60
   0   0  -7  304.27   11.80
   0   0  -7  294.97   11.30
   0   0   7  293.17   11.40
   0   0   7  311.37   11.60
   0  -1  -7  111.09    5.00
  -1   0  -7  102.89    4.80
  -1   0  -7  114.59    4.60
   0   1  -7  107.69    4.90
   1   0  -7  107.69    4.90
   0   1  -7  101.59    4.60
  -1   0   7  108.99    4.80
   0   1   7  106.39    4.60
   1   0   7  110.59    4.70
   1   0   7  106.59    4.60
   0  -1   7  107.29    4.50
   1   0   7  107.29    4.70
   1   0   7  106.79    4.60
   0  -1   7  110.39    4.70
  -1   0   7  103.89    4.80
  -1  -1  -7 1163.18   40.80
   1   1  -7 1125.29   40.70
  -1   1  -7 1110.29   40.60
  -1   1  -7 1189.78   40.50
   1  -1  -7 1072.39   40.10
  -1  -1  -7 1097.09   40.00
   1  -1  -7 1138.99   40.70
   1  -1  -7 1102.09   40.20
   1  -1   7 1109.79   40.40
   1  -1   7 1076.09   40.30
   1   1   7 1181.68   40.60
   1  -1   7 1119.89   40.30
  -1  -1   7 1071.39   40.50
  -1   1   7 1105.99   40.80
  -2  -1  -7   52.19    2.60
  -1   2  -7   55.99    2.90
   1  -2  -7   54.59    3.00
   1  -2  -7   50.49    2.60
   1  -2  -7   51.99    2.70
   2   1   7   54.49    2.80
   2   1   7   51.69    2.70
   2   1   7   49.80    2.90
  -2  -1   7   50.29    2.60
  -1   2   7   57.19    3.20
   1  -2   7   51.59    2.60
   1  -2   7   52.19    2.70
   1  -2   7   50.89    2.70
  -2  -1   7   51.59    3.00
   0  -2  -7  169.18    6.80
   0   2  -7  163.68    6.80
   0   2  -7  167.88    7.00
  -2   0  -7  174.28    6.90
  -2   0  -7  173.48    6.70
   0  -2  -7  166.08    7.20
  -2   0  -7  174.78    6.60
   0   2  -7  158.08    7.10
   2   0   7  152.48    6.90
   0  -2   7  169.58    6.80
  -2   0   7  170.68    7.10
   2   0   7  169.48    6.80
   2   0   7  164.88    6.70
   0   2   7  164.18    6.70
   0  -2   7  167.68    6.60
   0   2   7  168.28    7.50
  -2   0   7  170.68    7.20
   0  -2   7  166.08    6.80
  -2   1  -7   51.89    2.40
  -2   1  -7   54.79    2.80
   2  -1  -7   56.99    2.90
  -1  -2  -7   49.70    3.10
   1   2  -7   54.19    3.00
  -2   1   7   55.19    2.60
  -1  -2   7   54.69    2.70
  -1  -2   7   50.99    2.80
  -2   1   7   56.79    2.90
   2  -1   7   49.30    2.80
  -2   1   7   50.59    3.10
   2  -1   7   54.19    2.70
   2  -1   7   54.29    2.90
   1   2   7   52.79    2.60
   2  -2  -7   98.79    4.30
  -2   2  -7  100.79    4.70
   2  -2  -7  107.89    4.90
   2  -2  -7  104.49    4.40
  -2  -2  -7   97.39    4.40
  -2  -2   7   99.19    4.80
  -2   2   7  100.79    4.70
  -2   2   7  100.49    4.60
  -2  -2   7   98.29    4.40
   2  -2   7  100.29    4.70
   2  -2   7  103.59    4.70
   2  -2   7  101.99    4.50
   2   2   7  107.69    4.70
   2  -3  -7   43.50    2.90
  -2   3  -7   38.50    2.70
  -3  -2  -7   42.20    2.40
   2  -3  -7   43.20    2.40
   2  -3  -7   44.90    2.50
  -3  -2   7   41.10    3.00
   2  -3   7   43.00    2.70
   2  -3   7   41.50    2.40
  -3  -2   7   43.80    2.40
  -2   3   7   40.00    2.80
   2  -3   7   42.90    2.70
   1  -3  -7  510.15   18.50
  -1   3  -7  488.05   18.80
   1  -3  -7  522.75   19.00
  -3  -1  -7  487.55   18.30
  -1   3  -7  521.05   18.60
   1  -3   7  481.05   18.40
   3   1   7  477.95   18.50
  -3  -1   7  490.85   19.20
   3   1   7  464.55   18.80
  -3  -1   7  504.55   18.40
   1  -3   7  500.75   18.50
  -3  -1   7  469.15   18.50
  -1   3   7  504.75   19.40
   0  -3  -7   79.39    4.00
   0   3  -7   76.09    3.80
  -3   0  -7   78.39    3.60
  -3   0  -7   82.99    3.50
   0  -3  -7   74.19    4.10
   0  -3  -7   80.79    3.80
  -3   0  -7   78.09    3.70
   0   3  -7   76.29    4.00
  -3   0   7   80.69    4.10
   0   3   7   78.99    3.70
  -3   0   7   75.69    4.20
   0   3   7   72.69    4.40
   3   0   7   76.39    4.00
   0  -3   7   73.89    3.60
   3   0   7   78.99    3.70
   0  -3   7   87.29    4.00
   1   3  -7  458.55   18.30
   1   3  -7  452.75   18.60
  -1  -3  -7  516.35   18.20
  -3   1  -7  517.85   18.40
  -1  -3  -7  498.35   18.40
  -1  -3  -7  475.05   18.80
  -3   1   7  520.15   18.60
   3  -1   7  496.55   18.50
  -3   1   7  460.55   18.90
  -1  -3   7  500.35   18.60
   1   3   7  438.06   19.10
   3  -1   7  510.55   18.30
  -2  -3  -7   42.80    2.40
  -3   2  -7   39.40    2.50
   3  -2   7   42.40    2.50
   3  -2   7   42.20    2.70
  -2  -3   7   43.90    2.80
  -3   2   7   41.90    2.60
   3  -2   7   36.30    2.60
  -3  -3  -7  223.68    9.30
  -3   3  -7  217.48    9.70
  -3  -3   7  233.88   10.10
  -3   3   7  234.48    9.50
   3  -3   7  230.78    9.40
  -3   3   7  243.78    9.60
  -3  -3   7  225.58    9.20
   3  -3   7  240.68    9.70
   3  -3   7  241.78    9.80
   3  -4  -7    6.50    1.20
   3  -4  -7    6.60    1.50
   3  -4  -7    7.60    1.30
  -4  -3  -7    6.50    1.20
   3  -4  -7    5.60    1.50
  -3   4  -7    6.70    1.40
   3  -4   7    6.60    1.40
  -4  -3   7    5.90    1.10
  -3   4   7    6.10    1.30
  -4  -3   7    6.30    1.60
   3  -4   7    6.60    1.40
   3  -4   7    5.80    1.10
   2  -4  -7   24.50    2.50
   2  -4  -7   25.00    2.40
  -4  -2  -7   23.80    1.90
  -2   4  -7   33.80    2.50
   2  -4  -7   24.20    2.10
   4   2   7   25.00    2.40
  -2   4   7   23.40    2.40
  -4  -2   7   27.90    2.70
   2  -4   7   28.60    2.30
  -4  -2   7   27.70    2.10
   2  -4   7   23.40    1.90
   1  -4  -7    5.30    1.30
   1  -4  -7    6.10    1.20
   1  -4  -7    4.90    1.20
  -4  -1  -7    4.80    1.00
  -4  -1  -7    7.60    1.10
  -1   4  -7    6.70    1.30
   1  -4   7    5.60    1.20
  -4  -1   7    6.90    1.30
   1  -4   7    6.00    1.20
  -1   4   7    5.20    1.30
  -4  -1   7    5.70    1.00
   4   1   7    6.10    1.30
  -4  -1   7    6.60    1.60
  -4   0  -7   43.10    2.70
   0  -4  -7   45.90    3.00
   0  -4  -7   48.00    2.70
   0  -4  -7   42.90    3.00
   0  -4  -7   44.70    2.80
   0   4  -7   43.20    2.90
   0   4  -7   44.30    2.90
  -4   0  -7   42.80    2.40
   4   0   7   46.00    2.90
   4   0   7   43.70    2.60
   0   4   7   43.10    2.70
   0  -4   7   47.60    3.00
   0  -4   7   40.90    3.10
   0   4   7   40.20    3.30
  -4   0   7   42.80    2.90
  -4   0   7   45.80    3.00
  -4   0   7   44.80    3.30
   1   4  -7    8.10    1.50
  -4   1  -7    5.90    1.20
  -1  -4  -7    5.30    1.00
  -1  -4  -7    5.70    1.20
  -1  -4  -7    4.80    1.20
  -4   1   7    4.20    1.00
   4  -1   7    7.60    1.30
   4  -1   7    5.00    1.00
  -1  -4   7    6.20    1.30
  -2  -4  -7   26.50    2.00
  -4   2  -7   23.90    2.10
   4  -2   7   29.80    2.10
  -4   2   7   24.00    2.20
   4  -2   7   26.70    2.30
  -2  -4   7   29.20    2.50
  -4   3  -7    5.90    1.30
  -3  -4  -7    7.40    1.20
  -3  -4   7    6.40    1.60
  -4   3   7    7.70    1.40
   4  -3   7    6.30    1.40
   4  -3   7    6.40    1.40
   4  -3   7    6.10    1.20
   2  -5  -7   23.00    2.50
  -5  -2  -7   22.00    1.90
   2  -5  -7   20.70    2.50
  -2   5  -7   18.60    2.20
   2  -5  -7   20.40    2.20
  -2   5   7   19.70    2.50
   2  -5   7   18.80    2.40
  -5  -2   7   23.60    2.90
  -5  -2   7   22.40    2.00
  -5  -1  -7  132.29    6.40
   1  -5  -7  121.39    6.60
   1  -5  -7  136.79    6.90
  -1   5  -7  136.09    6.50
  -5  -1  -7  136.59    6.00
   1  -5  -7  136.79    6.40
  -5  -1   7  139.89    6.20
  -5  -1   7  143.49    7.10
   1  -5   7  132.09    6.40
  -1   5   7  127.39    7.20
   1  -5   7  143.39    6.60
  -5  -1   7  126.79    6.40
   0   5  -7   34.10    3.90
   0  -5  -7   32.40    2.90
   0   5  -7   36.80    2.80
   0  -5  -7   34.40    3.00
   0  -5  -7   35.60    2.80
  -5   0  -7   39.10    2.70
  -5   0   7   39.60    2.90
  -5   0   7   36.90    2.90
   5   0   7   40.30    3.90
  -5   0   7   38.70    3.40
   5   0   7   38.30    2.70
   0  -5   7   39.30    3.00
   0   5   7   37.90    3.40
  -1  -5  -7  130.29    6.70
   1   5  -7  136.49    6.40
  -1  -5  -7  137.89    6.60
   1   5   7  141.39    6.40
  -5   1   7  128.59    6.80
  -1  -5   7  133.69    6.70
   5  -1   7  135.29    6.40
   5  -1   7  143.79    6.30
  -5   1   7  134.69    6.60
  -5   2  -7   21.50    2.10
   5  -2   7   22.00    2.10
  -2  -5   7   23.20    2.50
   5  -2   7   20.50    2.30
  -5   2   7   20.10    2.50
   0   0  -8   22.80    1.80
   0   0  -8   23.80    1.60
   0   0   8   24.30    1.70
   0   0   8   22.30    1.50
   0   1  -8  306.17   12.00
   0   1  -8  312.27   12.50
   0  -1  -8  331.67   12.00
   1   0  -8  319.97   12.00
  -1   0  -8  315.97   12.00
   0  -1  -8  316.07   12.50
  -1   0  -8  320.97   12.50
   1   0  -8  328.17   12.50
   1   0   8  305.87   12.20
   0  -1   8  307.87   12.20
   1   0   8  307.77   12.00
   1   0   8  315.77   12.10
   0   1   8  316.77   12.00
  -1   0   8  298.97   12.30
  -1   0   8  324.57   12.20
   0  -1   8  310.67   11.90
  -1   1  -8 2482.85   83.59
   1  -1  -8 2296.07   82.99
   1  -1  -8 2435.36   83.59
  -1  -1  -8 2252.77   83.09
   1   1  -8 2369.16   83.49
  -1  -1  -8 2435.56   83.59
  -1   1  -8 2295.57   83.29
   1   1   8 2431.66   83.29
  -1   1   8 2181.88   83.59
   1  -1   8 2334.67   83.19
  -1  -1   8 2265.67   83.29
   1  -1   8 2378.06   83.09
   1   1   8 2167.98   82.99
   1  -1   8 2242.18   83.09
   1  -2  -8  262.67   10.10
  -2  -1  -8  245.78   10.50
  -2  -1  -8  262.97   10.20
   1  -2  -8  269.37   10.30
   1  -2  -8  279.57   10.80
  -1   2  -8  261.07   10.60
   2   1   8  259.37   10.40
   2   1   8  267.27   10.50
   1  -2   8  264.47   10.30
  -2  -1   8  259.37   10.60
  -1   2   8  255.47   10.90
   1  -2   8  257.47   10.20
  -2   0  -8   11.60    1.10
   0   2  -8   10.50    1.30
  -2   0  -8   12.40    1.10
   0   2  -8   12.10    1.70
   0  -2  -8   10.60    1.40
  -2   0  -8   10.20    1.20
   0   2  -8   11.40    1.40
   0  -2   8   10.60    1.20
   0   2   8   17.00    1.80
   0  -2   8   11.70    1.20
  -2   0   8   10.40    1.50
   2   0   8   11.60    1.50
   2   0   8   10.50    1.20
   0   2   8   10.10    1.20
   0  -2   8   12.00    1.10
  -2   1  -8  242.08   10.00
   2  -1  -8  269.27   10.70
  -1  -2  -8  264.67   10.90
   1   2  -8  252.27   10.40
   1   2  -8  261.47   10.80
  -2   1  -8  268.37   10.50
   1   2   8  262.77   10.30
   2  -1   8  264.47   10.40
   2  -1   8  280.47   10.50
  -2   1   8  275.77   10.90
  -2   1   8  272.37   10.40
  -1  -2   8  275.47   10.40
  -1  -2   8  264.27   10.60
  -2   1   8  264.57   10.60
   2  -1   8  261.87   10.60
  -2   2  -8    6.40    1.20
  -2  -2  -8    5.20    0.90
   2  -2  -8    4.40    0.80
   2  -2  -8    5.20    1.10
   2  -2  -8    9.20    1.00
   2   2   8    6.60    1.20
   2  -2   8    5.50    1.10
  -2  -2   8    5.90    1.20
  -2   2   8    5.40    1.00
   2  -2   8    5.50    0.90
   2  -2   8    5.70    1.10
  -3  -2  -8   98.09    4.60
   2  -3  -8  112.79    5.30
   2  -3  -8  100.19    4.60
   2  -3  -8  104.59    4.80
  -2   3  -8  106.29    5.10
   2  -3   8   99.39    4.90
   2  -3   8   97.69    4.70
  -3  -2   8   98.79    5.30
  -3  -2   8  103.09    4.70
   2  -3   8   97.39    4.90
   3   2   8  101.79    5.10
  -2   3   8  102.79    5.20
   1  -3  -8 1099.09   38.70
  -3  -1  -8 1060.99   38.60
   1  -3  -8 1085.89   39.30
  -1   3  -8 1034.10   39.20
   3   1   8 1088.89   38.90
  -3  -1   8 1073.99   39.40
   1  -3   8  999.20   38.60
   3   1   8 1072.89   39.10
   1  -3   8 1066.99   38.80
  -1   3   8 1057.69   39.80
   0   3  -8  128.09    5.70
   0  -3  -8  123.29    5.80
   0  -3  -8  121.79    5.50
   0  -3  -8  115.59    5.90
   0   3  -8  121.69    5.90
  -3   0  -8  126.59    5.30
   0   3   8  123.69    6.40
   3   0   8  132.99    5.60
   3   0   8  111.19    5.70
   0  -3   8  134.89    5.70
   0   3   8  126.99    5.50
  -3   0   8  122.09    5.90
   0  -3   8  123.39    5.30
  -3   0   8  124.09    5.90
   1   3  -8 1001.30   38.20
  -1  -3  -8 1060.89   38.00
  -1  -3  -8 1009.30   38.70
  -1  -3  -8 1046.70   38.30
  -3   1  -8 1083.89   38.20
   1   3  -8  960.10   38.50
   1   3   8 1078.49   38.00
   3  -1   8 1102.29   38.20
  -3   1   8 1091.49   39.00
   3  -1   8 1031.80   38.40
  -3   1   8 1073.89   38.50
  -1  -3   8 1089.89   38.40
   1   3   8  965.30   39.20
  -3   2  -8   99.99    5.00
  -2  -3  -8  103.49    4.80
   3  -2  -8  102.49    4.70
  -2  -3   8  103.19    5.30
   3  -2   8  106.79    4.90
   3  -2   8  110.39    5.20
   3  -2   8  100.49    5.10
  -3   2   8  115.19    5.20
  -3  -3  -8  493.65   19.10
   3  -3  -8  512.15   19.10
  -3   3  -8  486.55   19.50
   3  -3   8  509.45   19.50
  -3  -3   8  500.75   19.90
  -3   3   8  517.25   19.40
   3  -3   8  509.95   19.50
   3  -3   8  510.35   19.20
   3  -4  -8   57.19    3.40
   3  -4  -8   60.39    4.00
  -4  -3  -8   55.49    3.30
  -3   4  -8   58.99    3.80
   3  -4  -8   61.89    3.50
   3  -4   8   68.99    4.00
  -3   4   8   59.39    3.80
   3  -4   8   57.39    3.40
   2  -4  -8    1.50    0.80
   2  -4  -8    0.80    0.90
  -2   4  -8    1.30    0.90
   2  -4  -8    1.80    0.90
  -4  -2  -8    2.30    0.70
  -2   4   8    1.80    0.90
   2  -4   8    2.10    1.00
   2  -4   8    1.30    0.60
  -4  -2   8    1.00    1.00
  -4  -2   8    1.40    0.70
   4   2   8    0.80    0.90
  -4  -1  -8  138.89    6.00
  -1   4  -8  136.89    6.60
   1  -4  -8  144.29    6.80
   1  -4  -8  137.99    6.70
   1  -4  -8  139.19    6.20
   1  -4   8  140.19    6.20
   4   1   8  125.49    6.40
  -1   4   8  132.99    7.10
  -4  -1   8  147.49    6.90
  -4   0  -8    2.60    0.70
   0  -4  -8    2.70    1.00
   0   4  -8    2.20    0.90
   0  -4  -8    2.80    1.00
   0   4  -8    1.40    0.90
  -4   0  -8    2.70    0.80
   0  -4  -8    2.10    0.90
   0   4   8    2.50    0.90
   0   4   8    2.40    1.20
  -4   0   8    2.90    1.00
  -4   0   8    1.90    0.90
  -4   0   8    2.20    1.10
   4   0   8    2.40    1.00
   0  -4   8    2.90    1.00
  -1  -4  -8  127.89    6.70
  -4   1  -8  142.49    6.30
   1   4  -8  135.89    6.70
  -1  -4  -8  142.09    6.10
  -1  -4  -8  136.39    6.50
   1   4  -8  138.29    6.40
  -1  -4   8  142.09    6.60
   4  -1   8  140.49    6.60
  -4   1   8  146.79    6.70
   1   4   8  146.89    6.30
   4  -1   8  148.19    6.30
   2   4  -8    1.90    1.10
  -2  -4  -8    0.90    0.70
  -4   2  -8    0.90    0.70
  -4   2   8    1.60    0.80
   4  -2   8    4.80    1.30
   4  -2   8    1.90    0.80
  -2  -4   8    0.50    0.90
   4  -3  -8   57.19    3.40
  -3  -4  -8   56.09    3.40
  -4   3  -8   61.29    3.80
  -4   3   8   62.29    3.80
  -3  -4   8   60.79    4.10
   4  -3   8   61.69    3.90
   4  -3   8   62.79    4.00
   4  -3   8   64.89    3.70
   1  -5  -8  283.47   11.50
  -1   5  -8  273.87   11.70
  -5  -1  -8  273.47   11.10
   1  -5  -8  260.37   12.00
   1  -5  -8  291.27   12.20
  -1   5   8  257.47   12.50
   1  -5   8  280.47   11.60
  -5  -1   8  293.87   12.20
   0   5  -8   19.00    2.30
   0  -5  -8   20.90    2.40
   0   5  -8   19.20    2.50
  -5   0  -8   17.70    2.00
   0  -5  -8   17.80    2.30
   0  -5  -8   21.20    2.30
  -5   0   8   16.10    2.30
   0  -5   8   18.10    2.20
  -5   0   8   20.60    2.20
   5   0   8   22.00    2.10
   0   5   8   20.40    2.70
  -5   0   8   21.50    2.70
   5   0   8   21.60    2.30
   1   5  -8  295.57   12.10
  -1  -5  -8  267.07   12.30
  -1  -5  -8  281.47   12.10
  -5   1   8  288.77   12.50
   5  -1   8  306.37   11.90
   1   5   8  297.57   11.90
   5  -1   8  296.47   12.10
  -1  -5   8  279.37   12.30
   0   0  -9  210.78    8.60
   0   0  -9  205.78    8.10
   0   0   9  198.18    8.00
   0   0   9  200.98    8.30
   0   0   9  198.58    8.00
   0  -1  -9   94.89    4.80
   1   0  -9   99.09    4.80
   0   1  -9  103.89    4.50
   0   1  -9  100.19    5.00
   1   0  -9  102.69    4.50
  -1   0  -9   98.79    4.90
  -1   0  -9  100.09    4.50
   1   0   9   93.39    4.60
   0   1   9   93.89    4.40
   1   0   9   98.79    4.50
   0  -1   9   91.19    4.50
  -1   0   9  100.89    4.60
  -1   0   9   95.59    4.80
   0  -1   9   95.39    4.40
   1   0   9  102.19    4.60
   1   1  -9   51.89    3.10
   1   1  -9   49.30    2.70
  -1   1  -9   44.20    2.80
  -1   1  -9   45.90    3.00
   1  -1  -9   48.60    3.10
   1  -1  -9   56.09    2.80
  -1  -1  -9   56.19    3.20
  -1   1   9   48.00    3.10
   1  -1   9   50.39    2.80
   1  -1   9   52.59    2.80
   1   1   9   48.80    2.80
  -1  -1   9   51.69    2.90
   1   1   9   46.40    2.70
   1  -1   9   44.90    2.70
   1  -2  -9   74.19    3.70
   1  -2  -9   78.59    4.10
   1  -2  -9   75.79    3.60
  -2  -1  -9   73.09    4.00
  -1   2  -9   65.09    3.90
  -1   2  -9   75.59    4.10
  -2  -1  -9   75.99    3.60
  -2  -1   9   77.09    4.00
   2   1   9   73.49    3.80
   1  -2   9   71.39    3.60
   2   1   9   74.79    3.80
  -1   2   9   65.89    4.10
   1  -2   9   74.89    3.90
   1  -2   9   74.29    3.70
   0   2  -9  141.09    6.40
   0  -2  -9  134.69    6.40
  -2   0  -9  141.79    5.80
   0   2  -9  139.39    6.10
   0   2  -9  129.99    6.30
  -2   0  -9  140.19    6.20
   0   2   9  121.99    6.60
   0   2   9  138.39    5.90
   2   0   9  137.39    6.00
   0  -2   9  126.69    5.90
   2   0   9  136.89    5.90
   0  -2   9  140.99    5.80
  -2   0   9  138.99    6.20
   2   0   9  142.69    6.20
  -2   1  -9   73.09    3.80
  -2   1  -9   81.19    4.10
   1   2  -9   74.09    3.80
  -1  -2  -9   73.99    4.10
   1   2  -9   75.29    4.20
   2  -1  -9   76.19    4.10
   2  -1  -9   74.79    3.60
   2  -1   9   78.59    3.80
  -2   1   9   74.99    3.70
  -1  -2   9   76.09    3.70
   2  -1   9   72.69    3.90
   2  -1   9   71.99    3.70
  -2   1   9   76.39    4.20
   1   2   9   76.39    3.70
  -1  -2   9   79.79    3.90
  -2  -2  -9   95.39    4.60
  -2   2  -9   97.49    5.00
  -2  -2  -9  100.49    5.00
   2  -2  -9  103.69    5.10
   2  -2  -9  100.09    4.60
   2  -2  -9  101.79    4.80
   2  -2   9  100.79    4.90
   2   2   9  105.89    4.90
   2  -2   9   97.59    4.70
  -2  -2   9  104.79    5.10
  -2   2   9   99.69    5.00
   2  -2   9  105.09    5.00
  -2   3  -9   33.30    2.60
   2  -3  -9   34.50    2.70
  -3  -2  -9   29.10    2.20
   2  -3  -9   35.80    2.40
   2  -3  -9   31.50    2.20
   2  -3   9   33.80    2.60
  -3  -2   9   30.30    2.60
   2  -3   9   31.60    2.20
   3   2   9   32.60    2.60
  -2   3   9   31.40    2.60
   1  -3  -9   32.70    2.60
  -1   3  -9   29.70    2.50
  -3  -1  -9   31.00    2.10
   1  -3  -9   32.50    2.20
   1  -3   9   30.50    2.30
  -3  -1   9   30.40    2.50
   3   1   9   31.30    2.60
   3   1   9   31.70    2.30
  -1   3   9   28.10    2.70
   1  -3   9   29.10    2.10
   0   3  -9   42.70    2.90
   0  -3  -9   42.30    3.10
   0   3  -9   39.90    3.00
   0  -3  -9   45.90    2.80
  -3   0  -9   46.40    2.50
   0  -3   9   47.20    2.80
   3   0   9   42.00    3.00
  -3   0   9   45.30    3.10
   0   3   9   41.30    3.40
   0   3   9   42.30    2.70
   3   0   9   44.90    2.70
   1   3  -9   30.10    2.60
  -3   1  -9   29.10    2.20
  -1  -3  -9   31.60    2.60
   1   3  -9   30.00    2.40
  -3   1   9   36.30    2.70
   3  -1   9   32.60    2.50
   3  -1   9   30.70    2.20
  -1  -3   9   34.80    2.50
   1   3   9   29.90    2.20
   1   3   9   33.10    3.00
  -2  -3  -9   32.80    2.30
  -3   2  -9   31.40    2.40
   3  -2  -9   32.90    2.20
   2   3   9   32.80    2.40
   3  -2   9   34.70    2.70
   3  -2   9   35.00    2.70
   3  -2   9   33.40    2.40
  -2  -3   9   30.50    2.60
  -3   2   9   32.00    2.50
  -3   3  -9   26.20    2.30
   3  -3  -9   20.90    1.90
  -3  -3  -9   21.10    1.90
  -3  -3   9   19.80    2.40
   3  -3   9   18.20    2.20
   3  -3   9   21.90    2.40
   3  -3   9   19.00    1.90
   3  -4  -9   15.90    1.90
  -4  -3  -9   14.10    1.80
   3  -4  -9   12.10    2.10
   4   3   9   14.00    2.10
  -4  -3   9   14.80    2.40
   2  -4  -9   44.60    2.90
   2  -4  -9   48.80    3.50
   2  -4  -9   40.10    3.30
  -2   4  -9   38.60    3.10
  -4  -2  -9   43.20    2.70
  -2   4   9   44.50    3.50
   2  -4   9   40.50    2.70
  -4  -2   9   45.60    3.50
   2  -4   9   43.30    3.20
   4   2   9   41.80    3.20
  -1   4  -9   32.40    2.90
  -4  -1  -9   36.10    2.30
   1  -4  -9   37.80    2.90
   1  -4  -9   29.70    2.80
   1  -4  -9   32.10    2.50
  -4  -1   9   33.90    2.90
  -1   4   9   30.90    3.10
   1  -4   9   35.90    2.60
   4   1   9   32.70    2.80
   0  -4  -9   59.79    3.50
   0   4  -9   61.29    3.70
   0  -4  -9   54.49    3.80
   0  -4  -9   63.09    3.80
   0   4  -9   54.79    3.80
  -4   0  -9   55.89    3.10
   0   4   9   53.59    4.30
   0  -4   9   62.39    3.70
  -4   0   9   58.99    3.90
   4   0   9   60.49    3.40
   4   0   9   53.29    3.70
  -4   0   9   57.49    3.60
  -4   0   9   57.39    3.80
  -1  -4  -9   32.30    2.70
  -4   1  -9   33.80    2.60
   1   4  -9   28.20    2.70
  -1  -4  -9   32.10    2.80
   1   4  -9   33.70    2.80
  -1  -4  -9   33.30    2.40
  -1  -4   9   34.20    2.70
   4  -1   9   34.40    2.50
   1   4   9   37.60    2.60
   4  -1   9   33.60    2.80
  -4   1   9   35.20    2.80
  -2  -4  -9   43.30    2.80
   2   4  -9   37.80    3.20
  -4   2  -9   42.20    3.00
  -4   2   9   48.30    3.30
   4  -2   9   43.90    2.90
  -2  -4   9   41.10    3.30
   4  -2   9   44.80    3.30
   4  -2   9   46.00    3.40
   4  -3  -9   13.30    1.70
  -3  -4  -9   15.50    1.90
   4  -3   9   15.40    2.00
  -4   3   9   18.00    2.10
  -3  -4   9   18.30    2.50
   0  -5  -9    8.60    1.70
   0   5  -9    9.10    1.90
   0  -5   9   11.10    1.90
   0   5   9    8.70    2.20
  -5   0   9   11.30    2.20
   5   0   9   13.10    2.10
  -5   0   9    7.20    1.60
   0   0 -10 2428.06   87.99
   0   0 -10 2573.44   88.69
   0   0  10 2518.95   87.99
   0   0  10 2337.37   88.29
  -1   0 -10   88.29    4.60
   1   0 -10   91.39    4.50
   0  -1 -10   91.09    4.30
   0   1 -10   88.79    4.20
   0   1 -10   87.89    4.40
   0   1 -10   87.19    4.70
  -1   0 -10   82.29    4.10
   1   0 -10   89.29    4.10
   0  -1 -10   90.19    4.60
  -1   0  10   87.29    4.20
   1   0  10   82.59    4.20
  -1   0  10   83.09    4.40
   0  -1  10   87.49    4.10
   1   0  10   94.69    4.30
   1   0  10   89.09    4.20
   0  -1  10   80.89    4.20
   1   1 -10    5.30    0.90
   1  -1 -10    4.60    0.90
  -1   1 -10    6.10    1.20
  -1  -1 -10    7.10    1.30
   1   1 -10    4.90    1.10
  -1   1 -10    4.10    1.10
   1  -1 -10    4.80    1.20
   1  -1  10    5.30    1.10
   1  -1  10    5.20    1.00
  -1   1  10    5.60    1.20
   1  -1  10    6.10    1.20
   1   1  10    5.70    1.10
   1   1  10    4.40    1.00
   1  -2 -10   50.99    3.20
  -2  -1 -10   39.90    2.60
  -2  -1 -10   41.90    3.00
  -1   2 -10   33.60    2.80
  -1   2 -10   47.50    3.20
   1  -2 -10   47.80    2.70
   2   1  10   48.30    2.80
   2   1  10   42.10    2.70
  -2  -1  10   44.60    3.00
   1  -2  10   46.30    2.80
   2   1  10   44.20    2.90
   1  -2  10   40.70    2.60
  -1   2  10   40.40    3.10
   0  -2 -10 1557.54   57.39
  -2   0 -10 1601.94   56.99
   0   2 -10 1538.55   57.19
   0   2 -10 1598.44   57.39
   0   2 -10 1636.94   56.99
  -2   0 -10 1479.45   57.09
   0  -2  10 1503.65   56.79
  -2   0  10 1656.63   56.99
   0  -2  10 1554.74   56.59
   0   2  10 1554.54   57.79
   2   0  10 1591.14   56.89
   2   0  10 1615.64   56.69
   2   0  10 1542.75   56.89
   2  -1 -10   43.40    2.70
   1   2 -10   41.90    3.10
  -2   1 -10   43.30    2.80
   1   2 -10   55.59    3.00
   2  -1 -10   44.80    3.10
  -1  -2 -10   43.90    3.00
  -2   1 -10   44.80    3.10
   2  -1  10   47.90    2.90
  -1  -2  10   48.20    2.90
  -1  -2  10   47.20    2.70
   2  -1  10   44.50    2.80
   1   2  10   45.00    2.80
   2  -1  10   41.70    2.90
  -2   1  10   45.40    2.80
  -2  -2 -10 1110.39   41.60
   2  -2 -10 1188.48   41.90
   2  -2 -10 1139.49   41.20
  -2   2 -10 1063.69   41.60
  -2  -2 -10 1088.69   41.20
  -2  -2  10 1120.89   41.70
   2   2  10 1285.17   41.60
  -2   2  10 1104.99   41.80
   2  -2  10 1095.99   41.30
   2  -2  10 1111.79   41.50
  -3  -2 -10   33.90    2.40
   2  -3 -10   36.70    2.60
  -2   3 -10   33.50    2.80
   2  -3 -10   42.60    2.60
   2  -3 -10   36.60    2.90
   2  -3  10   40.80    2.90
  -3  -2  10   36.80    2.90
   2  -3  10   33.40    2.50
   3   2  10   40.70    2.90
  -2   3  10   33.80    2.90
   1  -3 -10    6.10    1.40
   1  -3 -10    5.00    1.10
  -3  -1 -10    7.00    1.20
  -1   3 -10    5.30    1.40
  -3  -1  10   10.50    1.80
  -1   3  10    4.90    1.40
   3   1  10    7.20    1.50
   1  -3  10    7.50    1.40
   3   1  10    7.30    1.40
   1  -3  10    5.80    1.10
   0   3 -10   60.79    3.70
   0  -3 -10   61.19    3.90
  -3   0 -10   61.69    3.20
   0   3 -10   55.69    3.80
  -3   0  10   71.19    3.90
   3   0  10   66.99    3.90
   0   3  10   54.09    4.20
   3   0  10   66.09    3.60
  -1  -3 -10    7.40    1.50
   1   3 -10    4.80    1.70
   1   3 -10    6.90    1.50
  -3   1 -10    6.70    1.30
   1   3 -10    5.20    1.30
   3  -1  10    8.30    1.50
  -3   1  10    6.70    1.40
  -1  -3  10    7.30    1.40
   1   3  10    5.60    1.20
   3  -1  10    7.00    1.20
   3  -1  10    7.20    1.30
   1   3  10    8.60    1.90
   3  -2 -10   37.40    2.50
  -3   2 -10   33.00    2.60
  -2  -3 -10   36.40    2.60
  -2  -3 -10   33.30    2.60
   3  -2  10   38.30    2.90
  -2  -3  10   36.90    2.90
   3  -2  10   33.60    2.50
   2   3  10   39.40    2.70
  -3   2  10   40.50    3.00
   3  -2  10   36.10    2.80
  -3   3 -10    6.30    1.40
   3  -3 -10    5.20    1.10
  -3  -3 -10    6.50    1.20
   3  -3  10    6.30    1.20
   3  -3  10    5.40    1.20
   3  -3  10    5.10    1.50
   2  -4 -10  450.55   17.30
   2  -4 -10  404.66   17.00
  -2   4 -10  415.26   17.00
   2  -4 -10  431.66   16.30
  -4  -2 -10  396.56   16.20
  -2   4  10  393.26   17.30
   4   2  10  420.46   16.70
   2  -4  10  428.06   16.70
   2  -4  10  405.66   16.60
  -4  -1 -10    6.50    1.20
  -1   4 -10    4.70    1.50
   1  -4 -10    5.90    1.30
   1  -4 -10    4.60    1.40
   1  -4 -10    8.30    1.70
   1  -4  10    3.30    1.20
   4   1  10    3.00    1.30
  -4  -1  10    4.50    1.40
  -1   4  10    5.90    1.70
   0   4 -10  597.74   22.50
   0  -4 -10  545.25   22.80
   0   4 -10  522.75   22.60
   0  -4 -10  596.54   22.30
  -4   0  10  615.14   22.80
   4   0  10  557.74   22.50
   0  -4  10  638.34   22.60
   0   4  10  552.44   23.70
   4   0  10  614.24   22.30
   1   4 -10    4.50    1.40
  -1  -4 -10    4.70    1.10
  -1  -4 -10    8.60    1.70
   1   4 -10    5.90    1.50
   4  -1  10    7.20    1.70
  -4   1  10    5.10    1.40
   4  -1  10    4.70    1.10
   1   4  10    4.80    1.30
  -1  -4  10    7.70    1.60
  -4   2 -10  444.36   17.70
  -2  -4 -10  445.96   17.20
   2   4 -10  401.76   17.70
  -4   2  10  470.75   17.90
   4  -2  10  427.66   17.40
   4  -2  10  457.65   17.60
  -2  -4  10  436.16   17.90
   4  -2  10  450.45   17.80
   2   4  10  454.95   17.30
   0   0 -11  154.28    6.50
   0   0 -11  162.68    7.20
   0   0  11  158.78    6.50
   0   0  11  142.79    6.70
  -1   0 -11    0.20    0.60
   0   1 -11    1.20    0.90
   1   0 -11    1.80    0.70
   0  -1 -11    0.30    0.70
  -1   0 -11    0.40    0.60
   0   1 -11    0.10    0.60
   0   1 -11    0.40    0.70
   1   0 -11    3.20    1.00
   0  -1  11    0.60    0.60
  -1   0  11    0.60    0.60
   1   0  11    1.10    0.80
   1   0  11    1.40    0.70
   0  -1  11    2.90    0.80
   1   0  11    0.40    0.50
  -1   0  11   -0.10    0.60
  -1   1 -11   77.09    4.20
  -1   1 -11   74.19    4.50
   1   1 -11   78.29    3.80
   1  -1 -11   73.09    4.30
  -1  -1 -11   78.89    4.40
   1  -1 -11   77.99    3.90
   1   1 -11   85.09    4.50
   1   1  11   75.69    4.10
  -1   1  11   78.39    4.50
   1  -1  11   89.69    4.10
   1   1  11   76.79    4.00
   1  -1  11   81.69    4.40
   1  -1  11   71.29    4.00
  -1  -1  11   83.19    4.10
   1   1  11   76.89    4.00
  -2  -1 -11    1.10    0.70
   1  -2 -11    0.10    0.60
  -1   2 -11    0.00    0.70
   1  -2 -11    0.00    0.70
  -1   2 -11    0.40    0.80
  -2  -1 -11    0.80    0.60
   2   1 -11   -0.10    0.60
  -2  -1  11    0.30    0.80
   2   1  11    0.40    0.80
   1  -2  11   -0.20    0.70
   2   1  11    1.40    0.90
   2   1  11    0.20    0.50
   1  -2  11    0.60    0.60
  -1   2  11    0.60    0.70
   0  -2 -11  117.09    5.60
   0   2 -11   97.79    5.20
   0   2 -11   93.09    5.40
   2   0 -11   92.79    4.80
   0   2 -11  106.29    5.10
  -2   0 -11   95.69    5.30
  -2   0  11  107.19    5.10
   2   0  11  104.99    5.10
   2   0  11  110.99    5.00
   2   0  11  112.29    5.20
   0  -2  11   95.49    4.90
   0   2  11  108.59    5.90
  -1  -2 -11    0.70    0.80
   1   2 -11    1.00    0.80
   2  -1 -11    0.90    0.70
   2  -1 -11    1.70    0.90
  -2   1 -11    4.10    1.10
  -2   1 -11    0.20    0.80
   1   2 -11    3.30    0.90
   1   2  11    0.60    0.90
   2  -1  11   -0.10    0.50
   2  -1  11    1.90    1.00
   2  -1  11    0.70    0.90
  -2   1  11    1.00    0.60
  -1  -2  11   -0.60    0.60
   2  -2 -11   73.49    4.40
  -2  -2 -11   66.69    3.80
  -2   2 -11   64.69    4.10
  -2  -2 -11   71.79    4.10
  -2   2  11   68.09    4.20
  -2  -2  11   74.79    4.20
   2  -2  11   65.69    4.00
   2   2  11   79.99    4.00
   2  -2  11   69.19    3.90
   2  -3 -11    0.00    0.80
  -2   3 -11   -0.40    0.70
   2  -3 -11    0.50    0.80
  -3  -2 -11   -0.10    0.60
   3   2  11   -0.20    0.90
  -3  -2  11    0.40    0.80
   2  -3  11   -0.50    0.50
  -2   3  11    0.10    0.60
   2  -3  11    0.70    0.90
  -1   3 -11   29.60    2.80
   1  -3 -11   35.90    2.50
  -3  -1 -11   34.60    2.40
   1  -3 -11   33.00    3.00
   1  -3  11   35.00    2.70
   3   1  11   33.30    2.60
   3   1  11   39.50    3.00
   3   1  11   36.70    2.60
  -1   3  11   32.30    3.20
   1  -3  11   34.00    2.50
  -3  -1  11   34.90    2.80
   0   3 -11   -0.40    0.70
  -3   0 -11    0.00    0.50
   0  -3 -11    1.50    1.00
   0   3 -11    0.20    0.80
  -3   0  11   -0.40    0.60
   3   0  11    0.50    0.80
   3   0  11    0.80    0.90
   3   0  11    1.20    0.70
   0   3  11   -0.10    0.60
   3  -1 -11   35.70    2.50
  -1  -3 -11   38.00    3.00
  -3   1 -11   34.20    2.60
   1   3 -11   37.30    2.80
   1   3 -11   36.70    3.00
   1   3  11   36.30    3.40
   3  -1  11   39.20    2.70
   1   3  11   34.30    2.70
  -1  -3  11   38.40    2.90
   3  -1  11   38.20    3.00
  -2  -3 -11   -0.20    0.60
   3  -2 -11    0.00    0.70
  -3   2 -11    0.00    0.60
  -2  -3 -11    0.10    0.70
  -3   2  11    0.50    0.90
   3  -2  11   -0.10    0.50
   3  -2  11    2.60    1.00
   2   3  11    2.70    1.10
  -2  -3  11    0.00    0.70
   3  -2  11   -0.30    0.90
  -3  -3 -11   14.80    2.00
   3  -3 -11   16.50    2.00
   3  -3  11   18.10    2.50
  -3  -3  11   15.10    2.30
   3  -3  11   18.80    2.00
   1  -4 -11   -0.10    0.90
  -4  -1 -11   -0.50    0.60
   1  -4 -11    0.20    0.90
  -1   4 -11    1.00    1.10
   1  -4 -11    0.50    1.00
  -4  -1  11    0.20    1.00
  -1   4  11    0.70    1.00
   4   1  11    0.30    1.00
   0   4 -11   35.10    3.30
   0  -4 -11   33.90    3.30
   4   0  11   40.80    3.30
   4   0  11   42.20    3.00
   0   4  11   32.50    3.50
  -4   0  11   39.40    3.20
   1   4 -11    1.00    1.10
  -1  -4 -11    1.90    1.00
  -1  -4 -11    0.40    0.80
   1   4 -11   -0.30    1.00
  -1  -4  11    0.90    1.00
   4  -1  11    0.90    1.10
   1   4  11    0.20    1.00
   1   4  11    0.70    1.20
   4  -1  11   -0.30    1.00
   4  -1  11    0.00    0.70
   0   0 -12   87.79    4.70
   0   0  12   81.89    4.30
   0   0  12   86.79    4.20
   1   0 -12   53.29    3.00
   0  -1 -12   49.00    3.30
  -1   0 -12   50.89    3.00
   0   1 -12   52.79    3.60
   0   1 -12   54.49    3.20
   0   1 -12   53.09    3.00
   1   0 -12   48.20    3.20
  -1   0 -12   54.49    3.60
   0  -1  12   53.29    3.00
  -1   0  12   48.10    3.00
   0  -1  12   46.10    3.00
   1   0  12   53.19    3.10
   1   0  12   40.10    2.90
  -1   0  12   52.09    3.30
   1   0  12   50.59    3.10
   1   1 -12  801.52   28.70
   1  -1 -12  755.72   27.90
  -1   1 -12  720.63   28.30
  -1   1 -12  743.83   28.80
  -1  -1 -12  741.03   28.50
   1  -1 -12  749.03   28.50
   1   1 -12  779.02   27.80
   1   1  12  729.03   28.10
   1  -1  12  707.13   28.10
   1   1  12  766.22   28.00
   1  -1  12  755.02   28.00
   1   1  12  772.62   28.00
  -1   1  12  774.82   28.90
  -2  -1 -12   38.10    2.60
  -2  -1 -12   41.00    3.00
  -1   2 -12   38.80    3.30
  -1   2 -12   38.80    3.00
   1  -2 -12   37.90    3.20
  -2  -1  12   44.50    2.90
   1  -2  12   38.60    2.70
   2   1  12   37.20    2.60
   2   1  12   42.50    2.90
   2   1  12   40.50    2.80
   1  -2  12   36.90    2.80
  -1   2  12   38.40    3.20
   0  -2 -12   57.49    3.90
   0   2 -12   78.89    3.80
  -2   0 -12   61.99    4.00
   0   2 -12   60.29    3.80
   2   0 -12   59.69    3.40
   0   2 -12   63.69    4.20
   0  -2  12   64.09    3.50
  -2   0  12   63.39    3.70
   2   0  12   53.89    3.50
   0   2  12   62.69    4.30
   2   0  12   63.59    3.50
   2   0  12   67.99    3.70
   1   2 -12   46.80    3.40
   1   2 -12   46.40    2.80
   1   2 -12   45.80    3.00
  -2   1 -12   31.10    3.10
  -2   1 -12   38.10    2.80
   2  -1 -12   38.40    3.00
  -1  -2 -12   41.40    3.00
   2  -1 -12   37.40    2.70
  -2   1  12   40.50    2.80
   1   2  12   40.30    2.90
   2  -1  12   40.50    2.80
   2  -1  12   38.00    2.80
   2  -1  12   39.40    3.00
  -1  -2  12   41.50    2.90
   2  -2 -12   49.80    3.60
  -2  -2 -12   43.70    3.00
  -2  -2 -12   48.70    3.30
  -2   2 -12   42.60    3.30
   2  -2 -12   47.00    3.10
   2   2 -12   48.10    3.00
   2   2  12   52.39    3.30
   2  -2  12   45.20    3.20
   2   2  12   54.69    3.20
  -2  -2  12   50.79    3.40
   2   2  12   51.69    3.30
  -2   2  12   45.90    3.40
   2  -2  12   47.30    3.40
  -2   3 -12   13.20    2.30
  -3  -2 -12   14.30    1.90
   2  -3 -12   12.90    2.10
   3   2  12   13.10    2.00
  -2   3  12   13.50    2.00
   2  -3  12   17.60    2.40
  -3  -2  12   14.90    2.30
   2  -3  12   12.30    1.70
   3   2  12   15.00    2.10
  -3  -1 -12  351.86   14.60
   1  -3 -12  372.46   15.60
  -1   3 -12  342.37   15.30
  -3  -1  12  391.56   15.10
   1  -3  12  390.56   14.90
  -1   3  12  353.46   15.90
   3   1  12  413.46   15.20
   3   1  12  370.96   14.80
   1  -3  12  357.26   14.80
   0  -3 -12   17.80    2.30
   0   3 -12   17.90    2.40
   0   3 -12   16.00    2.90
  -3   0 -12   17.20    1.80
   3   0  12   23.60    2.70
   3   0  12   17.50    2.00
   0   3  12   15.40    2.70
  -3   0  12   18.00    2.20
   1   3 -12  405.76   15.70
  -1  -3 -12  369.36   15.90
   3  -1 -12  387.96   15.40
   1   3 -12  385.26   16.10
   3  -1  12  377.36   15.90
   1   3  12  407.86   15.70
   3  -1  12  383.86   15.80
   3  -1  12  437.86   15.70
  -1  -3  12  407.76   15.90
   1   3  12  391.76   16.90
   2   3 -12   13.10    2.10
  -2  -3 -12   14.30    1.90
  -3   2 -12   14.20    2.20
   3  -2 -12   14.50    1.90
  -2  -3 -12   17.20    2.10
  -2  -3  12   16.60    2.40
   2   3  12   12.80    1.90
   3  -2  12   14.40    2.30
   3  -2  12   14.40    2.00
   3  -2  12   12.80    1.80
   0   0 -13   57.79    3.80
   0   0 -13   60.39    3.40
   0   0  13   59.09    3.30
   1   0 -13   27.30    2.10
   0   1 -13   27.80    2.60
   0   1 -13   27.90    2.30
   1   0 -13   34.00    2.70
   0  -1 -13   27.40    2.50
  -1   0 -13   27.80    2.60
   1   0  13   26.30    2.20
   0   1  13   23.80    2.10
  -1   0  13   28.10    2.40
   1   0  13   26.80    2.20
   0  -1  13   24.40    2.10
   1  -1 -13  329.27   13.70
  -1  -1 -13  327.17   13.70
   1  -1 -13  332.27   13.10
  -1   1 -13  342.27   14.10
   1   1 -13  344.17   13.10
  -1   1 -13  308.87   13.40
   1   1 -13  347.67   13.80
   1  -1  13  292.67   13.20
   1  -1  13  345.07   13.30
  -1   1  13  342.57   13.90
   1   1  13  348.57   13.20
   1   1  13  321.07   13.30
   1  -2 -13   15.30    2.30
  -2  -1 -13   17.50    2.10
  -2  -1 -13   13.60    1.80
  -1   2 -13   12.20    2.20
  -1   2 -13   12.10    1.90
   2   1 -13   15.20    1.70
   1  -2  13   12.80    1.70
   2   1  13   16.20    2.00
   1  -2  13   12.10    1.90
   2   1  13   15.20    1.80
  -2  -1  13   15.80    2.00
  -1   2  13   15.50    2.10
   2   1  13   15.80    2.10
  -2   0 -13   33.20    3.00
   0   2 -13   39.30    3.00
   2   0 -13   34.90    2.60
   0  -2 -13   34.50    2.90
   0   2 -13   37.30    3.30
   2   0  13   33.50    2.60
   2   0  13   40.40    2.90
   2   0  13   36.70    2.60
   0   2  13   35.30    3.20
   0  -2  13   32.90    2.50
  -2   0  13   35.40    2.70
   1   2 -13   16.50    2.40
  -1  -2 -13   13.20    1.90
   2  -1 -13   13.50    1.70
   1   2 -13   16.30    1.90
  -2   1 -13   12.00    1.90
  -2   1 -13   13.80    2.30
   1   2 -13   13.70    2.00
   2  -1 -13   15.70    2.00
   2  -1  13   13.50    1.90
   2  -1  13   19.00    2.40
  -2   1  13   14.80    1.80
   2  -1  13   15.40    2.10
   2  -1  13   15.20    1.90
   2  -2 -13   27.80    2.40
  -2   2 -13   21.70    2.40
   2  -2 -13   24.80    2.60
  -2  -2 -13   19.40    2.10
   2   2 -13   25.20    2.20
  -2  -2 -13   21.90    2.30
   2   2  13   24.20    2.50
   2  -2  13   19.30    2.10
  -2  -2  13   24.70    2.50
   2  -2  13   21.80    2.50
  -2   2  13   20.20    2.30
   2   2  13   23.70    2.40
  -1   3 -13  162.98    8.30
   1  -3 -13  168.28    8.40
  -3  -1 -13  157.48    7.50
  -3  -1  13  178.18    7.90
   3   1  13  188.38    7.90
   3   1  13  163.98    7.60
  -1   3  13  171.88    8.80
   1  -3  13  161.38    7.70
   0   3 -13   22.10    2.60
   0  -3 -13   21.20    2.50
   3   0  13   23.00    2.60
  -3   0  13   22.60    2.40
   3   0  13   19.30    2.20
   0   3  13   22.60    2.80
   1   3 -13  180.98    8.10
   3  -1 -13  172.18    7.90
  -1  -3 -13  172.68    8.30
   1   3 -13  188.28    8.80
   1   3  13  180.18    9.20
   3  -1  13  181.18    8.40
   3  -1  13  173.28    8.30
   3  -1  13  186.38    8.00
   0   0 -14  105.99    5.20
   0   0 -14  108.09    5.70
   0   0  14  106.89    5.20
   1   0 -14   90.89    5.00
   1   0 -14   87.59    4.40
   0  -1 -14   81.99    4.80
   0   1 -14   92.19    5.20
  -1   0 -14   87.19    5.10
   0   1 -14   89.49    4.80
   1   0  14   82.79    4.60
  -1   0  14   93.29    5.00
   0   1  14   88.19    5.10
   0  -1  14   86.49    4.60
   0   1  14   90.69    4.50
   1   0  14   88.39    4.50
  -1   1 -14  102.19    5.90
   1  -1 -14   98.79    5.50
   1   1 -14  102.29    5.70
  -1  -1 -14  103.59    5.60
   1   1 -14  118.29    5.30
  -1   1 -14   97.39    5.30
   1  -1  14   99.09    5.20
  -1  -1  14  107.59    5.30
   1  -1  14  114.29    5.40
   1   1  14  107.79    5.20
  -1   1  14  102.49    5.60
   1  -2 -14   62.09    4.20
  -2  -1 -14   66.49    4.20
  -2  -1 -14   62.89    3.70
   2   1 -14   63.69    3.60
  -1   2 -14   63.39    4.10
  -1   2 -14   52.49    4.50
  -2  -1  14   63.29    3.90
   1  -2  14   62.39    3.80
   1  -2  14   66.79    4.00
   2   1  14   67.19    3.90
   2   1  14   57.09    3.70
  -1   2  14   69.69    4.50
   2   1  14   69.29    4.00
   0   2 -14   73.89    4.40
   0  -2 -14   66.29    4.40
   0   2 -14   69.69    4.80
   2   0 -14   75.09    4.00
  -2   0 -14   69.59    4.60
   0  -2  14   75.79    4.10
   2   0  14   79.59    4.40
   0   2  14   74.19    4.90
   2   0  14   81.29    4.50
   2   0  14   68.09    4.10
  -2   0  14   70.59    4.10
  -1  -2 -14   56.49    3.90
   1   2 -14   63.69    4.50
   2  -1 -14   65.39    3.70
   1   2 -14   65.59    4.00
   1   2 -14   68.19    3.80
   2  -1 -14   58.69    4.00
  -2   1 -14   56.99    4.40
   1   2  14   61.49    4.30
   2  -1  14   66.59    4.00
   2  -1  14   58.99    3.80
   2   2 -14   52.79    3.40
   2  -2 -14   48.90    3.90
  -2   2 -14   53.89    4.60
  -2  -2 -14   50.59    3.60
   2   2  14   57.79    3.80
   2  -2  14   50.09    3.60
   2  -2  14   54.89    3.80
  -2  -2  14   56.39    3.70
  -2   2  14   53.29    3.70
   2   2  14   54.89    3.60
   0   0 -15  156.38    7.60
   0   1 -15    7.60    1.60
   0  -1 -15    4.50    1.30
   1   0 -15    4.30    1.30
  -1   0 -15    5.60    1.40
   0   1 -15    4.60    1.40
   1   0  15    6.00    1.40
   0   1  15    4.00    1.20
   0   1  15    5.90    1.30
  -1   0  15    4.70    1.20
   1   0  15    5.70    1.30
   1   1 -15   27.00    2.50
  -1   1 -15   27.40    2.50
  -1   1 -15   28.60    3.00
   1   1 -15   26.40    2.30
  -1  -1 -15   24.90    2.60
   1  -1 -15   24.10    2.50
   1   1 -15   28.30    2.80
   1  -1  15   27.50    2.50
   1  -1  15   28.00    2.40
   1   1  15   29.80    2.60
  -1   1  15   28.60    2.60
  -1  -1  15   28.30    2.40
   0   0   0    0.00    0.00

_computing_structure_solution     'SHELXT 2014/5 (Sheldrick, 2014)'
;
_shelx_hkl_checksum              23554
_olex2_submission_special_instructions 'No special instructions were received'
loop_
_space_group_symop_operation_xyz
'x, y, z'
'-x, -y, z'
'-y, x, z'
'y, -x, z'
'-x, y, -z'
'x, -y, -z'
'y, x, -z'
'-y, -x, -z'
'-x, -y, -z'
'x, y, -z'
'y, -x, -z'
'-y, x, -z'
'x, -y, z'
'-x, y, z'
'-y, -x, z'
'y, x, z'
loop_
_atom_site_label
_atom_site_type_symbol
_atom_site_fract_x
_atom_site_fract_y
_atom_site_fract_z
_atom_site_U_iso_or_equiv
_atom_site_adp_type
_atom_site_occupancy
_atom_site_site_symmetry_order
_atom_site_calc_flag
_atom_site_refinement_flags_posn
_atom_site_refinement_flags_adp
_atom_site_refinement_flags_occupancy
Cs1 Cs 0.5000 0.5000 0.5000 0.02655(18) Uani 1 16 d S T P
Te1 Te 0.5000 0.5000 0.0000 0.02160(17) Uani 1 16 d S T P
Ag1 Ag 0.0000 0.0000 0.0000 0.02652(19) Uani 1 16 d S T P
Ag2 Ag 0.0000 0.5000 0.19644(4) 0.03204(16) Uani 1 4 d S T P
S1 S 0.0000 0.0000 0.31865(13) 0.0165(3) Uani 1 8 d S T P
loop_
_atom_site_aniso_label
_atom_site_aniso_U_11
_atom_site_aniso_U_22
_atom_site_aniso_U_33
_atom_site_aniso_U_23
_atom_site_aniso_U_13
_atom_site_aniso_U_12
Cs1 0.0275(2) 0.0275(2) 0.0247(3) 0.000 0.000 0.000
Te1 0.0228(2) 0.0228(2) 0.0191(3) 0.000 0.000 0.000
Ag1 0.0233(2) 0.0233(2) 0.0330(4) 0.000 0.000 0.000
Ag2 0.0431(3) 0.0189(2) 0.0341(2) 0.000 0.000 0.000
S1 0.0149(4) 0.0149(4) 0.0197(6) 0.000 0.000 0.000
loop_
_atom_type_symbol
_atom_type_description
_atom_type_scat_dispersion_real
_atom_type_scat_dispersion_imag
_atom_type_scat_source
Ag Ag -0.8971 1.1015 'International Tables Vol C Tables 4.2.6.8 and 6.1.1.4'
Cs Cs -0.3680 2.1192 'International Tables Vol C Tables 4.2.6.8 and 6.1.1.4'
S S 0.1246 0.1234 'International Tables Vol C Tables 4.2.6.8 and 6.1.1.4'
Te Te -0.5308 1.6751 'International Tables Vol C Tables 4.2.6.8 and 6.1.1.4'
loop_
_geom_angle_atom_site_label_1
_geom_angle_atom_site_label_2
_geom_angle_atom_site_label_3
_geom_angle
_geom_angle_site_symmetry_1
_geom_angle_site_symmetry_3
Ag2 Cs1 Ag2 44.391(5) 11_566 9_666
Ag2 Cs1 Ag2 135.609(6) 9_666 3_655
Ag2 Cs1 Ag2 180.0 11_566 3_655
Ag2 Cs1 Ag2 135.609(6) 11_566 1_655
Ag2 Cs1 Ag2 44.391(6) 3_655 1_655
Ag2 Cs1 Ag2 115.415(8) 9_666 1_655
S1 Cs1 Ag2 98.957(18) 1_565 11_566
S1 Cs1 Ag2 98.957(18) 9_656 3_655
S1 Cs1 Ag2 141.612(15) 9_566 1_655
S1 Cs1 Ag2 141.612(15) 1_655 11_566
S1 Cs1 Ag2 81.043(18) . 1_655
S1 Cs1 Ag2 141.612(15) . 9_666
S1 Cs1 Ag2 81.043(18) 9_656 11_566
S1 Cs1 Ag2 38.388(15) 9_666 9_666
S1 Cs1 Ag2 98.957(18) 1_665 11_566
S1 Cs1 Ag2 81.043(18) 9_556 9_666
S1 Cs1 Ag2 141.612(15) 9_556 1_655
S1 Cs1 Ag2 98.957(18) 1_665 9_666
S1 Cs1 Ag2 81.043(18) 1_565 1_655
S1 Cs1 Ag2 81.043(18) 9_566 9_666
S1 Cs1 Ag2 141.612(15) 9_566 3_655
S1 Cs1 Ag2 38.388(15) 9_656 9_666
S1 Cs1 Ag2 38.388(15) 1_655 3_655
S1 Cs1 Ag2 141.612(15) 1_565 9_666
S1 Cs1 Ag2 38.388(15) 9_566 11_566
S1 Cs1 Ag2 98.957(18) 1_655 9_666
S1 Cs1 Ag2 98.957(18) 9_666 1_655
S1 Cs1 Ag2 141.612(15) . 11_566
S1 Cs1 Ag2 38.388(15) 1_665 1_655
S1 Cs1 Ag2 38.388(15) 9_666 11_566
S1 Cs1 Ag2 98.957(18) 9_656 1_655
S1 Cs1 Ag2 81.043(18) 9_556 11_566
S1 Cs1 Ag2 38.388(15) 1_655 1_655
S1 Cs1 Ag2 98.957(18) 9_556 3_655
S1 Cs1 Ag2 81.043(18) 1_665 3_655
S1 Cs1 Ag2 38.388(15) . 3_655
S1 Cs1 Ag2 141.612(15) 9_666 3_655
S1 Cs1 Ag2 81.043(18) 1_565 3_655
S1 Cs1 S1 107.988(19) . 9_656
S1 Cs1 S1 112.48(4) 1_565 1_655
S1 Cs1 S1 72.012(19) 9_666 9_566
S1 Cs1 S1 72.012(19) 9_666 9_656
S1 Cs1 S1 112.48(4) . 1_665
S1 Cs1 S1 72.012(19) 9_556 9_656
S1 Cs1 S1 72.012(19) 1_665 1_655
S1 Cs1 S1 107.988(19) 1_665 9_656
S1 Cs1 S1 67.52(4) . 9_556
S1 Cs1 S1 112.48(4) 9_566 9_656
S1 Cs1 S1 180.0 9_556 1_665
S1 Cs1 S1 72.012(19) . 1_565
S1 Cs1 S1 107.988(19) 1_665 9_566
S1 Cs1 S1 107.988(19) 9_666 1_565
S1 Cs1 S1 180.0 9_566 1_655
S1 Cs1 S1 107.988(19) 9_556 1_565
S1 Cs1 S1 180.0 . 9_666
S1 Cs1 S1 72.012(19) 1_665 1_565
S1 Cs1 S1 112.48(4) 9_666 9_556
S1 Cs1 S1 67.52(4) 9_566 1_565
S1 Cs1 S1 67.52(4) 9_666 1_665
S1 Cs1 S1 180.0 9_656 1_565
S1 Cs1 S1 107.988(19) . 9_566
S1 Cs1 S1 72.012(19) . 1_655
S1 Cs1 S1 72.012(19) 9_556 9_566
S1 Cs1 S1 107.988(19) 9_666 1_655
S1 Cs1 S1 107.988(19) 9_556 1_655
S1 Cs1 S1 67.52(4) 9_656 1_655
Ag1 Te1 Ag1 90.0 1_665 1_565
Ag1 Te1 Ag1 180.0 1_665 .
Ag1 Te1 Ag1 180.0 1_565 1_655
Ag1 Te1 Ag1 90.0 . 1_565
Ag1 Te1 Ag1 90.0 1_665 1_655
Ag1 Te1 Ag1 90.0 . 1_655
Ag1 Te1 Ag2 119.607(4) 1_665 .
Ag1 Te1 Ag2 119.607(4) . 3_665
Ag1 Te1 Ag2 60.393(4) . 3_655
Ag1 Te1 Ag2 60.393(4) . .
Ag1 Te1 Ag2 119.607(4) . 11_565
Ag1 Te1 Ag2 60.393(4) 1_565 .
Ag1 Te1 Ag2 119.607(4) . 9_665
Ag1 Te1 Ag2 119.607(4) 1_655 .
Ag1 Te1 Ag2 119.607(4) 1_655 3_665
Ag1 Te1 Ag2 119.607(4) 1_665 11
Ag1 Te1 Ag2 119.607(4) 1_655 11_565
Ag1 Te1 Ag2 60.393(4) . 11
Ag1 Te1 Ag2 60.393(4) 1_655 3_655
Ag1 Te1 Ag2 119.607(4) 1_565 11
Ag1 Te1 Ag2 60.393(4) 1_655 9_665
Ag1 Te1 Ag2 60.393(4) 1_655 11
Ag1 Te1 Ag2 60.393(4) 1_565 3_665
Ag1 Te1 Ag2 60.393(4) 1_665 1_655
Ag1 Te1 Ag2 60.393(4) 1_665 11_565
Ag1 Te1 Ag2 119.607(4) . 1_655
Ag1 Te1 Ag2 60.393(4) 1_565 11_565
Ag1 Te1 Ag2 119.607(4) 1_565 1_655
Ag1 Te1 Ag2 119.607(4) 1_665 3_655
Ag1 Te1 Ag2 119.607(4) 1_665 9_565
Ag1 Te1 Ag2 119.607(4) 1_565 3_655
Ag1 Te1 Ag2 60.393(4) . 9_565
Ag1 Te1 Ag2 60.393(4) 1_665 9_665
Ag1 Te1 Ag2 60.393(4) 1_565 9_565
Ag1 Te1 Ag2 119.607(4) 1_565 9_665
Ag1 Te1 Ag2 119.607(4) 1_655 9_565
Ag1 Te1 Ag2 60.393(4) 1_665 3_665
Ag1 Te1 Ag2 60.393(4) 1_655 1_655
Ag2 Te1 Ag2 180.0 1_655 9_565
Ag2 Te1 Ag2 59.214(7) 1_655 3_665
Ag2 Te1 Ag2 59.214(7) 11_565 9_665
Ag2 Te1 Ag2 120.786(7) . 11
Ag2 Te1 Ag2 59.214(7) 11 9_665
Ag2 Te1 Ag2 120.786(7) . 11_565
Ag2 Te1 Ag2 88.644(13) 3_665 3_655
Ag2 Te1 Ag2 88.644(13) 11 11_565
Ag2 Te1 Ag2 91.355(12) . 9_565
Ag2 Te1 Ag2 120.786(7) 1_655 11_565
Ag2 Te1 Ag2 88.644(13) 9_565 9_665
Ag2 Te1 Ag2 59.214(7) 9_565 11_565
Ag2 Te1 Ag2 59.214(7) 11 9_565
Ag2 Te1 Ag2 91.356(12) 3_665 11_565
Ag2 Te1 Ag2 180.000(11) 11_565 3_655
Ag2 Te1 Ag2 88.645(12) . 1_655
Ag2 Te1 Ag2 120.786(7) 9_565 3_665
Ag2 Te1 Ag2 120.786(7) 11 1_655
Ag2 Te1 Ag2 180.0 . 9_665
Ag2 Te1 Ag2 59.214(7) . 3_665
Ag2 Te1 Ag2 91.356(13) 1_655 9_665
Ag2 Te1 Ag2 59.214(7) . 3_655
Ag2 Te1 Ag2 120.786(7) 3_665 9_665
Ag2 Te1 Ag2 91.356(12) 11 3_655
Ag2 Te1 Ag2 120.786(7) 3_655 9_665
Ag2 Te1 Ag2 59.214(7) 1_655 3_655
Ag2 Te1 Ag2 120.786(7) 9_565 3_655
Ag2 Te1 Ag2 180.0 11 3_665
Te1 Ag1 Te1 90.0 1_445 1_455
Te1 Ag1 Te1 180.0 1_445 .
Te1 Ag1 Te1 180.0 1_455 1_545
Te1 Ag1 Te1 90.0 . 1_455
Te1 Ag1 Te1 90.0 1_445 1_545
Te1 Ag1 Te1 90.0 . 1_545
Te1 Ag1 Ag2 119.607(4) 1_445 .
Te1 Ag1 Ag2 60.393(4) . 11
Te1 Ag1 Ag2 60.393(4) . 9_565
Te1 Ag1 Ag2 60.393(4) . .
Te1 Ag1 Ag2 119.607(4) . 3
Te1 Ag1 Ag2 60.393(4) 1_455 .
Te1 Ag1 Ag2 119.607(4) . 1_545
Te1 Ag1 Ag2 119.607(4) 1_545 .
Te1 Ag1 Ag2 60.393(4) 1_545 11
Te1 Ag1 Ag2 60.393(4) 1_445 11_455
Te1 Ag1 Ag2 119.607(4) 1_545 3
Te1 Ag1 Ag2 119.607(4) . 11_455
Te1 Ag1 Ag2 119.607(4) 1_545 9_565
Te1 Ag1 Ag2 60.393(4) 1_455 11_455
Te1 Ag1 Ag2 60.393(4) 1_545 1_545
Te1 Ag1 Ag2 119.607(4) 1_445 3_655
Te1 Ag1 Ag2 119.607(4) 1_455 11
Te1 Ag1 Ag2 60.393(4) . 3_655
Te1 Ag1 Ag2 60.393(4) 1_445 3
Te1 Ag1 Ag2 119.607(4) 1_455 3_655
Te1 Ag1 Ag2 60.393(4) 1_455 3
Te1 Ag1 Ag2 60.393(4) 1_545 3_655
Te1 Ag1 Ag2 119.607(4) 1_445 9_565
Te1 Ag1 Ag2 60.393(4) 1_445 9
Te1 Ag1 Ag2 60.393(4) 1_455 9_565
Te1 Ag1 Ag2 119.607(4) . 9
Te1 Ag1 Ag2 60.393(4) 1_445 1_545
Te1 Ag1 Ag2 119.607(4) 1_455 9
Te1 Ag1 Ag2 119.607(4) 1_455 1_545
Te1 Ag1 Ag2 60.393(4) 1_545 9
Te1 Ag1 Ag2 119.607(4) 1_445 11
Te1 Ag1 Ag2 119.607(4) 1_545 11_455
Ag2 Ag1 Ag2 120.786(7) 3_655 9
Ag2 Ag1 Ag2 88.644(13) 11_455 11
Ag2 Ag1 Ag2 120.786(7) 11 1_545
Ag2 Ag1 Ag2 59.214(7) . 3
Ag2 Ag1 Ag2 88.645(12) . 1_545
Ag2 Ag1 Ag2 91.356(12) 11_455 3
Ag2 Ag1 Ag2 59.214(7) 11 9_565
Ag2 Ag1 Ag2 88.644(13) 3_655 3
Ag2 Ag1 Ag2 59.214(7) 9 11
Ag2 Ag1 Ag2 120.786(7) 9 3
Ag2 Ag1 Ag2 59.214(7) 3_655 1_545
Ag2 Ag1 Ag2 180.000(11) 11 3
Ag2 Ag1 Ag2 180.000(11) 9_565 1_545
Ag2 Ag1 Ag2 120.786(7) . 11_455
Ag2 Ag1 Ag2 120.786(7) 3 9_565
Ag2 Ag1 Ag2 59.214(7) . 3_655
Ag2 Ag1 Ag2 91.356(12) 3_655 11
Ag2 Ag1 Ag2 180.0 11_455 3_655
Ag2 Ag1 Ag2 180.0 . 9
Ag2 Ag1 Ag2 120.786(7) . 11
Ag2 Ag1 Ag2 120.786(7) 11_455 1_545
Ag2 Ag1 Ag2 91.355(12) . 9_565
Ag2 Ag1 Ag2 91.356(12) 9 1_545
Ag2 Ag1 Ag2 59.214(7) 11_455 9_565
Ag2 Ag1 Ag2 59.214(7) 3 1_545
Ag2 Ag1 Ag2 120.786(7) 3_655 9_565
Ag2 Ag1 Ag2 59.214(7) 11_455 9
Ag2 Ag1 Ag2 88.644(13) 9 9_565
Cs1 Ag2 Cs1 64.584(8) . 1_455
Te1 Ag2 Cs1 167.970(9) . 1_455
Te1 Ag2 Cs1 103.385(6) . .
Te1 Ag2 Cs1 103.385(6) 1_455 1_455
Te1 Ag2 Cs1 167.970(9) 1_455 .
Te1 Ag2 Te1 88.645(12) 1_455 .
Te1 Ag2 Ag1 59.215(7) 1_455 1_565
Ag1 Ag2 Cs1 127.212(4) 1_565 1_455
Ag1 Ag2 Cs1 127.212(4) 1_565 .
Ag1 Ag2 Cs1 127.212(4) . 1_455
Ag1 Ag2 Cs1 127.212(4) . .
Ag1 Ag2 Te1 59.215(7) . .
Ag1 Ag2 Te1 59.215(7) 1_565 .
Ag1 Ag2 Te1 59.215(7) . 1_455
Ag1 Ag2 Ag1 88.645(12) . 1_565
Ag2 Ag2 Cs1 67.805(3) 3_665 .
Ag2 Ag2 Cs1 67.805(3) 3_565 1_455
Ag2 Ag2 Cs1 112.195(3) 3_655 1_455
Ag2 Ag2 Cs1 67.805(3) 3_655 .
Ag2 Ag2 Cs1 112.195(3) 3_565 .
Ag2 Ag2 Cs1 112.195(3) 3_665 1_455
Ag2 Ag2 Cs1 67.805(3) 3 1_455
Ag2 Ag2 Cs1 112.195(3) 3 .
Ag2 Ag2 Te1 119.608(4) 3_565 .
Ag2 Ag2 Te1 60.393(4) 3_565 1_455
Ag2 Ag2 Te1 119.608(4) 3 .
Ag2 Ag2 Te1 60.393(4) 3_655 .
Ag2 Ag2 Te1 60.393(4) 3_665 .
Ag2 Ag2 Te1 119.608(4) 3_665 1_455
Ag2 Ag2 Te1 119.608(4) 3_655 1_455
Ag2 Ag2 Te1 60.393(4) 3 1_455
Ag2 Ag2 Ag1 60.393(4) 3 .
Ag2 Ag2 Ag1 119.608(4) 3_665 .
Ag2 Ag2 Ag1 119.608(4) 3 1_565
Ag2 Ag2 Ag1 119.608(4) 3_655 1_565
Ag2 Ag2 Ag1 60.393(4) 3_665 1_565
Ag2 Ag2 Ag1 119.608(4) 3_565 .
Ag2 Ag2 Ag1 60.393(4) 3_655 .
Ag2 Ag2 Ag1 60.393(4) 3_565 1_565
Ag2 Ag2 Ag2 180.0 3_665 3
Ag2 Ag2 Ag2 180.0 3_565 3_655
Ag2 Ag2 Ag2 90.0 3 3_655
Ag2 Ag2 Ag2 90.0 3_665 3_565
Ag2 Ag2 Ag2 90.0 3 3_565
Ag2 Ag2 Ag2 90.0 3_665 3_655
S1 Ag2 Cs1 62.99(2) 1_565 .
S1 Ag2 Cs1 62.99(2) 1_565 1_455
S1 Ag2 Cs1 62.99(2) . .
S1 Ag2 Cs1 62.99(2) . 1_455
S1 Ag2 Te1 112.605(19) 1_565 .
S1 Ag2 Te1 112.605(19) 1_565 1_455
S1 Ag2 Te1 112.605(19) . 1_455
S1 Ag2 Te1 112.605(19) . .
S1 Ag2 Ag1 78.18(3) 1_565 1_565
S1 Ag2 Ag1 166.82(3) 1_565 .
S1 Ag2 Ag1 166.82(3) . 1_565
S1 Ag2 Ag1 78.18(3) . .
S1 Ag2 Ag2 126.611(14) . 3_565
S1 Ag2 Ag2 126.611(14) 1_565 3
S1 Ag2 Ag2 53.389(14) . 3
S1 Ag2 Ag2 53.389(14) 1_565 3_665
S1 Ag2 Ag2 126.611(14) . 3_665
S1 Ag2 Ag2 126.611(14) 1_565 3_655
S1 Ag2 Ag2 53.389(14) . 3_655
S1 Ag2 Ag2 53.389(14) 1_565 3_565
S1 Ag2 S1 115.00(6) 1_565 .
Cs1 S1 Cs1 112.48(4) 1_545 1_455
Cs1 S1 Cs1 72.012(19) . 1_455
Cs1 S1 Cs1 72.012(19) . 1_545
Cs1 S1 Cs1 72.012(19) 1_445 1_545
Cs1 S1 Cs1 72.012(19) 1_445 1_455
Cs1 S1 Cs1 112.48(4) . 1_445
Ag2 S1 Cs1 78.624(11) 1_545 1_445
Ag2 S1 Cs1 78.624(11) . 1_455
Ag2 S1 Cs1 142.597(4) 3_655 1_455
Ag2 S1 Cs1 142.597(4) 3 .
Ag2 S1 Cs1 78.624(11) 3 1_455
Ag2 S1 Cs1 142.597(4) . 1_445
Ag2 S1 Cs1 142.597(4) . 1_545
Ag2 S1 Cs1 142.597(4) 1_545 .
Ag2 S1 Cs1 78.624(11) . .
Ag2 S1 Cs1 142.597(4) 3 1_545
Ag2 S1 Cs1 142.597(4) 1_545 1_455
Ag2 S1 Cs1 78.624(11) 1_545 1_545
Ag2 S1 Cs1 78.624(11) 3 1_445
Ag2 S1 Cs1 78.624(11) 3_655 1_545
Ag2 S1 Cs1 78.624(11) 3_655 .
Ag2 S1 Cs1 142.597(4) 3_655 1_445
Ag2 S1 Ag2 73.22(3) 1_545 3_655
Ag2 S1 Ag2 115.00(6) 3 3_655
Ag2 S1 Ag2 73.22(3) 3_655 .
Ag2 S1 Ag2 73.22(3) 3 .
Ag2 S1 Ag2 115.00(6) 1_545 .
Ag2 S1 Ag2 73.22(3) 3 1_545
loop_
_geom_bond_atom_site_label_1
_geom_bond_atom_site_label_2
_geom_bond_distance
_geom_bond_site_symmetry_2
Cs1 Ag2 4.0394(4) 9_666
Cs1 Ag2 4.0394(4) 1_655
Cs1 Ag2 4.0394(4) 11_566
Cs1 Ag2 4.0394(4) 3_655
Cs1 S1 3.6709(8) 9_666
Cs1 S1 3.6709(8) 1_565
Cs1 S1 3.6709(8) 1_665
Cs1 S1 3.6709(8) .
Cs1 S1 3.6709(8) 9_556
Cs1 S1 3.6709(8) 9_566
Cs1 S1 3.6709(8) 9_656
Cs1 S1 3.6709(8) 1_655
Te1 Ag1 3.0519(2) .
Te1 Ag1 3.0519(2) 1_655
Te1 Ag1 3.0519(2) 1_565
Te1 Ag1 3.0519(2) 1_665
Te1 Ag2 3.0886(3) .
Te1 Ag2 3.0886(3) 11_565
Te1 Ag2 3.0886(3) 9_665
Te1 Ag2 3.0886(3) 11
Te1 Ag2 3.0886(3) 3_655
Te1 Ag2 3.0886(3) 1_655
Te1 Ag2 3.0886(3) 9_565
Te1 Ag2 3.0886(3) 3_665
Ag1 Te1 3.0519(2) 1_455
Ag1 Te1 3.0519(2) 1_545
Ag1 Te1 3.0519(2) 1_445
Ag1 Ag2 3.0886(3) .
Ag1 Ag2 3.0886(3) 11
Ag1 Ag2 3.0886(3) 1_545
Ag1 Ag2 3.0886(3) 11_455
Ag1 Ag2 3.0886(3) 3
Ag1 Ag2 3.0886(3) 3_655
Ag1 Ag2 3.0886(3) 9
Ag1 Ag2 3.0886(3) 9_565
Ag2 Cs1 4.0394(4) 1_455
Ag2 Te1 3.0886(3) 1_455
Ag2 Ag1 3.0886(3) 1_565
Ag2 Ag2 3.0519(2) 3_665
Ag2 Ag2 3.0519(2) 3_565
Ag2 Ag2 3.0519(2) 3_655
Ag2 Ag2 3.0519(2) 3
Ag2 S1 2.5587(8) .
Ag2 S1 2.5587(8) 1_565
S1 Cs1 3.6709(8) 1_445
S1 Cs1 3.6709(8) 1_455
S1 Cs1 3.6709(8) 1_545
S1 Ag2 2.5587(8) 3_655
S1 Ag2 2.5587(8) 3
S1 Ag2 2.5587(8) 1_545
