#------------------------------------------------------------------------------
#$Date: 2021-02-27 01:27:18 +0200 (Sat, 27 Feb 2021) $
#$Revision: 262281 $
#$URL: file:///home/coder/svn-repositories/cod/cif/4/00/38/4003878.cif $
#------------------------------------------------------------------------------
#
# This file is available in the Crystallography Open Database (COD),
# http://www.crystallography.net/
#
# All data on this site have been placed in the public domain by the
# contributors.
#
data_4003878
loop_
_publ_author_name
'Chica, Daniel G.'
'Spanopoulos, Ioannis'
'Hao, Shiqiang'
'Wolverton, Chris'
'Kanatzidis, Mercouri G.'
_publ_section_title
;
 Sn4&#x2212;\dB12Se12[Qx], Q = Se, Te, a B12 Cluster Tunnel Framework
 Hosting Neutral Chalcogen Chains
;
_journal_name_full               'Chemistry of Materials'
_journal_paper_doi               10.1021/acs.chemmater.0c04503
_journal_year                    2021
_chemical_formula_moiety         'B12 Se12 Sn4, Se3.793'
_chemical_formula_sum            'B12 Se15.8 Sn4'
_chemical_formula_weight         1851.45
_space_group_crystal_system      hexagonal
_space_group_IT_number           182
_space_group_name_Hall           'P 6c 2c'
_space_group_name_H-M_alt        'P 63 2 2'
_atom_sites_solution_primary     dual
_audit_creation_date             2021-01-26
_audit_creation_method
;
Olex2 1.3
(compiled 2020.11.12 svn.r5f609507 for OlexSys, GUI svn.r6226)
;
_cell_angle_alpha                90
_cell_angle_beta                 90
_cell_angle_gamma                120
_cell_formula_units_Z            2
_cell_length_a                   13.5927(7)
_cell_length_b                   13.5927(7)
_cell_length_c                   9.8167(5)
_cell_measurement_reflns_used    6608
_cell_measurement_temperature    292.98
_cell_measurement_theta_max      32.91
_cell_measurement_theta_min      3.00
_cell_volume                     1570.75(14)
_computing_molecular_graphics    'Olex2 1.3 (Dolomanov et al., 2009)'
_computing_publication_material  'Olex2 1.3 (Dolomanov et al., 2009)'
_computing_structure_refinement  'SHELXL 2018/3 (Sheldrick, 2015)'
_computing_structure_solution    'XT (Sheldrick, 2015)'
_diffrn_ambient_temperature      292.98
_diffrn_measured_fraction_theta_full 0.998
_diffrn_measured_fraction_theta_max 0.999
_diffrn_measurement_device_type  'Bruker APEX-II CCD'
_diffrn_measurement_method       '\f and \w scans'
_diffrn_radiation_type           MoK\a
_diffrn_radiation_wavelength     0.71073
_diffrn_reflns_av_R_equivalents  0.0557
_diffrn_reflns_av_unetI/netI     0.0268
_diffrn_reflns_Laue_measured_fraction_full 0.998
_diffrn_reflns_Laue_measured_fraction_max 0.999
_diffrn_reflns_limit_h_max       19
_diffrn_reflns_limit_h_min       -17
_diffrn_reflns_limit_k_max       19
_diffrn_reflns_limit_k_min       -19
_diffrn_reflns_limit_l_max       13
_diffrn_reflns_limit_l_min       -13
_diffrn_reflns_number            16287
_diffrn_reflns_point_group_measured_fraction_full 0.999
_diffrn_reflns_point_group_measured_fraction_max 0.999
_diffrn_reflns_theta_full        25.242
_diffrn_reflns_theta_max         29.984
_diffrn_reflns_theta_min         2.702
_diffrn_standards_number         0
_exptl_absorpt_coefficient_mu    21.445
_exptl_absorpt_correction_T_max  0.7465
_exptl_absorpt_correction_T_min  0.4573
_exptl_absorpt_correction_type   multi-scan
_exptl_crystal_colour            black
_exptl_crystal_density_diffrn    3.915
_exptl_crystal_description       rod
_exptl_crystal_F_000             1594
_exptl_crystal_size_max          0.246
_exptl_crystal_size_mid          0.048
_exptl_crystal_size_min          0.032
_refine_diff_density_max         0.670
_refine_diff_density_min         -0.587
_refine_diff_density_rms         0.110
_refine_ls_abs_structure_details
;
 Refined as an inversion twin.
;
_refine_ls_abs_structure_Flack   0.021(14)
_refine_ls_extinction_method     none
_refine_ls_goodness_of_fit_ref   1.048
_refine_ls_hydrogen_treatment    undef
_refine_ls_matrix_type           full
_refine_ls_number_parameters     79
_refine_ls_number_reflns         1546
_refine_ls_number_restraints     0
_refine_ls_restrained_S_all      1.048
_refine_ls_R_factor_all          0.0190
_refine_ls_R_factor_gt           0.0166
_refine_ls_shift/su_max          0.001
_refine_ls_shift/su_mean         0.000
_refine_ls_structure_factor_coef Fsqd
_refine_ls_weighting_details
'w=1/[\s^2^(Fo^2^)+(0.0140P)^2^+0.3017P] where P=(Fo^2^+2Fc^2^)/3'
_refine_ls_weighting_scheme      calc
_refine_ls_wR_factor_gt          0.0372
_refine_ls_wR_factor_ref         0.0378
_reflns_Friedel_coverage         0.624
_reflns_Friedel_fraction_full    1.000
_reflns_Friedel_fraction_max     1.000
_reflns_number_gt                1458
_reflns_number_total             1546
_reflns_threshold_expression     'I > 2\s(I)'
_cod_data_source_file            cm0c04503_si_004.cif
_cod_data_source_block           Sn4B12B12(Se3,8)
_cod_original_cell_volume        1570.75(18)
_cod_original_formula_sum        'B12 Se15.80 Sn4'
_cod_database_code               4003878
_shelx_shelxl_version_number     2018/3
_shelx_space_group_comment
;
The symmetry employed for this shelxl refinement is uniquely defined
by the following loop, which should always be used as a source of
symmetry information in preference to the above space-group names.
They are only intended as comments.
;
_olex2_refinement_description
;
1. Twinned data refinement
 Scales: 0.979(14)
 0.021(14)
2. Uiso/Uaniso restraints and constraints
Uiso(Se3) = Uiso(Se4) = Uiso(Se5) = Uiso(Se6) = Uiso(Se7) = Uiso(Se8) =
Uiso(Se9) = Uiso(Se10) = Uiso(Se11) = Uiso(Se12)
;
_shelx_res_file
;
TITL dgc2211a_p6322_a.res in P6(3)22
    dgc2211a_p6322.res
    created by SHELXL-2018/3 at 00:12:36 on 26-Jan-2021
REM Old TITL dgc2211A_P6322 in P6(3)22
REM SHELXT solution in P6(3)22
REM R1 0.121, Rweak 0.014, Alpha 0.002, Orientation as input
REM Flack x = 0.076 ( 0.012 ) from Parsons' quotients
REM Formula found by SHELXT: B3 Se3 Sn
CELL 0.71073 13.5927 13.5927 9.8167 90 90 120
ZERR 2 0.0007 0.0007 0.0005 0 0 0
LATT -1
SYMM -Y,+X-Y,+Z
SYMM +Y-X,-X,+Z
SYMM -X,-Y,0.5+Z
SYMM +Y,-X+Y,0.5+Z
SYMM -Y+X,+X,0.5+Z
SYMM +Y,+X,-Z
SYMM -Y+X,-Y,-Z
SYMM -X,-X+Y,-Z
SYMM -Y,-X,0.5-Z
SYMM +Y-X,+Y,0.5-Z
SYMM +X,+X-Y,0.5-Z
SFAC B Se Sn
UNIT 24 31.6 7.99
EADP Se3 Se4 Se5 Se6 Se7 Se8 Se9 Se10 Se11 Se12

L.S. 99
PLAN  2
TEMP 19.83
CONF
list 4
MORE -1
fmap 2
acta
TWIN -1 0 0 0 -1 0 0 0 -1 2
OMIT -2 60
REM <olex2.extras>
REM <HklSrc "%.\\dgc2211A_P6322.hkl">
REM </olex2.extras>

WGHT    0.014000    0.301700
BASF   0.02126
FVAR       0.23745
SN1   3    0.528571    0.000000    0.000000    10.50000    0.02029    0.01226 =
         0.01497   -0.00379   -0.00190    0.00613
SE1   2    0.167102    0.496939    0.047138    11.00000    0.01520    0.01838 =
         0.01145    0.00467    0.00239    0.00699
SE2   2    0.395929    0.067716    0.310927    11.00000    0.01376    0.01546 =
         0.01896    0.00428   -0.00140    0.00227
SN2   3    0.333333    0.666667    0.250000    10.16667    0.02369    0.02369 =
         0.01295    0.00000    0.00000    0.01184
B1    1    0.591422    0.257204    0.111917    11.00000    0.01163    0.01112 =
         0.00692    0.00071   -0.00028    0.00524
B2    1    0.543549    0.210589    0.281899    11.00000    0.01195    0.01016 =
         0.01297    0.00038    0.00004    0.00598
SE3   2    0.050597    0.160146    0.120112     0.14454    0.12858
SE4   2    0.161763    0.000000    0.000000     0.02310    0.12858
SE5   2    0.083195    0.050637    0.073484     0.06471    0.12858
SE6   2    0.069862    0.161206    0.206136     0.13037    0.12858
SE7   2    0.092020    0.005861    0.161205     0.05808    0.12858
SE8   2    0.093059    0.075422    0.202290     0.04280    0.12858
SE9   2    0.069380    0.162057    0.008723     0.04498    0.12858
SE10  2    0.054003    0.108007    0.250000     0.02420    0.12858
SE11  2    0.012313    0.144605    0.059873     0.09580    0.12858
SE12  2    0.000000    0.000000    0.000000     0.00351    0.12858
HKLF 4




REM  dgc2211a_p6322_a.res in P6(3)22
REM wR2 = 0.0378, GooF = S = 1.048, Restrained GooF = 1.048 for all data
REM R1 = 0.0166 for 1458 Fo > 4sig(Fo) and 0.0190 for all 1546 data
REM 79 parameters refined using 0 restraints

END

WGHT      0.0140      0.3009

REM Highest difference peak  0.670,  deepest hole -0.587,  1-sigma level  0.110
Q1    1   0.3333  0.6667  0.1496  10.33333  0.05    0.67
Q2    1   0.2206  0.5685  0.1127  11.00000  0.05    0.45
;
_shelx_res_checksum              31267
_shelx_hkl_file
;
   1   1   0  411.86   28.20
   2  -1   0  401.86   28.10
   2   0   0 5425.06  341.97
  -2   2   0 4376.86  342.37
   2  -2   0 5054.59  341.77
   0   2   0 5228.78  341.87
   1   2   0    6.60    2.80
   2  -3   0    4.30    5.30
   2  -3   0    6.00    3.10
  -3   1   0   15.20    7.40
   2  -3   0    1.60    3.10
   3  -1   0    6.20    3.00
  -2   3   0   -7.90    7.50
   2   1   0    4.10    2.10
  -3   2   0   15.80    8.60
   1  -3   0    4.00    2.70
   1  -3   0    8.70    3.90
   3  -2   0    6.90    3.20
  -1   3   0    1.80    6.20
   0  -3   0  619.54   41.40
   3   0   0  611.94   41.20
   3  -3   0  609.44   41.50
   0   3   0  560.84   41.70
   3  -3   0  579.44   42.40
   3  -4   0 1708.93  121.79
  -4   1   0 1602.54  121.89
   1   3   0 1817.32  120.99
   3  -4   0 1886.61  121.19
  -1  -3   0 1832.02  121.09
  -3   4   0 1859.31  122.59
   4  -1   0 1694.53  120.99
   2  -4   0   40.10    4.80
   2   2   0   37.90    3.90
  -4   2   0   43.90    9.70
   2  -4   0   56.99    6.60
  -2   4   0   24.50    8.40
   4  -2   0   40.50    5.10
   1  -4   0 1660.03  116.59
   3   1   0 1839.92  116.09
   1  -4   0 1709.03  116.19
  -4   3   0 1483.45  117.79
  -1   4   0 1637.54  116.89
   4  -3   0 1846.32  117.19
   4   0   0   33.90    4.20
   0  -4   0   32.70    5.10
  -4   4   0   33.20    9.90
   4  -4   0   33.90    7.00
   4  -4   0   37.60    5.50
   0   4   0   26.90    5.70
   4  -5   0  134.49   12.10
   1   4   0  111.79   10.30
  -5   1   0  110.99   11.60
   4  -5   0  113.69   10.40
  -4   5   0  103.89   13.70
   5  -1   0   98.89   10.00
  -1  -4   0  126.79    9.90
  -5   2   0   -3.50    8.00
   3  -5   0   -1.50    3.90
   2   3   0   -3.60    2.90
   3  -5   0    3.60    5.30
  -2  -3   0   -1.00    3.30
   5  -2   0    3.30    5.30
  -3   5   0    8.00    8.20
   5  -2   0   -4.50    3.70
  -5   3   0    8.30    8.90
   2  -5   0   -4.30    4.70
   2  -5   0    4.90    3.40
   3   2   0    0.60    2.60
  -2   5   0   14.00    7.20
   5  -3   0   -4.20    5.50
   5  -3   0    7.40    4.30
   4   1   0  107.79    9.00
   1  -5   0  115.49    9.00
  -5   4   0  127.79   13.80
   1  -5   0  103.59   10.80
  -1   5   0  101.49   10.70
   5  -4   0  109.09   10.50
   5  -4   0  116.09   11.80
  -5   5   0 1782.92  145.89
   5   0   0 2156.08  144.09
   0  -5   0 2044.90  144.49
   5  -5   0 2209.18  145.49
   5  -5   0 2235.78  144.59
   0   5   0 2205.88  144.59
   5  -6   0  993.40   80.49
   5  -6   0 1136.39   79.79
   1   5   0 1229.28   79.59
  -6   1   0 1165.48   80.09
   6  -1   0 1105.19   79.39
  -1  -5   0 1275.67   79.69
  -5   6   0 1174.18   81.89
   4  -6   0 1671.03  126.09
   2   4   0 1919.21  125.09
  -6   2   0 1926.51  126.39
   4  -6   0 1803.92  125.39
   6  -2   0 1914.71  125.39
  -2  -4   0 1844.02  125.19
  -4   6   0 1756.32  126.79
   6  -2   0 1797.42  125.89
   3  -6   0 1503.25   96.49
   3  -6   0 1259.77   97.09
   3   3   0 1445.36   96.09
  -6   3   0 1441.06   98.09
   6  -3   0 1410.76   97.39
   6  -3   0 1336.77   96.59
  -3   6   0 1444.86   97.89
   2  -6   0 1862.61  127.49
  -6   4   0 1869.91  129.39
   2  -6   0 1999.40  128.29
   4   2   0 1928.21  127.29
   6  -4   0 1763.32  128.69
  -2   6   0 1754.52  128.49
   1  -6   0 1200.48   80.79
   5   1   0 1114.99   80.89
   1  -6   0 1170.28   81.59
  -6   5   0 1359.16   83.79
  -1   6   0 1178.88   81.89
   6  -5   0 1110.79   82.39
   6   0   0 9439.46  635.54
  -6   6   0 8416.86  636.94
   0  -6   0 8980.60  635.84
   6  -6   0 9351.36  635.94
   6  -6   0 9999.00  636.94
   0   6   0 9857.61  635.94
   6  -7   0 1450.25  101.79
   1   6   0 1507.95  101.59
   6  -7   0 1272.57  102.59
  -1  -6   0 1359.86  101.49
  -6   7   0 1702.63  103.89
   7  -1   0 1486.75  102.09
   7  -1   0 1605.54  101.49
   5  -7   0   98.29    8.90
   5  -7   0   82.59   11.00
  -7   2   0   90.99   10.20
   2   5   0   92.59    8.70
   5  -7   0   75.39    8.60
   7  -2   0   90.09    8.60
  -2  -5   0   95.39    9.00
  -5   7   0   94.39   12.50
   7  -2   0   79.99    9.70
   3   4   0  521.95   36.10
   4  -7   0  474.75   36.60
  -7   3   0  586.84   39.00
   4  -7   0  511.25   37.80
   7  -3   0  491.55   37.90
  -4   7   0  566.34   39.30
   7  -3   0  520.65   36.90
   4   3   0  533.25   36.80
   3  -7   0  497.15   37.20
  -7   4   0  535.65   40.00
   3  -7   0  499.05   38.20
   7  -4   0  588.54   39.10
   7  -4   0  544.95   37.80
  -3   7   0  517.45   39.30
   2  -7   0   74.49    9.30
  -7   5   0   97.69   12.10
   5   2   0   90.99    8.10
   2  -7   0   87.59    8.10
   7  -5   0   90.99   11.20
  -2   7   0   74.59   10.20
   7  -5   0   89.19    8.90
   6   1   0 1379.96   94.69
   1  -7   0 1301.07   95.39
  -7   6   0 1358.16   97.19
   7  -6   0 1543.35   95.59
  -1   7   0 1399.86   95.69
   7  -6   0 1301.47   96.49
  -7   7   0 1895.91  122.39
   7   0   0 1644.44  119.89
   0  -7   0 1817.32  120.39
   0   7   0 1716.83  120.39
   7  -7   0 1813.62  121.79
   7  -7   0 1648.44  120.49
   7  -8   0  960.20   61.69
   1   7   0  842.62   59.49
   7  -8   0  761.12   59.79
   8  -1   0  892.71   60.19
  -1  -7   0  858.71   59.49
   8  -1   0  784.22   59.29
  -7   8   0  909.11   62.09
  -8   2   0  501.35   36.40
   6  -8   0  540.55   38.10
   6  -8   0  500.65   36.20
   6  -8   0  507.15   36.30
   2   6   0  476.35   35.50
  -6   8   0  504.55   39.00
  -2  -6   0  506.05   35.70
   8  -2   0  511.75   36.90
   8  -2   0  481.05   36.00
   5  -8   0  227.38   20.40
   5  -8   0  235.48   18.20
   3   5   0  222.08   17.20
  -8   3   0  258.47   20.20
  -5   8   0  217.28   21.70
   8  -3   0  225.18   20.20
  -3  -5   0  233.68   17.60
   8  -3   0  219.08   18.20
   4  -8   0 2909.81  195.78
  -8   4   0 3146.69  197.18
   4  -8   0 2789.92  196.68
   4   4   0 2911.01  195.38
   8  -4   0 2674.03  196.78
   8  -4   0 2831.22  196.08
  -4   8   0 2801.12  196.98
   3  -8   0  239.48   17.60
  -8   5   0  269.87   22.30
   5   3   0  246.78   17.30
   3  -8   0  207.08   19.30
   8  -5   0  222.28   18.90
   8  -5   0  248.38   21.00
  -3   8   0  201.58   20.70
   6   2   0  510.45   35.30
  -8   6   0  473.85   38.80
   2  -8   0  506.65   36.50
   2  -8   0  478.85   35.20
   8  -6   0  497.05   38.30
  -2   8   0  546.65   37.40
   1  -8   0  821.52   59.69
  -8   7   0  893.11   61.99
   7   1   0  851.71   58.89
   8  -7   0  854.81   59.79
   8  -7   0  876.81   61.39
  -1   8   0  812.82   59.99
   0  -8   0  216.28   18.40
   8   0   0  215.88   17.70
  -8   8   0  204.38   20.70
   8  -8   0  236.08   20.90
   0   8   0  226.28   18.80
   8  -8   0  252.37   19.20
   8  -9   0   13.50    6.40
   8  -9   0   19.80    6.60
   8  -9   0   19.60    9.60
   1   8   0   13.10    5.90
  -8   9   0    7.90    9.90
   9  -1   0   13.40    7.10
  -1  -8   0   12.90    5.60
   9  -1   0   19.00    5.70
  -9   2   0  680.93   48.00
   7  -9   0  656.23   48.10
   7  -9   0  751.02   50.29
   7  -9   0  694.43   48.20
   2   7   0  671.73   47.60
  -2  -7   0  689.43   47.70
  -7   9   0  677.03   50.59
   9  -2   0  583.94   47.90
   9  -2   0  700.53   49.00
   6  -9   0 1124.59   86.59
   3   6   0 1175.18   84.59
  -9   3   0 1328.67   85.79
   6  -9   0 1255.07   85.29
  -3  -6   0 1325.47   84.99
   9  -3   0 1232.98   86.29
   9  -3   0 1151.28   85.19
  -6   9   0 1242.28   87.19
   5  -9   0  262.17   22.50
   4   5   0  277.47   20.20
   5  -9   0  297.97   21.00
  -9   4   0  302.57   23.40
   9  -4   0  262.07   21.50
   9  -4   0  254.97   22.90
  -5   9   0  232.38   24.10
   4  -9   0  267.67   20.70
   4  -9   0  266.67   23.00
  -9   5   0  307.97   24.50
   5   4   0  259.47   20.30
   9  -5   0  286.27   22.10
  -4   9   0  293.47   24.60
   9  -5   0  284.17   23.90
  -9   6   0 1279.17   88.89
   3  -9   0 1238.98   88.19
   6   3   0 1236.98   86.59
   3  -9   0 1279.17   86.69
  -3   9   0 1340.07   88.49
   9  -6   0 1221.78   87.69
   9  -6   0 1234.98   88.89
   7   2   0  649.14   47.10
   2  -9   0  610.44   48.20
  -9   7   0  760.92   50.49
   2  -9   0  687.53   46.90
   9  -7   0  706.43   50.19
   9  -7   0  662.03   48.30
  -2   9   0  692.33   49.10
  -9   8   0   24.50   10.30
   1  -9   0   10.30    6.50
   8   1   0    9.20    4.80
  -1   9   0   17.30    7.50
   9  -8   0   19.70   10.00
   9  -8   0    8.20    6.40
  -9   9   0   33.40   11.00
   9   0   0   18.90    6.00
   0  -9   0   15.20    6.60
   9  -9   0   19.30   10.60
   0   9   0   13.10    7.20
   9  -9   0   16.30    7.40
   9 -10   0   59.29    9.40
   1   9   0   71.09    8.90
   9 -10   0   59.39   11.90
   9 -10   0   87.29   10.20
  -9  10   0   73.59   13.50
  10  -1   0   72.99    8.70
  -1  -9   0   53.09    8.40
   2   8   0  166.78   15.40
   8 -10   0  177.88   17.90
   8 -10   0  165.88   16.40
  10  -2   0  174.28   16.90
  10  -2   0  169.38   16.20
  -8  10   0  155.18   18.20
  -2  -8   0  173.18   15.20
   7 -10   0  562.94   42.20
   3   7   0  522.25   38.90
   7 -10   0  532.75   39.80
  10  -3   0  519.75   41.10
  -3  -7   0  556.64   39.30
  -7  10   0  589.34   42.80
  10  -3   0  571.84   39.90
   6 -10   0   64.39   11.30
   6 -10   0   71.39    8.30
   4   6   0   70.49    7.10
 -10   4   0   65.99    9.60
  10  -4   0   61.39   10.60
  10  -4   0   45.80    8.40
  -6  10   0   67.89   12.00
   5 -10   0  655.43   45.50
   5 -10   0  567.94   43.50
   5   5   0  604.74   43.10
 -10   5   0  615.44   45.50
  -5  10   0  656.53   46.60
  10  -5   0  612.74   45.80
   4 -10   0   70.89   10.80
 -10   6   0   61.69   11.20
   4 -10   0   66.79    7.60
   6   4   0   71.79    7.50
  10  -6   0   82.49    9.60
  -4  10   0   70.09   11.70
  10  -6   0   61.89   11.70
   3 -10   0  551.44   42.10
   7   3   0  557.94   40.20
 -10   7   0  606.54   43.70
  10  -7   0  545.95   41.80
  -3  10   0  598.64   43.30
  10  -7   0  577.34   43.70
   2 -10   0  174.48   17.20
 -10   8   0  208.48   18.70
   8   2   0  161.88   14.90
  10  -8   0  181.28   18.80
  10  -8   0  186.98   17.70
  -2  10   0  163.58   16.50
 -10   9   0   89.19   13.50
   9   1   0   72.79    8.40
   1 -10   0   65.69    9.70
  10  -9   0   55.79   12.00
  -1  10   0   76.19   10.40
  10  -9   0   54.39    9.80
   0 -10   0   88.79   10.50
 -10  10   0   98.29   14.60
  10   0   0   90.19    9.70
  10 -10   0   74.79   11.00
  10 -10   0   71.59   13.30
   0  10   0   77.89   10.60
   1  10   0  342.57   25.50
  10 -11   0  307.87   25.80
  10 -11   0  325.87   29.70
  10 -11   0  321.07   25.90
  11  -1   0  337.27   25.40
  -1 -10   0  286.37   24.90
 -10  11   0  279.27   27.90
   9 -11   0  256.07   27.20
   9 -11   0  252.27   23.70
   2   9   0  286.97   22.90
  11  -2   0  298.47   23.70
  -9  11   0  301.57   28.00
  -2  -9   0  302.77   22.80
   3   8   0  185.58   16.70
   8 -11   0  236.58   21.00
   8 -11   0  189.88   18.10
  -8  11   0  173.28   20.00
  -3  -8   0  198.18   17.00
  11  -3   0  194.88   18.40
  11  -3   0  192.08   19.50
   7 -11   0 3956.40  267.07
   4   7   0 3890.51  266.47
   7 -11   0 4081.19  268.77
  11  -4   0 3577.84  267.97
  11  -4   0 3714.53  267.17
  -7  11   0 4240.18  268.97
   5   6   0  271.97   19.90
   6 -11   0  224.28   23.20
 -11   5   0  267.47   22.70
   6 -11   0  252.07   20.70
  11  -5   0  250.87   22.00
  -6  11   0  246.08   23.30
  11  -5   0  265.87   23.80
   5 -11   0  262.47   20.80
   6   5   0  248.28   20.50
   5 -11   0  276.47   24.60
 -11   6   0  279.77   24.10
  11  -6   0  273.97   24.90
  -5  11   0  281.57   25.40
   7   4   0 3866.71  265.77
 -11   7   0 4147.39  267.67
   4 -11   0 3704.03  267.17
  11  -7   0 3946.41  266.87
  11  -7   0 3765.12  268.07
  -4  11   0 3953.40  267.67
   8   3   0  196.28   17.60
   3 -11   0  205.48   20.50
 -11   8   0  208.68   20.70
  11  -8   0  260.27   23.40
  -3  11   0  250.77   22.40
   9   2   0  300.37   22.70
 -11   9   0  339.77   28.20
   2 -11   0  283.87   24.20
  -2  11   0  300.57   25.70
  11  -9   0  246.28   27.60
  11  -9   0  296.77   25.00
 -11  10   0  357.86   31.10
   1 -11   0  343.27   27.00
  10   1   0  310.67   25.60
  11 -10   0  337.67   27.40
  -1  11   0  318.17   27.60
  11 -10   0  333.27   30.40
 -11  11   0  409.66   33.10
   0 -11   0  365.56   28.90
  11   0   0  344.87   28.30
   0  11   0  356.66   29.10
  11 -11   0  333.87   29.60
  11 -11   0  347.07   33.00
  11 -11   0  400.26   30.00
  11 -12   0 1585.84  105.99
  11 -12   0 1445.56  103.39
   1  11   0 1429.46  102.69
  11 -12   0 1526.85  103.49
  -1 -11   0 1407.76  102.69
  12  -1   0 1448.36  102.69
 -11  12   0 1527.75  105.79
  10 -12   0   56.39   10.50
  10 -12   0   86.79   15.20
   2  10   0   69.09    9.70
 -10  12   0   83.09   15.60
  12  -2   0   77.59   10.50
  -2 -10   0   87.29   10.00
   3   9   0  493.75   35.80
   9 -12   0  433.76   39.60
   9 -12   0  491.65   36.80
  12  -3   0  473.65   36.60
  -3  -9   0  506.15   35.90
  -9  12   0  502.35   40.50
   4   8   0  112.09   10.40
   8 -12   0   99.89   11.50
   8 -12   0   93.69   15.00
  12  -4   0   92.89   15.00
  -8  12   0  135.39   16.10
  12  -4   0   84.29   11.50
   7 -12   0  908.61   69.59
   5   7   0  972.70   67.09
   7 -12   0  893.11   67.49
  -7  12   0 1055.39   71.09
  12  -5   0 1010.60   68.49
  12  -5   0  963.90   69.69
   6   6   0 1322.17   95.39
   6 -12   0 1592.24   98.39
  12  -6   0 1217.98   97.79
  -6  12   0 1496.85   98.59
  12  -6   0 1327.87   96.59
   7   5   0 1014.50   69.39
   5 -12   0  963.30   71.89
 -12   7   0 1010.20   71.49
  -5  12   0 1139.79   72.89
  12  -7   0  919.71   70.69
  12  -7   0  955.60   72.49
   4 -12   0  122.59   14.10
   8   4   0   98.89   10.50
 -12   8   0  131.29   15.00
  -4  12   0   89.79   14.30
  12  -8   0  108.69   15.80
  12  -8   0  127.19   13.40
   9   3   0  494.85   34.70
 -12   9   0  497.25   38.70
   3 -12   0  468.15   36.50
  12  -9   0  443.46   36.70
  -3  12   0  497.45   37.70
  12  -9   0  432.56   38.90
 -12  10   0   84.39   14.50
   2 -12   0   87.69   12.10
  10   2   0   83.79    9.80
  -2  12   0   84.09   12.60
  12 -10   0   66.59   14.30
  12 -10   0  101.29   12.40
   1 -12   0 1521.65  102.49
  11   1   0 1381.76  101.59
 -12  11   0 1556.64  104.69
  12 -11   0 1417.86  102.59
  -1  12   0 1458.25  102.49
  12 -11   0 1465.45  104.89
   0 -12   0 3139.19  241.08
  12   0   0 3180.18  240.78
 -12  12   0 3603.34  243.38
   0  12   0 3529.75  241.38
  12 -12   0 3996.90  242.18
  12 -12   0 3622.44  243.88
  12 -12   0 3610.84  241.88
  12 -13   0  285.87   26.30
   1  12   0  290.17   25.30
  12 -13   0  307.87   29.60
 -12  13   0  329.07   29.10
  -1 -12   0  249.68   24.50
  13  -1   0  317.87   25.60
  11 -13   0  473.45   37.30
   2  11   0  422.56   33.00
  11 -13   0  440.06   34.30
  -2 -11   0  405.36   32.60
  13  -2   0  408.36   33.60
 -11  13   0  434.06   38.50
  10 -13   0   39.20   13.20
   3  10   0   49.80    8.70
  10 -13   0   34.60    9.20
  -3 -10   0   39.50    8.40
  13  -3   0   33.00    9.30
 -10  13   0   64.39   14.80
   9 -13   0  207.38   23.50
   4   9   0  256.77   20.50
   9 -13   0  224.38   21.70
  13  -4   0  261.37   22.50
  -9  13   0  265.97   25.30
   8 -13   0   -2.50    7.00
   8 -13   0   -7.70   10.30
   5   8   0    8.10    6.20
  -8  13   0   10.10   13.10
  13  -5   0   -2.10    8.40
   7 -13   0   14.90   11.00
   6   7   0   12.30    6.30
  13  -6   0   14.50   10.80
  13  -6   0   15.80    8.60
  -7  13   0   11.70   12.70
   7   6   0    8.50    6.20
   6 -13   0   11.10   11.10
  13  -7   0   22.20    9.10
  -6  13   0   24.00   12.30
  13  -7   0   17.10   11.80
   5 -13   0    9.20    9.90
 -13   8   0    8.50   12.30
   8   5   0    0.70    5.90
  -5  13   0   15.50   11.00
  13  -8   0    2.50    8.40
  13  -8   0    2.40   11.80
   4 -13   0  268.47   24.70
 -13   9   0  251.47   23.60
   9   4   0  238.18   20.60
  13  -9   0  247.88   24.10
  13  -9   0  224.38   24.50
  -4  13   0  288.97   25.50
 -13  10   0   74.59   13.30
  10   3   0   24.40    7.30
   3 -13   0   34.20   10.40
  -3  13   0   23.60   10.90
  13 -10   0   46.90   14.60
  13 -10   0   29.20   10.00
   2 -13   0  443.06   35.30
 -13  11   0  426.46   38.80
  11   2   0  473.45   33.60
  -2  13   0  412.96   36.00
  13 -11   0  440.76   36.00
  13 -11   0  442.66   39.10
 -13  12   0  328.07   30.30
  12   1   0  269.17   24.00
   1 -13   0  272.27   25.40
  -1  13   0  291.77   26.30
  13 -12   0  285.57   26.50
  13 -12   0  279.57   28.50
   0 -13   0  447.86   34.50
 -13  13   0  528.35   40.70
  13   0   0  412.66   34.20
  13 -13   0  453.95   35.80
   0  13   0  433.46   35.10
  13 -13   0  416.66   35.50
  13 -13   0  394.46   39.40
  13 -14   0   83.89   12.90
  13 -14   0   49.60   16.70
   1  13   0   70.09   11.90
  -1 -13   0   78.49   11.70
  14  -1   0   60.89   11.60
 -13  14   0   71.39   17.20
  12 -14   0   58.39   11.70
  12 -14   0   39.80   14.80
   2  12   0   46.30   10.20
  14  -2   0   56.89   11.00
  -2 -12   0   62.89   10.10
 -12  14   0   56.89   16.00
   3  11   0  114.09   12.50
  11 -14   0  136.29   14.20
  11 -14   0  121.79   19.00
  14  -3   0  113.99   13.80
 -11  14   0   89.49   18.20
  -3 -11   0   92.19   12.40
  10 -14   0   40.50    9.80
  10 -14   0   18.70   12.90
   4  10   0   40.80    8.60
  14  -4   0   38.30   10.10
 -10  14   0   42.50   14.80
   9 -14   0   23.90   12.80
   5   9   0   13.90    7.30
  -9  14   0   32.10   14.40
  14  -5   0   18.00    9.50
   8 -14   0   12.80   12.50
   6   8   0    4.60    6.80
  -8  14   0   12.20   13.10
  14  -6   0   -3.80    8.70
   7   7   0  190.88   17.90
   7 -14   0  216.18   22.10
  14  -7   0  238.08   22.80
  -7  14   0  182.48   21.20
  14  -7   0  184.38   18.90
   8   6   0    5.50    6.60
   6 -14   0    9.80   11.30
  14  -8   0    9.50    9.70
  14  -8   0   -8.00   12.00
  -6  14   0   14.20   12.20
   9   5   0   16.70    6.80
   5 -14   0   -0.10   10.50
  14  -9   0    3.60    9.90
  -5  14   0   -1.10   11.30
  14  -9   0   23.40   13.00
 -14  10   0   48.50   13.90
   4 -14   0   40.90   11.60
  10   4   0   41.30    8.50
  14 -10   0   33.10   14.20
  -4  14   0   48.60   12.70
  14 -10   0   35.10   11.10
   3 -14   0  112.79   14.90
 -14  11   0  132.29   17.90
  11   3   0  108.59   12.30
  -3  14   0  121.29   15.50
  14 -11   0  112.49   18.80
  14 -11   0   95.89   14.60
 -14  12   0  100.59   16.10
  12   2   0   52.49    9.90
   2 -14   0   68.39   12.40
  14 -12   0   58.39   12.50
  14 -12   0   34.90   16.00
  -2  14   0   56.79   12.50
 -14  13   0   84.89   16.60
  13   1   0   53.79   10.30
   1 -14   0   64.09   11.50
  -1  14   0   51.09   12.30
  14 -13   0   66.89   12.80
  14 -13   0   58.09   17.10
  14 -13   0   47.60   12.40
  14   0   0  276.27   25.80
   0 -14   0  253.87   25.50
 -14  14   0  352.56   29.50
   0  14   0  302.37   26.80
  14 -14   0  260.87   29.60
  14 -14   0  285.77   27.60
  14 -14   0  283.37   28.00
  14 -15   0  102.79   20.60
   1  14   0   97.29   13.90
  14 -15   0   94.29   14.60
  -1 -14   0   86.79   12.80
  15  -1   0   99.19   14.00
 -14  15   0   94.49   18.70
   2  13   0  530.15   40.90
  13 -15   0  557.74   46.70
  13 -15   0  603.84   42.30
 -13  15   0  509.65   45.70
  -2 -13   0  532.65   40.50
  15  -2   0  459.05   41.00
   3  12   0   61.59   10.60
  12 -15   0   47.20   12.10
  12 -15   0   29.00   15.80
  15  -3   0   41.50   11.10
 -12  15   0   51.59   16.60
   4  11   0   -6.50    8.10
  11 -15   0    1.20   13.60
  15  -4   0    2.40    9.50
 -11  15   0    7.80   14.50
  10 -15   0   -7.90   13.10
   5  10   0   16.30    8.10
 -10  15   0   12.10   14.30
  15  -5   0    7.40    9.80
   6   9   0   23.00    7.90
   9 -15   0   16.50   14.10
  15  -6   0   15.90   10.10
  -9  15   0    0.90   13.30
   8 -15   0   -4.10   13.00
   7   8   0   12.50    7.50
  15  -7   0   12.20    9.90
  -8  15   0   11.90   13.20
   7 -15   0   -5.60   11.40
   8   7   0   20.30    7.40
  15  -8   0   21.40   10.70
  -7  15   0    4.30   12.40
   9   6   0   15.50    7.30
   6 -15   0    5.50   11.90
  15  -9   0   -5.10   10.40
  -6  15   0    8.70   12.40
  15  -9   0   39.80   14.70
  10   5   0   20.70    7.80
   5 -15   0    6.40   11.40
  15 -10   0   25.60   14.30
  -5  15   0   -2.10   12.10
  15 -10   0    3.40   10.90
   4 -15   0  -12.70   10.90
  11   4   0    2.00    7.60
  -4  15   0    8.30   12.00
  15 -11   0   -4.40   10.60
  15 -11   0   -1.30   13.30
   3 -15   0   32.50   12.00
  12   3   0   45.40    9.50
  15 -12   0   52.79   16.30
  15 -12   0   39.40   12.70
  -3  15   0   47.40   12.90
   2 -15   0  467.55   40.40
 -15  13   0  627.24   44.80
  13   2   0  500.75   38.80
  15 -13   0  544.85   41.70
  15 -13   0  449.26   44.50
  -2  15   0  493.15   41.60
 -15  14   0  134.89   19.00
   1 -15   0   97.69   14.00
  14   1   0  100.39   13.40
  15 -14   0   78.79   15.40
  15 -14   0   77.09   15.00
  -1  15   0  112.99   15.20
  15 -14   0   95.49   20.20
   0 -15   0 1456.25  101.19
  15   0   0 1428.96  101.19
 -15  15   0 1424.66  104.39
   0  15   0 1407.66  101.59
  15 -15   0 1353.96  105.59
  15 -15   0 1515.55  102.59
   1  15   0  130.99   16.10
  15 -16   0  110.29   16.70
  15 -16   0   80.89   21.40
  -1 -15   0  122.29   14.90
 -15  16   0  128.09   19.70
  16  -1   0   97.29   15.40
   2  14   0  211.08   20.50
  14 -16   0  190.38   26.60
 -14  16   0  263.87   26.50
  -2 -14   0  227.48   22.00
  16  -2   0  191.98   20.80
  13 -16   0    3.80   15.60
   3  13   0    3.90    9.60
 -13  16   0   18.80   16.40
  16  -3   0   -3.10   10.30
   4  12   0   69.69   11.70
  12 -16   0   62.69   17.40
 -12  16   0   95.59   18.50
  16  -4   0   84.09   13.80
   5  11   0   30.70    9.30
  11 -16   0   11.70   15.10
 -11  16   0   42.10   16.10
  16  -5   0   43.20   11.90
   6  10   0   -2.60    8.20
  10 -16   0  -25.20   13.50
 -10  16   0   38.60   15.90
  16  -6   0    3.00   10.50
   9 -16   0  132.29   20.20
   7   9   0  113.59   12.90
  16  -7   0  113.39   15.80
  -9  16   0  144.59   19.30
   8 -16   0   -9.00   13.60
   8   8   0    5.50    7.80
  16  -8   0   16.20   11.40
  -8  16   0    9.10   13.90
   7 -16   0  121.39   18.40
   9   7   0  124.59   13.50
  16  -9   0  141.49   17.10
  -7  16   0  137.69   18.90
  10   6   0   -4.30    7.70
   6 -16   0   -4.60   12.60
  16 -10   0   19.20   15.20
  -6  16   0    8.20   13.30
  16 -10   0   -2.60   11.30
   5 -16   0   32.90   13.20
  11   5   0   24.90    8.90
  16 -11   0   26.80   12.30
  16 -11   0   25.60   15.20
  -5  16   0   17.60   13.70
   4 -16   0   77.79   14.70
  12   4   0   71.89   11.30
  16 -12   0   58.19   14.10
  -4  16   0   60.99   14.40
  16 -12   0   72.29   18.30
  13   3   0   16.00    9.30
   3 -16   0    6.60   11.80
  -3  16   0  -12.30   12.10
  16 -13   0    7.10   12.10
  16 -13   0    7.70   16.40
   2 -16   0  219.98   22.20
  14   2   0  222.28   21.00
  16 -14   0  284.27   29.30
  -2  16   0  201.48   22.90
  16 -14   0  228.48   23.40
  16 -14   0  231.58   23.60
  15   1   0   94.29   14.20
 -16  15   0  131.29   21.40
   1 -16   0   77.09   14.10
  16 -15   0   95.39   16.50
  -1  16   0  112.59   15.90
  16 -15   0  117.59   22.30
  16 -15   0   76.79   15.70
  16   0   0   13.30   11.40
 -16  16   0    9.20   15.20
   0 -16   0    6.40   10.50
  16 -16   0   25.80   13.30
   0  16   0    3.60   12.10
  16 -16   0    3.80   18.20
  16 -17   0    6.70   17.70
   1  16   0   29.80   12.60
  -1 -16   0   15.70   11.00
 -16  17   0    3.70   16.80
  17  -1   0   13.90   11.90
   2  15   0  151.08   17.90
  15 -17   0  159.18   24.20
  17  -2   0  147.19   18.40
 -15  17   0  168.68   22.70
   3  14   0   30.40   11.20
  14 -17   0    5.20   17.50
 -14  17   0    3.90   15.90
  17  -3   0    8.90   11.70
  13 -17   0  155.98   23.50
   4  13   0  122.89   15.70
 -13  17   0  148.49   21.90
  17  -4   0  139.89   17.80
  12 -17   0   88.89   19.80
   5  12   0   96.99   12.40
 -12  17   0   94.39   18.70
  17  -5   0   51.39   14.00
   6  11   0   40.70   10.40
  11 -17   0   50.89   17.70
 -11  17   0   32.40   16.30
  17  -6   0   40.80   12.90
   7  10   0   19.00    9.30
  10 -17   0   22.00   16.20
 -10  17   0    9.10   15.00
  17  -7   0   10.50   11.90
   8   9   0  281.97   24.70
   9 -17   0  329.57   29.90
  17  -8   0  243.18   25.90
  -9  17   0  249.78   27.90
   9   8   0  267.97   23.10
   8 -17   0  212.68   25.40
  17  -9   0  225.88   24.00
  -8  17   0  294.77   27.50
  10   7   0   26.80    9.60
   7 -17   0   38.30   15.10
  17 -10   0   39.90   13.50
  -7  17   0   15.90   14.50
  11   6   0   36.40    9.70
   6 -17   0   18.80   13.90
  17 -11   0   40.20   13.30
  -6  17   0   47.30   15.20
  12   5   0   86.39   12.60
   5 -17   0   84.69   15.80
  17 -12   0   49.20   18.70
  17 -12   0   89.59   15.90
  -5  17   0  108.99   17.30
  13   4   0  150.78   15.90
   4 -17   0  122.99   18.30
  17 -13   0  145.99   19.30
  -4  17   0  175.48   20.40
  17 -13   0  129.59   23.20
   3 -17   0   16.20   12.20
  14   3   0   -2.50   10.00
  17 -14   0   -1.50   12.90
  17 -14   0   22.90   13.50
  -3  17   0   24.50   13.70
  17 -14   0   40.90   18.30
  15   2   0  151.78   18.10
   2 -17   0  168.58   19.30
  17 -15   0  177.18   20.90
  17 -15   0  198.08   26.90
  17 -15   0  162.08   20.60
  -2  17   0  168.58   20.10
  16   1   0   -4.60   11.30
   1 -17   0    8.30   11.60
  17 -16   0   18.80   14.20
  -1  17   0    5.50   12.90
  17 -16   0   11.10   19.60
  17   0   0   10.20   12.30
   0 -17   0   21.10   13.00
  17 -17   0   -0.30   19.10
   0  17   0   12.50   13.10
   1  17   0  133.19   18.20
  17 -18   0   95.69   23.80
  18  -1   0  137.09   18.20
   2  16   0   -0.10   12.30
  16 -18   0  -11.90   18.80
  18  -2   0    5.30   12.70
 -16  18   0   34.50   17.70
   3  15   0   31.60   12.20
  15 -18   0    1.30   19.00
 -15  18   0   25.00   17.30
  18  -3   0   29.20   13.80
   4  14   0   69.29   13.40
  14 -18   0   81.99   21.20
 -14  18   0   61.09   19.10
  18  -4   0   54.49   15.10
   5  13   0  121.29   15.80
  13 -18   0  144.59   24.10
  18  -5   0  100.49   17.60
 -13  18   0  158.58   22.50
  12 -18   0  386.76   41.70
   6  12   0  395.16   34.10
 -12  18   0  470.65   42.60
  18  -6   0  439.96   37.30
  11 -18   0  437.76   43.30
   7  11   0  440.86   36.60
 -11  18   0  578.84   45.10
  18  -7   0  442.96   40.40
  10 -18   0  132.99   22.30
   8  10   0  146.19   15.80
  18  -8   0  137.39   19.40
 -10  18   0  159.88   22.00
   9   9   0  118.69   14.40
   9 -18   0  121.39   20.00
  -9  18   0  128.29   20.90
  18  -9   0  115.69   17.90
   8 -18   0  152.68   21.80
  10   8   0  156.48   16.50
  18 -10   0  154.68   20.00
  -8  18   0  150.38   21.70
   7 -18   0  429.86   41.20
  11   7   0  431.56   36.20
  -7  18   0  481.55   42.40
  18 -11   0  505.65   40.90
   6 -18   0  428.96   37.80
  12   6   0  364.36   32.90
  18 -12   0  376.86   36.60
  -6  18   0  462.75   38.90
   5 -18   0  118.39   18.50
  13   5   0   99.39   14.50
  -5  18   0  132.29   19.80
  18 -13   0  122.89   18.80
  14   4   0   64.29   12.10
   4 -18   0   49.80   14.80
  18 -14   0   38.50   20.20
  -4  18   0   60.59   15.90
  18 -14   0   23.50   14.50
  15   3   0   17.30   11.50
   3 -18   0   16.30   13.00
  18 -15   0   44.20   20.70
  -3  18   0   45.30   15.10
  18 -15   0   27.80   15.40
  18 -15   0   18.00   14.20
   2 -18   0   -7.10   11.90
  16   2   0   -4.60   11.60
  18 -16   0   -6.30   14.30
  -2  18   0   -2.70   13.80
  18 -16   0   -9.30   18.00
   1 -18   0  131.49   17.80
  17   1   0  138.29   18.30
  18 -17   0  156.38   26.30
  -1  18   0  152.78   19.90
   0 -18   0  522.85   56.29
  18   0   0  619.04   50.59
  18 -18   0  710.73   57.89
   0  18   0  670.53   51.49
  17 -19   0  202.38   29.80
   2  17   0  208.88   22.60
 -17  19   0  232.18   35.60
  19  -2   0  206.18   23.60
  16 -19   0   54.59   21.80
   3  16   0   62.89   14.60
 -16  19   0   93.09   21.60
  19  -3   0   69.79   16.30
  15 -19   0   48.70   21.80
   4  15   0   39.50   12.70
  19  -4   0   45.10   15.00
 -15  19   0   49.20   20.00
   5  14   0   30.40   12.00
  14 -19   0   42.30   20.80
  19  -5   0   28.90   14.90
 -14  19   0   10.70   17.90
  13 -19   0   30.10   20.30
   6  13   0   35.40   11.50
 -13  19   0   12.80   18.00
  19  -6   0   24.70   13.80
   7  12   0  181.78   17.80
  12 -19   0  147.89   24.70
 -12  19   0  162.68   24.10
  19  -7   0  155.48   20.80
  11 -19   0  669.13   58.49
   8  11   0  667.83   51.49
 -11  19   0  728.23   57.99
  19  -8   0  690.43   55.29
  10 -19   0    6.30   16.10
   9  10   0    0.60   10.20
  19  -9   0  -12.60   13.50
 -10  19   0   13.30   16.70
  10   9   0  -12.10   10.10
   9 -19   0   13.40   16.20
  19 -10   0    4.10   14.30
  -9  19   0   31.40   17.00
  11   8   0  696.63   53.09
   8 -19   0  692.13   57.89
  -8  19   0  695.63   58.09
  19 -11   0  769.62   57.29
  12   7   0  141.99   17.30
   7 -19   0  166.38   22.00
  -7  19   0  166.88   22.50
  19 -12   0  182.38   22.00
  13   6   0   53.19   12.10
   6 -19   0   42.50   16.10
  -6  19   0   26.30   17.10
  19 -13   0   25.40   15.10
  14   5   0   21.50   11.60
   5 -19   0   24.80   14.80
  -5  19   0    6.80   15.40
  19 -14   0   13.50   14.90
  15   4   0   35.20   12.10
   4 -19   0   36.80   14.00
  19 -15   0   64.69   17.00
  19 -15   0   63.79   24.70
  19 -15   0   32.30   15.60
  -4  19   0   33.20   15.90
  16   3   0   78.79   14.70
   3 -19   0   62.49   15.30
  19 -16   0   74.99   23.50
  19 -16   0   86.69   18.20
  19 -16   0   76.59   17.20
  -3  19   0   50.89   17.00
   2 -19   0  226.68   23.60
  17   2   0  205.38   22.80
  19 -17   0  230.78   31.00
  19 -17   0  197.78   24.90
  -2  19   0  227.48   24.90
  15 -20   0   42.40   22.50
   5  15   0    7.90   12.50
  20  -5   0   20.50   14.70
 -15  20   0   21.50   19.20
   6  14   0    5.90   11.40
  14 -20   0  -30.30   19.00
 -14  20   0   24.60   18.50
  20  -6   0   12.30   14.80
   7  13   0   43.70   12.30
  13 -20   0   27.90   20.40
  20  -7   0   50.29   16.40
 -13  20   0   26.00   19.00
   8  12   0   13.80   11.60
  12 -20   0   17.20   19.00
  20  -8   0   36.60   15.80
 -12  20   0   42.70   19.30
   9  11   0   65.59   13.60
  11 -20   0   90.69   20.80
 -11  20   0   74.99   20.30
  20  -9   0   65.59   17.40
  10 -20   0  341.27   37.20
  10  10   0  397.86   33.60
  20 -10   0  397.76   36.00
 -10  20   0  414.26   37.50
   9 -20   0   72.39   19.60
  11   9   0   95.09   14.00
  -9  20   0   80.89   19.90
  20 -11   0   74.49   17.90
   8 -20   0   49.00   17.60
  12   8   0   27.70   11.70
  -8  20   0   -3.40   16.90
  20 -12   0   36.50   16.40
   7 -20   0   32.00   17.00
  13   7   0   42.20   12.70
  20 -13   0   37.90   16.60
  -7  20   0   53.59   18.40
  14   6   0   -2.00   11.50
   6 -20   0    7.80   15.10
  -6  20   0   43.80   17.30
  20 -14   0    6.10   15.80
   5 -20   0   -3.60   14.00
  15   5   0  -13.30   11.20
  -5  20   0    7.30   16.30
  20 -15   0   27.40   15.80
  20 -15   0  -12.10   14.90
   1  -1  -1   -0.70    1.80
  -1   0  -1    0.70    2.00
   1   0   1    1.20    2.00
   0  -1  -1    1.90    1.80
  -1   1  -1    0.80    1.80
   0   1   1    2.80    2.10
  -1  -1  -1  138.29   10.30
   2  -1  -1  139.89   10.20
  -1   2  -1  138.49   10.20
   1   1   1  131.49   10.30
   3  -2  -1  768.42   54.19
  -2  -1  -1  816.42   54.09
  -1   3  -1  806.02   54.19
   2   1   1  765.72   54.09
  -3   2   1  798.02   54.49
   1  -3   1  770.62   54.49
   2  -2  -1  962.00   64.99
  -2   0  -1  873.61   64.99
   0   2  -1  968.80   64.59
   2   0   1  940.11   64.99
  -2   2   1  999.30   65.19
   1  -2  -1  158.28   10.80
   2  -1   1  126.59   10.70
  -2   2  -1  964.10   62.19
   0  -2  -1  877.91   61.99
   0   2   1  876.01   62.09
  -2   3  -1  827.82   55.79
   3  -1  -1  748.43   55.19
  -1  -2  -1  744.73   55.29
  -1  -2  -1  827.82   55.59
   2  -3   1  842.72   56.09
   2  -3   1  813.22   55.39
   1   2   1  849.22   55.39
  -2  -2  -1 7374.46  500.75
  -2   4  -1 7636.74  501.35
   4  -2  -1 7931.51  500.95
  -2  -2  -1 6839.82  501.05
   2  -4   1 7298.07  500.85
   2   2   1 6923.81  500.85
  -4   2   1 7369.36  501.05
   2  -4   1 7550.24  501.35
   5  -3  -1 1704.63  117.49
  -2   5  -1 1992.60  118.59
   5  -3  -1 1742.23  118.29
   2  -5   1 1767.92  117.19
   2  -5   1 1692.73  117.79
  -5   3   1 1463.45  117.89
   3   2   1 1669.83  117.29
   4  -3  -1 2025.00  153.78
  -3  -1  -1 2111.69  153.58
  -1   4  -1 2176.48  153.88
   4  -3  -1 2387.66  154.48
  -4   3   1 2190.48  154.28
   3   1   1 2467.25  153.68
   1  -4   1 2409.66  153.98
   3  -3  -1   99.69    9.40
  -3   0  -1  109.39    9.40
   3  -3  -1  110.09   11.10
   0   3  -1   97.49    7.90
   3   0   1   96.69    9.00
  -3   3   1  106.69    9.80
   0  -3   1   96.69    8.70
   2  -3  -1  778.12   54.89
   2  -3  -1  935.91   55.49
  -3   1  -1  693.03   54.99
  -2   3   1  857.61   55.49
   3  -1   1  737.83   54.89
   1  -3  -1  795.62   53.79
  -3   2  -1  713.23   54.19
   3  -2   1  810.42   53.89
   3  -2   1  771.82   54.29
  -1   3   1  814.72   54.09
   0  -3  -1   99.39    8.60
   0  -3  -1   92.09    9.50
   3   0  -1  106.39    7.60
  -3   3  -1  102.89    9.60
   0   3   1  107.09    9.40
   3  -3   1   90.59    8.40
   3  -3   1  111.99   10.30
  -3   4  -1 2436.56  166.68
  -1  -3  -1 2459.75  165.78
  -1  -3  -1 2616.84  166.18
   4  -1  -1 2436.86  165.78
   1   3   1 2310.47  165.88
   3  -4   1 2276.17  165.98
   3  -4   1 2495.85  166.58
  -3   5  -1 1588.54  123.69
   5  -2  -1 1597.84  122.49
  -2  -3  -1 1921.81  122.89
  -5   2   1 1826.92  122.79
   3  -5   1 1833.92  122.59
   3  -5   1 1987.90  123.49
   3  -5   1 1678.03  122.59
   2   3   1 1897.91  122.59
   6  -3  -1  330.97   22.30
   6  -3  -1  337.27   24.00
  -3   6  -1  281.57   25.90
  -6   3   1  251.97   23.20
   3  -6   1  304.57   21.70
   3   3   1  305.77   21.80
   3  -6   1  274.57   23.10
   7  -4  -1 2111.59  134.29
   7  -4  -1 1664.93  134.99
  -3   7  -1 1781.62  135.59
  -7   4   1 1960.50  134.89
   4   3   1 2020.40  133.89
   3  -7   1 2066.89  134.79
   3  -7   1 2052.09  133.79
  -2   6  -1  801.42   56.59
   6  -4  -1  814.72   54.99
   6  -4  -1  897.51   56.39
   2  -6   1  755.92   55.19
   4   2   1  829.52   54.59
   2  -6   1  781.22   54.19
  -6   4   1  632.34   55.79
  -1   5  -1 1661.23  118.69
   5  -4  -1 1801.42  118.19
  -4  -1  -1 1711.43  117.89
   5  -4  -1 1574.74  118.89
   1  -5   1 1712.63  118.19
   4   1   1 1865.41  117.89
   4  -4  -1  768.72   58.89
   0   4  -1  901.91   58.79
   4  -4  -1  772.82   59.69
  -4   0  -1  927.11   58.89
  -4   4   1  861.31   60.09
   4   0   1  826.42   58.69
   0  -4   1  892.71   58.69
  -4   1  -1 2572.04  160.98
   3  -4  -1 2389.76  160.78
   3  -4  -1 2377.36  161.28
  -1  -3   1 2241.58  160.38
   4  -1   1 2075.09  160.98
   4  -1   1 2479.75  160.78
  -3   4   1 2361.26  161.38
   2  -4  -1 7331.57  501.15
   2  -4  -1 7241.78  500.65
  -4   2  -1 7372.46  501.05
  -2   4   1 7455.95  501.15
   4  -2   1 7509.95  501.15
   4  -2   1 7253.17  500.75
  -4   3  -1 2164.88  156.58
   1  -4  -1 2299.87  155.88
   1  -4  -1 2258.97  156.28
   4  -3   1 2214.28  156.08
  -1   4   1 2534.25  156.28
   4  -3   1 2234.88  156.58
   0  -4  -1  872.61   59.99
  -4   4  -1  836.12   61.59
   0  -4  -1  948.11   60.59
   4   0  -1  881.71   59.69
   4  -4   1  828.22   61.19
   4  -4   1  860.61   60.29
   0   4   1  863.31   60.39
  -1  -4  -1 1455.05  112.09
  -1  -4  -1 1766.62  111.79
  -4   5  -1 1550.64  113.49
   5  -1  -1 1764.12  111.89
   4  -5   1 1555.44  112.89
   4  -5   1 1697.33  112.19
   1   4   1 1641.94  111.99
   6  -2  -1  886.41   54.49
  -2  -4  -1  839.12   54.69
  -4   6  -1  747.23   57.09
   2   4   1  784.42   54.29
   4  -6   1  715.83   54.39
   4  -6   1  672.73   55.39
  -6   2   1  818.72   54.49
   4  -6   1  785.02   54.49
   7  -3  -1 1883.11  131.09
  -3  -4  -1 1977.50  131.19
   7  -3  -1 2114.09  132.19
  -4   7  -1 2122.19  133.39
   3   4   1 1820.22  130.79
  -7   3   1 1816.12  131.29
   4  -7   1 1962.20  131.99
   4  -7   1 1669.23  130.89
   8  -4  -1 1768.32  121.09
  -4   8  -1 1973.30  122.09
   8  -4  -1 1834.22  119.99
   4  -8   1 1720.73  120.69
   4  -8   1 1633.14  119.49
  -8   4   1 1545.05  120.29
   4   4   1 1779.82  119.59
   9  -5  -1  749.92   56.39
   9  -5  -1  689.53   54.79
  -4   9  -1  828.62   57.19
   4  -9   1  783.52   55.69
   4  -9   1  783.32   54.09
   5   4   1  816.02   54.29
  -9   5   1  806.92   55.89
   8  -5  -1  703.03   51.79
  -3   8  -1  716.73   53.59
   8  -5  -1  747.13   53.39
   3  -8   1  700.33   52.19
   3  -8   1  822.12   50.99
  -8   5   1  653.83   52.99
   5   3   1  762.02   51.29
  -2   7  -1  377.36   29.50
   7  -5  -1  376.76   27.00
   7  -5  -1  365.86   28.70
   2  -7   1  366.96   27.10
  -7   5   1  262.07   28.50
   5   2   1  399.06   26.20
   6  -5  -1 3036.10  211.28
  -5  -1  -1 3034.60  210.98
   6  -5  -1 3395.76  212.38
  -1   6  -1 2750.12  211.78
   1  -6   1 2990.20  211.18
   5   1   1 3347.27  210.98
   0   5  -1  661.73   49.40
  -5   0  -1  759.02   48.90
   5  -5  -1  695.23   49.70
   5  -5  -1  636.04   48.80
  -5   5   1  594.74   49.99
   0  -5   1  765.12   48.50
   5   0   1  738.33   48.50
   5   0   1  686.33   48.90
   4  -5  -1 1701.63  117.59
   4  -5  -1 1534.75  116.79
   1   4  -1 1666.13  116.49
   4  -5  -1 1805.12  116.89
  -5   1  -1 1692.03  117.09
   5  -1   1 1630.24  116.59
   5  -1   1 1806.32  117.09
  -1  -4   1 1792.82  116.39
  -5   2  -1 1765.12  128.49
   3  -5  -1 1903.21  128.59
   5  -2   1 1922.01  128.49
   5  -2   1 1906.41  127.99
  -3   5   1 1832.82  128.79
  -2  -3   1 1881.81  127.39
   2  -5  -1 1862.11  125.99
   2  -5  -1 1943.01  125.39
  -5   3  -1 1725.63  126.29
   5  -3   1 1835.92  126.09
  -2   5   1 1784.72  125.99
   4   1  -1 1752.22  117.39
   1  -5  -1 1675.93  117.89
  -5   4  -1 1861.31  119.49
   1  -5  -1 1566.94  118.29
   5  -4   1 1709.43  118.19
  -1   5   1 1802.22  118.49
   0  -5  -1  781.02   52.89
   5   0  -1  760.92   52.59
   0  -5  -1  723.63   53.49
  -5   5  -1  814.42   55.99
   5  -5   1  680.43   53.99
   0   5   1  769.42   53.39
   5  -5   1  847.52   53.49
  -1  -5  -1 3246.78  213.88
   6  -1  -1 3400.76  213.48
  -5   6  -1 2820.12  215.38
  -1  -5  -1 3265.67  213.38
   5  -6   1 3044.20  214.68
   1   5   1 3124.39  213.68
   5  -6   1 2966.20  213.78
  -2  -5  -1  343.97   26.40
  -5   7  -1  338.87   31.00
   7  -2  -1  346.17   26.00
   5  -7   1  413.06   26.40
   5  -7   1  368.96   26.30
   5  -7   1  330.07   27.90
   2   5   1  360.06   26.10
   8  -3  -1  734.13   55.79
  -5   8  -1  895.11   58.09
   8  -3  -1  834.02   54.69
  -3  -5  -1  757.12   54.69
   5  -8   1  756.62   54.49
   3   5   1  772.62   54.29
   5  -8   1  837.82   56.09
  -8   3   1  716.13   54.69
   9  -4  -1  832.02   52.09
  -5   9  -1  741.23   54.69
   9  -4  -1  716.63   53.29
  -9   4   1  722.33   52.09
   4   5   1  774.02   51.39
   5  -9   1  701.23   51.39
   5  -9   1  646.84   52.79
  -5  10  -1 2925.61  211.58
  10  -5  -1 3171.58  210.38
  10  -5  -1 3161.28  211.68
   5 -10   1 3265.77  211.38
   5 -10   1 3036.90  209.78
 -10   5   1 2972.00  210.58
   5   5   1 2954.30  209.78
  -5  11  -1  523.25   38.90
  11  -6  -1  522.25   36.90
  11  -6  -1  503.35   38.80
 -11   6   1  489.45   37.40
   6   5   1  467.35   35.50
   5 -11   1  460.55   37.50
  -4  10  -1  552.84   40.10
  10  -6  -1  523.75   38.20
  10  -6  -1  466.65   39.60
   6   4   1  501.05   36.90
 -10   6   1  452.85   39.00
   4 -10   1  555.24   38.60
   4 -10   1  556.44   38.80
   9  -6  -1 1237.08   78.39
  -3   9  -1 1053.99   79.09
   9  -6  -1 1176.98   79.69
   6   3   1 1061.29   77.29
  -9   6   1 1190.58   79.39
   3  -9   1 1037.20   78.19
   3  -9   1 1106.79   76.99
   8  -6  -1  713.83   49.40
  -2   8  -1  657.73   48.80
   2  -8   1  652.23   47.60
  -8   6   1  622.74   49.20
   6   2   1  687.93   46.90
   7  -6  -1 1284.97   93.39
   7  -6  -1 1463.75   94.89
  -1   7  -1 1269.17   93.99
   6   1   1 1355.26   93.49
   1  -7   1 1350.16   93.39
   6   1   1 1392.16   92.99
   6  -6  -1   63.89    9.70
   0   6  -1   60.09    8.10
   6  -6  -1   40.90    6.70
  -6   0  -1   54.09    7.80
   0  -6   1   54.29    6.10
   6   0   1   53.49    7.10
   6   0   1   45.10    6.00
  -6   6   1   31.60    9.40
  -6   1  -1 3340.97  213.88
   5  -6  -1 2845.52  213.98
   5  -6  -1 3330.47  213.48
   1   5  -1 3132.59  213.18
   5  -6  -1 3009.10  213.38
  -1  -5   1 3025.00  212.88
   6  -1   1 2991.40  213.58
   6  -1   1 3317.37  213.28
   4  -6  -1  749.03   55.19
  -6   2  -1  808.22   55.59
   2   4  -1  787.22   53.69
   4  -6  -1  727.93   54.29
   6  -2   1  730.93   54.29
  -4   6   1  804.72   56.09
   6  -2   1  801.02   54.99
  -2  -4   1  826.72   53.59
  -6   3  -1  329.97   24.80
   3  -6  -1  222.28   22.50
   3  -6  -1  324.77   21.50
  -3   6   1  299.77   23.80
   6  -3   1  292.17   22.40
   2  -6  -1  874.61   56.59
  -6   4  -1  849.32   59.09
   4   2  -1  832.02   55.69
   2  -6  -1  810.12   57.29
  -2   6   1  824.62   57.59
   6  -4   1  781.22   56.79
   6  -4   1  737.83   57.69
   1  -6  -1 2876.81  208.38
   5   1  -1 3005.30  207.48
  -6   5  -1 2676.63  209.58
   1  -6  -1 2992.30  207.78
  -1   6   1 3272.67  208.58
   6  -5   1 3131.69  209.18
   6  -5   1 3362.26  208.38
  -6   6  -1   38.20   11.40
   0  -6  -1   39.40    6.60
   0  -6  -1   50.19    5.20
   6   0  -1   49.90    5.20
   6  -6   1   53.19    6.70
   6  -6   1   47.20    9.00
   0   6   1   35.50    6.50
  -6   7  -1 1467.65   92.79
  -1  -6  -1 1352.46   89.99
   7  -1  -1 1237.08   89.39
   1   6   1 1287.17   89.69
   6  -7   1 1223.78   90.89
   6  -7   1 1291.37   89.99
  -6   8  -1  651.53   51.69
   8  -2  -1  738.33   48.90
  -2  -6  -1  618.14   48.00
   8  -2  -1  662.73   47.80
   6  -8   1  686.93   48.10
   6  -8   1  711.33   49.80
   2   6   1  703.13   47.80
   6  -8   1  674.63   48.00
   9  -3  -1 1129.39   79.59
  -3  -6  -1 1114.49   78.49
  -6   9  -1 1123.09   81.29
   9  -3  -1 1149.48   78.49
   6  -9   1 1222.68   78.49
   3   6   1 1101.79   78.19
   6  -9   1 1099.69   79.99
  -9   3   1 1094.49   78.19
  10  -4  -1  514.15   40.90
  10  -4  -1  591.64   39.60
  -6  10  -1  555.94   42.40
   6 -10   1  511.05   38.90
   4   6   1  507.25   38.70
   6 -10   1  592.34   41.30
  11  -5  -1  511.85   36.20
  11  -5  -1  477.35   38.10
  -6  11  -1  400.56   38.70
   6 -11   1  502.45   35.00
   5   6   1  492.85   35.00
   6 -11   1  465.15   37.40
  12  -6  -1  557.74   45.20
  -6  12  -1  572.84   45.40
  12  -6  -1  608.34   43.10
   6 -12   1  561.04   44.00
   6   6   1  589.14   41.80
  13  -7  -1  857.91   61.89
  -6  13  -1  800.52   61.49
  13  -7  -1  828.42   59.79
   7   6   1  783.12   58.49
   6 -13   1  878.01   61.39
  12  -7  -1  552.04   40.60
  -5  12  -1  540.75   40.50
  12  -7  -1  434.26   37.90
   7   5   1  534.15   36.90
   5 -12   1  474.75   38.90
  11  -7  -1  472.65   35.20
  11  -7  -1  457.15   32.50
  -4  11  -1  440.96   34.60
   7   4   1  405.96   31.00
 -11   7   1  429.96   33.90
   4 -11   1  357.56   32.70
  10  -7  -1 2157.68  152.68
  10  -7  -1 2250.57  154.18
  -3  10  -1 2170.08  153.18
 -10   7   1 2280.57  153.78
   7   3   1 2277.37  151.98
   3 -10   1 2159.88  152.88
   9  -7  -1  609.74   46.00
   9  -7  -1  568.64   47.50
  -2   9  -1  640.54   46.80
  -9   7   1  608.84   47.90
   7   2   1  679.13   45.20
   7   2   1  646.34   45.60
   2  -9   1  686.93   46.00
   8  -7  -1  129.39   11.30
  -1   8  -1  142.09   12.00
   8  -7  -1  132.89   14.10
  -8   7   1   72.69   13.00
   1  -8   1   89.39   10.20
   7   1   1   91.19    9.60
   7   1   1  107.79   10.70
  -7   0  -1  457.85   33.10
   7  -7  -1  424.06   34.00
   0   7  -1  422.76   32.30
   7  -7  -1  458.75   32.40
  -7   7   1  340.67   34.20
   7   0   1  451.95   31.70
   7   0   1  457.55   32.20
   0  -7   1  457.35   31.70
   6  -7  -1 1474.95   90.99
   1   6  -1 1321.57   90.49
   6  -7  -1 1548.65   92.39
  -7   1  -1 1327.87   91.59
   6  -7  -1 1283.77   90.79
  -1  -6   1 1319.27   90.29
   7  -1   1 1225.18   90.59
   7  -1   1 1257.67   91.09
  -6   7   1 1066.09   91.99
  -7   2  -1  352.16   29.30
   5  -7  -1  372.86   28.40
   2   5  -1  369.76   26.40
   5  -7  -1  443.76   27.50
   7  -2   1  392.16   28.20
  -5   7   1  376.36   29.90
   7  -2   1  283.37   26.90
  -2  -5   1  378.26   26.20
  -7   3  -1 2227.48  135.99
   3   4  -1 2083.59  133.39
   4  -7  -1 2166.28  135.19
   4  -7  -1 1942.61  134.19
   7  -3   1 1654.63  134.09
  -4   7   1 1688.03  135.19
   4   3  -1 1789.72  125.49
  -7   4  -1 1863.01  128.19
   3  -7  -1 1666.53  126.19
   3  -7  -1 1695.73  126.99
   7  -4   1 2124.19  126.69
  -3   7   1 1823.22  127.39
   7  -4   1 1958.40  127.39
   5   2  -1  369.96   24.60
   2  -7  -1  323.37   26.70
   2  -7  -1  378.06   25.50
  -7   5  -1  331.87   29.80
  -2   7   1  339.17   27.30
   7  -5   1  321.37   26.10
   7  -5   1  376.06   28.10
   6   1  -1 1335.57   92.19
   1  -7  -1 1311.87   92.39
  -7   6  -1 1351.26   95.69
   1  -7  -1 1377.46   93.39
  -1   7   1 1354.86   93.29
   7  -6   1 1384.76   94.39
   7  -6   1 1323.27   93.09
   0  -7  -1  488.15   33.90
   0  -7  -1  467.05   32.50
   7   0  -1  487.65   32.70
  -7   7  -1  520.05   38.10
   7  -7   1  443.46   33.70
   0   7   1  435.66   33.60
   7  -7   1  400.66   35.30
  -7   8  -1  116.59   16.20
  -1  -7  -1  112.89   11.40
   8  -1  -1   98.09    9.90
   7  -8   1  147.59   14.50
   1   7   1  123.69   11.70
   7  -8   1  105.49   11.00
   9  -2  -1  659.83   44.80
  -2  -7  -1  613.64   43.80
  -7   9  -1  644.54   47.90
   9  -2  -1  634.44   43.50
   2   7   1  588.54   43.40
   7  -9   1  651.73   43.90
   7  -9   1  613.94   45.90
   7  -9   1  509.95   43.50
  -3  -7  -1 2151.38  155.28
  -7  10  -1 2437.16  157.68
  10  -3  -1 2182.28  155.18
  10  -3  -1 2216.58  156.28
   3   7   1 2353.96  155.08
   7 -10   1 2142.39  156.68
   7 -10   1 2361.06  155.38
  11  -4  -1  403.96   34.10
  11  -4  -1  447.96   32.70
  -7  11  -1  403.76   36.30
   7 -11   1  407.26   31.90
   4   7   1  439.76   31.90
   7 -11   1  476.25   35.10
  12  -5  -1  561.74   40.20
  -7  12  -1  539.75   43.20
  12  -5  -1  551.94   42.20
   5   7   1  532.45   39.00
   7 -12   1  499.35   41.70
  -7  13  -1  834.92   59.59
  13  -6  -1  694.03   56.89
   7 -13   1  796.32   58.59
   6   7   1  838.12   56.19
  -7  14  -1  133.09   17.40
  14  -7  -1  133.19   15.20
   7 -14   1  117.49   16.80
   7   7   1  125.39   13.00
  15  -8  -1  246.58   24.20
  -7  15  -1  244.28   26.30
   7 -15   1  275.17   28.20
   8   7   1  312.57   23.80
  -6  14  -1  215.68   22.10
  14  -8  -1  188.98   19.70
  14  -8  -1  281.47   25.00
   6 -14   1  208.38   22.10
   8   6   1  194.48   19.40
  13  -8  -1  116.19   17.20
  13  -8  -1   99.89   13.10
  -5  13  -1   90.99   14.60
   5 -13   1  108.89   14.90
   8   5   1  106.99   11.30
  12  -8  -1   91.59   15.70
  -4  12  -1   82.59   14.10
  12  -8  -1  111.09   12.90
 -12   8   1  122.49   14.60
   4 -12   1  131.29   14.20
   8   4   1  104.59   11.00
  11  -8  -1  415.76   30.00
  -3  11  -1  384.66   28.20
  11  -8  -1  344.57   27.30
   3 -11   1  248.68   26.60
 -11   8   1  312.27   29.20
   8   3   1  324.77   25.40
  -2  10  -1 1322.87   88.49
  10  -8  -1 1174.88   89.69
 -10   8   1 1189.88   89.59
   8   2   1 1250.07   87.29
   2 -10   1 1340.87   88.09
  -1   9  -1  146.89   13.00
   9  -8  -1  108.59   14.00
   9  -8  -1  101.89   12.20
   8   1   1  126.29   12.10
   1  -9   1  117.59   12.60
   8   1   1  133.09   12.30
  -9   8   1  103.99   14.60
  -8   0  -1  441.76   34.50
   8  -8  -1  481.85   32.50
   0   8  -1  431.36   32.20
   8  -8  -1  382.76   34.20
   8   0   1  416.06   31.60
   8   0   1  435.46   32.20
   0  -8   1  448.06   31.70
  -8   8   1  430.36   35.70
  -8   1  -1  113.99   12.10
   7  -8  -1   77.29    9.90
   7  -8  -1   89.79   10.10
   7  -8  -1  120.09   12.70
   1   7  -1   88.49    9.50
   8  -1   1  137.79   13.00
  -7   8   1   99.89   13.70
   6  -8  -1  785.32   49.50
   2   6  -1  693.83   48.50
   6  -8  -1  745.63   50.99
  -8   2  -1  717.43   50.99
  -6   8   1  683.03   51.49
   8  -2   1  686.43   49.80
  -2  -6   1  677.63   48.30
   8  -2   1  604.54   49.00
   5  -8  -1  846.92   54.39
   3   5  -1  762.92   52.19
   5  -8  -1  768.92   53.19
  -8   3  -1  789.62   55.59
   8  -3   1  707.33   54.09
  -5   8   1  653.43   55.09
   4  -8  -1 1534.95  113.59
  -8   4  -1 1620.84  114.79
   4  -8  -1 1792.82  112.79
   4   4  -1 1661.83  111.89
   8  -4   1 1561.54  113.69
   8  -4   1 1674.93  112.99
  -4   8   1 1607.64  114.09
   5   3  -1  736.53   50.39
   3  -8  -1  686.13   51.19
   3  -8  -1  791.02   52.59
  -8   5  -1  671.83   54.29
  -3   8   1  705.03   52.89
   8  -5   1  715.43   51.79
   8  -5   1  821.12   53.39
   6   2  -1  707.33   48.60
   2  -8  -1  633.44   49.00
  -8   6  -1  669.13   52.89
   2  -8  -1  723.73   50.49
   8  -6   1  710.03   50.09
   8  -6   1  752.42   51.49
  -2   8   1  750.82   50.79
  -8   7  -1   92.79   15.70
   1  -8  -1  132.49   10.70
   1  -8  -1  143.39   13.00
   7   1  -1  132.89   10.50
  -1   8   1   96.59   11.70
   8  -7   1  101.59   14.00
  -8   8  -1  455.75   36.70
   0  -8  -1  418.06   31.60
   8   0  -1  442.76   30.50
   0  -8  -1  434.36   30.10
   8  -8   1  417.26   33.20
   0   8   1  435.66   31.90
   8  -8   1  380.96   31.50
   9  -1  -1  133.59   11.80
  -8   9  -1  147.99   17.70
  -1  -8  -1  132.49   12.80
   1   8   1  154.08   13.70
   8  -9   1  119.99   15.10
   8  -9   1  120.59   12.40
  -8  10  -1 1361.76   92.89
  -2  -8  -1 1316.77   90.19
  10  -2  -1 1142.79   89.59
   8 -10   1 1324.47   90.09
   8 -10   1 1309.57   91.99
   8 -10   1 1376.56   90.29
   2   8   1 1264.57   89.79
  -8  11  -1  349.96   31.50
  -3  -8  -1  301.47   26.80
  11  -3  -1  310.27   26.80
   3   8   1  370.46   26.60
   8 -11   1  403.66   27.20
   8 -11   1  352.66   30.20
  12  -4  -1  124.29   12.30
  -8  12  -1  120.29   16.20
   8 -12   1   94.29   15.10
   8 -12   1   86.39   11.10
   4   8   1   91.19   10.80
  13  -5  -1   88.79   12.00
  -8  13  -1  136.69   16.40
   8 -13   1   86.89   15.30
   5   8   1   92.49   11.00
  -8  14  -1  215.58   23.00
  14  -6  -1  240.28   22.60
   8 -14   1  244.68   24.60
   6   8   1  207.38   20.30
  15  -7  -1  307.67   26.70
  -8  15  -1  301.07   27.50
   7   8   1  281.87   23.90
   8 -15   1  221.38   25.80
  16  -8  -1 1163.38   80.39
  -8  16  -1 1109.59   82.19
   8 -16   1 1100.39   81.79
   8   8   1 1069.59   78.39
  17  -9  -1   65.69   14.30
  -8  17  -1   42.70   15.60
   9   8   1   81.49   12.00
   8 -17   1   66.79   16.20
  16  -9  -1  841.52   62.89
  -7  16  -1  824.52   64.39
   7 -16   1  858.11   63.79
   9   7   1  843.82   60.79
  15  -9  -1   15.70   10.80
  -6  15  -1   17.30   13.20
   6 -15   1   15.50   12.20
   9   6   1   13.00    8.40
  14  -9  -1  230.48   22.60
  14  -9  -1  205.08   24.80
  -5  14  -1  249.08   24.30
   9   5   1  280.67   22.20
   5 -14   1  296.57   25.80
  13  -9  -1  770.52   48.90
  13  -9  -1  631.74   51.09
  -4  13  -1  671.93   49.90
   4 -13   1  581.64   48.30
   9   4   1  628.94   46.90
  12  -9  -1  317.97   27.80
  12  -9  -1  261.47   30.00
  -3  12  -1  339.77   29.00
   9   3   1  335.27   25.80
 -12   9   1  403.86   30.30
   3 -12   1  327.07   27.30
  11  -9  -1  215.68   20.20
  -2  11  -1  192.18   18.60
  11  -9  -1  212.68   21.60
   2 -11   1  195.08   18.80
   9   2   1  208.28   17.90
 -11   9   1  201.28   20.60
  10  -9  -1 1367.76   99.19
  -1  10  -1 1414.86   97.39
  10  -9  -1 1571.44   97.79
 -10   9   1 1474.85   99.49
   9   1   1 1262.97   96.59
   1 -10   1 1330.87   96.99
   9  -9  -1    6.80    7.20
   9  -9  -1   13.60   10.20
   0   9  -1   21.90    7.20
   9  -9  -1   11.30    7.00
   9   0   1   14.70    7.10
  -9   9   1   33.60   11.20
   0  -9   1   21.50    6.30
   9   0   1   13.50    6.00
   8  -9  -1  126.99   12.60
   8  -9  -1  111.69   12.20
   8  -9  -1  104.39   14.30
   1   8  -1  114.29   11.70
  -1  -8   1  124.89   11.90
   9  -1   1  159.88   13.40
   9  -1   1  131.39   13.10
  -8   9   1  163.68   17.00
   7  -9  -1  748.13   46.40
   7  -9  -1  577.44   43.80
  -9   2  -1  695.03   45.70
   2   7  -1  622.44   43.10
  -7   9   1  490.45   46.10
  -2  -7   1  609.74   42.80
   9  -2   1  621.74   44.80
   9  -2   1  538.45   43.60
   3   6  -1 1079.59   73.29
   6  -9  -1 1044.00   75.29
   6  -9  -1 1093.29   74.29
  -9   3  -1 1076.49   75.99
  -6   9   1 1082.29   76.49
   9  -3   1 1082.89   74.29
  -3  -6   1 1114.09   73.39
   9  -3   1  930.11   74.99
   5  -9  -1  825.72   56.59
   4   5  -1  771.92   53.79
  -9   4  -1  733.03   57.39
   5  -9  -1  863.71   54.99
   9  -4   1  756.32   55.19
  -5   9   1  744.43   57.19
   9  -4   1  749.53   56.19
   5   4  -1  731.53   52.59
   4  -9  -1  736.93   54.89
   4  -9  -1  733.53   53.39
  -9   5  -1  787.82   56.89
   9  -5   1  832.42   55.59
  -4   9   1  806.92   55.79
   9  -5   1  756.62   54.09
   3  -9  -1 1051.19   75.29
  -9   6  -1 1265.27   78.89
   3  -9  -1 1126.49   76.69
   6   3  -1 1108.59   74.69
   9  -6   1  896.21   75.79
   9  -6   1 1141.99   77.29
  -3   9   1 1100.99   76.99
  -9   7  -1  585.44   48.80
   7   2  -1  583.24   43.80
   2  -9  -1  568.44   44.20
   2  -9  -1  697.43   45.90
   9  -7   1  690.63   47.50
   9  -7   1  650.33   45.50
  -2   9   1  676.13   46.20
   1  -9  -1  138.39   13.80
  -9   8  -1  124.79   17.10
   8   1  -1  142.09   11.30
   9  -8   1   93.69   11.90
  -1   9   1  123.99   12.60
   9  -8   1  108.49   15.40
  -9   9  -1   13.10   12.00
   9   0  -1   16.30    5.30
   0  -9  -1   23.90    7.30
   9  -9   1   12.20    7.20
   9  -9   1   25.40    9.70
   0   9   1   22.00    7.60
  -1  -9  -1 1297.87   93.99
  10  -1  -1 1350.26   93.49
  -9  10  -1 1346.77   96.59
   1   9   1 1425.66   93.99
   9 -10   1 1429.16   94.19
   9 -10   1 1243.98   95.89
  -9  11  -1  262.97   22.40
  11  -2  -1  208.48   18.30
  -2  -9  -1  161.68   18.10
   9 -11   1  228.38   18.90
   9 -11   1  211.78   18.90
   2   9   1  170.18   18.20
   9 -11   1  226.08   21.70
  -9  12  -1  377.26   32.30
  12  -3  -1  370.76   27.80
  -3  -9  -1  299.27   27.20
   9 -12   1  367.76   31.30
   9 -12   1  352.26   27.50
   3   9   1  335.97   27.00
  -9  13  -1  606.04   50.69
  13  -4  -1  624.44   47.80
   9 -13   1  710.53   50.99
   9 -13   1  627.04   47.70
   4   9   1  669.03   47.10
  14  -5  -1  256.97   23.30
  -9  14  -1  315.77   25.90
   5   9   1  233.58   21.80
   9 -14   1  206.88   24.60
  -9  15  -1   16.30   14.40
  15  -6  -1    1.30    9.10
   9 -15   1    7.40   12.40
   6   9   1    3.60    8.10
  -9  16  -1  875.11   63.69
  16  -7  -1  815.72   61.09
   7   9   1  830.32   59.29
   9 -16   1  766.32   63.39
  17  -8  -1   99.09   15.40
  -9  17  -1   70.99   17.70
   8   9   1   79.19   12.60
   9 -17   1   95.49   18.20
  18  -9  -1  395.66   37.60
  -9  18  -1  402.86   40.20
   9   9   1  408.16   34.10
   9 -18   1  433.36   39.00
  -9  19  -1   21.60   16.30
  19 -10  -1   24.70   14.30
  10   9   1   22.00   11.20
   9 -19   1    0.20   15.80
  18 -10  -1  149.49   20.10
  -8  18  -1  191.48   22.60
  10   8   1  172.28   17.50
   8 -18   1  149.79   21.60
  -7  17  -1   66.09   16.20
  17 -10  -1   80.09   14.80
  10   7   1   63.79   11.80
   7 -17   1   59.59   15.30
  16 -10  -1  338.77   27.90
  -6  16  -1  264.57   25.80
   6 -16   1  213.28   24.70
  10   6   1  257.17   23.70
  15 -10  -1  144.69   17.80
  15 -10  -1  162.48   21.30
  -5  15  -1  162.88   19.30
  10   5   1  166.38   15.70
   5 -15   1  159.78   18.40
  14 -10  -1  410.06   38.40
  14 -10  -1  440.36   35.10
  -4  14  -1  433.96   36.20
  10   4   1  433.26   33.30
   4 -14   1  426.16   35.30
  -3  13  -1  551.54   41.70
  13 -10  -1  588.74   44.30
  13 -10  -1  551.44   41.10
  10   3   1  496.85   39.10
   3 -13   1  495.95   40.50
 -13  10   1  523.85   42.50
  12 -10  -1  271.47   27.00
  -2  12  -1  232.18   22.20
  12 -10  -1  233.48   23.50
 -12  10   1  284.87   24.70
   2 -12   1  266.87   22.40
  10   2   1  237.38   21.40
  11 -10  -1  594.34   45.90
  -1  11  -1  562.24   45.90
  11 -10  -1  667.23   48.90
  10   1   1  633.04   45.00
 -11  10   1  725.13   48.80
   1 -11   1  591.04   45.20
  10 -10  -1   13.50   10.30
  10 -10  -1   19.10    8.20
   0  10  -1   22.60    7.70
  10 -10  -1   10.50    7.70
   0 -10   1   12.40    6.80
 -10  10   1   38.90   12.00
  10   0   1   12.90    6.90
   9 -10  -1 1247.08   95.49
   9 -10  -1 1316.27   93.69
   9 -10  -1 1232.08   93.59
   1   9  -1 1319.67   92.99
  10  -1   1 1259.47   93.79
  -9  10   1 1528.75   96.19
  10  -1   1 1480.15   93.39
  -1  -9   1 1385.86   92.89
   2   8  -1 1269.97   86.69
   8 -10  -1 1209.78   87.49
   8 -10  -1 1271.37   89.29
  -8  10   1 1249.47   89.99
  10  -2   1 1230.98   87.29
  -2  -8   1 1256.27   86.59
  10  -2   1 1283.37   88.19
   7 -10  -1 2472.05  160.08
 -10   3  -1 2191.28  159.28
   3   7  -1 2120.39  157.48
   7 -10  -1 2263.87  158.48
  -7  10   1 2514.35  160.78
  10  -3   1 2305.47  159.38
  10  -3   1 2271.07  158.48
  -3  -7   1 2353.06  157.68
 -10   4  -1  478.55   39.90
   6 -10  -1  500.65   37.60
   6 -10  -1  629.34   40.10
   4   6  -1  496.05   36.30
  10  -4   1  524.85   39.20
  -6  10   1  578.04   41.30
  10  -4   1  463.35   37.90
   5 -10  -1 3124.09  202.78
   5   5  -1 2919.51  200.48
   5 -10  -1 2847.52  201.18
 -10   5  -1 2877.31  202.98
  10  -5   1 2803.82  201.58
  -5  10   1 2922.91  202.78
  10  -5   1 3093.29  202.88
   6   4  -1  544.15   36.40
   4 -10  -1  484.85   37.10
 -10   6  -1  591.94   41.80
   4 -10  -1  510.05   39.10
  -4  10   1  489.85   40.00
  10  -6   1  507.25   39.90
   3 -10  -1 2158.98  155.18
 -10   7  -1 2514.65  158.28
   7   3  -1 2291.17  154.78
   3 -10  -1 2308.67  156.58
  10  -7   1 2293.97  157.48
  10  -7   1 2041.20  155.98
  -3  10   1 2306.17  156.78
   2 -10  -1 1195.38   86.29
   8   2  -1 1200.38   84.69
 -10   8  -1 1250.47   88.39
  10  -8   1 1313.37   86.19
  -2  10   1 1275.07   86.59
  10  -8   1 1157.38   87.69
 -10   9  -1 1376.76   99.79
   1 -10  -1 1623.04   97.99
   9   1  -1 1469.15   96.39
  -1  10   1 1287.87   97.49
  10  -9   1 1246.68   98.79
  10  -9   1 1356.06   97.49
 -10  10  -1   27.60   12.60
   0 -10  -1    6.60    7.20
  10   0  -1   18.90    6.10
  10 -10   1   20.30    7.90
  10 -10   1   13.70   11.10
   0  10   1    8.70    7.80
 -10  11  -1  674.23   48.60
  -1 -10  -1  610.04   44.30
  11  -1  -1  616.84   43.80
  10 -11   1  540.15   44.30
  10 -11   1  624.24   44.60
   1  10   1  548.35   44.10
  10 -11   1  648.84   47.70
  -2 -10  -1  243.28   20.70
 -10  12  -1  241.28   24.00
  12  -2  -1  266.27   20.90
  10 -12   1  208.78   21.20
   2  10   1  210.98   20.90
  10 -12   1  249.68   21.30
  10 -12   1  210.78   23.30
  -3 -10  -1  563.54   39.90
  13  -3  -1  570.64   39.90
 -10  13  -1  574.94   43.90
   3  10   1  486.05   39.50
  10 -13   1  526.15   40.10
  10 -13   1  446.46   43.00
  14  -4  -1  440.56   35.70
 -10  14  -1  444.86   40.30
  10 -14   1  517.65   40.00
   4  10   1  427.66   35.00
  15  -5  -1  145.09   16.50
 -10  15  -1  141.39   20.50
   5  10   1  154.58   15.50
  10 -15   1  169.48   20.60
 -10  16  -1  259.47   28.40
  16  -6  -1  235.68   24.50
  10 -16   1  311.17   30.80
   6  10   1  314.67   25.20
  17  -7  -1   85.79   14.80
 -10  17  -1   69.79   17.80
  10 -17   1   70.79   17.60
   7  10   1   57.69   11.80
 -10  18  -1  163.68   24.00
  18  -8  -1  189.08   21.40
   8  10   1  181.28   18.90
  10 -18   1  191.48   24.70
 -10  19  -1   -3.00   16.10
  19  -9  -1   19.30   14.00
  10 -19   1   18.80   17.20
   9  10   1   27.40   11.40
 -10  20  -1  -17.50   17.60
  20 -10  -1    6.50   15.00
  10  10   1    6.60   11.60
  10 -20   1    9.20   17.10
  20 -11  -1   58.39   17.00
  -9  20  -1   23.50   17.60
   9 -20   1   17.70   16.90
  11   9   1   18.30   12.20
  -8  19  -1   60.39   18.00
  19 -11  -1   72.49   16.40
  11   8   1   42.00   12.20
   8 -19   1   22.30   15.90
  -7  18  -1   50.29   16.70
  18 -11  -1   28.40   14.50
  11   7   1   27.60   11.10
   7 -18   1   33.20   15.10
  -6  17  -1  150.38   20.40
  17 -11  -1  130.39   18.80
   6 -17   1  140.59   19.40
  11   6   1  153.28   16.10
  16 -11  -1  334.97   30.10
  16 -11  -1  326.87   33.10
  -5  16  -1  286.37   27.30
  11   5   1  272.07   26.20
   5 -16   1  271.47   29.10
  15 -11  -1  354.76   31.60
  -4  15  -1  317.27   32.30
  15 -11  -1  337.77   35.20
   4 -15   1  344.17   31.10
  11   4   1  390.16   28.90
  14 -11  -1  101.39   18.70
  14 -11  -1  103.19   15.30
  -3  14  -1   83.39   15.10
   3 -14   1  134.89   15.30
  11   3   1  168.68   14.10
  -2  13  -1   58.49   11.50
  13 -11  -1   64.19   15.80
  13 -11  -1   44.50   11.30
   2 -13   1   67.99   10.90
 -13  11   1   75.69   14.50
  11   2   1   39.70    9.40
  12 -11  -1  246.38   26.30
  12 -11  -1  230.78   23.60
  -1  12  -1  277.87   23.90
  12 -11  -1  244.98   23.80
 -12  11   1  313.57   26.40
   1 -12   1  266.47   22.90
  11   1   1  244.58   22.50
   0  11  -1  300.97   26.10
  11 -11  -1  284.37   30.70
  11 -11  -1  284.47   27.10
  11 -11  -1  329.37   27.30
  11   0   1  311.37   25.60
   0 -11   1  332.07   25.60
 -11  11   1  413.56   32.10
   1  10  -1  583.04   42.30
  10 -11  -1  565.04   43.20
  10 -11  -1  576.34   46.10
  11  -1   1  587.74   42.50
  -1 -10   1  580.44   41.70
   2   9  -1  187.88   16.60
   9 -11  -1  143.29   18.50
   9 -11  -1  165.88   16.70
  11  -2   1  208.78   18.10
  -9  11   1  173.78   20.50
  -2  -9   1  209.18   16.10
  11  -2   1  195.38   19.70
   8 -11  -1  306.07   29.50
   8 -11  -1  282.77   26.50
   3   8  -1  291.77   25.20
  11  -3   1  344.97   28.70
  -8  11   1  373.66   31.20
  11  -3   1  401.36   27.20
  -3  -8   1  380.36   25.30
   7 -11  -1  429.56   30.90
   4   7  -1  408.86   29.20
   7 -11  -1  346.07   33.00
 -11   4  -1  395.86   33.40
  -7  11   1  386.86   34.30
  11  -4   1  444.56   32.80
  11  -4   1  399.96   31.20
   5   6  -1  470.05   33.10
   6 -11  -1  488.15   37.00
   6 -11  -1  445.66   34.40
 -11   5  -1  437.06   37.10
  -6  11   1  488.75   38.60
  11  -5   1  485.35   35.20
  11  -5   1  452.05   36.80
   5 -11  -1  530.25   36.10
 -11   6  -1  483.95   39.70
   6   5  -1  475.15   35.00
   5 -11  -1  527.75   38.60
  11  -6   1  487.55   38.90
  -5  11   1  462.25   38.90
   4 -11  -1  431.66   30.00
   4 -11  -1  350.36   32.10
 -11   7  -1  476.35   35.20
   7   4  -1  421.86   29.20
  -4  11   1  403.26   33.60
  11  -7   1  409.46   33.80
  11  -7   1  360.36   31.50
   8   3  -1  348.37   24.80
   3 -11  -1  330.57   28.10
 -11   8  -1  389.96   31.80
  11  -8   1  304.07   27.20
  11  -8   1  352.96   30.20
  -3  11   1  307.07   28.80
   2 -11  -1  191.68   19.00
   9   2  -1  197.88   16.00
 -11   9  -1  280.57   22.60
  -2  11   1  177.58   18.00
  11  -9   1  172.08   17.60
  11  -9   1  169.48   19.60
  10   1  -1  588.84   42.60
   1 -11  -1  607.94   44.50
 -11  10  -1  559.64   47.50
  11 -10   1  630.94   44.30
  -1  11   1  646.54   44.70
  11 -10   1  515.25   46.50
   0 -11  -1  259.97   25.10
 -11  11  -1  333.57   30.10
  11   0  -1  308.47   24.10
  11 -11   1  331.77   30.30
  11 -11   1  325.07   25.60
   0  11   1  279.97   25.30
  12  -1  -1  258.77   22.30
 -11  12  -1  266.57   25.70
  -1 -11  -1  261.57   22.80
  11 -12   1  271.07   23.60
   1  11   1  307.97   23.20
  11 -12   1  281.97   28.30
  11 -12   1  198.48   21.60
 -11  13  -1   68.69   15.50
  13  -2  -1   55.79   10.10
  -2 -11  -1   64.39   10.40
  11 -13   1   45.50   14.90
   2  11   1   67.29   10.40
  11 -13   1   64.19   10.70
 -11  14  -1  164.58   19.60
  -3 -11  -1  164.48   15.10
  14  -3  -1  147.09   14.70
   3  11   1  112.69   13.90
  11 -14   1   77.39   17.60
  11 -14   1  111.29   14.80
  15  -4  -1  358.46   30.40
 -11  15  -1  362.76   32.80
   4  11   1  346.07   29.50
  11 -15   1  337.97   34.70
 -11  16  -1  321.57   30.40
  16  -5  -1  278.77   28.20
   5  11   1  295.97   26.20
  11 -16   1  288.07   30.00
 -11  17  -1   88.19   20.00
  17  -6  -1  167.88   18.00
   6  11   1  121.29   15.30
  11 -17   1  164.18   22.30
 -11  18  -1   29.00   16.90
  18  -7  -1   31.60   13.60
   7  11   1   41.40   11.60
  11 -18   1   60.99   18.10
  19  -8  -1   43.70   15.20
 -11  19  -1   17.70   17.30
  11 -19   1   59.39   19.40
   8  11   1   45.30   12.30
 -11  20  -1   62.79   20.00
  20  -9  -1   19.80   15.40
  11 -20   1   17.40   18.00
   9  11   1   35.60   12.40
  -8  20  -1  179.48   23.20
  20 -12  -1  117.09   21.20
   8 -20   1  155.48   22.20
  12   8   1  155.38   18.20
  -7  19  -1   24.40   16.30
  19 -12  -1    1.70   14.70
  12   7   1   40.10   12.00
   7 -19   1   19.20   14.90
  -6  18  -1   15.10   15.50
  18 -12  -1   20.60   14.50
   6 -18   1   21.70   13.90
  12   6   1   47.80   11.60
  -5  17  -1  326.37   29.10
  17 -12  -1  293.17   28.10
  12   5   1  273.57   26.70
   5 -17   1  304.57   29.90
  16 -12  -1  123.59   21.70
  -4  16  -1  122.79   17.70
  16 -12  -1  114.09   17.00
   4 -16   1  136.09   17.00
  12   4   1  131.19   14.70
  -3  15  -1   38.90   12.40
  15 -12  -1   24.40   15.50
  15 -12  -1   22.90   12.00
  12   3   1   23.60    9.40
   3 -15   1   17.00   11.00
  -2  14  -1  293.47   26.60
  14 -12  -1  261.57   24.50
  14 -12  -1  227.78   27.50
  14 -12  -1  242.58   24.00
  12   2   1  286.87   24.20
 -14  12   1  271.47   26.00
   2 -14   1  282.37   24.60
  13 -12  -1  444.66   42.10
  13 -12  -1  439.16   40.00
  -1  13  -1  532.65   39.90
  13 -12  -1  483.35   40.30
  12   1   1  508.85   38.70
   1 -13   1  540.35   39.00
 -13  12   1  641.34   43.60
  12 -12  -1    5.30   13.50
  12 -12  -1   11.00    9.40
  12 -12  -1   19.90    9.60
   0  12  -1   -6.60    8.50
  12   0   1   16.90    8.30
   0 -12   1    5.30    7.60
 -12  12   1   16.60   13.40
  11 -12  -1  274.07   28.90
  11 -12  -1  289.87   24.60
   1  11  -1  245.88   23.30
 -11  12   1  348.67   30.50
  -1 -11   1  275.57   22.30
  12  -1   1  253.27   23.80
  10 -12  -1  243.18   25.00
  10 -12  -1  254.97   22.70
   2  10  -1  255.77   21.00
  -2 -10   1  252.37   20.40
 -10  12   1  291.67   26.20
  12  -2   1  215.08   22.30
   9 -12  -1  366.76   27.70
   9 -12  -1  344.47   30.70
   3   9  -1  328.07   25.50
  12  -3   1  320.97   27.30
  -3  -9   1  318.87   25.20
  -9  12   1  349.67   32.70
   8 -12  -1  102.59   15.10
   4   8  -1  110.49   10.10
   8 -12  -1  116.89   12.10
  12  -4   1   74.69   11.60
  -8  12   1   95.39   16.00
  12  -4   1  104.89   14.50
   5   7  -1  557.44   38.40
   7 -12  -1  553.94   39.70
   7 -12  -1  434.46   41.90
  12  -5   1  560.14   40.50
  -7  12   1  602.34   44.10
  12  -5   1  534.05   42.10
   6   6  -1  624.04   41.70
   6 -12  -1  596.54   42.90
   6 -12  -1  541.05   45.20
 -12   6  -1  597.24   45.30
  -6  12   1  628.44   46.60
  12  -6   1  555.14   45.30
  12  -6   1  580.74   44.10
   7   5  -1  560.24   39.40
 -12   7  -1  586.94   43.70
   5 -12  -1  616.14   43.10
  12  -7   1  534.55   42.90
  -5  12   1  553.94   43.50
  12  -7   1  494.05   41.60
 -12   8  -1  106.59   15.70
   4 -12  -1   86.99   13.50
   8   4  -1   93.69    9.70
  -4  12   1  114.19   14.80
  12  -8   1  139.69   17.00
  12  -8   1  140.99   13.90
 -12   9  -1  344.37   31.30
   3 -12  -1  331.37   28.40
   9   3  -1  315.57   24.80
  12  -9   1  316.77   29.50
  12  -9   1  357.76   28.30
  -3  12   1  334.77   29.10
 -12  10  -1  261.27   25.50
  10   2  -1  254.07   21.30
   2 -12  -1  278.97   24.60
  12 -10   1  275.97   24.30
  12 -10   1  271.77   28.10
  -2  12   1  263.17   25.30
   1 -12  -1  295.87   25.50
  11   1  -1  265.87   23.10
 -12  11  -1  340.87   30.40
  12 -11   1  273.37   25.90
  -1  12   1  275.97   26.10
  12 -11   1  303.17   29.80
 -12  12  -1   14.10   12.70
   0 -12  -1    8.10    8.70
  12   0  -1    8.00    7.40
  12 -12   1   21.00   12.40
   0  12   1   11.60    9.20
  12 -12   1    0.50    8.90
 -12  13  -1  587.24   43.30
  13  -1  -1  488.55   37.60
  -1 -12  -1  546.95   38.40
  12 -13   1  443.36   38.60
   1  12   1  496.85   38.50
  12 -13   1  476.75   38.70
  12 -13   1  446.06   42.50
  -2 -12  -1  255.87   23.90
 -12  14  -1  280.27   27.40
  14  -2  -1  253.97   24.40
  12 -14   1  237.28   27.80
   2  12   1  285.07   24.70
  12 -14   1  303.77   25.30
 -12  15  -1   18.90   15.30
  15  -3  -1   24.00   10.40
  -3 -12  -1   40.10   10.20
  12 -15   1   27.00   16.00
   3  12   1   36.40   10.50
  16  -4  -1   89.99   15.00
 -12  16  -1  117.19   19.90
  12 -16   1  140.19   21.00
   4  12   1  141.79   15.20
 -12  17  -1  346.27   31.50
  17  -5  -1  295.17   26.80
  12 -17   1  276.37   30.00
   5  12   1  282.07   27.50
  18  -6  -1   39.10   13.60
 -12  18  -1   41.00   17.90
  12 -18   1   27.40   18.30
   6  12   1   44.40   12.00
 -12  19  -1   38.70   18.10
  19  -7  -1   54.59   15.20
  12 -19   1   -3.60   18.40
   7  12   1   10.50   11.30
  20  -8  -1  143.39   21.10
 -12  20  -1  179.08   25.20
   8  12   1  180.28   18.80
  12 -20   1  126.89   24.40
  -7  20  -1    1.20   16.30
  20 -13  -1  -25.40   14.50
  13   7   1   14.50   12.50
   7 -20   1   14.40   15.70
  19 -13  -1  113.09   18.10
  -6  19  -1   76.09   18.10
   6 -19   1   94.89   17.70
  13   6   1   66.89   14.20
  -5  18  -1  175.78   21.20
  18 -13  -1  190.68   21.30
  13   5   1  126.99   16.90
   5 -18   1  152.08   19.90
  -4  17  -1   61.69   15.30
  17 -13  -1   64.79   19.50
  17 -13  -1   56.89   14.60
   4 -17   1   35.10   13.30
  13   4   1   53.79   11.90
  -3  16  -1  433.66   37.70
  16 -13  -1  436.66   37.40
  16 -13  -1  434.56   41.60
  16 -13  -1  415.76   37.70
  13   3   1  415.26   35.00
   3 -16   1  446.96   35.90
  15 -13  -1   79.29   14.30
  15 -13  -1  103.39   19.60
  -2  15  -1   49.10   13.30
  15 -13  -1   75.69   14.50
   2 -15   1   82.99   12.80
  13   2   1   70.49   12.00
  14 -13  -1   79.29   13.60
  14 -13  -1   49.20   13.20
  14 -13  -1   97.49   18.80
  -1  14  -1   76.39   13.00
 -14  13   1   79.89   15.70
   1 -14   1   77.39   11.80
  13   1   1   87.99   12.10
  13 -13  -1  271.27   29.00
   0  13  -1  260.67   25.20
  13 -13  -1  289.07   26.30
 -13  13   1  327.07   30.00
   0 -13   1  282.57   24.20
  13   0   1  261.07   24.70
   1  12  -1  521.65   37.90
  12 -13  -1  499.95   42.60
  12 -13  -1  489.45   38.90
 -12  13   1  589.74   43.40
  -1 -12   1  456.15   36.90
  13  -1   1  481.05   38.00
   2  11  -1   43.20    9.30
  11 -13  -1   71.09   16.10
  11 -13  -1   47.60   10.70
  -2 -11   1   64.89    8.90
 -11  13   1   71.69   15.30
  13  -2   1   52.39   10.50
  10 -13  -1  588.44   43.00
   3  10  -1  527.35   37.80
  10 -13  -1  504.45   39.50
  13  -3   1  469.65   39.40
 -10  13   1  573.74   43.60
  -3 -10   1  487.75   37.50
   9 -13  -1  597.34   48.10
   4   9  -1  620.94   44.50
   9 -13  -1  582.54   46.00
  13  -4   1  654.53   46.40
  -9  13   1  676.43   50.29
   8 -13  -1   71.69   14.80
   5   8  -1   93.79    9.60
   8 -13  -1  122.69   12.10
  13  -5   1   85.29   14.30
  -8  13   1   88.69   16.00
  13  -5   1   90.19   12.10
   6   7  -1  773.12   54.79
   7 -13  -1  838.22   57.29
   7 -13  -1  771.22   58.89
  13  -6   1  685.83   58.09
  -7  13   1  879.41   59.79
  13  -6   1  777.22   57.09
   6 -13  -1  848.12   58.29
   7   6  -1  836.82   54.49
  -6  13   1  819.12   59.09
  13  -7   1  624.44   56.09
  13  -7   1  757.02   58.49
   8   5  -1  104.59   10.10
 -13   8  -1  106.49   15.10
   5 -13  -1  110.29   15.00
  13  -8   1  130.99   17.40
  13  -8   1   79.99   13.00
  -5  13   1   93.89   15.60
   9   4  -1  662.93   45.10
 -13   9  -1  629.64   49.40
   4 -13  -1  579.54   47.80
  13  -9   1  667.33   50.39
  -4  13   1  619.64   48.90
 -13  10  -1  463.35   42.20
   3 -13  -1  537.55   40.30
  10   3  -1  493.95   37.40
  -3  13   1  517.85   40.80
  13 -10   1  558.04   43.50
  13 -10   1  522.65   39.90
  11   2  -1   57.19    8.30
 -13  11  -1   49.50   14.20
   2 -13  -1   43.80   11.40
  13 -11   1   30.50   10.70
  -2  13   1   52.99   12.00
  13 -11   1   63.49   15.30
 -13  12  -1  558.04   43.50
   1 -13  -1  455.25   38.90
  12   1  -1  488.25   37.50
  -1  13   1  523.85   39.60
  13 -12   1  493.45   43.30
  13 -12   1  542.05   39.70
 -13  13  -1  265.47   26.60
  13   0  -1  270.07   23.50
   0 -13  -1  237.08   24.30
  13 -13   1  273.07   25.70
   0  13   1  258.97   25.30
  13 -13   1  243.08   23.60
  13 -13   1  334.57   29.90
  -1 -13  -1   76.59   12.50
  14  -1  -1   70.59   11.70
 -13  14  -1   86.99   17.00
  13 -14   1   86.59   17.80
   1  13   1   48.60   12.10
  13 -14   1   81.79   12.80
  13 -14   1  104.19   13.20
  -2 -13  -1   74.89   12.80
 -13  15  -1   98.89   18.50
  15  -2  -1   99.09   13.00
   2  13   1   59.29   12.50
  13 -15   1   50.19   18.00
  16  -3  -1  500.75   40.40
 -13  16  -1  509.05   46.70
   3  13   1  506.35   40.00
  13 -16   1  498.45   45.30
 -13  17  -1   79.39   19.50
  17  -4  -1   64.19   13.90
  13 -17   1   89.89   19.80
   4  13   1   76.79   13.40
 -13  18  -1  154.88   23.30
  18  -5  -1  147.39   19.00
   5  13   1  164.88   18.00
  13 -18   1  179.78   24.80
  19  -6  -1   97.29   17.00
 -13  19  -1   89.29   20.60
   6  13   1   83.39   14.20
  13 -19   1   60.79   22.00
 -13  20  -1   21.30   18.40
  20  -7  -1   20.40   15.70
  13 -20   1   11.40   19.50
   7  13   1   32.00   13.20
  20 -14  -1   73.39   19.10
  -6  20  -1  108.49   19.90
  20 -14  -1  108.29   19.60
  14   6   1  131.39   16.60
   6 -20   1  101.89   18.90
  19 -14  -1   22.10   15.50
  -5  19  -1  -12.70   15.20
  19 -14  -1   16.60   14.80
   5 -19   1   24.40   14.60
  14   5   1   16.50   12.10
  18 -14  -1   27.80   14.80
  18 -14  -1   27.80   15.00
  -4  18  -1   39.50   15.10
  14   4   1   46.60   12.50
   4 -18   1   49.60   14.10
  -3  17  -1   87.79   16.20
  17 -14  -1  111.69   17.40
  17 -14  -1   71.19   20.20
  17 -14  -1   77.49   16.50
   3 -17   1   96.49   15.10
  14   3   1   98.89   14.10
  16 -14  -1  865.41   68.29
  16 -14  -1  858.61   65.09
  16 -14  -1  835.02   64.29
  -2  16  -1  914.81   64.09
  14   2   1  826.22   62.79
   2 -16   1  853.61   62.99
  -1  15  -1   51.69   12.60
  15 -14  -1   53.39   13.70
  15 -14  -1   65.79   13.70
  15 -14  -1   38.90   18.30
  14   1   1   43.90   11.30
 -15  14   1   73.19   16.30
   1 -15   1   57.49   11.20
   0  14  -1   27.20   10.80
  14 -14  -1    8.50   11.10
  14 -14  -1   -0.40   15.70
  14   0   1   -2.50    9.60
   0 -14   1    3.90    8.70
 -14  14   1   25.40   14.80
  13 -14  -1   89.29   18.10
   1  13  -1   72.09   11.90
  13 -14  -1   67.59   13.20
  14  -1   1   74.99   12.40
 -13  14   1   82.29   16.60
  -1 -13   1   77.09   11.00
  12 -14  -1  263.77   27.60
   2  12  -1  277.97   23.70
  12 -14  -1  249.78   25.10
 -12  14   1  325.47   28.60
  -2 -12   1  259.97   22.50
  14  -2   1  258.87   24.90
  11 -14  -1  138.49   15.40
  11 -14  -1  175.48   20.50
   3  11  -1  158.88   13.60
  14  -3   1   88.09   14.30
 -11  14   1   99.79   18.10
   4  10  -1  438.56   33.10
  10 -14  -1  443.96   35.00
  10 -14  -1  376.06   38.20
 -10  14   1  449.76   39.10
  14  -4   1  481.85   35.40
   9 -14  -1  275.87   28.70
   5   9  -1  279.87   21.60
   9 -14  -1  287.87   23.70
  -9  14   1  199.28   25.50
  14  -5   1  250.57   24.70
   6   8  -1  196.78   18.20
   8 -14  -1  210.68   23.60
  -8  14   1  267.37   24.40
  14  -6   1  199.48   20.10
  14  -6   1  249.08   24.00
   7   7  -1  122.09   11.90
   7 -14  -1  134.59   18.20
  14  -7   1  132.29   15.20
  -7  14   1  145.09   18.30
  14  -7   1  139.79   18.60
   6 -14  -1  258.07   24.60
   8   6  -1  211.28   18.70
  -6  14   1  198.98   22.60
  14  -8   1  258.37   24.90
  14  -8   1  204.08   20.70
   5 -14  -1  182.58   22.60
   9   5  -1  210.28   20.00
 -14   9  -1  247.08   25.10
  14  -9   1  347.67   28.60
  14  -9   1  290.07   24.30
  -5  14   1  335.67   27.50
   4 -14  -1  386.86   35.30
 -14  10  -1  447.56   36.70
  10   4  -1  433.56   31.30
  14 -10   1  372.56   37.40
  -4  14   1  430.46   35.90
  14 -10   1  412.46   34.20
 -14  11  -1  114.19   17.60
   3 -14  -1  131.59   16.10
  11   3  -1   91.29   11.90
  -3  14   1  149.79   17.20
  14 -11   1  159.88   19.50
  14 -11   1  114.29   15.00
  12   2  -1  261.37   22.70
   2 -14  -1  232.48   25.40
 -14  12  -1  286.37   26.50
  14 -12   1  280.87   27.90
  -2  14   1  248.78   24.00
  14 -12   1  276.37   26.40
  13   1  -1   81.69   11.10
   1 -14  -1   76.29   13.10
 -14  13  -1   86.39   16.70
  14 -13   1   52.39   13.00
  -1  14   1   71.69   13.10
  14 -13   1   77.49   18.10
 -14  14  -1   24.50   14.90
  14   0  -1    4.20    9.00
   0 -14  -1    5.60   10.30
  14 -14   1    3.60   15.40
  14 -14   1   15.40   10.80
  14 -14   1    4.10   11.00
   0  14   1    6.00   10.70
 -14  15  -1   94.19   17.90
  15  -1  -1   55.29   11.20
  -1 -14  -1   37.80   11.40
  14 -15   1   48.00   16.40
   1  14   1   36.10   11.80
  14 -15   1   44.20   12.30
 -14  16  -1 1019.20   69.99
  16  -2  -1  855.61   64.79
  -2 -14  -1  849.22   64.59
   2  14   1  892.31   64.99
  14 -16   1  848.22   69.79
  17  -3  -1   86.99   15.00
 -14  17  -1   89.09   20.00
  14 -17   1   89.39   21.10
   3  14   1   88.19   14.50
 -14  18  -1   60.09   18.50
  18  -4  -1   38.60   13.60
   4  14   1   30.30   12.50
  14 -18   1   15.30   17.80
  19  -5  -1   51.99   14.30
 -14  19  -1   33.40   18.50
   5  14   1   22.70   12.60
  14 -19   1   38.50   20.40
 -14  20  -1   95.59   21.70
  20  -6  -1  132.69   19.20
   6  14   1   87.39   15.70
  14 -20   1   95.99   24.50
  20 -15  -1   19.70   16.90
  20 -15  -1   26.70   16.60
  -5  20  -1   44.00   17.00
   5 -20   1   33.40   14.50
  15   5   1   28.90   12.90
  19 -15  -1  140.89   20.90
  -4  19  -1  145.49   21.30
  19 -15  -1  153.38   21.00
   4 -19   1  135.39   18.90
  15   4   1  125.69   17.50
  18 -15  -1   59.29   19.90
  18 -15  -1   65.49   16.60
  -3  18  -1   58.39   15.90
  18 -15  -1   46.10   15.30
   3 -18   1   54.49   13.60
  15   3   1   33.10   12.40
  17 -15  -1   55.59   19.90
  -2  17  -1   27.10   13.80
  17 -15  -1   46.50   14.80
   2 -17   1   25.00   11.70
  15   2   1   22.90   11.80
  16 -15  -1  153.88   23.80
  -1  16  -1  135.39   17.40
  16 -15  -1  117.29   18.30
  15   1   1  118.89   16.30
   1 -16   1  142.09   16.00
   0  15  -1   -3.10   10.70
  15 -15  -1   18.50   17.50
  15 -15  -1   12.50   12.10
 -15  15   1   27.00   15.50
   0 -15   1    4.80    9.20
  15   0   1    2.90   10.70
  14 -15  -1   56.89   13.20
   1  14  -1   63.19   11.70
  14 -15  -1   54.19   18.10
  15  -1   1   38.40   12.00
  -1 -14   1   56.69   10.20
 -14  15   1   57.59   16.70
  13 -15  -1   64.79   13.70
  13 -15  -1   89.79   18.70
   2  13  -1   73.29   12.00
  -2 -13   1   94.79   11.40
 -13  15   1  101.69   18.40
  15  -2   1   83.49   13.30
   3  12  -1   25.20    9.10
  12 -15  -1   40.20   11.20
  12 -15  -1   39.80   16.10
 -12  15   1    9.00   14.60
  15  -3   1   23.30   10.70
  11 -15  -1  364.46   31.30
   4  11  -1  404.46   29.30
  11 -15  -1  329.17   34.60
  15  -4   1  353.96   31.70
 -11  15   1  383.16   34.50
   5  10  -1  191.98   17.20
  10 -15  -1  164.68   21.80
  15  -5   1  140.79   17.60
 -10  15   1  173.48   21.40
   6   9  -1   15.90    6.90
   9 -15  -1    5.60   14.20
  -9  15   1    8.30   14.00
  15  -6   1    6.00    9.90
   7   8  -1  285.37   23.40
   8 -15  -1  301.17   29.90
  15  -7   1  281.97   27.20
  -8  15   1  309.97   29.00
   7 -15  -1  266.67   28.20
   8   7  -1  282.97   22.40
  15  -8   1  300.07   28.20
  -7  15   1  300.27   27.30
  15  -8   1  226.18   24.10
   9   6  -1    3.30    6.60
   6 -15  -1    9.70   12.10
  15  -9   1   22.90   14.50
  -6  15   1   22.80   13.40
  15  -9   1   12.10   11.00
   5 -15  -1  149.39   19.10
  10   5  -1  185.78   16.40
  15 -10   1  164.18   22.10
  -5  15   1  154.58   19.50
  15 -10   1  143.49   17.90
  11   4  -1  346.57   28.30
 -15  11  -1  337.67   35.40
   4 -15  -1  339.37   32.10
  15 -11   1  404.06   32.50
  -4  15   1  376.46   34.00
  15 -11   1  378.96   35.80
   3 -15  -1   22.70   12.00
  12   3  -1   31.90    8.50
 -15  12  -1   27.40   14.10
  -3  15   1   26.70   12.60
  15 -12   1   33.90   12.10
  15 -12   1   15.20   15.80
  13   2  -1   62.19   10.60
 -15  13  -1   73.09   16.50
   2 -15  -1   70.49   13.50
  15 -13   1   86.99   18.80
  -2  15   1   73.59   13.90
  15 -13   1   73.99   14.10
  14   1  -1   49.20   10.60
   1 -15  -1   39.20   12.50
 -15  14  -1   50.99   16.50
  15 -14   1   58.39   13.10
  15 -14   1   44.20   12.50
  15 -14   1   51.29   18.70
  -1  15   1   33.50   12.60
   0 -15  -1    6.60   11.00
  15   0  -1   14.20   10.00
 -15  15  -1   30.80   16.10
   0  15   1   -3.60   11.60
  15 -15   1    3.50   11.60
  15 -15   1    8.40   16.60
  15 -15   1   -3.70   10.80
  -1 -15  -1  154.68   17.80
 -15  16  -1  169.98   23.20
  16  -1  -1  140.89   17.00
   1  15   1  155.28   18.20
  15 -16   1  158.98   24.10
  -2 -15  -1   54.79   12.50
  17  -2  -1   39.40   12.80
 -15  17  -1   83.99   19.40
   2  15   1   35.40   13.20
  15 -17   1   65.59   20.00
  18  -3  -1   51.89   14.10
 -15  18  -1   78.79   19.80
  15 -18   1   43.50   19.80
   3  15   1   51.39   13.50
  19  -4  -1  134.99   19.20
 -15  19  -1  134.89   22.80
   4  15   1  166.18   18.60
  15 -19   1  108.09   24.50
 -15  20  -1   43.90   19.70
  20  -5  -1   15.50   14.90
   5  15   1   11.80   13.00
  15 -20   1   32.30   21.80
  -3  19  -1   44.60   15.50
  19 -16  -1   38.70   16.90
   3 -19   1   13.80   12.80
  16   3   1   25.90   13.50
  18 -16  -1    7.30   19.00
  -2  18  -1   13.30   13.70
  18 -16  -1   10.00   14.50
  16   2   1   12.60   12.50
   2 -18   1    3.50   11.50
  -1  17  -1    3.50   12.00
  17 -16  -1   12.60   13.50
  17 -16  -1   -4.00   17.30
  16   1   1    4.90   12.00
   1 -17   1    9.60   10.70
  16 -16  -1   17.90   13.70
   0  16  -1  -11.70   11.00
  16 -16  -1   -0.80   17.10
  16   0   1  -10.90   11.30
   0 -16   1   -2.40    9.30
   1  15  -1  137.19   16.60
  15 -16  -1  149.59   22.60
  15 -16  -1  142.59   18.10
 -15  16   1  147.69   21.80
  -1 -15   1  121.59   14.70
  16  -1   1  130.09   17.20
  14 -16  -1  937.11   64.59
  14 -16  -1  873.01   68.29
   2  14  -1  814.72   62.69
 -14  16   1 1040.40   67.99
  16  -2   1  745.83   63.69
  -2 -14   1  850.31   61.89
  13 -16  -1  394.96   42.30
   3  13  -1  454.55   36.00
 -13  16   1  505.35   43.60
  16  -3   1  473.65   38.00
   4  12  -1  127.69   13.90
  12 -16  -1  130.79   22.10
 -12  16   1  160.48   21.90
  16  -4   1  113.89   16.40
  11 -16  -1  296.57   30.80
   5  11  -1  298.97   25.00
  16  -5   1  273.47   26.30
 -11  16   1  309.57   30.40
  10 -16  -1  267.17   28.90
   6  10  -1  240.88   23.00
 -10  16   1  315.07   28.90
  16  -6   1  286.37   27.40
   7   9  -1  786.72   59.69
   9 -16  -1  789.62   64.59
  -9  16   1  964.30   65.89
  16  -7   1  879.21   62.49
   8 -16  -1 1159.98   81.19
   8   8  -1 1083.99   76.69
  -8  16   1 1096.19   81.49
  16  -8   1 1044.00   79.39
   9   7  -1  821.82   59.89
   7 -16  -1  755.42   63.79
  16  -9   1  954.20   65.89
  -7  16   1  919.31   65.19
  16  -9   1  813.92   62.99
  10   6  -1  265.67   23.30
   6 -16  -1  295.47   28.80
  -6  16   1  282.17   27.40
  16 -10   1  289.87   26.20
  16 -10   1  252.67   29.00
  11   5  -1  298.57   24.70
   5 -16  -1  263.57   29.20
  -5  16   1  346.37   31.80
  16 -11   1  319.37   31.40
  16 -11   1  263.57   26.50
  12   4  -1  139.09   14.10
   4 -16  -1  127.69   18.20
  -4  16   1  134.89   18.50
  16 -12   1  107.09   21.10
  16 -12   1  135.69   17.50
  13   3  -1  431.46   34.50
   3 -16  -1  467.65   37.80
  -3  16   1  413.26   38.60
  16 -13   1  441.56   42.40
  16 -13   1  435.86   37.60
  14   2  -1  887.81   64.69
 -16  14  -1  931.51   69.69
   2 -16  -1  917.91   66.59
  16 -14   1  891.01   70.89
  16 -14   1  922.21   67.09
  -2  16   1  842.52   66.49
  16 -14   1  883.51   66.59
  15   1  -1  134.29   15.60
 -16  15  -1  142.19   21.50
   1 -16  -1  101.69   16.70
  16 -15   1  126.09   17.90
  16 -15   1  133.59   18.00
  16 -15   1  135.29   22.50
  -1  16   1  140.89   17.90
 -16  16  -1   -5.20   16.00
  16   0  -1   -7.80   10.30
   0 -16  -1   -3.20   11.20
  16 -16   1  -17.90   18.00
   0  16   1   -3.30   11.80
  17  -1  -1    8.60   11.50
 -16  17  -1   -1.50   16.60
  -1 -16  -1    3.70   11.60
  16 -17   1   -2.40   18.20
   1  16   1    3.20   12.40
 -16  18  -1   38.40   18.50
  18  -2  -1    4.30   12.60
   2  16   1   -4.20   12.90
  16 -18   1   -3.10   18.40
  19  -3  -1    2.30   13.60
 -16  19  -1   22.50   18.00
   3  16   1   28.60   13.70
  16 -19   1   32.80   21.00
  19 -17  -1   31.60   20.20
  17   2   1   -8.50   12.70
   2 -19   1    9.10   12.10
  -1  18  -1   41.00   14.30
  18 -17  -1   44.80   20.30
  18 -17  -1   49.90   16.20
  17   1   1   36.50   14.30
   1 -18   1   47.40   15.90
   0  17  -1  220.98   20.70
  17 -17  -1  170.18   27.20
  17 -17  -1  136.09   21.20
  17   0   1  170.98   20.50
   1  16  -1    4.70   11.50
  16 -17  -1   14.20   18.40
 -16  17   1   12.70   25.30
  17  -1   1   11.40   12.70
   2  15  -1   37.60   11.90
  15 -17  -1   37.90   18.90
  17  -2   1   29.30   13.20
 -15  17   1   58.59   21.90
  14 -17  -1  147.79   23.90
   3  14  -1   89.99   14.30
  17  -3   1  107.09   16.50
 -14  17   1  122.59   20.80
   4  13  -1   61.19   11.60
  13 -17  -1   86.89   20.60
  17  -4   1   63.99   14.20
 -13  17   1   84.29   19.40
   5  12  -1  329.17   27.50
  12 -17  -1  363.26   34.90
  17  -5   1  285.67   28.40
 -12  17   1  314.87   32.10
  11 -17  -1  172.18   23.30
   6  11  -1  159.88   15.40
 -11  17   1  136.69   22.30
  17  -6   1  135.09   18.40
   7  10  -1   75.49   10.80
  10 -17  -1   47.00   17.80
 -10  17   1   52.49   18.00
  17  -7   1   79.99   14.00
   8   9  -1   72.29   10.40
   9 -17  -1   78.09   17.40
  17  -8   1   39.70   13.70
  -9  17   1   77.09   18.30
   8 -17  -1   89.49   17.20
   9   8  -1   65.29   10.30
  17  -9   1   58.19   14.40
  10   7  -1   60.29   10.10
   7 -17  -1   70.79   16.30
  17 -10   1   79.39   15.10
  -7  17   1   56.19   16.90
   6 -17  -1  139.39   20.20
  11   6  -1  145.39   15.00
  -6  17   1  134.29   20.80
  17 -11   1  148.79   18.90
  17 -11   1  184.48   23.80
   5 -17  -1  270.17   28.60
  12   5  -1  300.27   26.00
  -5  17   1  331.77   29.60
  17 -12   1  313.77   32.30
  17 -12   1  299.67   28.10
   4 -17  -1   97.39   16.60
  13   4  -1   72.59   11.60
  17 -13   1   86.49   21.00
  -4  17   1   71.69   16.10
  17 -13   1   45.30   14.90
  14   3  -1   89.59   12.70
   3 -17  -1   89.79   15.80
  -3  17   1   62.79   16.40
  17 -14   1  144.79   23.20
  17 -14   1   83.69   16.30
  15   2  -1   46.10   11.40
   2 -17  -1   51.29   13.70
  -2  17   1   25.80   14.10
  17 -15   1   32.60   14.20
  17 -15   1   40.40   14.50
  17 -15   1   47.30   20.40
   1 -17  -1   15.70   12.40
  16   1  -1    3.30   10.90
  17 -16   1   18.20   20.00
  17 -16   1   -9.70   13.40
  -1  17   1   16.20   13.70
  17   0  -1  188.88   19.90
 -17  17  -1  205.48   26.30
   0 -17  -1  182.98   20.40
   0  17   1  166.18   21.20
  17 -17   1  183.78   27.30
 -17  18  -1   59.39   18.40
  -1 -17  -1   47.10   14.00
  18  -1  -1   28.40   13.70
  17 -18   1   19.30   21.00
   1  17   1   43.60   14.80
  19  -2  -1    7.90   13.90
   2  17   1    7.80   13.90
  17 -19   1   17.70   20.30
  18 -18  -1   -0.50   21.00
   0  18  -1  -14.30   13.10
  18   0   1  -13.00   13.10
   1  17  -1   36.90   13.40
  17 -18  -1   34.10   22.20
  18  -1   1   49.90   14.50
  16 -18  -1   13.30   20.20
   2  16  -1    9.60   11.90
 -16  18   1    6.20   16.60
  18  -2   1   31.10   13.90
  15 -18  -1   45.20   21.00
   3  15  -1   65.49   13.10
 -15  18   1   53.29   18.80
  18  -3   1   39.80   14.50
   4  14  -1   68.99   12.20
  14 -18  -1   19.50   19.20
  18  -4   1   19.10   13.70
 -14  18   1   27.50   18.10
  13 -18  -1  139.99   25.20
   5  13  -1  154.68   16.90
 -13  18   1  178.98   23.80
  18  -5   1  186.28   20.60
   6  12  -1   36.00   10.40
  12 -18  -1   52.39   19.50
 -12  18   1   53.49   18.10
  18  -6   1   31.20   13.40
   7  11  -1   57.59   10.50
  11 -18  -1   38.80   18.30
 -11  18   1   69.89   18.70
  18  -7   1   38.00   14.00
  10 -18  -1  164.98   23.90
   8  10  -1  184.08   17.60
 -10  18   1  169.98   23.80
  18  -8   1  213.38   22.10
   9 -18  -1  377.76   40.60
   9   9  -1  419.76   33.30
  -9  18   1  475.75   40.40
  18  -9   1  416.46   38.50
  10   8  -1  204.58   18.10
   8 -18  -1  217.58   24.40
  18 -10   1  185.68   21.90
  -8  18   1  133.09   23.10
  11   7  -1   48.40   10.30
   7 -18  -1   34.00   16.20
  -7  18   1   36.70   16.90
  18 -11   1   23.00   14.20
   6 -18  -1   28.10   15.60
  12   6  -1   36.20   10.10
  18 -12   1   30.30   14.30
  -6  18   1   39.20   16.50
   5 -18  -1  163.58   21.00
  13   5  -1  175.98   16.70
  18 -13   1  149.29   19.90
  -5  18   1  114.39   20.10
  18 -13   1  137.39   23.80
   4 -18  -1   30.80   14.60
  14   4  -1   16.80   10.60
  18 -14   1   29.40   14.50
  18 -14   1   50.29   20.40
  -4  18   1   29.60   15.30
   3 -18  -1   80.39   15.60
  15   3  -1   34.10   12.00
  -3  18   1   44.80   16.10
  18 -15   1   54.69   15.80
  18 -15   1   76.09   16.00
  18 -15   1   58.19   20.50
   2 -18  -1   10.90   13.10
  16   2  -1   -4.40   11.10
  18 -16   1   28.90   14.10
  -2  18   1  -19.70   14.20
  18 -16   1   16.20   14.70
  18 -16   1   -4.10   19.40
   1 -18  -1   64.79   14.70
  17   1  -1   25.80   12.70
  18 -17   1   55.29   22.50
  -1  18   1   58.39   16.10
  18   0  -1   17.00   12.80
   0 -18  -1   11.40   13.10
  18 -18   1   -0.90   21.10
   0  18   1   15.40   14.80
   2  17  -1    6.10   12.80
  17 -19  -1   17.00   21.60
  19  -2   1    3.10   14.40
  16 -19  -1    8.70   21.40
   3  16  -1   36.70   13.00
 -16  19   1   26.30   18.40
  19  -3   1   34.80   14.90
  15 -19  -1  102.39   25.30
   4  15  -1  106.39   15.70
 -15  19   1  148.19   22.70
  19  -4   1  135.19   19.20
  14 -19  -1   51.19   21.20
   5  14  -1   24.40   11.00
 -14  19   1   50.09   19.00
  19  -5   1   13.10   14.40
   6  13  -1   78.39   13.10
  13 -19  -1   62.49   21.60
  19  -6   1   84.09   16.90
 -13  19   1  130.79   22.00
   7  12  -1   21.10   10.30
  12 -19  -1   26.80   19.20
  19  -7   1   -8.10   13.70
 -12  19   1    9.00   17.60
  11 -19  -1   51.29   19.00
   8  11  -1   52.69   11.10
 -11  19   1   46.40   19.10
  19  -8   1   48.60   15.80
   9  10  -1   28.00   10.10
  10 -19  -1   36.40   17.90
 -10  19   1   -9.00   17.10
  19  -9   1   15.90   14.70
  10   9  -1   10.20    9.70
   9 -19  -1   12.20   16.40
  -9  19   1   38.30   18.10
  19 -10   1   30.20   14.40
   8 -19  -1   18.50   16.50
  11   8  -1   39.60   10.60
  19 -11   1   35.60   15.20
  -8  19   1   34.90   17.90
  12   7  -1   12.40   10.00
   7 -19  -1   11.10   15.90
  19 -12   1   24.60   14.70
  -7  19   1   55.49   17.50
  13   6  -1   89.29   13.00
   6 -19  -1   77.09   18.10
  19 -13   1   78.69   17.40
  -6  19   1   79.59   18.60
   5 -19  -1   15.20   15.30
  14   5  -1   44.70   11.40
  19 -14   1   21.70   14.90
  -5  19   1   34.10   16.70
  19 -14   1    6.10   20.40
   4 -19  -1  114.09   19.00
  15   4  -1  132.79   15.80
  19 -15   1  107.09   19.20
  -4  19   1  144.69   20.10
  19 -15   1   94.59   18.70
  19 -15   1   90.99   23.80
   3 -19  -1    7.40   14.00
  16   3  -1   30.80   12.30
  -3  19   1   49.60   16.50
  19 -16   1   16.30   20.70
  19 -16   1   32.10   15.50
  19 -16   1   47.80   16.60
   2 -19  -1    9.60   13.60
  17   2  -1   15.60   12.30
  19 -17   1   -9.90   21.30
  -2  19   1    0.50   15.20
  15 -20  -1   14.70   21.60
   5  15  -1   38.30   12.20
  20  -5   1   36.70   16.20
 -15  20   1   52.09   19.80
   6  14  -1  125.29   16.10
  14 -20  -1  116.19   25.20
 -14  20   1  119.39   23.00
  20  -6   1  139.59   20.00
  13 -20  -1   19.00   19.60
   7  13  -1   36.40   11.40
 -13  20   1    7.70   19.00
  20  -7   1    0.50   14.40
  12 -20  -1  155.08   25.20
  20  -8   1  126.09   20.60
 -12  20   1  180.98   25.60
  11 -20  -1   32.40   18.90
 -11  20   1   55.99   19.80
  20  -9   1   36.30   16.60
  10 -20  -1   18.70   17.60
  20 -10   1   -0.50   14.80
 -10  20   1   17.60   18.70
   9 -20  -1   33.00   17.70
  20 -11   1   35.10   16.60
  -9  20   1   41.70   18.90
   8 -20  -1  127.59   22.40
  20 -12   1  144.09   21.20
  -8  20   1  157.58   23.10
  13   7  -1   -1.80   11.40
   7 -20  -1    9.20   16.50
  -7  20   1   11.80   17.20
  20 -13   1   34.90   15.90
   6 -20  -1   81.39   19.60
  14   6  -1  102.59   14.70
  20 -14   1  122.69   19.60
  -6  20   1  135.69   20.90
   5 -20  -1   22.60   15.30
  15   5  -1   15.40   11.70
  20 -15   1   34.00   16.50
  -5  20   1   57.39   17.40
   0   0  -2 2098.39  135.19
   0   0   2 1870.31  135.19
  -1   0  -2  512.45   37.60
   0   1  -2  533.65   37.30
   1  -1  -2  567.04   37.60
  -1   1   2  565.04   37.60
   1   0   2  542.65   37.70
   1   0  -2  569.24   38.00
   0  -1  -2  538.85   38.30
  -1   1  -2  566.64   38.20
   0   1   2  536.05   38.30
   1  -1   2  553.24   38.20
  -1  -1  -2  123.79   10.90
   2  -1  -2  141.89    9.70
   2  -1  -2  120.79    9.60
  -1   2  -2  114.29    9.50
  -1  -1  -2  105.69   10.00
   1  -2   2  125.49   10.40
   1   1   2  115.29   10.30
   3  -2  -2 2842.22  188.18
  -2  -1  -2 2877.01  188.28
  -1   3  -2 2930.71  188.08
   1  -3   2 2656.43  188.38
   2   1   2 2493.95  188.28
  -3   2   2 2764.72  188.18
  -2   0  -2 3541.25  243.08
   0   2  -2 3563.74  242.68
   2  -2  -2 3596.64  242.98
  -2   2   2 3656.13  242.98
   2   0   2 3444.06  243.08
   0  -2   2 3608.04  242.88
  -2   1  -2   86.29    9.50
   1  -2  -2  119.39    9.30
   1  -2  -2  105.79   10.70
   2  -1   2  108.19    9.40
   2  -1   2  114.19   10.50
  -1   2   2  124.89    9.60
   0  -2  -2 3936.41  244.18
   0  -2  -2 3983.50  243.88
   2   0  -2 3626.04  243.38
  -2   2  -2 3442.26  243.78
   2  -2   2 3363.26  243.98
   0   2   2 3292.27  243.78
   2  -2   2 3418.26  243.68
  -1  -2  -2 2768.12  181.08
  -2   3  -2 2642.54  180.78
  -1  -2  -2 2477.15  180.78
   3  -1  -2 2678.93  180.58
   2  -3   2 2738.13  180.68
   1   2   2 2686.33  180.88
   2  -3   2 2565.94  181.08
  -2   4  -2  369.76   26.00
   4  -2  -2  348.57   25.80
  -2  -2  -2  354.46   26.50
  -2  -2  -2  384.26   26.00
   2  -4   2  329.27   26.60
   2   2   2  393.86   26.00
  -4   2   2  367.76   26.00
   2  -4   2  356.86   25.50
   5  -3  -2   45.80    6.20
  -2   5  -2   50.39    6.40
   5  -3  -2   54.09    8.00
  -3  -2  -2   62.79    6.10
   2  -5   2   64.59    7.50
  -5   3   2   54.89    6.20
   3   2   2   55.59    6.30
   4  -3  -2  154.38   14.70
  -3  -1  -2  165.58   13.60
   4  -3  -2  159.08   13.90
  -1   4  -2  164.58   13.10
   3   1   2  195.88   13.80
  -4   3   2  185.38   14.00
   1  -4   2  189.68   14.20
  -3   0  -2 7548.44  485.55
   3  -3  -2 6921.31  485.45
   3  -3  -2 6436.26  485.75
   0   3  -2 7423.46  485.05
  -3   3   2 7559.54  485.55
   3   0   2 6585.94  485.45
   0  -3   2 7467.25  485.35
  -3   1  -2 2626.34  191.38
   2  -3  -2 2833.52  191.38
   2  -3  -2 2924.31  191.78
   3  -1   2 2780.32  191.68
   3  -1   2 2845.02  191.38
  -2   3   2 2829.22  191.48
   1  -3  -2 3185.38  189.08
   1  -3  -2 2892.61  188.58
  -3   2  -2 2455.55  188.58
   3  -2   2 2606.14  188.98
   3  -2   2 2797.42  188.58
  -1   3   2 2661.73  188.68
   3   0  -2 7421.36  493.35
   0  -3  -2 7913.11  493.85
  -3   3  -2 6584.54  493.85
   0  -3  -2 7706.23  494.15
   3  -3   2 6580.14  494.15
   3  -3   2 7348.36  493.85
   0   3   2 7255.37  493.95
  -3   4  -2  178.78   13.70
   4  -1  -2  189.48   12.40
  -1  -3  -2  156.78   13.80
  -1  -3  -2  182.38   13.00
   3  -4   2  146.39   12.90
   1   3   2  151.58   13.30
   3  -4   2  125.89   14.20
  -3   5  -2   68.79    7.20
  -2  -3  -2   64.49    6.00
  -2  -3  -2   38.90    6.90
   5  -2  -2   59.89    5.80
   3  -5   2   53.19    7.80
   3  -5   2   56.29    5.70
   2   3   2   39.90    6.00
  -3  -3  -2 2541.35  177.58
   6  -3  -2 2511.85  178.58
   6  -3  -2 2656.73  177.88
  -3   6  -2 2655.03  178.28
  -6   3   2 2612.44  177.68
   3   3   2 2428.76  177.78
   3  -6   2 2770.02  178.58
   3  -6   2 2649.73  177.58
  -4  -3  -2  769.02   51.49
   7  -4  -2  730.93   53.09
   7  -4  -2  654.83   51.79
  -3   7  -2  748.23   53.09
   3  -7   2  697.93   52.49
   3  -7   2  766.12   51.19
   4   3   2  780.32   51.79
  -7   4   2  769.12   52.09
   6  -4  -2 1189.78   81.39
   6  -4  -2 1177.98   80.49
  -2   6  -2 1137.49   80.59
  -4  -2  -2 1236.98   80.19
   4   2   2 1089.09   80.19
  -6   4   2 1146.09   80.59
   2  -6   2 1174.88   80.69
  -1   5  -2  423.26   30.70
   5  -4  -2  428.36   31.30
   5  -4  -2  395.56   31.90
  -4  -1  -2  419.76   30.90
  -5   4   2  451.15   31.70
   1  -5   2  465.95   31.30
   4   1   2  467.55   31.10
   4  -4  -2 6165.98  426.76
  -4   0  -2 6395.26  426.76
   4  -4  -2 6033.50  426.76
   0   4  -2 6343.67  426.16
   4   0   2 5300.27  426.56
   0  -4   2 6241.88  426.46
  -4   4   2 6879.61  427.06
   4   0   2 6802.12  427.16
   3  -4  -2  194.48   13.70
  -4   1  -2  208.78   14.00
   4  -1   2  140.59   13.30
  -1  -3   2  158.98   12.00
  -3   4   2  182.28   14.60
   4  -1   2  132.89   14.30
  -4   2  -2  366.66   27.20
   2  -4  -2  370.86   27.70
  -2   4   2  402.86   27.40
   4  -2   2  392.66   27.10
   4  -2   2  351.16   27.80
   4  -3   2  157.08   15.30
   4  -3   2  191.58   14.30
   0  -4  -2 6413.46  414.76
  -4   4  -2 6286.07  415.06
   0  -4  -2 5514.15  415.06
   4   0  -2 6345.96  414.26
   0   4   2 6051.49  414.86
   4  -4   2 5903.31  414.76
   4  -4   2 6129.99  415.36
  -1  -4  -2  405.76   30.70
  -4   5  -2  405.36   31.20
   5  -1  -2  437.96   29.80
  -1  -4  -2  475.05   30.20
   4  -5   2  374.16   31.40
   1   4   2  427.46   30.50
   4  -5   2  431.16   30.30
  -2  -4  -2 1125.79   78.79
   6  -2  -2 1102.19   78.79
  -2  -4  -2 1182.58   79.39
  -4   6  -2 1086.79   79.79
   2   4   2 1269.57   79.19
   4  -6   2 1134.59   78.99
   4  -6   2 1117.99   79.89
  -3  -4  -2  909.01   55.89
  -4   7  -2  821.22   56.89
   7  -3  -2  781.12   56.49
  -3  -4  -2  744.33   54.79
   7  -3  -2  864.31   55.29
   4  -7   2  785.22   56.29
   3   4   2  782.82   55.29
   4  -7   2  712.43   54.89
  -7   3   2  758.02   54.89
  -4  -4  -2 2181.28  149.49
   8  -4  -2 2162.98  150.08
   8  -4  -2 2062.59  151.08
  -4   8  -2 2218.48  151.68
  -8   4   2 2291.97  149.99
   4  -8   2 2095.79  150.78
   4  -8   2 2226.08  149.59
   4   4   2 2251.67  149.88
  -4   9  -2  135.49   16.10
   9  -5  -2  142.89   15.00
   9  -5  -2  116.99   11.90
   4  -9   2  122.69   13.20
   5   4   2  119.59   11.50
   4  -9   2  128.39   10.90
  -9   5   2  131.29   12.30
   8  -5  -2  854.91   60.29
  -5  -3  -2  948.41   59.59
  -3   8  -2  889.91   62.19
   8  -5  -2  888.41   61.79
   5   3   2  805.82   59.89
   3  -8   2  860.51   60.79
  -8   5   2  770.12   60.49
  -2   7  -2   56.19    8.60
   7  -5  -2   54.49    7.00
  -5  -2  -2   57.69    6.30
   7  -5  -2   68.99    9.90
  -7   5   2   45.20    7.90
   2  -7   2   45.80    7.40
   5   2   2   42.30    6.30
  -1   6  -2 2741.63  178.78
   6  -5  -2 2686.53  179.88
   6  -5  -2 2500.35  178.88
  -5  -1  -2 2546.35  178.68
   1  -6   2 2695.83  178.78
   5   1   2 2614.04  179.18
  -6   5   2 2592.04  179.38
   5   1   2 2543.05  178.68
   5  -5  -2   99.19   11.60
   0   5  -2  118.39    9.80
  -5   0  -2  121.79   11.20
  -5   5   2  121.09   11.90
   0  -5   2  124.69   10.40
   5   0   2  128.49   12.30
   5   0   2  152.58   11.40
  -5   1  -2  404.76   31.50
   4  -5  -2  487.75   32.40
  -4   5   2  469.85   32.50
   5  -1   2  441.16   32.10
  -1  -4   2  448.66   30.50
   5  -1   2  396.76   31.30
   3  -5  -2   75.49    6.80
   3  -5  -2   43.10    7.60
  -5   2  -2   48.70    6.80
  -3   5   2   55.29    7.90
   5  -2   2   50.39    6.50
   5  -2   2   67.99    8.30
   2  -5  -2   34.90    6.80
   2  -5  -2   43.10    5.70
  -5   3  -2   53.09    6.90
  -2   5   2   59.89    7.20
   5  -3   2   38.00    7.50
   5  -3   2   62.39    6.40
  -5   4  -2  489.25   32.90
   1  -5  -2  414.16   32.60
   1  -5  -2  471.25   31.80
  -1   5   2  447.06   32.40
   5  -4   2  449.86   32.20
   5  -4   2  427.16   32.90
   5   0  -2  124.69    9.60
  -5   5  -2  117.89   11.80
   0  -5  -2  116.59   10.80
   0  -5  -2  124.29   12.00
   5  -5   2  131.89   13.60
   5  -5   2  135.49   11.70
   0   5   2  128.49   11.90
  -5   6  -2 2582.14  177.08
  -1  -5  -2 2604.34  175.98
   6  -1  -2 2615.54  175.78
  -1  -5  -2 2250.57  176.38
   5  -6   2 2490.45  177.08
   5  -6   2 2710.63  176.28
   1   5   2 2783.12  176.28
  -5   7  -2   32.50    9.60
  -2  -5  -2   42.80    5.50
   7  -2  -2   40.20    5.80
  -2  -5  -2   48.80    7.30
   5  -7   2   66.79    9.60
   2   5   2   55.29    6.70
   5  -7   2   61.09    6.50
  -3  -5  -2  843.32   59.79
  -3  -5  -2  818.62   60.89
   8  -3  -2  805.32   61.69
   8  -3  -2  875.41   60.39
  -5   8  -2  864.11   63.09
   5  -8   2  861.51   61.99
   5  -8   2  887.91   60.29
   5  -8   2  936.11   60.29
   3   5   2  893.11   60.49
  -5   9  -2  118.19   16.50
   9  -4  -2  126.09   12.00
   9  -4  -2  112.09   14.30
   5  -9   2  139.69   14.30
  -9   4   2  135.99   12.40
   5  -9   2  142.09   12.00
   4   5   2  134.59   13.00
  -5  10  -2   -5.10   11.60
  10  -5  -2   17.50    6.90
  10  -5  -2    0.40    8.90
   5 -10   2   11.20    8.40
   5   5   2    3.70    5.80
   5 -10   2   14.50    7.20
  11  -6  -2   89.49   13.90
  -5  11  -2   92.19   14.80
  11  -6  -2   73.09   10.50
   6   5   2   89.59    9.90
   5 -11   2   81.39   12.30
  -4  10  -2  441.86   34.30
  10  -6  -2  390.36   32.70
  10  -6  -2  459.45   30.80
 -10   6   2  373.76   30.70
   4 -10   2  368.16   31.20
   6   4   2  384.56   29.70
   9  -6  -2  268.07   20.60
  -3   9  -2  245.98   22.70
   9  -6  -2  267.37   23.10
   6   3   2  235.98   19.70
   3  -9   2  244.58   21.00
  -9   6   2  235.78   21.40
  -6  -2  -2  764.02   49.20
  -2   8  -2  735.43   51.49
   8  -6  -2  672.43   51.29
   8  -6  -2  726.03   49.90
   2  -8   2  725.63   49.80
   6   2   2  627.74   49.30
  -8   6   2  621.04   50.49
   6   2   2  727.53   49.99
   7  -6  -2  344.67   26.80
   7  -6  -2  342.17   24.60
  -1   7  -2  319.27   25.40
  -6  -1  -2  306.77   23.90
   1  -7   2  337.77   24.10
   6   1   2  336.87   24.90
   6   1   2  318.27   24.10
  -7   6   2  274.37   26.10
   0   6  -2 6183.78  407.86
   6  -6  -2 6689.63  409.36
  -6   0  -2 5963.30  408.06
   6   0   2 5801.02  408.46
   6   0   2 6078.59  408.06
   0  -6   2 5924.41  407.86
  -6   6   2 5290.07  408.66
   5  -6  -2 3126.19  187.68
   5  -6  -2 2500.95  188.08
  -6   1  -2 2623.44  187.48
   1   5  -2 2626.94  186.48
  -1  -5   2 2708.23  186.78
   6  -1   2 3001.70  188.08
  -5   6   2 2595.44  188.08
   6  -1   2 2755.42  187.38
  -6   2  -2 1004.70   82.39
   4  -6  -2 1134.29   83.09
   4  -6  -2 1252.97   82.29
   6  -2   2 1278.07   82.99
   6  -2   2 1283.87   82.29
  -4   6   2 1190.08   82.99
   3  -6  -2 2602.74  189.48
   3  -6  -2 2700.63  190.08
  -6   3  -2 2570.54  189.78
  -3   6   2 2974.70  190.18
   6  -3   2 3022.30  189.68
   6  -3   2 2775.32  190.18
   2  -6  -2 1226.38   80.39
  -6   4  -2 1108.29   81.19
   2  -6  -2 1080.89   80.99
   6  -4   2 1127.09   81.29
   6  -4   2 1132.89   80.59
  -2   6   2 1323.47   81.19
  -6   5  -2 2728.43  182.18
   5   1  -2 2732.33  180.38
   1  -6  -2 2815.22  181.18
   1  -6  -2 2474.75  181.68
  -1   6   2 2445.06  181.48
   6  -5   2 2800.92  181.48
   6  -5   2 2557.04  182.18
  -6   6  -2 5580.54  421.36
   0  -6  -2 6424.76  420.36
   0  -6  -2 6480.35  421.06
   6   0  -2 6231.08  419.96
   0   6   2 6137.79  420.66
   6  -6   2 6532.95  420.76
   6  -6   2 5800.22  421.46
  -1  -6  -2  326.27   25.00
  -1  -6  -2  317.37   23.80
  -6   7  -2  389.96   28.60
   7  -1  -2  355.36   23.80
   6  -7   2  296.57   26.40
   6  -7   2  310.77   24.50
   1   6   2  326.07   24.60
  -2  -6  -2  736.13   51.99
   8  -2  -2  685.73   51.19
  -2  -6  -2  704.93   50.89
   6  -8   2  760.52   51.59
   2   6   2  753.42   51.69
   6  -8   2  773.22   53.49
   9  -3  -2  249.48   22.80
   9  -3  -2  259.67   20.40
  -3  -6  -2  248.78   20.80
  -6   9  -2  243.88   24.50
   6  -9   2  248.58   20.20
   6  -9   2  262.77   20.10
   3   6   2  265.57   20.60
   6  -9   2  288.47   23.20
  10  -4  -2  340.17   31.40
  -6  10  -2  333.47   34.60
  10  -4  -2  352.36   29.10
   4   6   2  397.46   29.10
   6 -10   2  452.75   31.50
   6 -10   2  411.86   28.60
  11  -5  -2   62.59   10.20
  -6  11  -2   69.49   15.00
  11  -5  -2   86.19   13.30
   5   6   2   92.49    9.80
   6 -11   2  105.29   13.30
  12  -6  -2 1723.03  117.89
  -6  12  -2 1686.63  119.49
  12  -6  -2 1616.14  119.19
   6 -12   2 1616.64  118.89
   6   6   2 1813.72  117.29
  -6  13  -2  122.39   16.10
  13  -7  -2  102.09   12.70
   7   6   2   78.09   11.00
   6 -13   2   87.09   13.70
  -5  12  -2  687.23   50.19
  12  -7  -2  627.14   47.70
  12  -7  -2  665.03   50.09
   5 -12   2  654.73   48.30
   7   5   2  631.34   46.90
  11  -7  -2  374.46   33.30
  11  -7  -2  376.26   30.60
  -4  11  -2  393.96   33.20
 -11   7   2  396.66   30.90
   4 -11   2  387.66   30.70
   7   4   2  396.66   29.50
  10  -7  -2   47.40   11.70
  -3  10  -2   58.99   11.90
  10  -7  -2   37.30    7.90
   3 -10   2   17.50    7.60
   7   3   2   34.30    8.50
 -10   7   2   27.40    9.20
   7   3   2   31.60    6.70
  -2   9  -2  242.18   23.60
   9  -7  -2  288.57   23.60
   9  -7  -2  278.57   20.80
   7   2   2  211.68   19.70
  -9   7   2  220.68   22.60
   2  -9   2  231.08   20.20
   7   2   2  258.77   20.80
  -7  -1  -2 1688.93  111.49
  -1   8  -2 1511.45  112.39
   8  -7  -2 1637.54  111.79
   8  -7  -2 1646.94  113.29
   1  -8   2 1679.33  111.49
  -8   7   2 1376.16  112.59
   7   1   2 1795.12  111.59
   7   1   2 1567.24  111.99
  -7   0  -2  417.06   29.90
   7  -7  -2  428.86   30.30
   7  -7  -2  420.66   32.10
   0   7  -2  386.86   30.50
   0  -7   2  410.86   29.00
   7   0   2  428.86   30.40
  -7   7   2  338.87   31.70
   7   0   2  383.56   29.60
   6  -7  -2  317.37   24.60
  -7   1  -2  342.07   24.90
   1   6  -2  337.17   23.80
   6  -7  -2  337.67   26.40
   7  -1   2  310.97   24.50
  -6   7   2  301.07   27.10
  -1  -6   2  321.97   23.20
   7  -1   2  325.97   25.40
   5  -7  -2   37.40    6.70
   5  -7  -2   34.40    8.80
  -7   2  -2   48.90    7.80
  -2  -5   2   58.09    5.20
  -5   7   2   53.89    9.60
   7  -2   2   60.29    8.60
   7  -2   2   44.70    6.80
  -7   3  -2  795.22   56.39
   4  -7  -2  877.31   55.79
   4  -7  -2  724.23   56.59
  -4   7   2  830.62   56.79
   7  -3   2  769.12   55.79
   7  -3   2  776.82   56.59
  -7   4  -2  773.12   54.69
   3  -7  -2  696.73   53.19
   3  -7  -2  751.42   54.29
   7  -4   2  790.82   54.69
   7  -4   2  811.92   53.59
  -3   7   2  762.32   54.29
   2  -7  -2   55.99    6.30
   2  -7  -2   59.89    8.20
  -7   5  -2   63.79    9.90
   7  -5   2   43.70    8.80
   7  -5   2   29.90    6.50
  -2   7   2   50.89    8.10
   1  -7  -2  345.57   25.10
   6   1  -2  344.57   24.10
   1  -7  -2  372.36   26.60
  -7   6  -2  328.67   28.90
   7  -6   2  332.67   27.80
  -1   7   2  360.96   26.40
   7  -6   2  318.87   25.80
   0  -7  -2  422.56   29.20
   0  -7  -2  407.96   30.60
   7   0  -2  397.16   28.70
  -7   7  -2  451.75   34.10
   7  -7   2  389.76   30.00
   0   7   2  412.36   30.10
   7  -7   2  381.96   31.20
  -1  -7  -2 1888.11  115.19
   8  -1  -2 1620.94  113.99
  -7   8  -2 1460.15  116.89
  -1  -7  -2 1695.43  113.99
   1   7   2 1653.23  114.59
   7  -8   2 1511.95  115.69
   7  -8   2 1755.42  114.69
   9  -2  -2  246.78   20.20
  -7   9  -2  239.88   25.00
  -2  -7  -2  254.77   21.40
   2   7   2  263.57   20.90
   7  -9   2  271.07   20.70
   7  -9   2  275.07   23.90
  -3  -7  -2   40.30    8.10
  10  -3  -2   28.60    7.20
  -7  10  -2   30.40   13.70
   7 -10   2   56.29   11.10
   3   7   2   53.99    8.00
   7 -10   2   59.09    7.70
  11  -4  -2  403.66   28.80
  -7  11  -2  426.96   35.30
   4   7   2  339.27   28.30
   7 -11   2  339.17   27.80
   7 -11   2  383.26   31.20
  -7  12  -2  560.44   48.40
  12  -5  -2  657.53   45.10
   5   7   2  614.44   44.50
   7 -12   2  585.54   47.00
  13  -6  -2  101.79   12.70
  -7  13  -2   74.99   15.80
   7 -13   2  120.39   15.70
   6   7   2   94.89   11.50
  14  -7  -2  774.72   55.09
  -7  14  -2  680.83   57.09
   7   7   2  790.42   54.09
   7 -14   2  715.73   55.89
  -7  15  -2  551.74   46.60
  15  -8  -2  548.95   44.60
   7 -15   2  535.95   45.20
   8   7   2  633.04   43.20
  -6  14  -2  129.49   17.30
  14  -8  -2  130.69   15.30
   8   6   2  130.49   13.80
   6 -14   2  132.89   16.80
  13  -8  -2   41.90   10.00
  13  -8  -2   51.89   14.00
  -5  13  -2   69.39   12.90
   5 -13   2   25.90   10.70
   8   5   2   41.90    8.60
  -4  12  -2  209.68   21.90
  12  -8  -2  251.87   25.30
  12  -8  -2  224.48   21.80
   8   4   2  233.48   20.40
   4 -12   2  244.08   22.30
  11  -8  -2  510.75   40.20
  -3  11  -2  586.94   41.80
  11  -8  -2  516.75   42.40
 -11   8   2  505.25   41.10
   8   3   2  526.75   39.00
   3 -11   2  558.14   40.00
  10  -8  -2  190.08   17.80
  10  -8  -2  216.98   20.20
  -2  10  -2  187.08   17.70
   8   2   2  185.58   16.90
   8   2   2  171.68   16.60
   2 -10   2  165.58   17.00
 -10   8   2  151.88   17.90
   9  -8  -2  677.63   49.90
   9  -8  -2  597.34   47.40
  -1   9  -2  678.53   48.60
   1  -9   2  694.83   47.00
  -9   8   2  504.05   48.70
   8   1   2  700.83   47.10
   8   1   2  723.33   47.80
   0   8  -2 1276.07   92.69
  -8   0  -2 1359.76   92.49
   8  -8  -2 1374.76   92.59
   8  -8  -2 1199.88   93.59
   8   0   2 1410.66   92.89
   0  -8   2 1392.86   91.79
   8   0   2 1279.67   92.09
   7  -8  -2 1908.81  120.39
   1   7  -2 1543.05  119.89
  -8   1  -2 1745.83  120.49
   7  -8  -2 1710.13  121.49
   8  -1   2 1766.12  120.69
   8  -1   2 1818.82  120.19
  -1  -7   2 1717.03  119.29
   6  -8  -2  742.63   52.99
   2   6  -2  643.34   52.09
  -8   2  -2  712.23   53.49
  -2  -6   2  792.62   51.59
  -6   8   2  651.73   54.39
   8  -2   2  841.02   52.99
   8  -2   2  831.82   53.79
  -8   3  -2  806.12   63.39
   5  -8  -2  911.71   63.89
   5  -8  -2  805.82   62.39
   8  -3   2  917.21   63.59
  -5   8   2  900.61   64.09
   8  -3   2 1023.60   62.89
  -8   4  -2 2009.80  153.58
   4  -8  -2 2228.38  153.58
   4  -8  -2 2334.17  152.68
   8  -4   2 2426.36  152.98
   8  -4   2 2251.37  153.78
  -4   8   2 2083.69  153.58
   3  -8  -2  900.01   59.49
   3  -8  -2  932.51   58.29
  -8   5  -2  960.30   60.79
  -3   8   2  833.52   59.59
   8  -5   2  681.43   59.49
   8  -5   2  722.43   58.59
   2  -8  -2  739.73   50.79
   6   2  -2  772.32   49.70
   2  -8  -2  772.82   52.09
  -8   6  -2  687.83   53.89
   8  -6   2  722.33   52.89
  -2   8   2  685.93   51.89
   8  -6   2  650.53   51.19
  -8   7  -2 1590.84  121.59
   1  -8  -2 1643.04  118.99
   7   1  -2 1676.63  118.59
   8  -7   2 1741.43  119.79
  -1   8   2 1809.72  119.99
   8  -7   2 1961.20  121.19
   8   0  -2 1374.86   94.89
   0  -8  -2 1361.86   96.29
  -8   8  -2 1428.06   98.79
   0  -8  -2 1348.37   95.09
   8  -8   2 1295.37   95.79
   8  -8   2 1350.86   97.19
   0   8   2 1539.45   96.09
  -8   9  -2  595.04   52.19
   9  -1  -2  634.84   46.80
  -1  -8  -2  692.73   48.20
   8  -9   2  712.63   47.90
   8  -9   2  660.73   49.50
   1   8   2  670.03   47.70
  -8  10  -2  162.18   21.20
  -2  -8  -2  177.08   17.40
  10  -2  -2  173.78   16.10
   8 -10   2  198.08   16.70
   8 -10   2  216.58   21.20
   8 -10   2  185.68   16.80
   2   8   2  160.38   16.80
  -3  -8  -2  547.25   40.40
  11  -3  -2  546.85   40.10
  -8  11  -2  576.24   46.10
   8 -11   2  549.85   40.00
   3   8   2  532.25   40.20
   8 -11   2  544.25   42.90
  12  -4  -2  233.58   20.50
  -8  12  -2  229.98   23.60
   8 -12   2  245.68   24.30
   4   8   2  205.28   20.20
  13  -5  -2   49.90    9.70
  -8  13  -2   51.99   14.40
   8 -13   2   31.90   12.50
   5   8   2   63.49    9.50
  14  -6  -2  109.49   14.30
  -8  14  -2  118.09   17.60
   6   8   2  131.39   13.50
   8 -14   2  113.59   16.90
  -8  15  -2  607.74   48.50
  15  -7  -2  551.64   45.90
   7   8   2  591.64   44.60
   8 -15   2  629.84   47.70
  16  -8  -2  764.62   56.09
  -8  16  -2  693.93   58.09
   8 -16   2  824.32   57.79
   8   8   2  687.33   54.39
  17  -9  -2  326.67   31.20
  -8  17  -2  308.57   31.30
   8 -17   2  309.57   31.10
   9   8   2  340.87   28.80
  -7  16  -2   -1.40   13.50
  16  -9  -2    9.40   10.80
   9   7   2    8.00    9.30
   7 -16   2   22.20   13.70
  -6  15  -2   36.10   13.40
  15  -9  -2   16.20   10.80
   6 -15   2   46.30   12.90
   9   6   2   36.30    9.60
  14  -9  -2   66.39   16.10
  14  -9  -2   69.89   12.20
  -5  14  -2   90.59   14.00
   9   5   2   49.10   10.00
   5 -14   2   63.69   13.10
  13  -9  -2  355.06   30.80
  13  -9  -2  290.67   33.60
  -4  13  -2  405.36   32.40
   4 -13   2  387.36   30.90
   9   4   2  384.56   29.10
  12  -9  -2  806.12   50.79
  -3  12  -2  681.63   50.89
  12  -9  -2  595.54   52.39
 -12   9   2  726.53   51.49
   3 -12   2  603.74   49.60
   9   3   2  690.63   49.20
  11  -9  -2  656.33   50.89
  11  -9  -2  658.33   48.00
  -2  11  -2  605.54   48.40
   9   2   2  662.73   47.20
 -11   9   2  668.83   49.90
   2 -11   2  664.73   47.50
  -1  10  -2  995.10   76.79
  10  -9  -2 1123.99   76.89
  10  -9  -2  996.30   78.29
  10  -9  -2 1110.69   76.89
   1 -10   2 1090.49   76.09
 -10   9   2 1036.10   78.49
   9   1   2 1159.78   77.19
   9   1   2 1172.98   76.29
   9  -9  -2   15.10    7.50
   9  -9  -2   16.20    7.70
   0   9  -2   24.70    8.10
   9  -9  -2   31.40   11.20
   0  -9   2   20.90    6.00
  -9   9   2   25.60   11.00
   9   0   2   19.40    7.90
   9   0   2   31.10    6.80
   8  -9  -2  813.52   50.69
   8  -9  -2  655.33   51.99
  -9   1  -2  633.54   50.79
   1   8  -2  639.94   49.70
   9  -1   2  671.23   50.59
  -1  -8   2  697.43   49.00
   9  -1   2  794.32   50.19
   7  -9  -2  301.97   21.00
  -9   2  -2  255.57   23.10
   7  -9  -2  198.58   22.80
   2   7  -2  263.77   19.70
  -2  -7   2  240.88   18.40
   9  -2   2  266.37   20.70
   9  -2   2  260.27   22.00
  -7   9   2  204.98   22.30
   6  -9  -2  260.47   20.40
  -9   3  -2  244.68   23.10
   6  -9  -2  269.17   22.70
   3   6  -2  230.48   18.40
   9  -3   2  252.37   21.70
   9  -3   2  252.67   20.80
  -6   9   2  238.98   22.40
  -9   4  -2  105.59   15.00
   5  -9  -2  138.29   14.60
   5  -9  -2  137.29   12.60
   9  -4   2  140.69   13.10
   9  -4   2  144.49   14.70
  -5   9   2  158.58   16.00
   4  -9  -2  147.49   12.90
  -9   5  -2  150.68   16.10
   4  -9  -2  124.09   13.90
  -4   9   2  121.59   14.50
   9  -5   2  128.79   12.50
   9  -5   2  131.59   14.10
   6   3  -2  265.47   17.70
   3  -9  -2  239.38   19.50
   3  -9  -2  258.27   21.80
  -9   6  -2  195.68   22.50
   9  -6   2  237.78   22.80
   9  -6   2  262.67   21.00
  -3   9   2  235.78   22.60
   2  -9  -2  235.18   19.00
   7   2  -2  244.58   17.70
   2  -9  -2  248.18   21.20
  -9   7  -2  197.48   23.10
   9  -7   2  224.68   23.00
  -2   9   2  298.17   22.20
   9  -7   2  254.07   20.80
   1  -9  -2  740.53   50.79
  -9   8  -2  623.14   54.19
   8   1  -2  698.63   48.50
   1  -9  -2  700.43   48.90
   9  -8   2  679.73   51.99
  -1   9   2  649.74   50.19
   9  -8   2  750.42   50.09
  -9   9  -2   10.80   13.10
   9   0  -2   34.20    5.60
   0  -9  -2   17.70    7.40
   0   9   2   23.40    7.60
   9  -9   2   10.00   11.10
   9  -9   2   17.00    7.10
  -1  -9  -2 1138.69   76.39
  10  -1  -2 1146.69   75.19
  -9  10  -2 1003.90   79.49
   9 -10   2 1090.19   75.89
   9 -10   2  979.10   77.89
   1   9   2 1068.69   75.79
  -9  11  -2  675.33   54.49
  11  -2  -2  735.73   48.80
  -2  -9  -2  753.02   49.80
   2   9   2  677.33   49.30
   9 -11   2  619.24   49.00
   9 -11   2  617.44   51.89
   9 -11   2  665.83   49.20
  -3  -9  -2  733.53   52.69
  -9  12  -2  750.52   56.39
  12  -3  -2  718.73   52.19
   9 -12   2  703.83   54.99
   9 -12   2  714.73   51.99
   3   9   2  727.33   52.39
  -9  13  -2  382.96   36.90
  13  -4  -2  388.06   31.20
   4   9   2  423.46   30.80
   9 -13   2  348.57   34.00
  14  -5  -2   61.19   10.80
  -9  14  -2   40.20   15.00
   9 -14   2   36.60   13.70
   5   9   2   70.19   10.50
  15  -6  -2   27.70   10.90
  -9  15  -2   43.20   15.00
   6   9   2   15.30    9.10
   9 -15   2   25.70   13.50
  -9  16  -2   12.30   14.70
  16  -7  -2   15.30   11.40
   9 -16   2   -0.50   13.30
   7   9   2   -0.10    9.60
  17  -8  -2  290.57   28.00
  -9  17  -2  349.77   31.20
   8   9   2  301.27   28.40
   9 -17   2  337.07   34.10
  18  -9  -2  102.49   17.20
  -9  18  -2  113.19   20.30
   9 -18   2  109.19   19.40
   9   9   2  106.99   15.00
  -9  19  -2   98.79   20.40
  19 -10  -2  112.69   18.10
   9 -19   2   87.89   18.70
  10   9   2   82.49   15.00
  18 -10  -2    9.00   13.10
  -8  18  -2   -9.90   15.60
  10   8   2   37.90   11.70
   8 -18   2   16.40   14.60
  17 -10  -2   28.30   13.10
  -7  17  -2   23.60   15.30
   7 -17   2   30.50   13.80
  10   7   2   27.00   10.90
  16 -10  -2   73.59   14.70
  -6  16  -2   76.69   16.80
   6 -16   2   82.39   15.40
  10   6   2  100.29   13.00
  15 -10  -2   94.79   15.10
  -5  15  -2  118.79   17.00
   5 -15   2  124.59   16.10
  10   5   2  113.09   13.70
  14 -10  -2  435.76   38.50
  14 -10  -2  472.25   42.30
  -4  14  -2  449.95   39.20
   4 -14   2  479.95   38.40
  10   4   2  569.54   37.50
  13 -10  -2  500.85   40.80
  13 -10  -2  533.15   44.40
  -3  13  -2  536.05   41.50
   3 -13   2  525.25   40.30
  10   3   2  552.84   39.80
  -2  12  -2  284.77   26.60
  12 -10  -2  327.07   30.60
  12 -10  -2  244.58   26.00
   2 -12   2  320.47   25.50
  10   2   2  339.17   25.30
 -12  10   2  307.47   29.10
  11 -10  -2  275.87   28.80
  11 -10  -2  272.37   25.10
  11 -10  -2  257.17   25.30
  -1  11  -2  250.77   24.60
  10   1   2  336.77   24.20
   1 -11   2  310.97   23.50
 -11  10   2  290.27   26.60
  10 -10  -2   85.99   12.20
   0  10  -2  104.89   11.40
  10 -10  -2   98.69   15.50
  10 -10  -2  102.89   12.30
   0 -10   2   99.89   10.60
  10   0   2  106.29   11.60
 -10  10   2  109.59   15.50
  10   0   2  110.19   18.20
   9 -10  -2 1098.49   77.19
   1   9  -2 1097.39   74.79
   9 -10  -2  969.90   75.59
  -9  10   2  893.21   77.29
  10  -1   2 1273.47   75.49
  10  -1   2 1021.20   75.89
  -1  -9   2 1103.89   74.29
   8 -10  -2  148.59   15.60
   2   8  -2  172.28   15.20
 -10   2  -2  212.58   18.60
   8 -10  -2  210.18   19.50
  10  -2   2  176.38   18.00
  -2  -8   2  172.58   14.10
  -8  10   2  123.99   18.40
  10  -2   2  221.58   17.40
   3   7  -2   31.00    5.40
   7 -10  -2   29.10    7.50
   7 -10  -2   24.60   10.20
 -10   3  -2   31.10   10.60
  -7  10   2   28.70   11.80
  10  -3   2   55.49    8.50
  10  -3   2   47.00    9.90
   4   6  -2  366.66   28.50
 -10   4  -2  357.06   33.80
   6 -10  -2  377.56   32.10
   6 -10  -2  400.46   30.60
  -6  10   2  438.06   34.50
  10  -4   2  445.96   32.60
  10  -4   2  488.85   31.00
 -10   5  -2  -14.50   10.70
   5 -10  -2   13.40    6.00
   5   5  -2   10.50    3.10
   5 -10  -2   16.70    9.10
  -5  10   2   11.20    9.80
  10  -5   2   16.00    9.30
  10  -5   2   14.30    6.90
 -10   6  -2  409.56   36.40
   4 -10  -2  419.66   31.10
   4 -10  -2  432.76   33.30
   6   4  -2  446.46   29.50
  -4  10   2  434.96   34.10
  10  -6   2  391.56   34.00
  10  -6   2  385.86   32.20
 -10   7  -2   65.39   14.70
   3 -10  -2   51.69   10.10
   7   3  -2   55.09    5.20
   3 -10  -2   57.89    7.20
  -3  10   2   20.70    9.90
  10  -7   2   33.50   11.50
  10  -7   2   33.00    8.50
 -10   8  -2  185.18   21.10
   2 -10  -2  183.28   14.80
   2 -10  -2  172.88   17.90
   8   2  -2  183.88   13.70
  10  -8   2  159.58   18.40
  -2  10   2  149.59   16.30
  10  -8   2  147.99   15.60
   1 -10  -2 1161.28   81.39
   9   1  -2 1141.29   79.39
 -10   9  -2 1124.09   84.19
  10  -9   2 1153.88   82.89
  10  -9   2 1234.88   80.99
  -1  10   2 1074.09   80.89
   0 -10  -2   91.69   12.20
 -10  10  -2   99.29   17.80
  10   0  -2  115.29   10.10
   0  10   2   82.39   11.70
  10 -10   2   98.39   11.90
  10 -10   2  105.29   16.00
 -10  11  -2  295.27   29.20
  11  -1  -2  344.07   24.00
  -1 -10  -2  338.97   25.50
  10 -11   2  272.87   25.00
  10 -11   2  258.57   27.60
   1  10   2  278.57   25.30
 -10  12  -2  252.67   28.70
  12  -2  -2  326.87   25.20
  -2 -10  -2  295.37   26.10
  10 -12   2  307.07   25.70
  10 -12   2  328.07   29.10
  10 -12   2  304.87   25.80
   2  10   2  331.47   26.00
  -3 -10  -2  519.55   37.60
 -10  13  -2  447.66   41.70
  13  -3  -2  491.75   37.10
  10 -13   2  478.75   40.70
   3  10   2  456.05   36.90
  14  -4  -2  488.85   37.00
 -10  14  -2  446.86   41.90
  10 -14   2  449.06   40.50
   4  10   2  495.65   37.10
 -10  15  -2  119.69   18.60
  15  -5  -2  116.39   14.60
   5  10   2  120.99   14.00
  10 -15   2  113.49   18.20
  16  -6  -2   77.29   13.50
 -10  16  -2   75.99   17.30
  10 -16   2   88.69   16.90
   6  10   2   73.99   12.40
 -10  17  -2   48.60   16.30
  17  -7  -2   25.50   12.60
   7  10   2   25.90   11.10
  10 -17   2   29.20   15.50
 -10  18  -2   20.80   16.90
  18  -8  -2   12.90   12.70
  10 -18   2   15.50   16.00
   8  10   2   -7.70   10.80
  19  -9  -2   92.49   17.40
 -10  19  -2  101.09   20.30
   9  10   2   76.99   14.90
  10 -19   2  102.09   20.20
  20 -10  -2   86.69   18.20
 -10  20  -2   69.39   19.60
  10 -20   2  113.49   20.70
  10  10   2   83.19   15.50
  -9  20  -2   97.09   19.50
  20 -11  -2   36.20   16.70
   9 -20   2   54.89   18.20
  11   9   2   60.69   14.60
  19 -11  -2   40.70   15.80
  -8  19  -2   39.10   17.20
   8 -19   2   74.59   17.00
  11   8   2   39.00   13.20
  18 -11  -2  -11.60   13.00
  -7  18  -2   10.80   15.20
  11   7   2   -1.30   10.80
   7 -18   2   14.30   13.90
  -6  17  -2   -9.30   13.70
  17 -11  -2   -4.60   12.60
   6 -17   2   -1.90   12.40
  11   6   2    0.50   10.60
  -5  16  -2   68.99   15.80
  16 -11  -2   87.59   15.10
   5 -16   2   70.59   14.10
  11   5   2   85.59   12.60
  -4  15  -2  896.41   62.49
  15 -11  -2  830.42   65.59
  15 -11  -2  873.81   62.09
  11   4   2  800.02   60.09
   4 -15   2  777.42   60.99
  14 -11  -2   18.80   10.70
  -3  14  -2   54.09   12.50
  14 -11  -2   35.00   15.70
   3 -14   2   29.20   10.40
  11   3   2   33.50    9.40
  13 -11  -2  582.24   42.40
  13 -11  -2  548.05   45.50
  -2  13  -2  545.55   42.00
  13 -11  -2  541.45   42.20
 -13  11   2  552.24   43.90
  11   2   2  502.85   40.80
   2 -13   2  526.85   40.70
  12 -11  -2  159.38   16.80
  12 -11  -2  131.29   16.10
  -1  12  -2  159.68   16.10
  12 -11  -2  122.99   19.60
 -12  11   2  179.78   19.50
   1 -12   2  169.08   16.40
  11   1   2  154.88   15.20
  11 -11  -2  388.56   37.00
   0  11  -2  441.56   33.20
  11 -11  -2  425.16   34.40
 -11  11   2  480.15   37.90
  11   0   2  454.15   33.40
   0 -11   2  411.96   32.20
   1  10  -2  295.27   23.20
  10 -11  -2  266.47   24.40
  10 -11  -2  268.97   27.70
 -10  11   2  314.07   28.70
  11  -1   2  264.97   23.80
  -1 -10   2  282.87   21.90
   9 -11  -2  737.03   50.99
   2   9  -2  738.23   47.00
  11  -2   2  619.04   48.80
  11  -2   2  616.14   47.90
  -2  -9   2  650.03   46.20
  -9  11   2  557.74   51.19
   3   8  -2  526.15   38.90
   8 -11  -2  463.75   42.90
   8 -11  -2  603.14   40.80
  -8  11   2  487.15   43.50
  11  -3   2  596.84   40.90
  11  -3   2  584.14   41.90
   7 -11  -2  355.76   29.30
   4   7  -2  382.36   27.40
   7 -11  -2  368.66   31.70
 -11   4  -2  341.77   33.30
  11  -4   2  403.46   31.70
  11  -4   2  440.76   30.20
  -7  11   2  355.26   33.30
   5   6  -2   93.19    8.70
 -11   5  -2   72.69   14.90
   6 -11  -2  104.19   14.40
   6 -11  -2   75.79   10.20
  -6  11   2   93.99   14.30
  11  -5   2   96.99   13.90
  11  -5   2  121.39   12.10
   5 -11  -2   89.89   13.20
   6   5  -2  103.19    8.80
   5 -11  -2   85.59   10.20
 -11   6  -2   84.69   15.90
  -5  11   2  104.99   14.50
  11  -6   2   93.69   14.40
  11  -6   2   88.59   11.80
   7   4  -2  363.06   26.10
   4 -11  -2  416.76   31.10
   4 -11  -2  336.47   27.70
 -11   7  -2  355.56   34.50
  11  -7   2  357.06   29.50
  11  -7   2  380.56   31.80
  -4  11   2  385.06   31.30
 -11   8  -2  482.35   46.20
   3 -11  -2  517.15   42.40
   8   3  -2  554.94   39.20
  11  -8   2  584.24   44.10
  -3  11   2  604.64   43.30
  11  -8   2  597.34   42.20
   9   2  -2  650.73   49.30
 -11   9  -2  668.93   55.99
   2 -11  -2  669.23   52.09
  11  -9   2  707.83   51.39
  11  -9   2  844.02   54.59
  -2  11   2  743.93   52.19
 -11  10  -2  278.17   29.80
  10   1  -2  303.47   23.70
   1 -11  -2  307.87   26.80
  -1  11   2  328.67   26.90
  11 -10   2  294.07   30.10
  11 -10   2  337.67   26.00
  11   0  -2  445.06   33.10
   0 -11  -2  445.06   35.00
 -11  11  -2  484.25   40.20
  11 -11   2  361.36   34.60
  11 -11   2  497.85   37.70
   0  11   2  473.45   35.30
  -1 -11  -2  168.48   17.10
 -11  12  -2  159.28   20.80
  12  -1  -2  185.28   16.40
  11 -12   2  153.48   16.30
  11 -12   2  170.78   20.60
  11 -12   2  144.29   16.00
   1  11   2  156.78   16.00
  -2 -11  -2  475.75   40.20
  13  -2  -2  530.25   39.40
 -11  13  -2  570.44   45.70
   2  11   2  545.05   40.30
  11 -13   2  555.54   44.60
  11 -13   2  511.15   39.90
  11 -13   2  530.15   40.00
 -11  14  -2   39.50   15.60
  14  -3  -2   21.90    9.70
  -3 -11  -2   45.40   10.70
  11 -14   2   34.20   13.90
   3  11   2   54.19   10.80
 -11  15  -2  818.72   64.29
  15  -4  -2  766.82   59.89
  11 -15   2  809.02   63.79
   4  11   2  887.11   60.19
  16  -5  -2   69.29   13.10
 -11  16  -2   62.19   17.20
  11 -16   2   88.49   17.90
   5  11   2   73.79   12.40
  17  -6  -2    7.10   11.70
 -11  17  -2    9.40   15.80
   6  11   2  -10.30   10.10
  11 -17   2    4.80   15.40
  18  -7  -2   23.60   13.20
 -11  18  -2   12.00   17.20
  11 -18   2    7.60   16.10
   7  11   2   21.30   11.70
  19  -8  -2   56.49   15.50
 -11  19  -2   39.50   19.00
  11 -19   2   71.09   18.80
   8  11   2   29.00   13.00
 -11  20  -2   52.59   19.40
  20  -9  -2   62.89   16.80
  11 -20   2   35.80   19.60
   9  11   2   49.70   13.80
  20 -12  -2   56.99   17.20
  -8  20  -2   36.80   18.00
  12   8   2   30.40   13.30
   8 -20   2   42.30   16.90
  19 -12  -2   -2.70   14.10
  -7  19  -2  -19.90   15.20
   7 -19   2    1.00   14.50
  12   7   2    9.40   11.70
  -6  18  -2   77.89   17.20
  18 -12  -2   79.89   16.60
   6 -18   2   82.19   16.00
  12   6   2   72.29   13.60
  17 -12  -2  191.38   20.70
  -5  17  -2  177.78   21.00
  12   5   2  137.99   17.50
   5 -17   2  176.58   19.70
  16 -12  -2   14.80   12.60
  -4  16  -2   14.70   13.10
  16 -12  -2   19.30   12.90
  16 -12  -2   15.70   16.60
  12   4   2    7.20   10.20
   4 -16   2   27.50   11.40
  -3  15  -2  756.92   56.19
  15 -12  -2  666.23   56.09
  15 -12  -2  862.11   56.89
  15 -12  -2  844.62   60.59
  12   3   2  682.93   54.49
   3 -15   2  691.33   54.69
  14 -12  -2   82.29   14.70
  14 -12  -2  100.49   14.90
  14 -12  -2  130.29   19.60
  -2  14  -2  114.69   14.90
   2 -14   2  122.79   13.70
  12   2   2   90.69   13.10
  13 -12  -2  348.57   31.40
  -1  13  -2  325.87   30.50
  13 -12  -2  367.16   34.90
  13 -12  -2  355.06   31.30
 -13  12   2  425.16   34.50
   1 -13   2  337.77   28.60
  12   1   2  384.06   29.70
  12 -12  -2  134.89   16.40
  12 -12  -2  133.69   20.20
   0  12  -2  160.28   16.00
  12   0   2  152.98   15.60
   0 -12   2  165.58   16.00
 -12  12   2  189.98   20.20
   1  11  -2  161.38   15.00
  11 -12  -2  185.68   16.90
  11 -12  -2  142.99   19.10
  12  -1   2  122.99   15.10
 -11  12   2  165.38   20.10
  -1 -11   2  156.38   14.80
  10 -12  -2  247.48   27.70
  10 -12  -2  319.77   25.90
   2  10  -2  333.17   24.00
  -2 -10   2  296.17   22.80
 -10  12   2  272.27   28.00
  12  -2   2  312.97   25.60
   3   9  -2  715.63   48.90
   9 -12  -2  597.74   53.09
   9 -12  -2  744.33   50.79
  -9  12   2  734.63   54.09
  12  -3   2  672.13   51.69
  12  -3   2  672.73   50.59
   8 -12  -2  217.68   23.30
   4   8  -2  230.88   17.80
   8 -12  -2  243.38   20.90
  12  -4   2  195.58   19.70
  12  -4   2  255.07   24.00
  -8  12   2  209.88   23.60
   5   7  -2  599.44   42.50
   7 -12  -2  652.33   44.60
 -12   5  -2  600.24   47.60
   7 -12  -2  581.24   47.10
  12  -5   2  586.84   46.50
  12  -5   2  627.94   45.20
  -7  12   2  584.14   48.20
   6   6  -2 1794.92  118.29
   6 -12  -2 1653.23  121.39
 -12   6  -2 1737.43  122.29
   6 -12  -2 1780.82  119.69
  12  -6   2 1793.92  120.49
  12  -6   2 1738.33  121.79
  -6  12   2 1556.64  121.59
   7   5  -2  635.04   43.80
   5 -12  -2  641.94   48.30
 -12   7  -2  620.64   50.19
   5 -12  -2  595.54   45.30
  12  -7   2  588.14   48.50
  -5  12   2  674.43   48.90
  12  -7   2  653.23   46.80
 -12   8  -2  240.38   24.70
   8   4  -2  237.08   18.00
   4 -12  -2  216.88   23.10
  12  -8   2  258.57   25.30
  -4  12   2  229.98   22.50
  12  -8   2  232.08   22.20
   3 -12  -2  685.13   53.99
 -12   9  -2  693.73   57.29
   9   3  -2  728.23   50.99
  -3  12   2  788.32   54.79
  12  -9   2  659.03   55.59
  12  -9   2  818.42   53.99
   2 -12  -2  297.67   26.80
 -12  10  -2  289.77   29.10
  10   2  -2  327.97   23.40
  12 -10   2  293.97   26.10
  12 -10   2  298.27   30.40
  -2  12   2  287.07   27.30
   1 -12  -2  166.28   17.30
 -12  11  -2  125.29   20.40
  11   1  -2  161.18   15.50
  12 -11   2  159.58   16.70
  12 -11   2  204.18   21.60
  -1  12   2  166.98   17.10
  12   0  -2  149.49   14.30
 -12  12  -2  144.39   20.70
   0 -12  -2  179.68   17.30
  12 -12   2  146.19   16.30
   0  12   2  146.99   16.30
  12 -12   2  153.28   20.60
 -12  13  -2  433.46   37.40
  -1 -12  -2  372.26   31.10
  13  -1  -2  362.46   29.30
   1  12   2  361.76   30.70
  12 -13   2  400.86   36.00
  12 -13   2  367.36   30.60
  12 -13   2  321.27   30.20
 -12  14  -2  114.79   19.00
  -2 -12  -2   96.99   14.30
  14  -2  -2  124.59   13.50
   2  12   2  104.79   14.20
  12 -14   2   95.19   18.80
 -12  15  -2  745.53   57.19
  -3 -12  -2  662.53   52.09
  15  -3  -2  717.63   52.19
  12 -15   2  698.63   56.29
   3  12   2  699.23   52.49
 -12  16  -2   28.40   16.70
  16  -4  -2   22.60   10.90
  12 -16   2    7.50   15.90
   4  12   2   16.40   10.90
 -12  17  -2  183.78   24.40
  17  -5  -2  182.08   19.80
   5  12   2  165.08   19.00
  12 -17   2  217.18   25.90
  18  -6  -2   40.40   14.20
 -12  18  -2   70.49   20.00
   6  12   2   73.29   13.50
  12 -18   2   72.19   19.10
  19  -7  -2   10.80   13.40
 -12  19  -2   -5.40   18.20
   7  12   2   28.60   12.50
  12 -19   2   -7.40   17.00
  20  -8  -2   73.69   16.60
 -12  20  -2   31.00   19.00
   8  12   2   39.80   13.80
  12 -20   2   36.40   20.60
  20 -13  -2   -7.20   15.30
  -7  20  -2  -10.90   15.90
  20 -13  -2  -11.60   15.00
   7 -20   2   -4.00   14.30
  13   7   2    6.90   12.50
  19 -13  -2   80.69   17.80
  -6  19  -2  124.99   19.50
  19 -13  -2   93.29   17.90
   6 -19   2   83.29   16.60
  13   6   2   68.89   14.90
  18 -13  -2  156.18   20.00
  -5  18  -2  121.49   19.60
  18 -13  -2  125.59   19.30
   5 -18   2  149.29   18.70
  13   5   2  130.39   17.10
  -4  17  -2  419.36   38.00
  17 -13  -2  432.26   38.20
  17 -13  -2  452.35   38.70
  13   4   2  409.76   35.30
   4 -17   2  393.16   35.70
  16 -13  -2  102.79   19.90
  16 -13  -2   69.39   15.20
  -3  16  -2   61.39   14.50
  16 -13  -2   81.29   15.20
   3 -16   2   73.79   13.40
  13   3   2   79.19   13.00
  -2  15  -2  423.86   35.20
  15 -13  -2  463.45   36.30
  15 -13  -2  403.46   40.10
  15 -13  -2  423.16   35.90
  13   2   2  386.26   34.20
   2 -15   2  395.56   33.60
  14 -13  -2   32.60   11.90
  14 -13  -2   27.60   16.00
  -1  14  -2   17.10   10.50
  13   1   2   20.90   10.00
 -14  13   2   51.49   14.40
   1 -14   2   28.20    9.30
  13 -13  -2   23.00   11.20
   0  13  -2   33.50    9.90
  13 -13  -2   30.90   13.90
  13   0   2   28.30   10.00
   0 -13   2   29.30    8.20
 -13  13   2   50.29   15.10
  12 -13  -2  347.07   34.50
   1  12  -2  348.97   29.20
  12 -13  -2  405.56   31.70
  -1 -12   2  347.47   27.80
 -12  13   2  380.26   35.50
  13  -1   2  379.76   30.40
  11 -13  -2  475.95   40.80
   2  11  -2  532.25   39.00
  11 -13  -2  602.34   45.00
  -2 -11   2  526.25   38.00
  13  -2   2  483.35   40.30
 -11  13   2  583.64   45.40
   3  10  -2  532.15   35.90
  10 -13  -2  421.66   37.50
  10 -13  -2  459.75   41.70
  13  -3   2  480.35   37.90
 -10  13   2  544.65   43.10
   9 -13  -2  354.66   30.00
   4   9  -2  397.76   27.50
   9 -13  -2  352.06   33.90
  13  -4   2  352.06   30.30
  13  -4   2  323.87   31.70
  -9  13   2  416.16   36.00
   8 -13  -2   48.70   13.80
   5   8  -2   43.40    6.40
   8 -13  -2   45.10    9.20
  13  -5   2   32.90    9.90
  13  -5   2   33.00   12.80
  -8  13   2   44.90   14.40
   6   7  -2   99.19    9.60
   7 -13  -2   95.59   12.00
   7 -13  -2   73.99   15.60
  13  -6   2  127.89   16.50
  -7  13   2  131.89   17.80
  13  -6   2  146.09   14.30
 -13   7  -2  129.69   17.50
   6 -13  -2   98.89   15.20
   7   6  -2  124.59   10.80
  13  -7   2   85.79   12.90
  13  -7   2  105.19   16.10
  -6  13   2   91.79   15.90
 -13   8  -2   47.60   14.70
   5 -13  -2   65.09   12.80
   8   5  -2   42.20    6.20
  -5  13   2   64.49   13.80
  13  -8   2   29.90   12.80
  13  -8   2   36.60   10.30
   9   4  -2  394.06   29.20
 -13   9  -2  363.96   36.90
   4 -13  -2  366.06   34.30
  13  -9   2  432.46   36.30
  13  -9   2  439.66   33.00
  -4  13   2  406.86   35.00
   3 -13  -2  518.15   42.40
  10   3  -2  527.05   38.40
 -13  10  -2  638.74   46.30
  13 -10   2  490.25   41.30
  13 -10   2  561.64   45.10
  -3  13   2  533.35   42.50
 -13  11  -2  538.15   45.60
   2 -13  -2  580.04   42.30
  11   2  -2  535.75   39.30
  13 -11   2  527.55   41.90
  -2  13   2  553.04   42.60
  13 -11   2  500.75   45.30
 -13  12  -2  384.96   34.20
   1 -13  -2  328.27   31.10
  12   1  -2  376.46   28.50
  13 -12   2  359.56   31.40
  -1  13   2  362.76   31.60
  13 -12   2  399.16   36.00
 -13  13  -2   66.69   16.10
  13   0  -2   34.40    8.60
   0 -13  -2   30.60   11.00
   0  13   2   26.00   10.70
  13 -13   2   21.70   16.10
  13 -13   2   20.10   10.20
  -1 -13  -2   21.50   11.00
 -13  14  -2   28.60   15.70
  14  -1  -2   37.60    9.10
  13 -14   2    2.30    9.80
  13 -14   2   19.50   10.20
  13 -14   2   24.80   15.80
   1  13   2   41.10   11.20
  -2 -13  -2  433.56   36.00
 -13  15  -2  461.55   41.60
  15  -2  -2  389.96   34.80
   2  13   2  464.55   36.20
  13 -15   2  429.36   40.70
 -13  16  -2   90.69   18.70
  16  -3  -2   86.59   13.30
   3  13   2   67.79   13.50
  13 -16   2   58.79   19.10
 -13  17  -2  483.95   43.30
  17  -4  -2  480.75   37.00
  13 -17   2  359.76   39.70
   4  13   2  430.46   36.70
 -13  18  -2  147.59   23.50
  18  -5  -2  148.89   18.40
  13 -18   2  126.89   23.10
   5  13   2  127.39   16.90
  19  -6  -2   53.49   15.60
 -13  19  -2   86.19   21.30
  13 -19   2   96.69   22.20
   6  13   2   99.79   15.60
  20  -7  -2  -20.60   13.80
 -13  20  -2   31.30   19.00
  13 -20   2  -10.40   18.30
   7  13   2   12.70   13.10
  -6  20  -2  128.49   20.90
  20 -14  -2  116.19   20.90
  20 -14  -2  140.09   21.00
   6 -20   2  110.49   18.70
  14   6   2  118.79   17.60
  -5  19  -2   60.99   17.60
  19 -14  -2   46.90   17.00
  19 -14  -2   54.29   17.00
  14   5   2   83.49   15.10
   5 -19   2   75.69   15.60
  -4  18  -2    1.40   14.00
  18 -14  -2  -11.30   14.20
  18 -14  -2   24.90   15.20
  14   4   2    7.40   11.90
   4 -18   2   -1.40   11.80
  -3  17  -2   -6.80   12.90
  17 -14  -2   15.00   17.40
  17 -14  -2   -7.30   12.80
  17 -14  -2    9.00   13.40
  14   3   2    7.70   11.40
   3 -17   2   -0.90   10.80
  -2  16  -2  151.68   18.50
  16 -14  -2  158.98   19.50
  16 -14  -2  161.78   24.10
  14   2   2  156.08   17.30
   2 -16   2  136.69   16.60
  15 -14  -2   87.89   15.40
  15 -14  -2  122.89   20.60
  -1  15  -2  103.89   14.60
  14   1   2   93.19   13.90
   1 -15   2   80.29   12.50
  14 -14  -2   18.30   16.10
  14 -14  -2   12.50   11.50
   0  14  -2   10.10    9.90
 -14  14   2   -0.70   13.60
   0 -14   2    0.50    7.70
  14   0   2   -2.70    9.70
  13 -14  -2   29.00   15.40
  13 -14  -2   23.50   11.30
   1  13  -2   26.30    9.50
  -1 -13   2   26.60    7.90
  14  -1   2   10.10   10.10
 -13  14   2   33.70   15.20
   2  12  -2  115.69   12.90
  12 -14  -2  106.09   15.30
  12 -14  -2  115.19   19.30
 -12  14   2  133.19   19.70
  14  -2   2  116.79   14.80
  -2 -12   2  129.39   12.10
  11 -14  -2   50.59   11.40
  11 -14  -2   23.80   15.30
   3  11  -2   34.50    8.40
 -11  14   2   44.80   15.90
  14  -3   2   36.50   10.60
  10 -14  -2  496.25   44.10
  10 -14  -2  524.15   39.90
   4  10  -2  493.25   37.30
 -10  14   2  584.84   44.40
  14  -4   2  500.25   40.00
   9 -14  -2   54.39   15.30
   5   9  -2   52.19    7.70
   9 -14  -2   57.99   10.70
  -9  14   2   63.89   16.20
  14  -5   2   54.59   11.00
   8 -14  -2  123.19   16.60
   8 -14  -2  113.49   18.70
   6   8  -2  134.79   13.10
  14  -6   2  131.79   18.20
  14  -6   2  121.39   15.50
  -8  14   2  168.38   20.20
   7 -14  -2  780.02   61.09
   7   7  -2  798.62   56.39
  -7  14   2  810.72   61.89
  14  -7   2  812.42   59.49
  14  -7   2  842.72   61.39
   6 -14  -2  130.59   17.60
   8   6  -2  138.69   11.70
  14  -8   2  127.89   18.50
  -6  14   2  111.59   18.40
  14  -8   2  126.99   15.40
 -14   9  -2   73.99   15.10
   5 -14  -2   62.89   13.70
   9   5  -2   63.69    7.70
  14  -9   2   54.79   12.20
  14  -9   2   43.50   15.20
  -5  14   2   43.20   14.20
  10   4  -2  498.85   36.10
 -14  10  -2  472.05   42.90
   4 -14  -2  548.85   40.90
  14 -10   2  493.95   39.80
  -4  14   2  470.95   41.10
  14 -10   2  481.15   43.10
   3 -14  -2   60.29   12.90
  11   3  -2   57.09    8.30
 -14  11  -2   32.40   14.90
  14 -11   2   47.80   11.70
  14 -11   2   52.79   16.50
  -3  14   2   37.60   12.90
 -14  12  -2   91.49   18.30
   2 -14  -2  126.89   15.90
  12   2  -2  111.69   12.00
  14 -12   2  117.09   19.70
  14 -12   2  101.89   14.60
  -2  14   2  108.99   15.50
   1 -14  -2   24.40   11.40
  13   1  -2   26.10    8.70
 -14  13  -2   30.80   15.20
  -1  14   2   22.70   11.60
  14 -13   2   30.10   15.90
  14 -13   2   19.50   10.90
   0 -14  -2   12.70   11.10
 -14  14  -2    3.30   15.20
  14   0  -2   15.50    8.80
  14 -14   2    1.40   10.20
  14 -14   2    6.50   10.40
   0  14   2   -6.90   10.80
  14 -14   2    0.70   16.10
  15  -1  -2   88.49   12.80
  -1 -14  -2   78.49   14.20
 -14  15  -2   87.59   18.60
   1  14   2   96.69   14.80
  14 -15   2  112.49   20.60
 -14  16  -2  153.78   22.00
  -2 -14  -2  148.09   17.90
  16  -2  -2  142.29   16.50
  14 -16   2  150.58   23.60
   2  14   2  129.49   17.30
 -14  17  -2   26.10   17.30
  17  -3  -2   13.40   11.50
   3  14   2    1.90   12.00
  14 -17   2   40.00   18.10
  18  -4  -2  -13.10   11.30
 -14  18  -2   -3.90   18.70
   4  14   2   15.30   12.30
  14 -18   2   24.40   18.60
 -14  19  -2   94.79   21.50
  19  -5  -2   77.59   16.10
   5  14   2   74.19   15.30
  14 -19   2   96.59   21.90
 -14  20  -2  126.99   23.60
  20  -6  -2  118.69   19.40
  14 -20   2  171.18   27.00
   6  14   2  110.39   17.90
  19 -15  -2  384.76   36.80
  -4  19  -2  450.45   39.30
   4 -19   2  393.36   36.60
  15   4   2  439.46   37.20
  -3  18  -2  484.15   39.30
  18 -15  -2  427.66   40.80
  15   3   2  442.16   37.80
   3 -18   2  397.66   36.50
  17 -15  -2  421.86   40.80
  17 -15  -2  384.66   37.30
  -2  17  -2  356.56   35.30
  15   2   2  396.46   34.40
   2 -17   2  380.56   32.40
  -1  16  -2    9.50   11.50
  16 -15  -2    5.70   13.10
  16 -15  -2   -8.70   17.00
  15   1   2    5.10   11.60
   1 -16   2   18.90    9.80
  15 -15  -2  132.29   22.90
  15 -15  -2  136.09   19.20
   0  15  -2  161.58   17.30
   0 -15   2  159.88   15.70
  15   0   2  161.08   18.00
   1  14  -2   88.79   13.00
  14 -15  -2  105.89   15.80
  14 -15  -2   73.59   19.50
  15  -1   2   68.99   14.10
 -14  15   2  115.79   18.80
  -1 -14   2   95.39   12.50
   2  13  -2  406.06   33.90
  13 -15  -2  441.16   36.40
  13 -15  -2  390.36   39.20
  15  -2   2  427.76   35.70
 -13  15   2  504.65   41.00
   3  12  -2  719.83   52.39
  12 -15  -2  719.43   54.69
  12 -15  -2  723.53   58.69
  15  -3   2  680.53   54.29
 -12  15   2  827.32   58.99
  11 -15  -2  714.23   60.39
   4  11  -2  830.12   58.69
  11 -15  -2  733.13   64.49
 -11  15   2  994.40   64.89
  15  -4   2  905.71   61.29
  10 -15  -2   99.69   18.40
  10 -15  -2  107.49   14.70
   5  10  -2  120.19   11.50
 -10  15   2  112.69   19.20
  15  -5   2  102.59   14.50
   6   9  -2   29.00    7.00
   9 -15  -2   19.80   14.30
  15  -6   2   25.80   11.20
  -9  15   2   24.50   15.10
   7   8  -2  622.94   44.30
   8 -15  -2  653.43   50.39
  15  -7   2  643.24   48.00
  15  -7   2  512.25   49.20
  -8  15   2  712.43   51.69
   8   7  -2  632.54   45.90
   7 -15  -2  674.23   51.49
  15  -8   2  679.53   49.70
  -7  15   2  617.74   52.49
  15  -8   2  625.14   52.49
   6 -15  -2   28.70   13.00
   9   6  -2   34.70    6.80
  15  -9   2   27.40   14.40
  15  -9   2   37.50   12.20
  -6  15   2   29.40   14.60
  10   5  -2  126.29   11.90
   5 -15  -2  121.89   17.70
  15 -10   2  137.49   20.50
  15 -10   2  106.69   15.90
  -5  15   2  114.99   17.80
 -15  11  -2  883.81   65.49
   4 -15  -2  784.12   64.19
  11   4  -2  896.91   60.39
  -4  15   2  933.21   64.39
  15 -11   2  871.91   66.59
  15 -11   2  752.82   62.79
 -15  12  -2  704.03   57.39
   3 -15  -2  795.62   55.99
  12   3  -2  735.13   51.99
  -3  15   2  669.33   55.39
  15 -12   2  713.73   54.89
  15 -12   2  689.63   58.49
 -15  13  -2  471.15   40.90
  13   2  -2  434.66   33.40
   2 -15  -2  471.85   37.00
  15 -13   2  393.26   41.40
  -2  15   2  432.16   37.10
  15 -13   2  367.96   36.20
  14   1  -2  100.29   12.60
   1 -15  -2   93.69   15.70
 -15  14  -2  114.89   19.50
  -1  15   2   87.39   15.50
  15 -14   2  100.49   15.50
  15 -14   2   83.89   20.10
  15   0  -2  189.18   17.50
 -15  15  -2  158.38   22.50
   0 -15  -2  156.88   19.60
   0  15   2  170.88   19.70
  15 -15   2  163.98   24.80
  -1 -15  -2    1.00   11.70
 -15  16  -2  -14.20   15.90
  16  -1  -2   21.90   10.50
   1  15   2   10.50   12.20
  15 -16   2    1.70   18.10
  17  -2  -2  405.66   34.20
  -2 -15  -2  378.56   34.30
 -15  17  -2  393.76   37.20
  15 -17   2  399.36   39.80
   2  15   2  345.07   35.10
 -15  18  -2  406.96   39.50
  18  -3  -2  433.16   37.40
   3  15   2  441.96   37.80
  15 -18   2  400.66   41.10
 -15  19  -2  495.85   45.20
  19  -4  -2  432.86   38.10
   4  15   2  398.56   37.50
  15 -19   2  379.66   40.90
  19 -16  -2   24.20   16.30
  -3  19  -2   39.10   16.30
  16   3   2   50.39   14.80
   3 -19   2   65.09   13.70
  18 -16  -2   59.29   16.50
  18 -16  -2   29.00   19.80
  -2  18  -2   26.60   14.60
  16   2   2   50.79   14.20
   2 -18   2   39.80   12.80
  17 -16  -2    7.30   18.80
  -1  17  -2   19.90   12.80
  17 -16  -2    6.80   14.40
  16   1   2    8.40   12.60
  16 -16  -2    8.40   17.60
  16 -16  -2   -4.30   13.20
   0  16  -2    8.10   11.80
  16   0   2    3.40   12.20
  15 -16  -2    9.50   18.30
  15 -16  -2   21.60   13.10
   1  15  -2   11.80   10.70
 -15  16   2   39.30   18.20
  16  -1   2   10.20   12.30
   2  14  -2  151.18   16.20
  14 -16  -2  109.69   22.90
  14 -16  -2  159.38   18.60
 -14  16   2  179.88   22.70
  16  -2   2  150.08   18.30
   3  13  -2   80.89   11.70
  13 -16  -2   71.49   19.60
  13 -16  -2   75.59   14.60
  16  -3   2   92.79   14.60
 -13  16   2   87.49   19.10
  12 -16  -2   40.90   18.30
   4  12  -2   24.40    8.70
  12 -16  -2   17.70   18.10
 -12  16   2   15.70   16.30
  16  -4   2   31.80   12.20
  11 -16  -2   70.39   18.80
   5  11  -2   82.29   10.30
 -11  16   2   84.99   18.40
  16  -5   2   67.79   13.50
   6  10  -2   86.69   10.50
  10 -16  -2   86.59   18.90
 -10  16   2  100.29   18.70
  16  -6   2   88.59   14.70
   9 -16  -2    6.50   13.80
   7   9  -2   20.40    7.10
  -9  16   2    9.50   15.90
  16  -7   2    3.00   11.10
   8   8  -2  725.43   53.79
   8 -16  -2  699.03   59.39
  16  -8   2  833.42   57.79
  -8  16   2  823.32   60.29
   7 -16  -2   12.20   13.40
   9   7  -2   19.80    7.00
  -7  16   2   14.50   15.10
  16  -9   2    6.10   12.00
  16  -9   2   26.30   15.60
   6 -16  -2   86.49   17.10
  10   6  -2   99.09   10.80
  -6  16   2  109.69   18.20
  16 -10   2  115.79   20.50
  16 -10   2   90.29   15.40
  11   5  -2   67.19    9.60
   5 -16  -2   58.99   15.90
  16 -11   2   85.59   14.60
  -5  16   2   86.79   16.00
  16 -11   2   57.89   18.80
   4 -16  -2   30.20   13.80
  12   4  -2   13.50    8.10
  16 -12   2   37.90   17.50
  -4  16   2   17.50   13.90
  16 -12   2   20.30   12.20
 -16  13  -2   83.49   17.30
   3 -16  -2   72.29   14.80
  13   3  -2   72.19   10.90
  16 -13   2   71.19   19.30
  16 -13   2   82.59   15.10
  -3  16   2   80.79   16.20
 -16  14  -2  147.09   20.40
  14   2  -2  130.89   14.70
   2 -16  -2  112.09   17.60
  16 -14   2  117.19   22.90
  -2  16   2  135.49   18.40
  16 -14   2  135.99   17.80
 -16  15  -2    5.10   15.40
  15   1  -2   -2.00    9.70
   1 -16  -2    0.60   12.60
  16 -15   2   -2.40   11.90
  16 -15   2   -8.70   12.00
  16 -15   2   17.60   18.40
  -1  16   2   19.00   13.30
  16   0  -2   -2.00    9.90
   0 -16  -2    2.00   12.50
 -16  16  -2  -14.90   15.60
  16 -16   2   19.30   18.20
   0  16   2   -6.00   12.90
 -16  17  -2    8.20   17.60
  17  -1  -2    7.80   11.50
  -1 -16  -2    3.60   12.80
   1  16   2   -4.30   13.40
  16 -17   2    7.00   18.30
  18  -2  -2   48.60   13.70
 -16  18  -2   53.49   19.20
   2  16   2   43.30   14.70
  16 -18   2   44.60   20.80
 -16  19  -2   86.69   21.20
  19  -3  -2   72.39   15.00
  16 -19   2   70.79   22.30
   3  16   2   37.60   15.20
  18 -17  -2  119.09   25.00
  -1  18  -2  142.79   18.20
  18 -17  -2  112.59   19.60
  17   1   2  101.99   18.00
  17 -17  -2  159.88   26.10
   0  17  -2  112.69   17.00
  17 -17  -2  144.89   20.20
  17   0   2  127.59   18.60
  16 -17  -2   34.00   20.10
  16 -17  -2   14.30   14.00
   1  16  -2   12.90   11.20
  17  -1   2   13.90   13.40
  15 -17  -2  405.76   40.30
  15 -17  -2  402.26   36.40
   2  15  -2  426.26   33.30
 -15  17   2  450.35   40.90
  17  -2   2  321.07   32.90
   3  14  -2  -11.70    9.20
  14 -17  -2    6.50   18.40
 -14  17   2    7.60   16.80
  17  -3   2   -3.60   12.00
   4  13  -2  448.26   34.70
  13 -17  -2  419.76   43.50
  17  -4   2  395.26   38.10
 -13  17   2  512.65   42.40
  12 -17  -2  202.78   25.20
   5  12  -2  189.38   17.00
  17  -5   2  143.09   19.80
 -12  17   2  201.38   24.80
   6  11  -2   15.00    8.00
  11 -17  -2    8.30   16.70
 -11  17   2   -7.00   16.10
  17  -6   2    3.60   12.40
  10 -17  -2   15.70   16.20
   7  10  -2   31.00    8.40
 -10  17   2   44.30   17.50
  17  -7   2   29.00   13.10
   8   9  -2  315.47   25.60
   9 -17  -2  294.37   29.90
  -9  17   2  288.97   30.10
  17  -8   2  226.88   25.70
   9   8  -2  276.17   25.80
   8 -17  -2  268.77   29.40
  17  -9   2  346.37   31.20
  -8  17   2  343.07   31.20
  10   7  -2   25.00    8.10
   7 -17  -2   31.80   15.40
  17 -10   2   34.70   13.70
  -7  17   2   31.50   16.00
  17 -10   2   13.10   16.50
   6 -17  -2   -5.90   13.40
  11   6  -2   10.00    7.90
  -6  17   2   21.00   14.70
  17 -11   2    8.50   16.90
  17 -11   2    9.30   12.60
   5 -17  -2  180.78   22.70
  12   5  -2  187.68   17.00
  17 -12   2  199.38   21.50
  17 -12   2  195.68   26.70
  -5  17   2  158.68   22.20
  13   4  -2  407.96   33.50
   4 -17  -2  476.55   39.40
  17 -13   2  415.46   43.10
  -4  17   2  409.96   39.30
  17 -13   2  429.06   38.40
   3 -17  -2    5.60   12.80
  14   3  -2   -3.40    9.30
  -3  17   2   -6.60   14.00
  17 -14   2   11.40   12.90
  17 -14   2   -4.20   18.00
 -17  15  -2  464.35   44.30
   2 -17  -2  319.27   34.40
  15   2  -2  361.26   31.30
  17 -15   2  369.86   34.90
  17 -15   2  370.86   35.90
  17 -15   2  373.06   38.00
  -2  17   2  401.16   36.10
 -17  16  -2    1.90   17.10
   1 -17  -2   12.20   13.60
  16   1  -2  -12.20    9.90
  -1  17   2   10.60   14.30
  17 -16   2    9.40   18.90
 -17  17  -2  145.79   22.80
  17   0  -2  110.69   16.00
   0 -17  -2  118.39   18.00
  17 -17   2  166.48   26.30
   0  17   2  103.49   18.70
 -17  18  -2   72.09   21.40
  -1 -17  -2   96.49   17.70
  18  -1  -2  108.99   16.30
   1  17   2  105.99   18.40
  17 -18   2  152.58   26.20
  17 -18  -2  139.49   26.00
   1  17  -2  106.19   16.00
  18  -1   2   76.79   16.90
  16 -18  -2   38.50   21.80
   2  16  -2   37.90   12.50
  18  -2   2   34.00   14.60
   3  15  -2  424.56   36.30
  15 -18  -2  438.06   43.70
 -15  18   2  521.85   45.00
  18  -3   2  428.66   40.00
  14 -18  -2   24.50   19.60
   4  14  -2   -0.40    9.70
  18  -4   2   18.70   13.50
 -14  18   2   44.50   18.50
  13 -18  -2  168.78   25.50
   5  13  -2  164.38   16.30
  18  -5   2  131.29   20.00
 -13  18   2  164.38   24.50
   6  12  -2   63.09   13.90
  12 -18  -2   89.39   21.20
 -12  18   2   82.39   21.10
  18  -6   2   80.49   15.90
  11 -18  -2   36.70   17.50
 -11  18   2   36.10   18.60
  18  -7   2   27.50   13.60
  10 -18  -2   19.20   16.40
 -10  18   2   15.10   17.30
  18  -8   2   25.30   13.60
   9 -18  -2  121.59   20.70
  -9  18   2  121.79   21.50
  18  -9   2   97.59   17.30
   8 -18  -2   11.50   15.10
  18 -10   2    4.00   13.60
  -8  18   2    7.40   16.20
   7 -18  -2   31.50   16.50
  -7  18   2    1.10   15.70
  18 -11   2   17.30   13.80
   6 -18  -2   71.69   17.40
  18 -12   2   17.50   18.80
  18 -12   2   42.50   14.70
  -6  18   2   94.19   18.00
   5 -18  -2  111.59   20.00
  13   5  -2  125.59   14.40
  -5  18   2  129.69   19.90
  18 -13   2  123.79   18.80
  18 -13   2  158.88   24.30
   4 -18  -2   18.70   14.50
  14   4  -2   -3.90    9.50
  -4  18   2   13.90   15.40
  18 -14   2   -9.40   17.60
  18 -14   2  -25.90   13.20
   3 -18  -2  443.66   39.20
  15   3  -2  419.56   34.90
  -3  18   2  406.06   39.90
  18 -15   2  430.66   39.30
  18 -15   2  439.96   45.00
  16   2  -2   30.90   11.80
   2 -18  -2   77.89   16.20
  -2  18   2   41.20   16.10
  18 -16   2   29.40   21.30
   1 -18  -2  110.79   18.40
  17   1  -2  120.49   16.10
  18 -17   2   87.39   23.90
  -1  18   2  124.29   19.50
  16 -19  -2   78.09   23.30
   3  16  -2   67.09   13.70
  19  -3   2   70.29   16.90
   4  15  -2  435.16   37.30
  15 -19  -2  448.86   47.00
  19  -4   2  476.65   42.10
 -15  19   2  470.45   42.60
  14 -19  -2   74.29   22.60
 -14  19   2   74.29   21.10
  19  -5   2   96.29   17.40
  13 -19  -2   89.09   21.80
  19  -6   2   95.69   18.00
 -13  19   2  129.59   22.60
  12 -19  -2    3.30   17.70
  19  -7   2    3.20   13.90
 -12  19   2   -0.10   18.10
  11 -19  -2   48.40   19.80
  19  -8   2   31.70   15.20
 -11  19   2   34.90   19.10
  10 -19  -2   84.89   20.70
  19  -9   2   85.69   17.70
 -10  19   2  103.09   21.40
   9 -19  -2  107.19   20.80
  -9  19   2   74.79   20.00
  19 -10   2   67.09   16.80
   8 -19  -2   38.20   17.00
  -8  19   2   16.30   17.30
  19 -11   2   42.50   15.50
   7 -19  -2   -4.50   15.60
  19 -12   2   -7.30   13.60
  -7  19   2   -9.20   16.20
   6 -19  -2   83.99   19.00
  -6  19   2   93.59   18.70
  19 -13   2   68.99   25.10
  19 -13   2   63.89   16.80
   5 -19  -2   64.19   17.60
  -5  19   2   99.09   19.40
  19 -14   2   68.09   17.20
  19 -14   2   88.39   22.60
  15   4  -2  404.16   34.80
   4 -19  -2  412.26   39.40
  -4  19   2  426.46   40.60
  19 -15   2  416.16   42.10
  19 -15   2  419.66   39.30
   3 -19  -2   18.70   15.60
  16   3  -2   68.19   13.10
  -3  19   2   93.19   18.60
  19 -16   2   44.00   21.20
  14 -20  -2  121.49   25.70
  20  -6   2  123.79   20.70
 -14  20   2  192.18   25.50
  13 -20  -2   18.00   19.80
  20  -7   2   -4.90   14.10
 -13  20   2   41.30   20.30
  12 -20  -2   15.20   20.30
  20  -8   2   25.50   16.30
 -12  20   2   59.59   20.50
  11 -20  -2   90.19   21.30
 -11  20   2   49.20   20.10
  20  -9   2   49.60   17.40
  10 -20  -2   85.99   21.60
  20 -10   2   78.49   17.80
 -10  20   2   90.99   20.90
   9 -20  -2   64.19   20.20
  -9  20   2   77.39   20.40
  20 -11   2   66.69   17.60
   8 -20  -2   39.00   18.50
  -8  20   2   42.70   19.00
  20 -12   2   40.60   16.30
   7 -20  -2  -10.70   16.20
  -7  20   2    4.50   17.90
  20 -13   2   13.70   15.20
   6 -20  -2  133.89   21.80
  -6  20   2  149.09   22.70
  20 -14   2  113.09   20.30
   0   0  -3    3.60    3.30
   0   0   3    0.70    3.10
   1  -1  -3  634.04   44.50
   0   1  -3  669.03   44.30
  -1   0  -3  604.14   44.60
   1   0   3  628.34   44.60
  -1   1   3  672.33   44.50
  -1   1  -3  748.43   46.90
   0  -1  -3  630.44   47.30
   1   0  -3  660.03   46.70
   0  -1  -3  593.24   46.90
   0   1   3  742.13   47.10
   1  -1   3  694.53   46.80
   2  -1  -3 2866.01  200.98
  -1   2  -3 3022.80  200.98
  -1  -1  -3 3101.29  201.28
  -1  -1  -3 2541.85  201.38
   1   1   3 3102.39  201.28
   1  -2   3 3070.59  201.38
   3  -2  -3 2291.17  152.98
  -2  -1  -3 2052.99  153.08
  -1   3  -3 2204.08  152.78
  -3   2   3 2304.77  152.78
   2   1   3 2231.08  153.18
   1  -3   3 2355.16  153.18
   2  -2  -3  905.71   59.99
   0   2  -3  836.92   59.09
   2  -2  -3  863.71   59.59
   0  -2   3  859.91   59.49
  -2   2   3  873.21   59.49
   2   0   3  843.12   59.69
   1   1  -3 3023.60  195.98
   1  -2  -3 3054.89  196.68
  -2   1  -3 2603.74  196.28
   1  -2  -3 2906.41  196.38
   2  -1   3 2703.03  196.28
  -1   2   3 2980.40  196.38
  -2   2  -3  923.21   59.59
   0  -2  -3  906.41   60.19
   2   0  -3  852.31   59.19
   0  -2  -3  762.52   59.59
   2  -2   3  887.51   59.49
   2  -2   3  806.22   59.89
   0   2   3  911.31   59.79
  -1  -2  -3 1924.61  144.29
  -1  -2  -3 1840.52  144.59
  -2   3  -3 2167.18  144.19
   3  -1  -3 2407.06  144.09
   3  -1  -3 2200.88  144.09
   1   2   3 2076.49  144.39
   2  -3   3 2124.19  144.59
   2  -3   3 2137.69  144.09
  -2   4  -3  472.85   33.50
  -2  -2  -3  392.96   34.20
   4  -2  -3  519.05   33.60
  -2  -2  -3  482.95   33.70
   2  -4   3  492.45   34.10
   2   2   3  492.25   33.90
  -2   5  -3 2009.00  139.19
  -3  -2  -3 2046.30  139.39
   5  -3  -3 2040.80  139.89
   5  -3  -3 2029.20  139.39
   3   2   3 2008.40  139.49
   2  -5   3 2073.29  139.69
  -5   3   3 2042.90  139.09
   4  -3  -3 2078.39  142.69
  -1   4  -3 2032.20  141.89
  -3  -1  -3 2060.99  142.39
   4  -3  -3 2311.97  142.39
  -4   3   3 2083.09  142.19
   3   1   3 2011.90  142.39
   1  -4   3 1989.10  142.39
   3  -3  -3    1.30    3.90
  -3   0  -3    4.30    4.20
   0   3  -3    6.20    2.40
   3  -3  -3   -3.30    5.00
  -3   3   3    2.20    3.90
   0  -3   3    5.70    3.80
   3   0   3    4.30    4.20
   1   2  -3 2301.07  149.69
   2  -3  -3 2257.97  150.88
   2  -3  -3 2192.38  150.38
  -1  -2   3 2214.08  150.08
   3  -1   3 2305.57  150.48
  -2   3   3 1929.51  150.28
   2   1  -3 2199.38  154.28
   1  -3  -3 2062.79  155.28
   3  -2   3 2241.18  154.98
  -1   3   3 2579.04  155.18
   0  -3  -3    0.70    4.70
   3   0  -3    3.70    2.60
   0  -3  -3    4.10    4.20
  -3   3  -3    9.10    4.00
   0   3   3    2.30    4.40
   3  -3   3   -0.10    5.40
   3  -3   3    7.20    3.80
   4  -1  -3 2097.39  141.19
  -3   4  -3 2147.69  141.59
  -1  -3  -3 2138.99  141.59
  -1  -3  -3 2002.00  141.89
   3  -4   3 1999.80  141.89
   3  -4   3 2068.09  141.29
   1   3   3 2021.00  141.59
  -2  -3  -3 1740.33  130.09
  -2  -3  -3 1935.31  129.79
   5  -2  -3 1983.30  129.59
  -3   5  -3 2068.39  129.89
   3  -5   3 1791.52  130.29
   3  -5   3 1989.60  129.49
   2   3   3 1744.63  129.79
  -3   6  -3 2854.31  203.48
   6  -3  -3 3071.29  204.08
   6  -3  -3 3037.10  203.48
  -3  -3  -3 3057.19  203.48
  -6   3   3 3047.40  203.08
   3   3   3 2935.11  203.58
   3  -6   3 2929.51  202.98
   3  -6   3 2918.21  204.08
   3  -6   3 2958.40  203.08
  -4  -3  -3  594.34   42.00
  -3   7  -3  613.64   42.60
   7  -4  -3  558.34   42.20
   7  -4  -3  602.34   43.60
   4   3   3  558.34   42.20
   3  -7   3  624.34   43.10
  -7   4   3  616.74   41.80
   6  -4  -3  368.96   28.10
  -4  -2  -3  411.56   26.90
   6  -4  -3  387.16   27.10
  -2   6  -3  361.76   26.70
   2  -6   3  353.66   27.40
  -6   4   3  345.67   26.70
   4   2   3  351.66   27.00
  -4  -1  -3 1885.31  125.59
   5  -4  -3 1742.43  126.19
  -1   5  -3 1790.52  125.09
   5  -4  -3 1910.51  125.59
   5  -4  -3 1886.31  125.59
   4   1   3 1776.92  125.59
  -5   4   3 1888.21  125.59
   1  -5   3 1769.72  125.49
  -4   0  -3   71.49    6.80
   4  -4  -3   53.89    8.00
   0   4  -3   56.59    5.30
   4  -4  -3   48.70    6.60
  -4   4   3   50.39    6.60
   0  -4   3   59.29    6.20
   4   0   3   59.09    6.90
   3  -4  -3 2114.29  146.49
  -4   1  -3 2233.78  146.09
   3  -4  -3 2230.38  146.09
   4  -1   3 2073.09  146.59
   4  -1   3 2100.19  145.99
  -1  -3   3 2156.48  145.49
  -3   4   3 2025.00  146.09
   2  -4  -3  476.95   36.60
  -4   2  -3  545.95   36.10
  -2  -2   3  509.85   34.90
   4  -2   3  514.35   36.00
   4  -2   3  515.15   36.70
  -2   4   3  486.15   36.00
   1  -4  -3 1990.60  138.09
  -4   3  -3 2176.48  138.29
   4  -3   3 1912.01  138.59
   4  -3   3 2127.69  138.19
  -1   4   3 1882.71  138.19
   0  -4  -3   72.09    6.70
   0  -4  -3   54.49    7.70
   4   0  -3   58.69    5.60
  -4   4  -3   50.59    7.00
   4  -4   3   59.99    8.50
   0   4   3   52.59    6.90
   4  -4   3   49.90    6.30
  -1  -4  -3 1887.41  126.19
  -4   5  -3 1800.02  125.79
  -1  -4  -3 1708.03  125.59
   5  -1  -3 1848.62  125.19
   4  -5   3 1773.92  125.49
   4  -5   3 1741.63  126.29
   1   4   3 2076.29  125.99
  -4   6  -3  339.67   27.10
   6  -2  -3  350.06   26.20
  -2  -4  -3  366.96   26.50
  -2  -4  -3  299.37   27.20
   4  -6   3  382.56   26.30
   2   4   3  432.86   27.00
   4  -6   3  385.86   28.00
   7  -3  -3  574.94   42.80
  -4   7  -3  638.34   42.60
   7  -3  -3  567.94   41.60
  -3  -4  -3  636.94   42.60
  -3  -4  -3  585.64   41.50
   3   4   3  527.65   41.80
   4  -7   3  604.14   41.20
   4  -7   3  541.25   42.90
   4  -7   3  621.74   41.20
  -4  -4  -3  763.52   51.39
   8  -4  -3  656.93   52.89
  -4   8  -3  806.82   53.09
   8  -4  -3  692.33   51.79
  -8   4   3  755.82   51.09
   4   4   3  728.23   51.89
   4  -8   3  723.93   50.89
   4  -8   3  754.82   52.79
  -4   9  -3  762.42   54.89
   9  -5  -3  719.63   53.19
   9  -5  -3  759.12   55.19
  -5  -4  -3  757.52   52.59
   5   4   3  747.73   53.19
   4  -9   3  738.73   54.19
  -9   5   3  767.02   52.69
   8  -5  -3  306.17   30.50
  -3   8  -3  338.57   29.10
   8  -5  -3  338.27   28.70
  -5  -3  -3  367.66   28.10
   3  -8   3  448.86   29.60
   5   3   3  421.76   28.80
  -8   5   3  454.75   28.60
   7  -5  -3  388.76   27.40
  -2   7  -3  344.97   25.40
  -5  -2  -3  331.97   25.10
   7  -5  -3  340.37   25.70
   2  -7   3  348.47   25.70
  -7   5   3  349.17   25.60
   5   2   3  296.27   25.30
   6  -5  -3 2172.58  151.58
   6  -5  -3 2226.88  151.68
   6  -5  -3 1899.61  152.28
  -5  -1  -3 2358.36  151.58
  -1   6  -3 2195.38  150.98
  -6   5   3 2308.37  151.78
   1  -6   3 2260.97  151.48
   5   1   3 2258.57  151.58
   0   5  -3  195.78   14.00
  -5   0  -3  188.28   15.80
   5  -5  -3  184.78   15.90
   5  -5  -3  173.68   17.20
  -5   5   3  177.18   16.20
   5   0   3  201.38   15.70
   5   0   3  219.08   17.00
   0  -5   3  194.48   15.00
   4  -5  -3 1940.81  123.29
   4  -5  -3 1501.25  122.39
  -5   1  -3 1668.43  122.49
  -4   5   3 1729.13  122.69
  -1  -4   3 1814.72  121.79
   5  -1   3 1885.91  122.59
   5  -1   3 1965.60  123.19
   3  -5  -3 2047.20  137.99
  -5   2  -3 2050.09  138.19
   3  -5  -3 1905.11  138.49
  -3   5   3 1975.70  138.19
   5  -2   3 2075.49  138.09
   5  -2   3 2027.70  138.59
   2  -5  -3 2030.00  135.39
   2  -5  -3 1978.70  135.99
  -5   3  -3 1996.60  135.59
   5  -3   3 1970.00  135.99
   5  -3   3 1866.71  135.39
  -2   5   3 2015.10  135.69
   1  -5  -3 1813.72  124.09
   1  -5  -3 1774.82  123.39
  -5   4  -3 1844.12  123.69
  -1   5   3 1744.33  123.59
   5  -4   3 1753.92  123.49
   5  -4   3 1870.41  124.29
  -5   5  -3  172.78   16.10
   0  -5  -3  189.08   15.20
   0  -5  -3  167.38   16.30
   5   0  -3  203.38   13.90
   5  -5   3  179.68   16.50
   0   5   3  209.28   16.00
   5  -5   3  194.98   15.40
  -1  -5  -3 2234.38  149.39
  -1  -5  -3 2176.48  148.69
   6  -1  -3 2353.56  148.29
  -5   6  -3 2080.09  149.19
   1   5   3 1940.81  148.79
   5  -6   3 2194.18  148.69
   5  -6   3 2202.38  149.69
  -2  -5  -3  283.87   25.50
  -2  -5  -3  347.67   24.70
   7  -2  -3  361.36   24.50
  -5   7  -3  338.77   26.50
   5  -7   3  361.06   24.80
   5  -7   3  341.77   26.70
   2   5   3  302.17   25.30
  -3  -5  -3  459.75   30.60
   8  -3  -3  417.16   29.40
  -5   8  -3  433.86   31.50
  -3  -5  -3  423.16   29.00
   8  -3  -3  451.85   31.10
   5  -8   3  349.17   28.70
   3   5   3  362.16   29.60
   5  -8   3  393.86   31.10
   5  -8   3  350.96   28.70
   9  -4  -3  689.53   53.99
  -5   9  -3  785.02   54.69
   9  -4  -3  744.83   52.39
  -4  -5  -3  787.22   51.79
   4   5   3  675.73   52.29
   5  -9   3  728.43   51.59
   5  -9   3  773.22   53.79
  10  -5  -3    9.30    9.90
  10  -5  -3   21.40    7.10
  -5  10  -3    6.40   11.50
   5 -10   3   24.50    9.40
   5   5   3   17.40    6.80
  11  -6  -3  204.28   20.60
  11  -6  -3  238.48   18.80
  -5  11  -3  199.48   21.50
   6   5   3  162.68   16.20
   5 -11   3  162.18   17.90
  -4  10  -3   96.59   14.30
  10  -6  -3   96.79   13.40
  10  -6  -3   84.59   10.30
   4 -10   3   65.49   10.70
   6   4   3   70.39    9.50
   9  -6  -3  274.67   20.60
  -3   9  -3  234.48   22.00
  -6  -3  -3  231.78   18.90
   9  -6  -3  199.98   22.40
   6   3   3  262.77   20.00
   3  -9   3  246.48   20.50
  -9   6   3  225.18   20.10
   8  -6  -3  652.73   54.29
  -2   8  -3  758.32   53.19
  -6  -2  -3  746.73   52.59
   8  -6  -3  764.22   53.09
   6   2   3  810.12   53.09
  -8   6   3  744.13   53.29
   2  -8   3  756.62   53.09
  -1   7  -3  327.07   26.00
   7  -6  -3  374.56   28.70
   7  -6  -3  295.47   26.60
  -6  -1  -3  296.17   26.20
   7  -6  -3  323.67   26.90
   6   1   3  400.86   26.90
   1  -7   3  428.36   26.60
  -7   6   3  423.36   27.80
   6  -6  -3    6.50    5.40
   6  -6  -3    7.60    7.20
  -6   0  -3    8.80    5.00
   0   6  -3    4.40    3.40
   6   0   3    6.50    5.10
   6   0   3    6.50    6.50
  -6   6   3   -1.80    6.20
   0  -6   3    8.10    4.10
   5  -6  -3 1903.41  147.49
   5  -6  -3 2235.78  146.89
  -6   1  -3 2150.78  146.79
   6  -1   3 2102.99  146.79
  -1  -5   3 2142.19  145.89
   6  -1   3 2037.20  147.19
  -5   6   3 2421.46  147.49
   4  -6  -3  364.76   27.80
   4  -6  -3  307.97   26.40
  -6   2  -3  363.16   26.90
  -4   6   3  395.56   27.60
   6  -2   3  389.86   27.40
   6  -2   3  350.56   26.60
   3  -6  -3 3294.97  211.48
   3  -6  -3 2771.02  210.58
  -6   3  -3 3208.98  210.98
   6  -3   3 3142.39  211.48
  -3   6   3 3116.29  211.08
   6  -3   3 2976.90  210.78
  -6   4  -3  394.26   27.90
   2  -6  -3  387.06   28.00
   2  -6  -3  390.56   27.10
  -2   6   3  324.57   27.70
   6  -4   3  358.36   27.40
   6  -4   3  370.26   28.80
  -6   5  -3 2391.26  152.28
   1  -6  -3 1947.11  151.48
   1  -6  -3 2214.48  152.38
   6  -5   3 2230.28  152.78
   6  -5   3 2245.98  151.78
  -1   6   3 2271.27  151.98
   0  -6  -3   11.20    4.50
  -6   6  -3    6.00    6.90
   6   0  -3    8.50    3.00
   0  -6  -3    5.90    6.10
   0   6   3   -0.40    5.30
   6  -6   3   18.20    7.70
   6  -6   3    7.40    5.20
  -1  -6  -3  370.66   28.00
  -1  -6  -3  438.46   26.80
   7  -1  -3  386.66   26.20
  -6   7  -3  339.87   28.50
   6  -7   3  337.87   28.90
   1   6   3  300.47   27.10
   6  -7   3  346.37   26.90
  -2  -6  -3  739.93   51.89
   8  -2  -3  772.72   51.89
  -2  -6  -3  714.63   52.89
  -6   8  -3  717.93   54.09
   2   6   3  775.42   52.49
   6  -8   3  728.63   53.89
   6  -8   3  731.13   52.09
   9  -3  -3  198.58   20.70
  -3  -6  -3  258.67   17.80
  -6   9  -3  215.88   21.10
   9  -3  -3  210.98   18.40
  -3  -6  -3  209.18   19.70
   3   6   3  216.78   19.20
   6  -9   3  242.48   18.10
   6  -9   3  208.18   21.30
   6  -9   3  238.78   18.00
  -6  10  -3   41.90   13.80
  10  -4  -3   66.99    8.90
   4   6   3   70.89    9.30
   6 -10   3   66.69   11.50
  11  -5  -3  146.39   15.40
  -6  11  -3  112.39   19.90
   6 -11   3  209.58   19.30
   5   6   3  211.18   17.50
  -6  12  -3  361.46   33.30
  12  -6  -3  388.96   29.90
   6 -12   3  366.36   30.90
   6   6   3  362.36   29.30
  -6  13  -3  144.09   19.70
  13  -7  -3  200.48   16.50
   6 -13   3  150.38   17.40
   7   6   3  112.79   14.60
  12  -7  -3  644.94   42.70
  -5  12  -3  613.04   47.20
  12  -7  -3  611.94   45.40
   7   5   3  521.45   41.90
   5 -12   3  489.55   43.10
  -4  11  -3  154.88   18.80
  11  -7  -3  173.38   18.80
  11  -7  -3  166.28   15.40
   7   4   3  142.39   14.20
   4 -11   3  133.59   15.30
  10  -7  -3 1226.58   95.79
  -3  10  -3 1421.06   95.99
  10  -7  -3 1377.36   94.49
   3 -10   3 1315.47   94.29
   7   3   3 1368.26   94.09
   7   3   3 1349.66   94.69
 -10   7   3 1408.96   94.59
   9  -7  -3  519.85   42.20
  -2   9  -3  548.95   43.20
  -7  -2  -3  570.54   41.50
   9  -7  -3  637.04   44.60
  -9   7   3  613.64   43.00
   7   2   3  575.44   41.90
   7   2   3  585.24   42.80
   2  -9   3  596.64   42.00
  -7  -1  -3  644.14   44.40
   8  -7  -3  612.64   46.50
   8  -7  -3  640.14   45.10
   8  -7  -3  610.94   44.90
  -1   8  -3  632.64   44.70
   7   1   3  534.05   44.60
   7   1   3  668.73   45.60
  -8   7   3  610.44   45.80
   1  -8   3  651.23   44.30
   7  -7  -3 1015.80   72.89
   7  -7  -3  901.01   74.09
   0   7  -3 1082.69   72.09
  -7   0  -3 1011.50   72.69
   0  -7   3  999.00   71.99
   7   0   3 1085.29   72.89
  -7   7   3 1046.60   73.69
   7   0   3 1207.98   73.69
   6  -7  -3  435.56   28.00
   1   6  -3  416.46   25.80
  -7   1  -3  382.56   27.80
   6  -7  -3  426.86   29.80
   7  -1   3  331.37   27.60
  -6   7   3  306.57   29.00
   7  -1   3  318.77   28.30
  -1  -6   3  330.87   25.90
   5  -7  -3  358.36   27.80
   5  -7  -3  346.27   26.20
  -7   2  -3  350.76   26.50
   7  -2   3  340.47   27.40
   7  -2   3  325.57   26.30
  -5   7   3  380.26   27.60
   4  -7  -3  678.73   46.60
  -7   3  -3  578.74   45.70
   4  -7  -3  620.84   45.50
  -4   7   3  670.73   46.40
   7  -3   3  687.03   45.70
   7  -3   3  617.14   46.20
   3  -7  -3  674.73   40.90
  -7   4  -3  586.54   41.70
   3  -7  -3  529.15   41.70
   7  -4   3  496.05   40.70
   7  -4   3  540.95   42.10
  -3   7   3  610.84   41.70
  -7   5  -3  431.36   28.60
   2  -7  -3  349.27   26.60
   2  -7  -3  373.26   28.20
  -2   7   3  323.17   27.60
   7  -5   3  351.86   28.70
   7  -5   3  362.96   27.10
  -7   6  -3  267.37   27.80
   6   1  -3  340.47   24.90
   1  -7  -3  320.47   27.70
   1  -7  -3  317.87   26.30
  -1   7   3  442.66   27.80
   7  -6   3  431.56   29.20
   7  -6   3  439.86   27.30
   7   0  -3 1054.49   71.89
   0  -7  -3 1228.48   73.89
   0  -7  -3 1021.00   72.49
  -7   7  -3  983.80   74.29
   7  -7   3 1106.09   73.09
   7  -7   3  972.10   74.39
   0   7   3  947.11   73.09
  -7   8  -3  648.74   48.60
  -1  -7  -3  654.93   45.60
  -1  -7  -3  614.24   46.80
   8  -1  -3  623.74   45.20
   1   7   3  683.43   46.60
   7  -8   3  719.73   48.30
   7  -8   3  607.04   46.00
  -2  -7  -3  551.04   42.40
  -2  -7  -3  583.54   41.00
  -7   9  -3  555.44   45.40
   9  -2  -3  599.74   41.20
   7  -9   3  605.14   41.60
   2   7   3  558.94   42.10
   7  -9   3  575.24   44.00
  -7  10  -3 1194.28  100.39
  10  -3  -3 1410.86   97.59
  -3  -7  -3 1430.86   98.59
   7 -10   3 1609.34  100.09
   7 -10   3 1338.97   97.49
   3   7   3 1435.06   98.09
   7 -10   3 1428.66   97.59
  -7  11  -3  140.19   20.50
  11  -4  -3  156.68   14.70
   4   7   3  167.78   15.10
   7 -11   3  158.08   17.80
  12  -5  -3  469.65   41.20
  -7  12  -3  466.35   46.90
   5   7   3  647.84   41.60
   7 -12   3  604.04   43.60
  -7  13  -3  126.19   20.00
  13  -6  -3  147.29   15.50
   7 -13   3  158.38   17.90
   6   7   3  154.68   15.30
  14  -7  -3  204.08   19.00
  -7  14  -3  147.19   21.80
   7 -14   3  203.48   21.00
   7   7   3  202.18   18.30
  15  -8  -3   47.20   12.00
  -7  15  -3   35.70   14.70
   7 -15   3   38.90   12.60
   8   7   3   38.60   10.60
  14  -8  -3  168.98   16.50
  -6  14  -3  136.49   18.50
   8   6   3  129.19   14.50
   6 -14   3  115.19   16.30
  13  -8  -3  216.28   19.20
  -5  13  -3  176.38   21.50
   5 -13   3  181.18   19.30
   8   5   3  211.58   18.30
  12  -8  -3   39.50   13.90
  -4  12  -3   54.79   14.00
  12  -8  -3   57.29   10.20
   4 -12   3   50.89   10.10
   8   4   3   43.00    9.10
  11  -8  -3  178.88   17.10
  11  -8  -3  199.28   20.20
  -3  11  -3  173.38   19.70
 -11   8   3  198.18   20.40
   3 -11   3  160.38   16.50
   8   3   3  195.08   17.80
  -2  10  -3 2395.96  170.48
  10  -8  -3 2691.53  171.68
  10  -8  -3 2511.05  169.78
  10  -8  -3 2507.95  169.78
 -10   8   3 2244.28  170.08
   8   2   3 2567.04  169.38
   8   2   3 2455.85  170.08
   2 -10   3 2341.87  169.18
   9  -8  -3  395.46   32.90
   9  -8  -3  357.96   30.50
  -1   9  -3  349.77   31.40
   9  -8  -3  352.46   30.40
  -8  -1  -3  362.16   29.80
   8   1   3  430.86   30.20
   1  -9   3  459.95   29.60
  -9   8   3  390.46   32.40
   8   1   3  437.16   31.10
   0   8  -3    8.50    6.30
  -8   0  -3   -2.40    6.00
   8  -8  -3    4.30    8.90
   8  -8  -3    6.40    6.80
  -8   8   3   14.20    9.30
   8   0   3    3.00    7.60
   8   0   3    8.60    6.30
   0  -8   3    6.90    4.70
   1   7  -3  662.83   44.60
  -8   1  -3  636.74   46.10
   7  -8  -3  593.54   45.90
   7  -8  -3  654.33   47.80
  -1  -7   3  663.53   44.40
   8  -1   3  599.04   46.60
   8  -1   3  690.33   46.00
  -7   8   3  580.04   47.70
   6  -8  -3  829.92   54.79
   6  -8  -3  804.12   56.19
  -8   2  -3  691.03   54.79
  -6   8   3  773.42   56.19
   8  -2   3  741.73   54.69
   8  -2   3  793.22   55.59
   5  -8  -3  437.56   29.50
  -8   3  -3  476.15   30.50
   5  -8  -3  454.55   30.80
   8  -3   3  335.67   29.30
   8  -3   3  308.67   30.40
  -5   8   3  356.36   31.20
   4  -8  -3  809.22   53.69
   4  -8  -3  709.83   54.49
  -8   4  -3  739.33   54.49
   8  -4   3  752.82   54.69
   8  -4   3  716.13   53.69
  -4   8   3  844.32   55.09
   3  -8  -3  294.77   27.30
   3  -8  -3  363.36   29.10
  -8   5  -3  350.96   29.40
  -3   8   3  443.26   29.40
   8  -5   3  402.36   28.20
   8  -5   3  411.96   30.00
  -8   6  -3  802.72   52.89
   2  -8  -3  704.33   52.29
   2  -8  -3  684.13   50.89
   8  -6   3  731.93   51.49
   8  -6   3  705.83   52.59
  -2   8   3  736.23   51.99
  -8   7  -3  678.63   48.20
   1  -8  -3  652.63   46.70
   7   1  -3  633.74   44.20
   1  -8  -3  662.93   45.30
   8  -7   3  622.34   47.80
  -1   8   3  630.74   46.20
   8  -7   3  606.54   45.80
   8   0  -3   13.40    4.20
   0  -8  -3   20.70    7.60
   0  -8  -3    9.90    5.10
  -8   8  -3   13.60   10.90
   0   8   3    3.10    7.00
   8  -8   3   10.10    6.10
   8  -8   3   -1.50    9.50
  -1  -8  -3  468.45   31.50
  -1  -8  -3  421.56   33.20
   9  -1  -3  474.55   31.40
  -8   9  -3  521.45   37.30
   8  -9   3  419.56   35.10
   8  -9   3  382.76   32.20
   1   8   3  361.16   32.60
  10  -2  -3 2426.36  165.68
  -8  10  -3 2221.18  168.88
  -2  -8  -3 2500.55  166.78
   8 -10   3 2417.96  165.98
   2   8   3 2494.35  166.38
   8 -10   3 2397.66  167.98
  -8  11  -3  154.48   22.00
  -3  -8  -3  172.38   18.10
  11  -3  -3  201.28   16.80
   8 -11   3  166.48   16.30
   3   8   3  152.28   16.00
   8 -11   3  176.58   16.50
   8 -11   3  193.38   19.70
  -8  12  -3   61.79   16.70
  12  -4  -3   58.59    9.70
   8 -12   3   66.69   13.50
   4   8   3   59.29   10.00
  13  -5  -3  182.48   17.30
  -8  13  -3  194.28   23.50
   8 -13   3  166.28   19.90
   5   8   3  187.88   17.30
  -8  14  -3  138.29   19.90
  14  -6  -3  115.69   15.10
   6   8   3  140.09   15.00
   8 -14   3  147.29   18.40
  15  -7  -3   46.50   11.60
  -8  15  -3   45.50   15.50
   8 -15   3   27.60   13.60
   7   8   3   54.69   11.00
  16  -8  -3  860.71   60.29
  -8  16  -3  758.92   62.59
   8 -16   3  779.12   61.29
   8   8   3  806.12   59.29
  -8  17  -3  142.89   20.60
  17  -9  -3  123.19   17.60
   8 -17   3  124.19   19.50
   9   8   3  134.79   16.40
  16  -9  -3  274.07   26.50
  -7  16  -3  264.37   27.90
   9   7   3  299.47   27.60
   7 -16   3  344.07   30.80
  15  -9  -3   15.30   11.20
  -6  15  -3   11.90   12.80
   6 -15   3   15.20   12.20
   9   6   3   12.10    9.80
  -5  14  -3  857.31   63.79
  14  -9  -3  919.51   62.59
   9   5   3  851.41   61.29
   5 -14   3  772.02   62.39
  -4  13  -3  457.05   40.90
  13  -9  -3  457.35   41.70
  13  -9  -3  502.05   38.90
   4 -13   3  507.55   38.80
   9   4   3  528.35   37.90
  12  -9  -3 1282.97   97.79
  -3  12  -3 1373.06   96.89
  12  -9  -3 1206.78   95.39
   3 -12   3 1406.46   95.39
   9   3   3 1519.65   95.39
  11  -9  -3  471.25   34.10
  11  -9  -3  428.56   33.70
  -2  11  -3  413.96   35.70
  11  -9  -3  413.66   36.50
 -11   9   3  456.05   35.90
   2 -11   3  444.96   32.90
   9   2   3  396.26   33.00
  10  -9  -3 2600.24  182.68
  -1  10  -3 2482.55  182.98
  10  -9  -3 2577.94  182.68
  10  -9  -3 2930.31  184.58
   1 -10   3 2740.33  181.88
   9   1   3 2660.13  182.28
 -10   9   3 2518.15  183.58
   9   1   3 2701.63  182.98
   9  -9  -3   29.00    8.30
   0   9  -3   19.80    9.10
   9  -9  -3    8.00   10.20
   9   0   3   24.30    9.00
   0  -9   3   30.50    5.80
  -9   9   3    5.50   10.50
   9   0   3   21.50    7.40
   1   8  -3  417.96   30.60
   8  -9  -3  475.75   34.30
  -9   1  -3  443.16   31.40
   8  -9  -3  440.56   31.60
   9  -1   3  385.76   32.00
   9  -1   3  392.46   31.10
  -1  -8   3  366.56   29.00
   2   7  -3  563.14   39.60
   7  -9  -3  549.85   41.40
  -9   2  -3  602.24   41.90
   7  -9  -3  570.24   43.30
   9  -2   3  544.05   41.20
   9  -2   3  610.54   42.40
  -7   9   3  502.35   43.60
   6  -9  -3  214.48   19.20
  -9   3  -3  211.08   20.80
   6  -9  -3  235.18   21.90
   9  -3   3  259.57   19.70
  -6   9   3  179.98   20.30
   9  -3   3  253.57   21.30
   5  -9  -3  872.91   53.49
  -9   4  -3  737.83   54.49
   5  -9  -3  699.73   54.69
   9  -4   3  635.34   53.39
   9  -4   3  840.52   54.99
  -5   9   3  718.13   55.19
  -9   5  -3  726.93   57.49
   4  -9  -3  737.23   55.79
   4  -9  -3  879.31   57.59
   9  -5   3  733.23   56.19
  -4   9   3  872.91   57.49
   9  -5   3  818.02   57.79
   3  -9  -3  229.08   19.50
  -9   6  -3  275.47   23.40
   3  -9  -3  229.68   20.90
  -3   9   3  220.98   21.80
   9  -6   3  250.47   23.00
   9  -6   3  255.97   20.50
   7   2  -3  616.74   40.50
  -9   7  -3  624.74   45.80
   2  -9  -3  671.73   43.90
   2  -9  -3  601.94   42.00
   9  -7   3  473.85   42.50
  -2   9   3  575.94   43.50
   9  -7   3  532.25   44.50
   1  -9  -3  335.37   28.60
   1  -9  -3  364.76   30.60
  -9   8  -3  327.47   33.60
   8   1  -3  370.26   27.60
   9  -8   3  436.96   32.10
  -1   9   3  470.05   31.00
   9  -8   3  456.35   30.10
  -9   9  -3   29.80   13.30
   0  -9  -3   14.90    8.20
   9   0  -3   26.00    5.30
   9  -9   3   26.20   11.50
   9  -9   3   26.20    7.50
   0   9   3   24.30    8.20
  -9  10  -3 2602.84  190.38
  10  -1  -3 2793.32  186.68
  -1  -9  -3 2527.75  187.98
   9 -10   3 2689.33  187.38
   1   9   3 2790.62  187.68
   9 -10   3 2957.10  189.68
  -2  -9  -3  394.86   33.60
  -9  11  -3  314.17   36.60
  11  -2  -3  495.05   32.50
   9 -11   3  400.26   36.50
   9 -11   3  414.86   32.70
   2   9   3  469.65   33.90
   9 -11   3  471.95   32.90
  -3  -9  -3 1415.26   95.59
  -9  12  -3 1240.58   98.99
  12  -3  -3 1394.86   94.39
   3   9   3 1321.37   94.89
   9 -12   3 1354.96   97.09
  -9  13  -3  478.85   42.30
  13  -4  -3  452.45   36.10
   9 -13   3  482.15   39.80
   4   9   3  472.05   36.40
  14  -5  -3  801.22   60.79
  -9  14  -3  759.82   65.09
   9 -14   3  910.61   63.59
   5   9   3  863.81   60.89
  -9  15  -3   27.10   14.80
  15  -6  -3    5.30   10.10
   6   9   3   14.90   10.00
   9 -15   3   10.80   13.70
  -9  16  -3  293.87   28.30
  16  -7  -3  321.97   27.30
   7   9   3  249.48   24.00
   9 -16   3  239.28   26.60
  17  -8  -3  132.49   17.20
  -9  17  -3  143.09   20.50
   8   9   3  110.59   15.80
   9 -17   3  112.29   19.00
  18  -9  -3   -2.10   13.50
  -9  18  -3   26.30   16.60
   9 -18   3   15.70   15.10
   9   9   3  -10.70   11.10
  19 -10  -3  120.79   19.30
  -9  19  -3  147.69   22.50
  10   9   3  110.69   17.20
   9 -19   3  107.39   20.10
  -8  18  -3    8.60   16.30
  18 -10  -3   26.20   14.00
  10   8   3   23.10   12.40
   8 -18   3   25.30   14.80
  -7  17  -3   -1.90   14.30
  17 -10  -3    3.20   12.60
  10   7   3   11.80   11.30
   7 -17   3    6.20   13.50
  -6  16  -3  521.05   44.10
  16 -10  -3  500.65   42.30
   6 -16   3  524.65   42.50
  10   6   3  529.45   41.00
  -5  15  -3  121.39   17.60
  15 -10  -3  106.59   16.00
   5 -15   3  151.28   16.90
  10   5   3  147.99   15.50
  14 -10  -3    4.70    9.90
  -4  14  -3   -1.40   11.30
  14 -10  -3   -0.80   14.20
   4 -14   3    4.50    9.80
  10   4   3   -2.70    8.90
  -3  13  -3  979.50   71.49
  13 -10  -3 1046.60   71.09
  13 -10  -3  996.70   73.69
  13 -10  -3 1082.19   71.29
   3 -13   3  957.10   70.19
  10   3   3  874.51   69.89
  12 -10  -3  333.07   26.70
  12 -10  -3  306.27   25.90
  -2  12  -3  275.97   26.80
  12 -10  -3  253.77   27.40
  10   2   3  275.57   24.70
 -12  10   3  279.57   27.00
   2 -12   3  298.97   24.10
  -1  11  -3  576.04   44.30
  11 -10  -3  583.74   46.40
  11 -10  -3  650.43   44.40
   1 -11   3  588.54   42.20
  10   1   3  582.64   43.20
 -11  10   3  491.35   45.90
   0  10  -3    7.80    9.00
  10 -10  -3   25.30   11.00
  10 -10  -3   11.10    8.20
  10   0   3   13.10    7.80
 -10  10   3   11.40   11.40
  10   0   3   18.30    9.30
   0 -10   3   17.70    5.80
   9 -10  -3 2637.54  188.48
   1   9  -3 2625.54  187.98
   9 -10  -3 2830.12  190.38
  10  -1   3 2960.00  188.28
  -1  -9   3 2743.23  186.98
  10  -1   3 2638.24  188.88
   2   8  -3 2269.87  166.18
   8 -10  -3 2390.86  168.68
 -10   2  -3 2398.76  167.38
   8 -10  -3 2367.06  166.98
  -2  -8   3 2527.85  165.28
  10  -2   3 2440.46  167.68
  10  -2   3 2554.54  166.98
   7 -10  -3 1255.47   97.39
 -10   3  -3 1306.97   96.69
   3   7  -3 1273.87   94.59
   7 -10  -3 1502.55   96.19
  10  -3   3 1603.24   96.29
  10  -3   3 1508.85   97.29
  -7  10   3 1178.98   97.39
   6 -10  -3   53.79   11.50
   6 -10  -3   56.59    9.10
 -10   4  -3   70.79   11.90
  10  -4   3   78.79   12.20
  10  -4   3   89.29   10.40
  -6  10   3   90.39   13.50
 -10   5  -3   27.50   10.60
   5 -10  -3   18.50    6.70
   5 -10  -3    3.50    9.40
  -5  10   3    7.00   10.20
  10  -5   3    8.90    7.30
  10  -5   3   18.20    9.60
 -10   6  -3  100.19   14.00
   4 -10  -3   75.69   12.10
   4 -10  -3   79.79    9.00
  10  -6   3   56.89   12.20
  10  -6   3   44.20    9.50
  -4  10   3   70.19   11.90
   3 -10  -3 1307.87   98.09
   7   3  -3 1377.66   95.29
 -10   7  -3 1551.74  100.09
   3 -10  -3 1524.65   96.79
  10  -7   3 1331.47   98.89
  10  -7   3 1289.37   97.29
  -3  10   3 1421.96   98.19
   2 -10  -3 2489.15  170.88
   8   2  -3 2492.15  169.98
 -10   8  -3 2331.87  173.78
   2 -10  -3 2683.33  172.58
  -2  10   3 2471.55  172.08
  10  -8   3 2499.85  171.68
  10  -8   3 2448.46  172.98
   1 -10  -3 2680.13  179.28
 -10   9  -3 2327.17  180.88
   9   1  -3 2760.22  177.28
  10  -9   3 2508.25  178.58
  10  -9   3 2471.15  180.18
  -1  10   3 2752.82  178.98
   0 -10  -3   10.10    8.70
 -10  10  -3   12.70   15.30
  10   0  -3    7.30    5.40
   0  10   3    9.30    8.40
  10 -10   3   12.90   11.90
  10 -10   3    6.10    7.30
  -1 -10  -3  632.84   46.30
 -10  11  -3  567.04   51.79
  11  -1  -3  602.04   44.20
  10 -11   3  692.93   49.20
  10 -11   3  588.74   45.20
   1  10   3  608.74   45.90
  -2 -10  -3  316.07   25.80
 -10  12  -3  314.27   30.60
  12  -2  -3  318.77   23.90
  10 -12   3  243.18   27.40
  10 -12   3  269.17   24.30
  10 -12   3  288.77   24.40
   2  10   3  273.67   25.70
  -3 -10  -3  968.00   72.69
  13  -3  -3 1054.29   71.59
 -10  13  -3  903.51   76.59
   3  10   3  980.30   72.09
  10 -13   3 1114.79   75.29
  14  -4  -3  -13.10    8.20
 -10  14  -3   -9.10   14.80
  10 -14   3  -12.30   13.00
   4  10   3  -17.20    9.10
 -10  15  -3  137.19   20.80
  15  -5  -3  157.18   16.10
   5  10   3  124.69   15.40
  10 -15   3  110.09   19.10
  16  -6  -3  563.04   41.40
 -10  16  -3  542.35   46.20
  10 -16   3  488.75   44.20
   6  10   3  476.15   41.00
 -10  17  -3  -14.60   14.80
  17  -7  -3   15.40   12.00
  10 -17   3   18.20   15.20
   7  10   3   11.70   11.40
  18  -8  -3   23.20   13.00
 -10  18  -3   22.20   16.90
   8  10   3   16.60   11.90
  10 -18   3    9.70   15.10
 -10  19  -3  117.59   22.20
  19  -9  -3  132.19   19.40
  10 -19   3  132.39   21.80
   9  10   3   94.79   16.70
  20 -10  -3   71.49   17.70
 -10  20  -3   82.19   21.00
  10 -20   3   59.59   18.80
  10  10   3   73.79   16.00
  -9  20  -3   65.99   20.00
  20 -11  -3   65.79   18.10
  11   9   3   82.09   16.50
   9 -20   3   99.59   19.20
  19 -11  -3   25.30   15.30
  -8  19  -3   32.80   17.80
  11   8   3   20.50   13.50
   8 -19   3   40.70   15.80
  18 -11  -3  200.88   22.90
  -7  18  -3  163.48   24.00
   7 -18   3  229.68   23.60
  11   7   3  202.28   21.10
  17 -11  -3    8.30   12.80
  -6  17  -3   29.50   14.80
   6 -17   3   43.30   13.50
  11   6   3   20.70   11.70
  16 -11  -3  419.66   36.00
  -5  16  -3  339.27   36.30
  16 -11  -3  384.56   35.90
  11   5   3  428.46   34.20
   5 -16   3  422.46   34.50
  15 -11  -3   79.29   14.00
  -4  15  -3   40.70   13.10
  15 -11  -3   60.89   13.40
   4 -15   3   35.60   11.10
  11   4   3   48.00   10.90
  14 -11  -3   97.09   15.80
  14 -11  -3  115.59   19.90
  -3  14  -3  131.99   16.40
  14 -11  -3  149.99   17.10
  11   3   3  166.98   15.90
   3 -14   3  142.79   15.20
  13 -11  -3   99.09   14.40
  13 -11  -3  110.69   14.40
  -2  13  -3   95.09   14.00
  13 -11  -3  123.09   18.60
   2 -13   3  110.59   12.60
  11   2   3   95.89   13.00
  12 -11  -3  115.79   18.60
  -1  12  -3  123.29   14.90
  12 -11  -3   84.39   14.80
   1 -12   3  168.78   15.10
  11   1   3  154.98   14.80
 -12  11   3  170.18   19.10
   0  11  -3  377.06   30.10
  11 -11  -3  327.77   34.40
  11 -11  -3  441.66   31.50
  11   0   3  355.56   30.40
   0 -11   3  386.76   28.30
 -11  11   3  330.97   34.20
  10 -11  -3  690.73   46.80
   1  10  -3  583.24   41.80
  10 -11  -3  531.15   42.90
  11  -1   3  551.04   42.40
 -10  11   3  417.16   45.40
  11  -1   3  547.35   43.80
  -1 -10   3  609.14   40.30
   2   9  -3  463.85   33.60
   9 -11  -3  487.55   38.60
   9 -11  -3  503.95   35.30
  -9  11   3  361.66   38.10
  11  -2   3  484.05   35.10
  11  -2   3  405.36   35.90
  -2  -9   3  448.56   31.90
   3   8  -3  191.18   16.10
   8 -11  -3  194.08   18.60
 -11   3  -3  206.78   20.00
   8 -11  -3  212.48   21.40
  -8  11   3  156.78   21.00
  11  -3   3  173.68   17.30
  11  -3   3  202.88   20.60
 -11   4  -3  172.78   18.20
   4   7  -3  153.08   12.40
   7 -11  -3  150.88   18.10
   7 -11  -3  161.08   15.00
  11  -4   3  140.69   16.60
  -7  11   3  158.48   18.90
  11  -4   3  124.19   14.50
   6 -11  -3  147.39   15.80
   6 -11  -3  183.28   19.20
 -11   5  -3  185.88   20.00
  11  -5   3  217.68   19.90
  11  -5   3  212.48   18.90
  -6  11   3  160.08   19.30
   5 -11  -3  223.28   16.80
 -11   6  -3  242.48   21.10
   5 -11  -3  162.38   17.60
  11  -6   3  139.69   18.20
  11  -6   3  129.19   15.80
  -5  11   3  164.68   18.60
   4 -11  -3  157.08   16.20
   4 -11  -3  139.59   13.30
   7   4  -3  151.68   10.90
 -11   7  -3  147.59   19.00
  -4  11   3  142.89   16.50
  11  -7   3  112.49   16.80
  11  -7   3  115.29   14.10
   3 -11  -3  198.38   17.40
   8   3  -3  181.88   14.70
 -11   8  -3  185.08   22.60
   3 -11  -3  204.28   20.90
  -3  11   3  196.88   19.00
  11  -8   3  183.78   20.90
  11  -8   3  214.08   18.30
   2 -11  -3  471.45   36.90
 -11   9  -3  460.05   41.00
   9   2  -3  435.26   32.60
  11  -9   3  424.86   35.20
  11  -9   3  523.15   39.00
  -2  11   3  481.75   36.80
 -11  10  -3  573.04   48.30
   1 -11  -3  501.15   43.10
  10   1  -3  609.94   40.30
  -1  11   3  559.34   42.90
  11 -10   3  585.94   45.80
  11 -10   3  543.85   42.30
  11   0  -3  379.36   28.40
 -11  11  -3  311.57   34.50
   0 -11  -3  417.46   31.50
  11 -11   3  376.16   30.50
   0  11   3  375.16   31.30
  11 -11   3  370.56   35.20
 -11  12  -3  134.49   21.30
  12  -1  -3  154.18   13.10
  -1 -11  -3  130.29   15.70
   1  11   3  110.29   14.40
  11 -12   3  102.49   13.70
  11 -12   3  114.49   18.90
 -11  13  -3   97.19   20.30
  13  -2  -3  111.29   12.80
  -2 -11  -3  110.69   15.00
  11 -13   3  145.39   19.60
   2  11   3  118.09   14.60
 -11  14  -3  168.28   21.90
  -3 -11  -3  136.59   16.80
  14  -3  -3  148.59   15.00
   3  11   3  128.19   15.90
  11 -14   3  137.19   20.60
  15  -4  -3   53.39   11.50
 -11  15  -3   67.39   18.00
   4  11   3   65.59   12.40
  11 -15   3   71.79   17.00
  16  -5  -3  441.16   34.70
 -11  16  -3  383.46   37.30
  11 -16   3  468.25   39.60
   5  11   3  358.66   34.60
 -11  17  -3   57.39   17.60
  17  -6  -3   27.00   12.10
   6  11   3   15.80   11.90
  11 -17   3   43.10   16.40
 -11  18  -3  271.67   26.50
  18  -7  -3  237.18   22.50
  11 -18   3  137.69   24.00
   7  11   3  186.48   20.90
 -11  19  -3   32.30   19.00
  19  -8  -3   43.60   14.90
   8  11   3   45.10   14.30
  11 -19   3   48.00   19.20
  20  -9  -3   97.49   18.00
 -11  20  -3  106.39   22.50
   9  11   3   50.59   15.50
  11 -20   3   76.39   20.80
  20 -12  -3   90.49   19.00
  20 -12  -3  108.29   19.40
  -8  20  -3  109.59   20.70
   8 -20   3  109.99   19.60
  12   8   3  106.69   17.50
  -7  19  -3   90.09   19.30
  19 -12  -3   62.69   17.20
  19 -12  -3   85.79   17.20
  12   7   3   62.69   14.80
   7 -19   3   61.19   16.40
  18 -12  -3  338.97   31.70
  18 -12  -3  414.66   35.10
  -6  18  -3  329.77   32.30
   6 -18   3  299.67   33.00
  12   6   3  348.57   32.10
  17 -12  -3   54.89   15.40
  17 -12  -3   72.69   15.30
  -5  17  -3   51.99   16.00
  12   5   3   61.79   13.20
   5 -17   3   71.99   14.10
  16 -12  -3   88.99   15.50
  -4  16  -3   68.79   15.60
  16 -12  -3   72.39   15.30
   4 -16   3   89.89   14.20
  12   4   3   84.59   13.80
  -3  15  -3   64.99   13.40
  15 -12  -3   74.09   13.70
  15 -12  -3   58.99   17.60
  15 -12  -3   75.59   13.90
   3 -15   3   37.20   11.10
  12   3   3   50.79   12.10
  -2  14  -3  129.19   17.00
  14 -12  -3  144.49   18.10
  14 -12  -3  150.28   22.00
   2 -14   3  191.18   18.00
  12   2   3  166.68   17.10
  13 -12  -3    4.50   14.60
  -1  13  -3   18.20    9.50
  13 -12  -3   11.30   10.50
   1 -13   3    6.40    7.50
  12   1   3   20.90    9.80
  12 -12  -3  -14.20   13.70
   0  12  -3    7.20    8.50
  12 -12  -3   -4.90    9.70
  12   0   3    9.90    9.10
 -12  12   3    6.50   13.30
   0 -12   3   -5.60    6.40
  11 -12  -3  145.69   19.20
  11 -12  -3  138.19   14.70
   1  11  -3  140.29   12.50
  -1 -11   3  102.69   10.50
 -11  12   3   54.29   16.80
  12  -1   3  100.59   13.20
  10 -12  -3  304.17   29.70
  10 -12  -3  303.97   25.70
   2  10  -3  265.17   22.50
  -2 -10   3  283.37   20.80
 -10  12   3  230.48   26.70
  12  -2   3  280.67   25.10
  12  -2   3  295.67   26.50
   9 -12  -3 1515.15  101.19
   3   9  -3 1355.56   97.19
   9 -12  -3 1448.66   99.09
  12  -3   3 1333.37   99.99
  12  -3   3 1426.16   99.09
   4   8  -3   40.10    6.30
   8 -12  -3   50.19   13.60
   8 -12  -3   36.40    9.50
  12  -4   3   55.49   12.50
  12  -4   3   63.29   10.20
  -8  12   3   45.00   15.00
 -12   5  -3  531.05   44.70
   5   7  -3  501.15   38.00
   7 -12  -3  503.65   40.70
   7 -12  -3  516.05   43.30
  12  -5   3  632.14   41.70
  12  -5   3  687.63   44.10
  -7  12   3  512.95   44.90
 -12   6  -3  346.47   36.00
   6 -12  -3  401.36   33.60
   6   6  -3  365.86   27.40
   6 -12  -3  443.96   30.70
  -6  12   3  354.76   34.20
  12  -6   3  414.46   31.40
  12  -6   3  411.86   33.70
   5 -12  -3  579.84   44.20
   7   5  -3  602.84   39.20
 -12   7  -3  546.85   47.20
   5 -12  -3  597.24   41.70
  -5  12   3  516.35   44.20
  12  -7   3  512.35   44.90
  12  -7   3  518.85   42.40
 -12   8  -3   29.00   16.40
   8   4  -3   59.59    6.00
   4 -12  -3   73.99   13.30
  12  -8   3   59.79   14.60
  12  -8   3   60.19   10.70
  -4  12   3   48.90   12.80
   3 -12  -3 1394.76  103.69
   9   3  -3 1426.06  100.69
 -12   9  -3 1428.36  106.59
  12  -9   3 1615.34  105.49
  -3  12   3 1564.04  103.89
  12  -9   3 1404.06  102.89
  10   2  -3  282.97   22.00
   2 -12  -3  282.47   27.00
 -12  10  -3  257.47   29.50
  -2  12   3  285.37   27.10
  12 -10   3  306.37   30.20
  12 -10   3  307.27   25.80
 -12  11  -3   82.99   20.30
  11   1  -3   98.99   11.20
   1 -12  -3  100.99   15.10
  12 -11   3  167.28   15.00
  -1  12   3  149.59   15.10
  12 -11   3  130.99   17.80
  12   0  -3    5.10    6.70
 -12  12  -3  -20.70   15.80
   0 -12  -3    4.20    9.80
   0  12   3   -3.60    9.60
  12 -12   3    6.40   14.90
  12 -12   3   -1.50    9.10
  -1 -12  -3   -3.60   10.30
  13  -1  -3    8.70    7.50
 -12  13  -3   -6.90   15.60
  12 -13   3   -1.90   12.60
  12 -13   3   14.40   10.10
   1  12   3    4.80   10.10
  12 -13   3    8.10    9.70
 -12  14  -3  170.68   24.00
  -2 -12  -3  199.68   19.90
  14  -2  -3  193.48   17.60
  12 -14   3  167.28   23.40
   2  12   3  166.48   18.70
  15  -3  -3   47.00   10.80
  -3 -12  -3   70.89   13.20
 -12  15  -3    3.10   16.90
  12 -15   3   55.99   17.10
   3  12   3   50.09   12.40
 -12  16  -3   91.59   19.30
  16  -4  -3  104.89   13.90
   4  12   3   76.99   14.00
  12 -16   3   53.49   18.10
 -12  17  -3   92.19   19.70
  17  -5  -3   78.39   14.20
  12 -17   3   79.49   19.90
   5  12   3   69.69   13.90
 -12  18  -3  272.57   31.90
  18  -6  -3  325.37   31.70
  12 -18   3  321.27   32.70
   6  12   3  358.46   31.60
 -12  19  -3   99.99   21.60
  19  -7  -3   59.59   15.40
   7  12   3   79.99   15.60
  12 -19   3   55.29   19.90
 -12  20  -3  111.19   23.20
  20  -8  -3  102.09   18.60
  12 -20   3  118.69   23.30
   8  12   3  120.09   18.00
  -7  20  -3  125.69   21.20
  20 -13  -3  110.09   20.40
  20 -13  -3   98.19   19.80
  13   7   3  122.09   18.10
   7 -20   3  122.29   19.00
  19 -13  -3    5.80   15.70
  19 -13  -3   13.60   15.40
  -6  19  -3   13.50   15.80
   6 -19   3   21.70   13.70
  13   6   3    7.90   12.90
  18 -13  -3  124.19   19.10
  -5  18  -3  143.79   19.80
  18 -13  -3  141.79   19.70
   5 -18   3  119.19   17.00
  13   5   3   98.89   16.80
  17 -13  -3   65.89   16.00
  17 -13  -3   71.69   16.50
  -4  17  -3  111.69   17.00
  13   4   3   83.89   14.60
   4 -17   3   76.59   14.00
  -3  16  -3  326.27   31.30
  16 -13  -3  341.37   32.20
   3 -16   3  303.27   27.60
  13   3   3  294.67   29.20
  -2  15  -3  194.38   20.50
  15 -13  -3  177.28   25.30
  15 -13  -3  206.08   21.70
   2 -15   3  203.48   20.50
  13   2   3  205.18   20.40
  -1  14  -3  162.78   17.10
  14 -13  -3  171.88   23.40
  14 -13  -3  142.39   17.70
   1 -14   3  137.39   14.60
  13   1   3  116.79   16.10
  13 -13  -3   18.10   11.20
  13 -13  -3   11.40   15.30
   0  13  -3    2.60    9.30
   0 -13   3   16.00    7.20
  13   0   3    2.30    9.90
 -13  13   3   28.60   15.20
   1  12  -3    9.90    8.60
  12 -13  -3   24.90   15.00
  12 -13  -3   15.20   10.70
  13  -1   3   -1.00    9.50
  -1 -12   3    6.70    5.90
 -12  13   3    1.60   14.50
   2  11  -3   98.09   11.40
  11 -13  -3  113.19   19.40
  11 -13  -3   98.09   13.90
  13  -2   3   98.39   13.20
 -11  13   3   75.19   17.60
  10 -13  -3 1116.79   77.09
  10 -13  -3 1072.39   74.09
   3  10  -3 1025.60   71.89
 -10  13   3  942.11   76.99
  13  -3   3  985.30   73.79
   9 -13  -3  521.05   42.20
   9 -13  -3  530.95   39.10
   4   9  -3  480.45   35.90
  13  -4   3  490.65   38.60
  13  -4   3  563.54   41.20
  -9  13   3  408.36   42.60
   5   8  -3  190.88   15.60
   8 -13  -3  228.48   22.60
   8 -13  -3  181.18   18.20
  13  -5   3  175.78   18.50
  -8  13   3  203.18   22.90
  13  -5   3  214.78   21.70
   7 -13  -3  104.29   14.10
 -13   6  -3  141.89   19.90
   6   7  -3  149.29   12.00
   7 -13  -3  117.29   17.60
  -7  13   3  150.38   19.50
  13  -6   3  183.78   19.90
  13  -6   3  173.08   16.40
   7   6  -3  154.68   12.10
   6 -13  -3  141.29   18.60
 -13   7  -3  144.69   20.70
   6 -13  -3  164.48   14.90
  -6  13   3  141.39   19.00
  13  -7   3  133.29   16.10
  13  -7   3  125.19   19.40
 -13   8  -3  212.98   24.50
   8   5  -3  199.58   15.70
   5 -13  -3  228.18   22.20
  13  -8   3  235.88   24.10
  13  -8   3  174.98   19.00
  -5  13   3  187.78   21.50
   9   4  -3  498.65   35.50
 -13   9  -3  490.95   45.20
   4 -13  -3  491.05   41.10
  13  -9   3  537.95   39.80
  -4  13   3  503.05   41.40
  13  -9   3  479.85   42.10
 -13  10  -3 1068.49   79.09
   3 -13  -3 1060.59   75.29
  10   3  -3 1070.89   71.69
  13 -10   3  998.00   74.29
  13 -10   3 1042.50   77.29
  -3  13   3  948.51   74.99
 -13  11  -3  115.89   20.50
   2 -13  -3   91.49   15.00
  11   2  -3  121.49   10.80
  -2  13   3   92.69   15.00
  13 -11   3  107.49   18.70
  13 -11   3  102.89   13.90
 -13  12  -3    6.70   16.80
   1 -13  -3    0.70   10.50
  12   1  -3   16.30    7.00
  -1  13   3   16.50   10.80
  13 -12   3    4.30   14.40
  13 -12   3    4.10    9.40
 -13  13  -3   -3.60   16.00
  13   0  -3    4.80    7.40
   0 -13  -3   -3.50   10.70
   0  13   3   19.80   10.90
  13 -13   3    6.20    9.50
  13 -13   3   -7.50   14.40
  14  -1  -3  141.99   15.40
 -13  14  -3  150.88   22.90
  -1 -13  -3  168.78   18.60
  13 -14   3  143.59   22.50
   1  13   3  163.08   17.90
  -2 -13  -3  188.18   21.20
  15  -2  -3  197.58   19.30
 -13  15  -3  189.18   25.20
   2  13   3  227.88   21.00
  13 -15   3  224.48   26.50
 -13  16  -3  275.17   31.10
  16  -3  -3  293.47   27.90
  13 -16   3  376.96   33.70
   3  13   3  285.17   27.10
 -13  17  -3   90.09   20.20
  17  -4  -3   74.59   14.10
  13 -17   3   67.19   20.10
   4  13   3   80.99   14.70
  18  -5  -3  102.59   16.80
 -13  18  -3   86.29   21.20
   5  13   3  139.89   17.40
  13 -18   3  154.58   23.60
  19  -6  -3   12.90   13.10
 -13  19  -3   25.90   19.20
  13 -19   3   18.30   18.70
   6  13   3   23.40   13.60
  20  -7  -3  137.29   19.00
 -13  20  -3   94.89   23.20
   7  13   3   96.69   17.70
  13 -20   3  122.79   23.50
  20 -14  -3  237.38   26.10
   6 -20   3  189.48   22.90
  -5  19  -3  172.68   22.40
  19 -14  -3  172.08   23.00
   5 -19   3  180.78   20.40
  14   5   3  146.49   19.90
  18 -14  -3   53.79   16.30
  -4  18  -3   84.79   16.20
  14   4   3   55.69   14.30
   4 -18   3   33.20   12.80
  -3  17  -3  112.09   16.80
  17 -14  -3   95.69   17.40
  14   3   3   87.89   15.40
   3 -17   3   85.19   13.80
  -2  16  -3   -3.00   11.70
  16 -14  -3   18.00   18.20
  16 -14  -3   -0.70   12.80
   2 -16   3    0.00    9.20
  14   2   3    1.20   11.30
  15 -14  -3  100.49   16.50
  15 -14  -3  116.99   21.90
  -1  15  -3  120.79   15.30
  14   1   3   98.69   15.10
   1 -15   3   94.19   12.50
   0  14  -3   27.50   10.90
  14 -14  -3   64.89   18.70
  14 -14  -3   42.80   13.40
   0 -14   3   54.99   10.80
  14   0   3   62.49   12.30
  13 -14  -3  158.08   22.70
   1  13  -3  148.99   15.50
  13 -14  -3  109.99   17.30
 -13  14   3  198.88   22.80
  14  -1   3  163.78   17.40
  12 -14  -3  162.28   23.60
  12 -14  -3  132.79   17.80
   2  12  -3  185.08   15.80
  14  -2   3  159.38   17.80
 -12  14   3  167.38   22.40
  11 -14  -3  152.18   21.00
   3  11  -3  156.48   13.70
  11 -14  -3  141.99   16.60
  14  -3   3  120.09   15.80
 -11  14   3  119.19   20.60
  10 -14  -3    2.40   14.40
  10 -14  -3   17.10   10.40
   4  10  -3    5.90    6.20
  14  -4   3   -1.80    9.50
 -10  14   3   -4.30   15.10
   9 -14  -3  836.62   65.09
   9 -14  -3  793.52   61.79
   5   9  -3  846.72   59.49
  14  -5   3  844.62   64.29
  14  -5   3  960.20   62.79
  -9  14   3  840.02   65.79
   8 -14  -3  101.69   18.40
   8 -14  -3  124.99   14.40
  14  -6   3  171.18   19.80
  -8  14   3  128.49   19.60
  14  -6   3  128.69   15.40
   7 -14  -3  208.88   21.90
  -7  14   3  170.58   22.20
  14  -7   3  211.68   23.20
  14  -7   3  164.18   18.80
 -14   8  -3  113.69   20.10
   6 -14  -3  133.79   18.50
  -6  14   3  124.59   18.40
  14  -8   3  154.18   16.40
  14  -8   3  129.19   18.80
 -14   9  -3  844.02   69.39
   9   5  -3  883.31   62.19
   5 -14  -3  921.61   67.19
  14  -9   3  907.91   65.79
  14  -9   3  965.10   68.39
  -5  14   3  845.92   67.19
 -14  10  -3   -6.20   15.60
  10   4  -3    1.30    5.40
   4 -14  -3   -9.10   11.40
  14 -10   3    7.50   13.90
  14 -10   3    0.20   10.30
  -4  14   3   -9.00   11.80
   3 -14  -3  107.69   17.30
  11   3  -3  137.79   12.50
 -14  11  -3  112.49   21.30
  14 -11   3  137.69   20.50
  14 -11   3  160.08   16.60
  -3  14   3  165.58   18.50
 -14  12  -3  206.48   24.30
   2 -14  -3  139.69   19.30
  12   2  -3  172.58   17.10
  14 -12   3  190.08   24.60
  14 -12   3  177.58   18.40
  -2  14   3  203.58   20.20
   1 -14  -3  110.09   17.60
  13   1  -3  156.48   14.10
 -14  13  -3  185.48   23.30
  14 -13   3  146.79   20.80
  -1  14   3  132.19   17.50
  14 -13   3  120.39   16.40
   0 -14  -3   48.60   13.80
 -14  14  -3   42.80   18.10
  14   0  -3   62.19   10.30
  14 -14   3   39.50   18.50
   0  14   3   50.39   13.60
 -14  15  -3   90.39   20.00
  15  -1  -3  102.99   13.20
  -1 -14  -3   83.19   15.60
   1  14   3  115.49   16.40
  14 -15   3  100.59   21.30
 -14  16  -3   25.00   17.20
  16  -2  -3   10.10   10.30
  -2 -14  -3    5.00   12.60
   2  14   3   14.70   12.40
  14 -16   3   10.40   17.10
 -14  17  -3   88.19   20.00
  17  -3  -3   72.69   13.20
   3  14   3   67.29   14.80
  14 -17   3   34.60   18.70
 -14  18  -3   45.10   19.00
  18  -4  -3   24.90   13.00
   4  14   3   52.69   14.40
  14 -18   3   73.59   20.30
 -14  19  -3  200.18   26.00
  19  -5  -3  170.18   19.80
   5  14   3  127.29   19.50
  14 -19   3  155.28   25.40
  20  -6  -3  183.98   22.80
  14 -20   3  248.18   29.90
  -4  19  -3   10.60   15.20
  19 -15  -3    1.30   15.60
   4 -19   3   24.50   12.60
  15   4   3   25.10   13.80
  -3  18  -3   31.50   14.80
  18 -15  -3   21.30   15.20
   3 -18   3   22.30   11.10
  15   3   3   12.30   13.20
  17 -15  -3   64.49   17.00
  -2  17  -3   90.19   16.20
  17 -15  -3  122.49   28.10
  15   2   3   99.89   15.50
  16 -15  -3  149.69   25.70
  16 -15  -3  166.08   21.40
  -1  16  -3  211.68   20.00
  15   1   3  171.78   19.90
  15 -15  -3   11.50   18.10
   0  15  -3    6.60   11.10
  15 -15  -3    0.20   12.90
  15   0   3    8.70   12.00
  14 -15  -3  100.49   20.50
  14 -15  -3   71.49   15.40
   1  14  -3   91.69   13.20
 -14  15   3  151.28   25.30
  15  -1   3   99.39   15.20
  13 -15  -3  214.28   21.30
   2  13  -3  190.38   18.10
  13 -15  -3  191.08   26.20
  15  -2   3  198.08   20.50
 -13  15   3  206.78   24.80
   3  12  -3   63.69    9.70
  12 -15  -3   47.30   12.60
  12 -15  -3   70.99   18.00
  15  -3   3   49.70   12.60
 -12  15   3   71.09   18.30
   4  11  -3   46.30    8.60
  11 -15  -3   52.29   12.30
  11 -15  -3   51.39   16.50
 -11  15   3   53.89   18.30
  15  -4   3   59.89   12.60
  10 -15  -3  187.98   22.50
   5  10  -3  145.09   13.60
  10 -15  -3  133.19   16.50
 -10  15   3  161.98   22.30
  15  -5   3  136.59   17.00
   9 -15  -3   30.40   14.90
  -9  15   3    1.20   15.70
  15  -6   3   -1.00   14.30
  15  -6   3   11.10   10.80
   8 -15  -3   38.00   15.50
  -8  15   3   38.80   16.60
  15  -7   3   34.90   11.80
  15  -7   3   30.60   15.30
   7 -15  -3   43.50   14.50
  15  -8   3   29.90   14.90
  15  -8   3   34.50   12.00
  -7  15   3   41.20   15.30
   6 -15  -3   26.10   14.30
  15  -9   3   24.00   11.50
  15  -9   3   21.60   15.60
  -6  15   3   18.50   14.50
   5 -15  -3  109.39   18.00
 -15  10  -3  144.89   21.20
  15 -10   3   91.69   19.80
  -5  15   3  172.38   19.40
  15 -10   3  148.69   17.20
 -15  11  -3   72.29   17.70
   4 -15  -3   54.49   14.70
  11   4  -3   58.89    8.30
  15 -11   3   50.59   17.90
  15 -11   3   52.69   12.80
  -4  15   3   40.80   14.60
 -15  12  -3   74.09   18.90
   3 -15  -3   73.19   14.30
  12   3  -3   63.19    8.90
  -3  15   3   39.60   14.10
  15 -12   3   42.50   12.80
  15 -12   3   47.70   18.40
 -15  13  -3  184.68   25.20
  13   2  -3  205.08   19.10
   2 -15  -3  166.38   21.10
  15 -13   3  235.48   27.10
  -2  15   3  205.28   21.80
  15 -13   3  186.18   20.70
 -15  14  -3   91.79   19.90
   1 -15  -3   89.49   15.80
  14   1  -3   94.09   11.60
  15 -14   3   71.59   14.30
  -1  15   3   76.79   15.40
  15 -14   3  116.79   21.60
   0 -15  -3   17.90   12.90
 -15  15  -3  -21.20   15.90
  15   0  -3   16.70    9.40
   0  15   3    5.50   12.60
  15 -15   3    2.10   17.40
  16  -1  -3  189.18   18.90
 -15  16  -3  173.98   25.30
  -1 -15  -3  200.98   21.60
   1  15   3  183.78   21.50
  15 -16   3  177.68   26.80
  -2 -15  -3  120.59   17.40
 -15  17  -3  108.09   21.00
  17  -2  -3   80.59   14.30
   2  15   3   73.09   16.40
  15 -17   3   97.39   23.30
 -15  18  -3   14.50   19.00
  18  -3  -3   30.90   12.50
   3  15   3   15.40   14.40
  15 -18   3   -3.50   19.40
  19  -4  -3   26.10   13.40
 -15  19  -3   53.29   20.10
  15 -19   3   22.30   20.70
   4  15   3    9.90   13.70
  19 -16  -3   11.10   16.50
  -3  19  -3   34.70   14.90
  16   3   3   39.40   14.80
  -2  18  -3    1.00   13.30
  18 -16  -3   38.60   15.70
  16   2   3   22.40   13.90
  17 -16  -3  218.88   23.20
  -1  17  -3  188.98   20.60
  17 -16  -3  186.58   28.60
  16   1   3  161.88   21.40
   0  16  -3   -2.80   11.00
  16 -16  -3    1.60   18.80
  16 -16  -3  -23.50   13.10
  16   0   3   23.00   13.10
   1  15  -3  197.68   18.90
  15 -16  -3  150.18   26.00
  15 -16  -3  197.28   21.80
  16  -1   3  177.98   20.60
  14 -16  -3   27.60   18.80
  14 -16  -3   -1.20   12.40
   2  14  -3    4.30    9.60
 -14  16   3   17.80   17.40
  16  -2   3   11.00   12.10
  13 -16  -3  260.27   31.80
  13 -16  -3  228.68   25.80
   3  13  -3  327.17   25.50
  16  -3   3  336.47   29.60
 -13  16   3  308.57   30.70
   4  12  -3   90.69   11.10
  12 -16  -3   98.09   15.20
  12 -16  -3  107.09   20.40
 -12  16   3   67.79   19.70
  16  -4   3   82.69   14.60
  11 -16  -3  446.86   40.60
  16  -5   3  366.36   36.10
 -11  16   3  481.05   42.60
  10 -16  -3  573.04   46.90
  16  -6   3  514.45   43.20
 -10  16   3  492.75   47.80
   9 -16  -3  259.47   27.60
  -9  16   3  257.47   28.40
  16  -7   3  262.97   24.70
   8 -16  -3  692.93   59.69
  16  -8   3  822.22   60.09
  -8  16   3  742.33   60.19
  16  -8   3  738.83   57.09
   7 -16  -3  314.87   33.20
  -7  16   3  319.67   30.90
  16  -9   3  347.37   30.80
  16  -9   3  284.27   31.60
   6 -16  -3  585.64   46.50
  -6  16   3  514.85   46.70
  16 -10   3  558.84   44.70
  16 -10   3  520.35   48.10
   5 -16  -3  392.96   38.10
  16 -11   3  449.06   36.50
  16 -11   3  436.86   42.00
  -5  16   3  416.46   38.50
  12   4  -3   86.79   10.50
   4 -16  -3   74.39   16.80
 -16  12  -3   90.59   18.90
  16 -12   3   78.69   20.40
  16 -12   3   95.89   15.50
  -4  16   3   65.69   16.40
  13   3  -3  295.27   24.90
   3 -16  -3  294.87   31.20
 -16  13  -3  302.17   30.50
  16 -13   3  279.27   27.20
  16 -13   3  342.57   33.40
  -3  16   3  275.47   28.30
 -16  14  -3    8.90   16.30
  14   2  -3    2.00    8.50
   2 -16  -3   -5.00   13.20
  16 -14   3   -6.60   17.10
  16 -14   3    4.00   12.20
  -2  16   3  -13.30   13.10
  15   1  -3  209.18   18.40
   1 -16  -3  176.88   22.20
 -16  15  -3  195.28   25.10
  16 -15   3  170.08   25.90
  -1  16   3  174.58   22.00
 -16  16  -3    7.70   17.30
   0 -16  -3    1.80   12.90
  16   0  -3   -3.20    9.80
  16 -16   3   -2.80   18.10
   0  16   3  -13.80   13.80
 -16  17  -3  239.58   27.10
  17  -1  -3  208.08   20.10
  -1 -16  -3  171.28   22.00
  16 -17   3  199.78   28.40
   1  16   3  161.58   22.00
  18  -2  -3   14.60   11.50
 -16  18  -3    8.50   18.60
   2  16   3   -1.20   14.20
  16 -18   3   27.10   20.90
  19  -3  -3   35.80   13.60
 -16  19  -3   23.90   20.40
   3  16   3   36.40   15.70
  16 -19   3   26.50   21.70
  18 -17  -3   23.50   26.00
  -1  18  -3   22.10   13.70
  18 -17  -3   13.40   15.60
  17   1   3    9.10   14.60
   0  17  -3    0.90   12.20
  17 -17  -3    3.80   14.80
  17 -17  -3   -0.10   20.80
  17   0   3   10.20   14.40
  16 -17  -3  214.28   29.80
   1  16  -3  219.88   21.20
  16 -17  -3  191.08   23.20
  17  -1   3  197.88   22.80
   2  15  -3   90.59   13.40
  15 -17  -3   88.49   17.00
  15 -17  -3  101.39   23.40
  17  -2   3   95.59   16.40
  14 -17  -3   44.20   20.30
  14 -17  -3   74.49   15.30
   3  14  -3   90.29   12.50
 -14  17   3  132.39   21.10
  17  -3   3   74.39   15.00
  13 -17  -3   85.69   20.90
  17  -4   3   79.29   15.50
 -13  17   3   82.09   20.20
  12 -17  -3   57.39   19.30
  17  -5   3   80.79   15.10
 -12  17   3   97.69   20.20
  11 -17  -3   23.20   16.90
  17  -6   3   24.40   13.10
 -11  17   3   23.10   17.70
  10 -17  -3    4.70   16.00
  17  -7   3    5.10   12.50
 -10  17   3   17.40   17.40
   9 -17  -3  146.59   22.00
  -9  17   3  125.79   21.90
  17  -8   3  151.18   18.60
   8 -17  -3   95.39   20.00
  17  -9   3  138.49   22.50
  -8  17   3   98.59   20.60
  17  -9   3  140.29   17.90
   7 -17  -3    1.80   15.40
  17 -10   3   -7.50   15.90
  17 -10   3   -4.90   12.10
  -7  17   3    2.50   15.80
   6 -17  -3   19.30   15.40
  17 -11   3   39.70   13.70
  17 -11   3   50.59   18.70
  -6  17   3   24.50   16.20
   5 -17  -3   37.80   16.30
  17 -12   3   77.99   20.70
  -5  17   3   86.49   17.90
  17 -12   3   55.49   14.90
   4 -17  -3   62.99   16.60
  17 -13   3   93.39   21.60
  17 -13   3   80.79   15.80
  -4  17   3  107.99   18.50
  14   3  -3   79.29   12.00
   3 -17  -3   79.39   17.30
 -17  14  -3   91.79   24.20
  17 -14   3   76.49   15.60
  -3  17   3  106.19   17.80
  17 -14   3   97.59   22.50
  15   2  -3   84.69   12.30
 -17  15  -3  108.59   20.40
   2 -17  -3   54.69   16.50
  -2  17   3  100.59   17.90
  17 -15   3  119.29   23.90
  16   1  -3  185.48   18.50
   1 -17  -3  175.48   22.20
 -17  16  -3  181.38   25.00
  17 -16   3  201.28   28.80
  -1  17   3  172.48   22.60
  17   0  -3    1.60   11.00
 -17  17  -3  -25.60   17.70
   0 -17  -3   -7.60   13.50
   0  17   3   -0.40   14.80
  17 -17   3    9.00   19.70
  -1 -17  -3   -9.70   14.00
 -17  18  -3   28.40   19.40
  18  -1  -3    6.90   11.70
  17 -18   3   11.00   20.70
   1  17   3   38.50   15.70
  17 -18  -3   17.00   20.70
  17 -18  -3   -0.60   17.60
   1  17  -3   21.20   12.20
  18  -1   3    6.00   14.40
   2  16  -3   -3.60   10.30
  16 -18  -3   11.20   20.40
  18  -2   3   -6.60   14.10
  15 -18  -3   14.20   19.50
  18  -3   3    1.70   13.90
  14 -18  -3   29.40   20.40
  18  -4   3   52.49   15.50
 -14  18   3   97.59   20.70
  13 -18  -3   87.79   22.30
  18  -5   3  142.49   19.10
 -13  18   3  167.78   23.80
  12 -18  -3  336.97   35.40
  18  -6   3  319.67   30.60
 -12  18   3  344.97   34.20
  11 -18  -3  221.48   26.90
 -11  18   3  199.98   26.20
  18  -7   3  179.68   21.90
  10 -18  -3   21.70   17.50
 -10  18   3   53.39   18.80
  18  -8   3   38.50   14.20
   9 -18  -3    5.60   16.70
  18  -9   3   -8.30   13.50
  -9  18   3   31.90   18.30
   8 -18  -3   39.30   17.30
  -8  18   3   26.90   17.30
  18 -10   3   36.50   14.40
   7 -18  -3  219.88   27.10
  18 -11   3  262.17   30.30
  18 -11   3  227.88   24.40
  -7  18   3  210.08   26.60
   6 -18  -3  340.37   35.50
  -6  18   3  334.67   33.00
  18 -12   3  371.06   36.00
  18 -12   3  299.17   30.70
   5 -18  -3  136.09   20.40
  18 -13   3  117.19   18.40
  -5  18   3   81.79   20.10
  18 -13   3  116.59   23.30
   4 -18  -3   33.70   15.90
  -4  18   3   67.39   17.70
  18 -14   3   37.10   20.80
  18 -14   3   16.00   14.40
   3 -18  -3    2.60   15.10
  18 -15   3   40.10   20.50
  -3  18   3   16.80   15.90
  16   2  -3    8.60   10.30
   2 -18  -3    2.60   15.00
  18 -16   3   -3.80   19.80
  -2  18   3    5.80   15.50
   1 -18  -3   -1.80   14.20
  17   1  -3   19.40   11.40
  18 -17   3   10.70   20.90
  -1  18   3   26.50   16.20
  16 -19  -3   43.50   22.50
  19  -3   3   23.30   15.60
  15 -19  -3   35.60   21.20
  19  -4   3   13.10   15.30
  14 -19  -3  185.98   27.90
 -14  19   3  183.58   25.60
  19  -5   3  152.88   22.00
  13 -19  -3   12.30   19.00
  19  -6   3    5.00   14.90
 -13  19   3   21.50   18.70
  12 -19  -3   82.29   22.00
 -12  19   3   89.89   21.30
  19  -7   3   78.19   17.30
  11 -19  -3   38.40   19.40
  19  -8   3   51.89   15.20
 -11  19   3   39.00   19.70
  10 -19  -3  136.79   23.60
 -10  19   3  158.08   23.60
  19  -9   3  105.09   19.20
   9 -19  -3  146.69   22.80
  19 -10   3  103.49   18.90
  -9  19   3  101.29   22.20
   8 -19  -3   45.60   18.40
  -8  19   3   17.40   17.90
  19 -11   3   24.30   15.10
   7 -19  -3   57.59   19.20
  19 -12   3   75.89   16.80
  -7  19   3   82.69   20.10
   6 -19  -3   19.20   16.30
  19 -13   3   -9.10   14.00
  19 -13   3   -8.70   18.90
  -6  19   3   27.40   17.50
   5 -19  -3  134.69   22.00
  19 -14   3  168.98   21.00
  -5  19   3  166.08   23.10
  19 -14   3  120.59   26.20
   4 -19  -3   23.40   16.40
  19 -15   3   10.80   18.00
  19 -15   3   -6.70   20.20
  -4  19   3   19.40   17.50
   3 -19  -3   16.50   16.30
  19 -16   3   45.20   22.70
  -3  19   3   14.50   16.80
  14 -20  -3  211.38   30.00
  20  -6   3  195.88   24.30
  13 -20  -3  139.79   25.80
 -13  20   3  119.19   23.50
  20  -7   3   95.59   19.50
  12 -20  -3  123.39   25.30
 -12  20   3  104.79   22.80
  20  -8   3  111.49   19.50
  11 -20  -3   72.09   22.50
  20  -9   3   62.59   17.20
 -11  20   3   61.09   21.30
  10 -20  -3   70.79   21.10
  20 -10   3   75.29   18.20
 -10  20   3   70.89   21.20
   9 -20  -3   53.59   20.50
  20 -11   3   53.39   16.40
  -9  20   3   51.59   20.10
   8 -20  -3   95.19   22.30
  20 -12   3  104.99   19.50
  -8  20   3  138.29   23.00
   7 -20  -3  145.19   23.60
  -7  20   3  121.89   23.10
  20 -13   3  132.49   20.70
   6 -20  -3  188.48   25.40
  20 -14   3  182.38   29.60
  20 -14   3  196.68   24.10
   0   0  -4 8843.81  607.94
   0   0  -4 8654.93  607.64
   0   0   4 9299.47  607.54
   1  -1  -4 1298.17   84.19
  -1   0  -4 1227.48   84.29
   0   1  -4 1174.08   83.99
   1  -1  -4 1243.88   84.59
   1   0   4 1174.18   84.19
  -1   1   4 1237.58   84.09
   0  -1  -4 1211.88   81.49
   1   0  -4 1157.38   81.19
   0  -1  -4 1203.38   81.89
  -1   1  -4 1089.79   81.29
   1  -1   4 1276.77   81.29
   0   1   4 1164.48   81.39
  -1  -1  -4    6.10    5.50
  -1   2  -4    4.70    3.50
   2  -1  -4    8.90    3.70
  -1  -1  -4    8.40    4.30
  -2   1   4    8.20    3.20
   1  -2   4    4.70    3.10
   1   1   4    3.10    4.30
  -1   3  -4  277.77   20.40
  -2  -1  -4  279.77   21.10
   3  -2  -4  280.27   21.30
   3  -2  -4  282.07   20.80
   1  -3   4  293.57   21.20
  -3   2   4  281.17   20.40
   2   1   4  280.87   21.20
   2  -2  -4 1824.02  129.59
   0   2  -4 1884.41  128.89
  -2   0  -4 1851.41  129.29
   2  -2  -4 1964.70  129.29
   2   0   4 2032.20  129.39
  -2   2   4 1775.52  129.09
   1  -2  -4    4.70    5.40
  -2   1  -4    1.40    4.00
   1   1  -4    1.20    2.90
   1  -2  -4    4.80    4.00
  -1   2   4    5.80    4.00
   2  -1   4    4.50    4.10
   0  -2  -4 1818.02  127.19
   0  -2  -4 2000.50  127.69
  -2   2  -4 1843.62  127.09
   2   0  -4 1842.82  126.79
   0   2   4 1883.41  127.19
   2  -2   4 1918.81  126.99
   2  -2   4 1691.33  127.49
  -1  -2  -4  301.67   22.80
  -2   3  -4  308.57   21.50
  -1  -2  -4  323.07   22.00
   3  -1  -4  300.17   21.20
   1   2   4  285.27   22.00
   2  -3   4  292.87   21.20
   2  -3   4  245.68   22.00
  -2  -2  -4 1753.72  117.79
  -2  -2  -4 1858.31  117.29
   4  -2  -4 1641.94  116.89
  -2   4  -4 1508.85  116.79
   2  -4   4 1799.22  117.49
   2   2   4 1690.23  117.19
  -3  -2  -4 4278.87  264.77
   5  -3  -4 4072.09  264.97
  -2   5  -4 3839.82  264.27
   5  -3  -4 3762.02  264.47
  -5   3   4 3701.33  264.07
   3   2   4 3815.52  264.67
   2  -5   4 3682.03  264.77
  -3  -1  -4 2061.19  131.69
   4  -3  -4 1697.53  131.69
   4  -3  -4 1798.62  131.39
  -1   4  -4 1821.72  130.99
   1  -4   4 1990.90  131.59
   3   1   4 2072.99  131.69
  -4   3   4 1994.10  131.19
   0   3  -4   33.30    3.90
  -3   0  -4   21.20    5.30
   3  -3  -4   27.00    5.20
   3  -3  -4   42.70    6.60
  -3   3   4   35.60    5.10
   3   0   4   30.50    5.40
   0  -3   4   26.60    4.90
   2  -3  -4  272.67   21.30
  -3   1  -4  322.17   21.60
   2  -3  -4  270.17   22.00
   1   2  -4  296.27   20.30
  -2   3   4  279.17   21.30
   3  -1   4  278.07   21.40
  -3   2  -4  335.27   22.10
   2   1  -4  297.17   20.80
   1  -3  -4  279.47   22.40
   3  -2   4  296.67   22.80
  -1   3   4  265.47   22.00
   3  -2   4  296.17   21.90
  -3   3  -4   31.50    5.20
   0  -3  -4   24.80    6.20
   0  -3  -4   37.50    5.60
   3   0  -4   31.50    4.00
   3  -3   4   21.00    4.70
   3  -3   4   29.90    6.30
   0   3   4   28.30    5.50
  -1  -3  -4 1759.92  136.29
   4  -1  -4 2061.39  135.99
  -1  -3  -4 2245.68  137.09
   4  -1  -4 2024.80  135.99
  -3   4  -4 2053.59  136.29
   1   3   4 1966.10  136.49
   3  -4   4 1828.42  135.99
  -2  -3  -4 3838.22  247.38
   5  -2  -4 3815.72  247.18
  -3   5  -4 3605.24  247.28
   5  -2  -4 3438.56  247.08
  -2  -3  -4 3179.18  247.78
   2   3   4 3564.24  247.48
   3  -5   4 3650.43  247.78
   3  -5   4 3886.01  246.98
   6  -3  -4  117.59   11.70
   6  -3  -4  134.89   13.10
  -3  -3  -4  132.09   11.90
  -3   6  -4  128.99   12.20
   6  -3  -4  138.09   11.90
   3   3   4  112.99   11.50
   3  -6   4  122.29   12.90
   7  -4  -4  991.00   72.29
   7  -4  -4 1021.50   71.59
  -3   7  -4  972.40   71.39
  -4  -3  -4  880.31   71.29
  -7   4   4 1079.89   70.89
   4   3   4 1093.19   71.89
   3  -7   4 1163.88   72.29
  -2   6  -4 1004.10   69.19
  -4  -2  -4  827.02   69.39
   6  -4  -4 1007.20   70.19
   6  -4  -4  960.70   69.49
   6  -4  -4  998.10   69.59
  -6   4   4 1039.00   69.09
   2  -6   4 1041.00   69.89
   4   2   4 1130.69   69.89
   5  -4  -4   38.10    6.10
  -4  -1  -4   44.00    6.30
   5  -4  -4   37.50    7.00
  -1   5  -4   41.90    4.90
   4   1   4   39.00    6.40
  -5   4   4   32.50    5.50
   1  -5   4   34.40    6.20
   4  -4  -4 1095.59   74.59
  -4   0  -4 1058.19   74.09
   0   4  -4 1042.90   73.19
   4  -4  -4 1094.69   74.09
   4   0   4 1051.79   74.09
   0  -4   4 1054.69   73.69
  -4   4   4 1091.79   73.89
   1   3  -4 2057.69  125.49
   3  -4  -4 1824.92  126.89
   3  -4  -4 2150.28  126.49
  -1  -3   4 1777.82  125.79
  -3   4   4 1622.14  126.19
   4  -1   4 1759.52  126.39
   4  -1   4 1684.83  126.79
   2  -4  -4 1593.94  120.99
   2   2  -4 1779.32  119.69
  -4   2  -4 1853.81  120.69
   4  -2   4 1651.93  121.09
   4  -2   4 1864.01  120.59
  -2   4   4 1796.02  120.69
   1  -4  -4 2035.60  132.79
   1  -4  -4 1789.22  132.09
  -4   3  -4 1639.64  131.99
   3   1  -4 1843.02  131.29
   4  -3   4 2157.48  132.19
  -1   4   4 1970.80  132.19
   4  -3   4 2073.59  132.79
   0  -4  -4 1046.30   71.39
   4   0  -4 1059.89   70.69
  -4   4  -4 1020.50   71.49
   4  -4   4  927.11   71.99
   4  -4   4 1107.09   71.29
   0   4   4 1014.20   71.59
  -1  -4  -4   27.20    6.60
  -1  -4  -4   31.30    5.80
   5  -1  -4   45.90    5.10
  -4   5  -4   35.10    6.30
   4  -5   4   29.60    5.30
   1   4   4   38.30    6.40
   4  -5   4   36.60    7.70
  -4   6  -4 1091.09   72.99
  -2  -4  -4 1115.49   73.69
   6  -2  -4 1081.49   72.49
  -2  -4  -4 1006.60   72.69
   4  -6   4 1128.09   73.69
   2   4   4  972.30   72.89
   4  -6   4  960.80   72.29
   7  -3  -4 1072.89   73.99
  -4   7  -4 1147.89   73.69
  -3  -4  -4 1191.78   73.49
  -3  -4  -4  994.00   74.09
   7  -3  -4 1075.79   73.29
   3   4   4 1051.99   73.69
   4  -7   4  941.81   74.19
   4  -7   4  976.30   72.59
  -4   8  -4  666.93   48.70
  -4  -4  -4  635.94   47.90
   8  -4  -4  676.33   48.20
   8  -4  -4  703.33   49.60
   4  -8   4  684.43   49.40
   4   4   4  709.83   48.60
  -4   9  -4  887.11   61.99
  -5  -4  -4  835.22   60.99
   9  -5  -4  807.72   62.79
   9  -5  -4  884.91   61.49
   5   4   4  916.61   61.59
   4  -9   4  883.81   62.29
   8  -5  -4  550.24   42.00
  -5  -3  -4  566.64   41.60
   8  -5  -4  612.54   43.80
  -3   8  -4  623.74   42.00
   8  -5  -4  644.54   42.20
  -8   5   4  555.04   41.20
   3  -8   4  560.34   42.50
   5   3   4  555.14   42.00
   7  -5  -4  366.06   26.70
  -2   7  -4  349.07   25.90
   7  -5  -4  364.26   28.00
   7  -5  -4  340.87   26.60
  -5  -2  -4  386.16   26.40
   5   2   4  336.77   26.80
   2  -7   4  343.57   26.80
  -7   5   4  323.97   25.90
  -5  -1  -4 2516.45  176.88
   6  -5  -4 2360.86  177.48
   6  -5  -4 2287.87  176.88
  -1   6  -4 2580.04  176.28
  -6   5   4 2755.72  176.88
   5   1   4 2780.32  177.18
   1  -6   4 2791.62  176.88
   0   5  -4  333.37   22.90
   5  -5  -4  330.27   24.40
  -5   0  -4  346.67   24.50
   5  -5  -4  302.67   25.30
  -5   5   4  294.77   24.30
   5   0   4  332.87   24.50
   0  -5   4  322.57   23.70
   4  -5  -4   39.90    7.70
   1   4  -4   39.20    3.50
   4  -5  -4   30.90    6.10
  -5   1  -4   28.40    6.20
  -1  -4   4   35.50    4.70
  -4   5   4   35.60    6.40
   5  -1   4   31.00    6.20
   5  -1   4   31.50    7.90
   3  -5  -4 3549.94  251.07
  -5   2  -4 3229.38  250.97
   3  -5  -4 3865.21  251.77
  -3   5   4 3945.91  251.27
  -2  -3   4 3894.51  250.17
   5  -2   4 3568.34  250.97
   2  -5  -4 4074.39  264.07
   2  -5  -4 3655.13  264.57
  -5   3  -4 3871.01  264.17
   5  -3   4 4103.79  264.77
   5  -3   4 3746.43  263.97
  -2   5   4 3755.72  264.17
  -5   4  -4   33.20    6.50
   1  -5  -4   33.20    7.40
   4   1  -4   37.10    3.60
   1  -5  -4   34.30    6.00
   5  -4   4   36.70    8.00
  -1   5   4   32.50    6.20
   5  -4   4   29.50    5.80
  -5   5  -4  331.47   25.20
   5   0  -4  323.17   23.60
   0  -5  -4  335.17   26.00
   0  -5  -4  369.76   24.90
   5  -5   4  305.37   24.70
   5  -5   4  353.76   25.90
   0   5   4  323.77   25.40
  -5   6  -4 2301.67  175.68
   6  -1  -4 2727.83  175.08
  -1  -5  -4 2721.93  176.38
  -1  -5  -4 2575.74  175.58
   1   5   4 2371.96  175.58
   5  -6   4 2472.05  175.28
   5  -6   4 2774.42  176.58
   7  -2  -4  321.97   24.90
  -2  -5  -4  335.17   25.20
  -5   7  -4  318.87   26.20
  -2  -5  -4  350.66   26.80
   5  -7   4  314.77   27.20
   2   5   4  360.56   26.10
   5  -7   4  355.16   24.90
   8  -3  -4  533.65   40.20
  -3  -5  -4  525.75   40.10
  -5   8  -4  494.75   41.30
  -3  -5  -4  572.74   41.70
   5  -8   4  590.04   39.70
   5  -8   4  619.14   42.10
   3   5   4  555.34   40.90
   5  -8   4  597.74   39.80
   9  -4  -4  954.80   63.49
  -5   9  -4  854.71   64.49
   9  -4  -4  937.31   64.89
  -4  -5  -4  905.41   62.99
   5  -9   4  874.91   64.59
   4   5   4  867.71   63.49
  10  -5  -4    4.40    7.10
  -5  10  -4    3.00    9.70
   5   5   4    6.30    7.10
   5 -10   4   15.20    9.30
  11  -6  -4  131.79   14.00
  -5  11  -4  118.59   17.40
   6   5   4  131.99   13.90
   5 -11   4  152.68   15.90
  -4  10  -4   63.39   12.10
  10  -6  -4   77.49   13.30
  10  -6  -4   80.29   10.50
   6   4   4   84.59   10.60
   4 -10   4  102.39   12.30
  -6  -3  -4    2.80    5.60
   9  -6  -4   11.10    6.90
  -3   9  -4    8.90    7.40
   9  -6  -4    7.20    6.70
   9  -6  -4    2.30    9.20
   3  -9   4    2.80    7.10
   6   3   4    2.50    6.70
  -9   6   4   10.40    9.10
   8  -6  -4  710.83   49.60
   8  -6  -4  682.63   49.60
  -2   8  -4  648.44   48.90
  -6  -2  -4  649.83   49.00
   8  -6  -4  659.53   50.99
  -8   6   4  731.73   49.20
   2  -8   4  725.33   49.40
   6   2   4  718.93   49.60
  -6  -1  -4  863.11   60.29
  -1   7  -4  920.11   59.59
   7  -6  -4 1009.60   62.09
   7  -6  -4  876.11   60.59
   6   1   4  695.83   60.19
  -7   6   4  816.92   60.29
   1  -7   4  844.32   59.99
   6  -6  -4 4205.28  277.87
   0   6  -4 3924.81  275.97
   6  -6  -4 4015.40  276.97
  -6   0  -4 3995.60  276.87
   6   0   4 4367.96  276.97
   0  -6   4 4000.10  276.37
  -6   6   4 4023.80  276.97
   6   0   4 3903.11  277.57
  -6   1  -4 2760.22  184.58
   1   5  -4 2726.33  183.28
   5  -6  -4 2808.72  185.38
   5  -6  -4 2751.82  184.58
  -1  -5   4 2548.84  183.58
   6  -1   4 2674.13  184.58
  -5   6   4 2658.33  184.68
   6  -1   4 2631.14  185.18
   4  -6  -4 1085.29   69.79
   4  -6  -4 1032.00   68.79
  -6   2  -4  983.40   68.89
  -4   6   4  931.11   68.89
   6  -2   4  967.10   69.39
   6  -2   4  922.31   68.69
  -6   3  -4  111.29   11.80
   3  -6  -4  153.68   14.70
   3  -6  -4  129.69   12.60
   6  -3   4  149.29   14.00
   6  -3   4  144.99   13.00
  -3   6   4  122.99   12.20
  -6   4  -4  992.10   70.69
   2  -6  -4  945.51   71.19
   2  -6  -4  927.51   70.39
   6  -4   4 1000.00   71.39
   6  -4   4 1117.69   70.49
  -2   6   4 1091.79   70.89
   1  -6  -4 2675.63  178.78
   5   1  -4 2527.55  176.88
  -6   5  -4 2507.65  178.28
   1  -6  -4 2389.76  177.88
  -1   6   4 2447.16  178.18
   6  -5   4 2904.51  179.28
   6  -5   4 2763.22  178.08
   0  -6  -4 4392.66  273.17
  -6   6  -4 3630.64  272.47
   6   0  -4 3859.21  271.37
   0  -6  -4 3610.84  272.07
   6  -6   4 4120.49  273.37
   0   6   4 3955.50  272.47
   6  -6   4 4348.56  272.27
  -6   7  -4  899.61   60.89
   7  -1  -4  820.22   59.29
  -1  -6  -4  737.73   60.79
  -1  -6  -4  845.82   59.89
   6  -7   4  883.21   61.49
   1   6   4  916.21   60.59
   6  -7   4  901.71   59.89
  -6   8  -4  672.13   49.60
  -2  -6  -4  750.92   49.60
   8  -2  -4  713.13   47.90
  -2  -6  -4  746.53   48.20
   6  -8   4  621.94   49.80
   2   6   4  619.04   48.70
   6  -8   4  623.54   47.90
   9  -3  -4    2.20    5.80
  -6   9  -4    5.80    8.80
  -3  -6  -4   20.20    8.40
  -3  -6  -4    1.50    5.50
   6  -9   4   14.60    9.70
   3   6   4    5.40    6.90
   6  -9   4   11.60    5.60
   6  -9   4    5.60    5.20
  -6  10  -4   76.49   13.60
  10  -4  -4   90.09   10.30
   4   6   4   92.29   11.10
   6 -10   4   79.69   13.10
  11  -5  -4  159.78   14.20
  -6  11  -4  150.78   18.30
   6 -11   4  128.69   15.90
   5   6   4  109.29   13.60
  12  -6  -4  650.73   50.19
  -6  12  -4  682.63   54.79
   6 -12   4  676.23   51.59
   6   6   4  716.53   50.09
  13  -7  -4  169.88   16.10
  -6  13  -4  100.09   20.20
   6 -13   4  144.69   17.30
   7   6   4  144.69   15.30
  12  -7  -4  683.33   53.59
  -5  12  -4  672.03   57.19
   7   5   4  751.02   53.59
   5 -12   4  803.22   54.39
  11  -7  -4  566.44   42.70
  -4  11  -4  595.34   45.50
  11  -7  -4  497.85   45.40
   7   4   4  595.84   42.60
   4 -11   4  592.84   42.90
  10  -7  -4 1057.99   79.39
  -3  10  -4 1231.38   78.29
  10  -7  -4 1168.58   77.39
  10  -7  -4 1063.39   77.19
   3 -10   4 1094.19   77.29
   7   3   4  986.70   76.89
  -2   9  -4 1884.81  119.89
  -7  -2  -4 1737.03  119.59
   9  -7  -4 1705.73  121.59
   9  -7  -4 1675.13  119.99
   9  -7  -4 1690.13  120.09
   2  -9   4 1747.93  119.79
   7   2   4 1754.22  120.79
   7   2   4 1700.53  119.89
  -9   7   4 1696.23  119.99
   8  -7  -4   36.70   10.00
   8  -7  -4    8.40    7.40
  -1   8  -4   32.60    6.20
  -7  -1  -4   38.20    7.10
   1  -8   4   42.70    6.60
   7   1   4   36.60    9.60
   7   1   4   31.40    7.20
  -8   7   4   44.40    8.50
   7  -7  -4   73.69    9.60
   0   7  -4   91.09    7.60
   7  -7  -4   96.49   12.60
  -7   0  -4   58.89    9.10
   0  -7   4   88.29    8.10
  -7   7   4   72.49   10.40
   7   0   4   63.29   10.60
   7   0   4   81.79    9.80
   1   6  -4  834.22   58.59
   6  -7  -4  788.82   60.19
   6  -7  -4  879.11   61.29
  -7   1  -4  826.52   60.19
  -1  -6   4  912.71   58.79
   7  -1   4  919.71   61.29
  -6   7   4  792.92   60.79
   7  -1   4  873.21   60.39
  -7   2  -4  289.07   25.90
   5  -7  -4  312.97   27.20
   7  -2   4  356.76   26.60
   7  -2   4  354.96   26.10
  -5   7   4  374.76   27.00
   4  -7  -4 1080.09   74.09
  -7   3  -4 1109.39   73.49
   4  -7  -4 1126.89   73.19
  -4   7   4  976.30   73.39
   7  -3   4  954.10   73.09
   7  -3   4 1039.50   74.09
   3  -7  -4  845.62   71.79
  -7   4  -4 1066.99   71.49
   3  -7  -4  977.70   70.99
   7  -4   4 1065.09   72.29
   7  -4   4 1035.50   71.19
  -3   7   4 1133.39   71.79
   2  -7  -4  337.67   25.10
   2  -7  -4  294.07   26.50
  -7   5  -4  337.87   26.10
  -2   7   4  353.96   26.20
   7  -5   4  348.27   25.60
   7  -5   4  319.77   27.10
   6   1  -4  868.01   59.99
   1  -7  -4  932.11   61.39
   1  -7  -4  925.41   62.59
  -7   6  -4  978.00   62.39
  -1   7   4  779.32   61.79
   7  -6   4  814.02   62.89
   7  -6   4  836.62   61.49
  -7   7  -4   86.19   11.40
   7   0  -4   89.79    8.50
   0  -7  -4   88.99    9.30
   0  -7  -4   89.69   11.20
   7  -7   4   78.49    9.50
   0   7   4   85.19   10.40
   7  -7   4   78.69   11.60
   8  -1  -4   34.80    5.70
  -1  -7  -4   44.30    6.80
  -7   8  -4   34.70    9.60
  -1  -7  -4   50.79    9.90
   1   7   4   25.10    7.90
   7  -8   4   39.50    6.90
   7  -8   4   29.70   10.70
  -2  -7  -4 1766.12  119.49
  -7   9  -4 1766.62  121.19
  -2  -7  -4 1462.85  120.29
   9  -2  -4 1726.53  119.29
   7  -9   4 1872.31  119.59
   2   7   4 1743.93  120.09
   7  -9   4 1802.52  121.39
  10  -3  -4 1108.19   80.79
  -3  -7  -4 1039.10   81.99
  -7  10  -4 1048.90   83.29
   7 -10   4 1280.67   83.39
   3   7   4 1329.17   81.69
  -7  11  -4  591.94   48.20
  11  -4  -4  629.74   43.70
   4   7   4  599.84   44.10
   7 -11   4  549.15   45.80
  -7  12  -4  716.03   56.59
  12  -5  -4  727.93   51.39
   7 -12   4  720.63   53.59
   5   7   4  652.63   51.39
  13  -6  -4  151.18   15.50
  -7  13  -4  133.29   21.50
   7 -13   4  136.59   17.60
   6   7   4  135.29   15.40
  -7  14  -4   -4.80   15.90
  14  -7  -4   -0.90    9.80
   7 -14   4    8.20   11.80
   7   7   4   -6.30    9.20
  -7  15  -4  225.28   25.50
  15  -8  -4  203.78   21.40
   8   7   4  242.18   21.50
   7 -15   4  220.98   23.20
  14  -8  -4  208.98   19.30
  -6  14  -4  245.68   24.60
   6 -14   4  177.98   19.80
   8   6   4  148.19   17.80
  13  -8  -4   64.49   11.80
  -5  13  -4   70.99   17.20
   8   5   4   66.39   11.50
   5 -13   4   88.59   13.30
  12  -8  -4    3.50   14.00
  -4  12  -4   -7.20   13.20
  12  -8  -4   18.00    8.90
  12  -8  -4   12.70    8.90
   8   4   4   13.90    8.50
   4 -12   4   10.50    8.90
  11  -8  -4  177.28   18.80
  11  -8  -4  201.88   19.10
  11  -8  -4  251.87   24.00
  -3  11  -4  158.28   20.60
   8   3   4  215.58   20.30
   3 -11   4  239.98   19.60
   8   3   4  241.98   22.60
  10  -8  -4  162.08   18.20
  10  -8  -4  154.98   15.10
  10  -8  -4  175.48   15.60
  -2  10  -4  160.08   15.90
   8   2   4  149.09   16.20
   8   2   4  130.89   14.40
 -10   8   4  149.69   15.40
   2 -10   4  131.99   13.90
   9  -8  -4  119.79   13.50
   9  -8  -4  124.89   17.10
  -8  -1  -4  144.89   13.00
  -1   9  -4  150.38   13.00
   1  -9   4  129.69   13.10
   8   1   4  161.68   15.70
  -9   8   4  136.19   14.60
   8   1   4  100.19   12.80
   0   8  -4   28.00    5.80
   8  -8  -4   39.70    8.30
   8  -8  -4   27.90    9.90
  -8   0  -4   34.80    7.30
  -8   8   4   30.00    9.20
   8   0   4   26.30    7.80
   8   0   4   31.30    9.30
   0  -8   4   34.30    5.60
  -8   1  -4   41.50    7.80
   7  -8  -4   47.50    8.20
   7  -8  -4   59.69   10.90
   1   7  -4   36.70    4.80
   8  -1   4   32.20    8.00
  -7   8   4   24.00    9.10
  -1  -7   4   36.90    4.60
   8  -1   4   27.90    9.10
  -8   2  -4  652.23   45.30
   6  -8  -4  569.04   45.10
   6  -8  -4  631.14   46.70
   8  -2   4  620.94   46.40
   8  -2   4  628.94   45.40
  -6   8   4  669.13   46.70
   5  -8  -4  639.14   44.80
   5  -8  -4  495.45   42.90
  -8   3  -4  563.74   43.60
   8  -3   4  695.63   43.50
   8  -3   4  565.24   44.30
  -5   8   4  654.63   44.40
   4  -8  -4  624.84   46.40
   4  -8  -4  557.04   45.00
  -8   4  -4  653.03   45.80
   8  -4   4  649.43   46.60
  -4   8   4  688.53   46.40
   8  -4   4  612.04   45.10
   3  -8  -4  608.14   40.50
   3  -8  -4  552.84   41.80
  -8   5  -4  603.54   41.40
  -3   8   4  506.05   41.10
   8  -5   4  510.45   41.90
   8  -5   4  557.74   40.50
  -8   6  -4  703.33   51.69
   2  -8  -4  665.63   51.59
   2  -8  -4  682.13   50.29
   8  -6   4  742.63   50.69
   8  -6   4  728.93   52.39
  -2   8   4  730.53   51.29
   7   1  -4   26.90    4.10
  -8   7  -4   30.70    9.60
   1  -8  -4   37.00    9.20
   1  -8  -4   25.90    6.60
  -1   8   4   35.10    8.50
   8  -7   4   38.90    7.50
   8  -7   4   38.10   10.40
   0  -8  -4   20.90    6.60
   0  -8  -4   26.30    9.20
  -8   8  -4   38.40   10.70
   8   0  -4   27.00    5.10
   8  -8   4   27.60    7.00
   0   8   4   35.80    8.70
   8  -8   4   31.20   10.70
   9  -1  -4  140.39   13.20
  -1  -8  -4  138.09   15.70
  -8   9  -4  121.79   16.70
  -1  -8  -4  133.39   12.80
   1   8   4  158.98   14.60
   8  -9   4  142.19   16.90
   8  -9   4  157.68   13.60
  10  -2  -4  129.29   12.40
  -2  -8  -4  127.89   14.80
  -8  10  -4  147.99   18.20
   2   8   4  126.29   14.00
   8 -10   4  146.19   17.00
   8 -10   4  143.89   13.10
  11  -3  -4  251.87   18.60
  -3  -8  -4  174.88   19.00
  -8  11  -4  176.58   22.40
   8 -11   4  217.28   21.70
   3   8   4  175.78   17.80
  -8  12  -4    9.90   15.90
  12  -4  -4   17.70    8.00
   8 -12   4   16.80   12.10
   4   8   4   15.50    9.00
  13  -5  -4   77.99   11.30
  -8  13  -4   42.60   18.30
   5   8   4   82.19   12.00
   8 -13   4   61.99   14.80
  14  -6  -4  197.38   19.50
  -8  14  -4  180.38   25.50
   8 -14   4  208.08   22.20
   6   8   4  218.68   19.80
  15  -7  -4  222.98   22.40
  -8  15  -4  231.08   27.00
   7   8   4  253.57   22.60
   8 -15   4  254.37   25.30
  16  -8  -4   -6.30   11.10
  -8  16  -4  -26.80   15.30
   8   8   4    0.60   10.60
   8 -16   4    3.40   13.10
  -8  17  -4   -7.60   15.80
  17  -9  -4    8.60   12.10
   8 -17   4    8.70   13.40
   9   8   4    7.80   12.00
  16  -9  -4  428.66   37.40
  -7  16  -4  392.26   37.90
   7 -16   4  462.05   38.20
   9   7   4  466.65   37.20
  15  -9  -4  164.18   17.50
  -6  15  -4  151.98   20.70
   6 -15   4  142.89   17.60
   9   6   4  123.49   16.20
  14  -9  -4 1318.97   92.79
  -5  14  -4 1150.68   94.59
  14  -9  -4 1242.78   92.59
   5 -14   4 1388.76   92.59
   9   5   4 1374.96   92.29
  13  -9  -4  641.84   51.09
  13  -9  -4  630.84   51.09
  -4  13  -4  634.04   54.09
   9   4   4  735.23   50.59
   4 -13   4  733.43   50.59
  12  -9  -4   96.39   14.20
  12  -9  -4  107.79   14.40
  12  -9  -4  148.59   19.90
  -3  12  -4   98.49   17.50
   9   3   4  168.38   14.90
   3 -12   4  130.69   13.90
  -2  11  -4  262.07   24.90
  11  -9  -4  255.07   24.90
  11  -9  -4  281.07   27.60
   9   2   4  270.97   23.80
   9   2   4  261.17   25.00
   2 -11   4  305.27   23.10
  10  -9  -4  350.56   30.60
  -1  10  -4  321.87   27.50
  10  -9  -4  346.07   27.50
 -10   9   4  287.57   28.00
   9   1   4  327.87   27.70
   1 -10   4  308.27   24.70
   9   1   4  324.97   26.80
   9  -9  -4  319.67   25.80
  -9   0  -4  289.77   25.10
   0   9  -4  312.47   24.20
   9  -9  -4  358.46   29.00
   9   0   4  281.77   25.20
   0  -9   4  302.97   22.80
   9   0   4  284.77   26.30
  -9   9   4  303.97   27.40
   1   8  -4  133.89   12.60
  -9   1  -4  144.39   14.40
   8  -9  -4  125.09   14.20
   8  -9  -4  127.69   16.40
   9  -1   4  158.88   14.40
  -8   9   4  154.88   16.40
   9  -1   4  162.48   15.90
  -1  -8   4  144.09   11.50
   7  -9  -4 1556.24  121.79
   7  -9  -4 1709.23  120.59
   2   7  -4 1779.12  118.79
  -9   2  -4 1768.32  120.79
   9  -2   4 1638.94  121.49
  -7   9   4 1842.92  121.79
   9  -2   4 1890.01  120.79
  -9   3  -4    5.00    7.50
   6  -9  -4    8.00    6.70
   6  -9  -4   13.70    9.50
   9  -3   4    4.50    7.00
  -6   9   4    1.00    9.10
   9  -3   4   10.40    9.30
   5  -9  -4  965.40   64.99
  -9   4  -4  800.12   63.69
   5  -9  -4  979.20   63.49
  -5   9   4  933.71   64.69
   9  -4   4  842.82   63.39
   9  -4   4  856.01   64.69
   4  -9  -4  990.90   66.09
  -9   5  -4  781.02   65.29
   4  -9  -4  822.42   64.29
   9  -5   4  929.71   64.69
   9  -5   4 1025.50   66.39
  -4   9   4  951.50   65.89
   3  -9  -4   -2.90    5.80
   3  -9  -4    6.40    8.90
  -9   6  -4    6.40    8.70
   9  -6   4    3.40    9.90
   9  -6   4    4.10    7.10
  -3   9   4   -2.20    8.00
  -9   7  -4 1791.52  124.49
   2  -9  -4 1790.22  122.79
   2  -9  -4 1748.93  124.09
   7   2  -4 1771.12  121.39
   9  -7   4 1714.03  123.09
  -2   9   4 1692.63  123.69
   9  -7   4 1968.50  125.19
   1  -9  -4  114.19   14.10
  -9   8  -4  136.79   15.90
   8   1  -4  150.88   10.80
   1  -9  -4  121.99   12.00
  -1   9   4  107.89   13.60
   9  -8   4  105.79   15.00
   9  -8   4  111.49   12.90
   0  -9  -4  310.07   23.40
   0  -9  -4  275.67   25.80
  -9   9  -4  279.87   28.50
   9   0  -4  301.27   22.30
   9  -9   4  316.57   28.20
   9  -9   4  276.47   24.10
   0   9   4  315.77   25.80
  -1  -9  -4  360.46   29.30
  -9  10  -4  330.87   33.00
  10  -1  -4  329.97   26.00
   9 -10   4  305.97   31.10
   1   9   4  367.36   28.60
   9 -10   4  360.76   27.30
  -9  11  -4  234.08   27.10
  11  -2  -4  270.87   21.90
  -2  -9  -4  311.77   24.90
   9 -11   4  251.37   27.20
   2   9   4  238.98   24.10
  -9  12  -4  110.79   20.60
  -3  -9  -4  138.69   16.00
  12  -3  -4  124.99   13.60
   9 -12   4  125.89   18.30
   3   9   4  159.18   15.30
  13  -4  -4  703.63   49.40
  -9  13  -4  661.03   56.89
   9 -13   4  665.73   52.39
   4   9   4  638.84   49.70
  14  -5  -4 1333.27   93.99
  -9  14  -4 1528.55   99.79
   9 -14   4 1283.97   96.09
   5   9   4 1254.67   93.99
  -9  15  -4  128.79   22.40
  15  -6  -4  133.49   16.90
   9 -15   4  181.18   21.10
   6   9   4  166.78   17.40
  -9  16  -4  458.65   43.70
  16  -7  -4  535.75   38.60
   9 -16   4  410.36   40.70
   7   9   4  398.96   37.40
  -9  17  -4   -3.80   16.50
  17  -8  -4   31.40   12.90
   8   9   4   18.80   12.10
   9 -17   4   16.20   14.50
  18  -9  -4    0.10   13.20
  -9  18  -4  -14.20   15.90
   9   9   4   -7.30   12.30
   9 -18   4   16.70   15.10
  -9  19  -4   64.09   18.70
  19 -10  -4   11.30   14.40
   9 -19   4   22.70   16.50
  10   9   4   31.60   14.40
  18 -10  -4   59.39   15.70
  -8  18  -4   87.59   18.60
  10   8   4   54.09   14.70
   8 -18   4   83.99   17.10
  -7  17  -4  171.98   20.60
  17 -10  -4  115.29   17.40
   7 -17   4  112.09   17.90
  10   7   4   95.39   16.30
  16 -10  -4  325.17   32.80
  -6  16  -4  377.06   33.00
  16 -10  -4  395.86   33.10
  10   6   4  321.67   31.70
   6 -16   4  355.96   32.90
  15 -10  -4   54.19   13.10
  15 -10  -4   41.30   12.90
  -5  15  -4   54.39   15.40
  10   5   4   44.70   11.50
   5 -15   4   58.09   12.70
  -4  14  -4   22.30   13.30
  14 -10  -4    1.60   10.30
  14 -10  -4    0.40   10.60
   4 -14   4   15.40   10.20
  10   4   4   14.80    9.80
  13 -10  -4   43.30   11.30
  13 -10  -4   46.70   11.60
  13 -10  -4   10.90   14.50
  -3  13  -4   38.10   13.70
   3 -13   4   41.80   10.00
  10   3   4   27.20    9.60
  12 -10  -4  288.37   27.30
  -2  12  -4  292.17   27.50
  12 -10  -4  304.07   31.60
   2 -12   4  317.67   24.90
  10   2   4  291.47   26.30
  -1  11  -4    0.50   10.90
  11 -10  -4   18.80    9.30
  11 -10  -4   11.60   13.40
  10   1   4    8.90    8.20
   1 -11   4   18.50    6.70
 -11  10   4  -13.90   10.60
  10   1   4   26.90   10.60
   0  10  -4   -0.60    9.10
  10 -10  -4    0.80   12.30
  10 -10  -4    5.50    8.60
   0 -10   4    3.60    5.10
  10   0   4    3.00    9.90
  10   0   4   -1.70    7.80
 -10  10   4   -5.10   10.70
   9 -10  -4  294.37   28.00
   1   9  -4  305.07   26.30
   9 -10  -4  353.96   31.00
 -10   1  -4  278.57   28.10
  10  -1   4  396.86   28.10
  10  -1   4  335.37   29.80
  -9  10   4  340.57   30.90
  -1  -9   4  359.16   24.20
   8 -10  -4  150.68   15.20
   8 -10  -4  168.98   18.50
   2   8  -4  151.18   12.90
 -10   2  -4  124.69   15.00
  10  -2   4  132.19   16.50
  -8  10   4  143.59   17.30
  10  -2   4  166.88   15.00
   7 -10  -4 1036.30   81.89
 -10   3  -4 1127.29   82.39
   7 -10  -4 1164.08   83.59
  10  -3   4 1220.08   82.09
  10  -3   4 1212.48   83.29
  -7  10   4 1254.57   83.99
   6 -10  -4   96.89   13.40
   6 -10  -4   91.19   10.90
 -10   4  -4  108.19   12.80
  10  -4   4   94.49   13.70
  -6  10   4   90.49   14.10
  10  -4   4   54.39   10.40
   5 -10  -4   -3.80    9.40
   5 -10  -4   11.10    6.90
 -10   5  -4   -2.70    8.90
  10  -5   4    4.00    9.60
  10  -5   4    1.20    7.50
  -5  10   4   -3.60    9.80
 -10   6  -4   86.39   13.10
   4 -10  -4   88.79   13.10
   4 -10  -4   73.69   10.10
  -4  10   4   94.99   13.50
  10  -6   4   90.19   11.10
  10  -6   4   74.69   12.70
   3 -10  -4 1046.70   78.69
 -10   7  -4 1215.28   79.79
   3 -10  -4 1256.87   77.39
  10  -7   4  936.61   79.09
  -3  10   4 1075.39   78.59
  10  -7   4 1081.39   77.69
   2 -10  -4  173.48   15.60
 -10   8  -4  160.88   18.50
   8   2  -4  169.88   12.20
   2 -10  -4  147.39   16.40
  10  -8   4  125.29   14.80
  -2  10   4  138.29   16.10
  10  -8   4  143.69   18.70
   9   1  -4  344.87   23.90
   1 -10  -4  329.47   25.60
 -10   9  -4  360.56   33.10
   1 -10  -4  373.26   28.20
  10  -9   4  289.07   30.20
  -1  10   4  291.67   27.90
  10  -9   4  274.57   26.50
   0 -10  -4    3.40    9.50
  10   0  -4   10.70    5.30
 -10  10  -4   14.20   14.60
  10 -10   4    4.70   11.10
   0  10   4   -0.10    9.00
  10 -10   4    6.50    7.50
  11  -1  -4   12.90    6.60
 -10  11  -4   20.00   15.80
  -1 -10  -4   17.00   10.10
  10 -11   4    4.50   12.40
  10 -11   4   18.00    8.20
   1  10   4    4.10    9.10
  12  -2  -4  311.47   24.80
 -10  12  -4  275.27   31.20
  -2 -10  -4  300.77   28.10
  10 -12   4  312.17   31.00
   2  10   4  309.97   27.40
  -3 -10  -4   30.90   11.70
  13  -3  -4   37.80    9.30
 -10  13  -4   19.60   18.20
   3  10   4   19.60   10.70
  10 -13   4   53.09   14.90
  14  -4  -4    2.80    8.80
 -10  14  -4   -2.30   17.50
   4  10   4   -1.60   10.10
  10 -14   4   -8.00   13.20
 -10  15  -4   40.30   17.80
  15  -5  -4   46.30   11.10
  10 -15   4   39.60   15.60
   5  10   4   38.60   11.60
  16  -6  -4  343.57   31.60
 -10  16  -4  341.87   34.70
   6  10   4  356.26   32.50
  10 -16   4  380.66   35.70
 -10  17  -4  111.59   21.00
  17  -7  -4   99.89   15.80
   7  10   4   99.69   15.90
  10 -17   4  101.29   19.60
 -10  18  -4   58.99   19.00
  18  -8  -4   74.79   15.90
  10 -18   4   71.69   17.70
   8  10   4   76.29   15.10
 -10  19  -4   25.90   18.00
  19  -9  -4    7.90   14.10
  10 -19   4  -15.70   16.30
   9  10   4   17.60   14.00
  20 -10  -4   36.00   15.80
 -10  20  -4   -5.70   18.50
  10  10   4    8.10   14.60
  10 -20   4   16.70   17.10
  20 -11  -4    7.20   15.50
  -9  20  -4   16.70   18.60
  20 -11  -4   14.30   15.10
   9 -20   4  -13.10   15.20
  11   9   4   10.10   14.80
  19 -11  -4   97.29   19.70
  -8  19  -4  130.39   21.80
  19 -11  -4  120.39   19.40
  11   8   4  156.08   19.40
   8 -19   4  152.78   20.40
  18 -11  -4   98.19   17.60
  -7  18  -4  114.29   19.50
  18 -11  -4  101.99   18.30
   7 -18   4   88.59   17.10
  11   7   4  125.39   17.40
  17 -11  -4    2.40   13.30
  -6  17  -4   18.30   14.70
  17 -11  -4   19.60   13.40
   6 -17   4   -0.80   12.00
  11   6   4   31.70   12.90
  16 -11  -4   26.80   12.90
  -5  16  -4   32.90   14.20
  16 -11  -4   25.70   13.10
   5 -16   4   10.90   11.60
  11   5   4   21.30   11.50
  15 -11  -4  238.18   23.90
  15 -11  -4  277.07   24.60
  -4  15  -4  252.97   24.70
  11   4   4  240.78   23.00
   4 -15   4  235.48   24.20
  -3  14  -4  418.86   35.00
  14 -11  -4  388.16   33.90
   3 -14   4  390.66   31.20
  11   3   4  346.57   32.40
  -2  13  -4  421.36   35.20
  13 -11  -4  469.15   34.90
  13 -11  -4  431.26   38.60
   2 -13   4  365.86   31.20
  11   2   4  382.96   33.10
  12 -11  -4  287.37   25.90
  12 -11  -4  262.77   28.20
  -1  12  -4  264.77   24.20
  11   1   4  245.28   24.40
   1 -12   4  262.97   21.80
  11 -11  -4   32.10   14.50
   0  11  -4   44.30   11.60
  11 -11  -4   51.79   11.00
 -11  11   4   28.40   13.10
   0 -11   4   53.69    7.20
  11   0   4   47.80   10.50
   1  10  -4   20.70    9.60
  10 -11  -4   -1.00   12.00
  10 -11  -4    3.00    9.20
  11  -1   4    6.60   10.90
 -10  11   4   16.50   12.40
  -1 -10   4   15.60    4.50
  11  -1   4   12.40    9.00
   9 -11  -4  304.17   27.70
   9 -11  -4  288.47   24.10
   2   9  -4  293.87   22.30
  -9  11   4  212.28   24.60
  11  -2   4  231.68   22.70
  11  -2   4  225.58   23.70
   8 -11  -4  250.57   24.90
 -11   3  -4  237.48   21.20
   3   8  -4  228.88   17.60
   8 -11  -4  230.98   21.40
  11  -3   4  197.78   19.50
  11  -3   4  215.68   21.90
  -8  11   4  172.78   22.10
 -11   4  -4  595.14   44.70
   7 -11  -4  673.13   43.30
   7 -11  -4  514.75   45.20
  11  -4   4  564.84   44.90
  11  -4   4  593.64   43.20
  -7  11   4  500.65   45.90
 -11   5  -4  130.49   16.50
   6 -11  -4  153.28   17.40
   6 -11  -4  123.79   13.60
  11  -5   4  118.19   15.80
  11  -5   4  136.89   14.10
  -6  11   4  114.79   16.40
   5 -11  -4  135.99   13.70
   5 -11  -4   97.49   15.70
 -11   6  -4  146.69   17.50
  11  -6   4  133.79   16.50
  11  -6   4  149.88   15.00
  -5  11   4  162.38   17.60
 -11   7  -4  513.65   47.40
   4 -11  -4  670.03   46.50
   4 -11  -4  598.24   43.80
  11  -7   4  547.55   44.60
  11  -7   4  693.23   47.50
  -4  11   4  555.64   46.00
   3 -11  -4  227.58   18.90
   3 -11  -4  222.18   22.60
 -11   8  -4  214.88   22.80
   8   3  -4  208.18   15.40
  -3  11   4  221.38   20.30
  11  -8   4  172.98   20.70
  11  -8   4  189.08   18.70
   2 -11  -4  263.37   25.00
   9   2  -4  249.97   19.70
 -11   9  -4  208.58   26.30
  11  -9   4  299.87   23.80
  -2  11   4  271.57   25.00
  11  -9   4  327.17   28.60
  10   1  -4   13.60    5.30
 -11  10  -4   -3.20   15.20
   1 -11  -4   10.50   10.00
  -1  11   4   23.80   10.40
  11 -10   4   16.10   13.10
  11 -10   4   11.60    8.40
  11   0  -4   48.80    7.60
 -11  11  -4   29.30   17.30
   0 -11  -4   68.19   12.60
  11 -11   4   39.40    9.70
  11 -11   4   38.40   13.40
   0  11   4   52.09   11.60
  -1 -11  -4  254.17   25.20
 -11  12  -4  210.38   28.70
  12  -1  -4  256.17   22.10
  11 -12   4  264.77   27.20
   1  11   4  305.37   25.70
  13  -2  -4  374.56   30.50
 -11  13  -4  340.17   37.00
  -2 -11  -4  388.46   33.60
  11 -13   4  391.96   37.10
   2  11   4  433.16   33.10
  14  -3  -4  368.16   31.00
  -3 -11  -4  336.57   33.20
 -11  14  -4  354.46   36.80
  11 -14   4  424.16   37.00
   3  11   4  422.06   33.00
 -11  15  -4  216.38   28.30
  15  -4  -4  201.98   21.30
  11 -15   4  273.77   27.20
   4  11   4  288.27   25.60
  16  -5  -4   24.50   10.90
 -11  16  -4   33.10   18.20
  11 -16   4   13.70   15.20
   5  11   4   18.10   11.80
 -11  17  -4   28.20   17.70
  17  -6  -4   25.90   12.30
   6  11   4   31.60   12.90
  11 -17   4    7.90   16.90
  18  -7  -4   88.89   16.30
 -11  18  -4  100.09   21.20
  11 -18   4   83.09   19.70
   7  11   4  118.39   16.80
 -11  19  -4  143.09   22.60
  19  -8  -4  139.19   19.10
  11 -19   4  105.79   21.40
   8  11   4  111.19   18.20
 -11  20  -4   20.10   18.80
  20  -9  -4   -7.90   14.90
  11 -20   4   10.00   17.50
   9  11   4   -4.90   14.30
  20 -12  -4   35.50   16.70
  -8  20  -4   41.50   19.40
  20 -12  -4   33.20   17.30
  12   8   4   77.29   16.30
   8 -20   4   72.29   17.40
  19 -12  -4  -12.10   14.90
  -7  19  -4   27.40   17.60
  19 -12  -4    4.80   15.20
   7 -19   4   21.50   14.00
  12   7   4   35.50   14.40
  -6  18  -4   64.79   17.10
  18 -12  -4   82.19   17.10
  18 -12  -4   69.89   16.80
  12   6   4   59.09   14.60
   6 -18   4   67.99   15.10
  17 -12  -4  182.88   21.50
  17 -12  -4  188.18   21.40
  -5  17  -4  185.68   21.80
   5 -17   4  198.18   19.90
  12   5   4  127.89   19.10
  -4  16  -4   -1.80   12.70
  16 -12  -4    9.30   13.10
   4 -16   4   20.10   10.90
  12   4   4   14.90   11.90
  15 -12  -4   37.60   13.10
  -3  15  -4   38.50   12.90
   3 -15   4   33.50   10.40
  12   3   4   39.70   12.00
  14 -12  -4  147.89   23.10
  14 -12  -4  163.98   18.50
  -2  14  -4  163.88   18.10
  12   2   4  143.39   17.20
   2 -14   4  164.88   15.80
  13 -12  -4  397.16   36.40
  -1  13  -4  347.97   29.90
  13 -12  -4  337.87   30.40
  12   1   4  294.57   29.50
   1 -13   4  336.37   26.60
   0  12  -4  253.27   24.90
  12 -12  -4  283.67   29.00
  12 -12  -4  270.47   25.90
  12   0   4  289.07   25.30
 -12  12   4  226.58   26.10
   0 -12   4  270.97   21.20
   1  11  -4  225.68   22.40
  11 -12  -4  261.77   26.80
  11 -12  -4  257.47   24.60
 -11  12   4  183.38   23.90
  12  -1   4  281.17   23.70
   2  10  -4  306.07   24.10
  10 -12  -4  284.97   25.60
  10 -12  -4  317.27   30.20
  12  -2   4  270.97   27.40
 -10  12   4  185.88   26.10
  12  -2   4  309.97   25.80
   9 -12  -4  103.09   14.30
   3   9  -4  144.79   12.70
   9 -12  -4  146.39   19.10
  12  -3   4  130.19   16.80
  12  -3   4  144.19   15.20
  -9  12   4   76.19   17.50
   8 -12  -4   18.90    8.80
 -12   4  -4    9.10   12.30
   8 -12  -4    2.50   12.10
  12  -4   4   24.10   12.00
  12  -4   4    9.40    8.80
  -8  12   4   -2.20   13.10
   7 -12  -4  805.32   58.59
   7 -12  -4  794.42   55.99
 -12   5  -4  762.02   58.79
  12  -5   4  777.62   56.09
  -7  12   4  721.23   58.99
  12  -5   4  739.13   58.09
   6 -12  -4  663.93   51.09
 -12   6  -4  720.23   52.59
   6 -12  -4  670.63   48.50
  12  -6   4  592.34   48.80
  -6  12   4  620.74   51.79
  12  -6   4  718.83   51.79
 -12   7  -4  774.92   58.39
   5 -12  -4  752.32   53.89
   5 -12  -4  659.33   56.09
  12  -7   4  814.82   56.59
  12  -7   4  719.43   54.59
  -5  12   4  764.72   56.99
   4 -12  -4   11.40    7.50
 -12   8  -4   27.10   15.00
   4 -12  -4   13.70   10.80
  -4  12   4   20.90   11.80
  12  -8   4   -1.20    8.80
  12  -8   4   -2.70   12.60
   9   3  -4  128.49   11.10
   3 -12  -4  126.89   16.40
 -12   9  -4  103.09   19.90
  12  -9   4  116.99   14.60
  -3  12   4  131.49   16.20
  12  -9   4  115.29   17.40
 -12  10  -4  296.07   30.80
  10   2  -4  322.47   22.00
   2 -12  -4  210.48   25.20
  12 -10   4  272.17   25.90
  12 -10   4  340.97   30.90
  -2  12   4  300.17   27.20
  11   1  -4  247.28   20.60
   1 -12  -4  289.77   25.80
 -12  11  -4  214.28   28.70
  -1  12   4  254.27   23.80
  12 -11   4  238.78   26.90
  12 -11   4  292.77   24.40
 -12  12  -4  190.18   28.60
  12   0  -4  247.98   21.50
   0 -12  -4  258.67   25.70
   0  12   4  276.77   26.30
  12 -12   4  257.07   24.10
  12 -12   4  273.77   28.10
 -12  13  -4  426.76   39.00
  13  -1  -4  354.16   30.50
  -1 -12  -4  389.56   34.20
   1  12   4  370.06   33.50
  12 -13   4  460.45   38.60
 -12  14  -4  179.08   26.20
  -2 -12  -4  163.28   19.20
  14  -2  -4  165.08   16.20
  12 -14   4  155.78   22.20
   2  12   4  156.38   18.20
 -12  15  -4   51.19   19.70
  -3 -12  -4   18.30   12.70
  15  -3  -4   48.60   10.90
   3  12   4   42.60   12.60
  12 -15   4   21.00   16.40
 -12  16  -4   27.30   19.30
  16  -4  -4   35.00   11.30
  12 -16   4   27.00   17.20
   4  12   4   25.50   12.60
  17  -5  -4  184.98   20.50
 -12  17  -4  231.58   26.90
  12 -17   4  218.88   26.60
   5  12   4  184.48   21.40
  18  -6  -4   49.10   13.80
 -12  18  -4   57.89   19.50
   6  12   4   63.59   14.90
  12 -18   4   71.79   19.80
 -12  19  -4   40.00   18.40
  19  -7  -4   19.50   14.10
  12 -19   4   22.60   18.40
   7  12   4   13.20   14.20
 -12  20  -4   72.39   21.00
  20  -8  -4   81.99   17.20
  12 -20   4   45.10   20.10
   8  12   4   45.90   16.00
  19 -13  -4   89.29   18.50
  -6  19  -4   67.79   19.10
  13   6   4  105.09   17.50
   6 -19   4   93.89   16.20
  -5  18  -4   95.49   18.70
  18 -13  -4   99.19   18.40
  13   5   4   87.59   16.40
   5 -18   4   93.29   15.40
  -4  17  -4  349.07   30.20
  17 -13  -4  235.98   28.90
  13   4   4  336.47   31.30
   4 -17   4  353.76   29.30
  -3  16  -4  580.64   42.70
  16 -13  -4  497.25   43.40
   3 -16   4  486.95   39.40
  13   3   4  493.25   42.10
  15 -13  -4  416.86   41.90
  -2  15  -4  410.06   33.80
  15 -13  -4  395.86   35.80
  13   2   4  367.56   33.90
   2 -15   4  366.86   30.70
  -1  14  -4   17.00   10.50
  14 -13  -4   54.69   13.20
  14 -13  -4   56.89   19.10
   1 -14   4   29.90    8.30
  13   1   4   27.30   11.50
  13 -13  -4  161.98   18.80
  13 -13  -4  146.29   22.40
   0  13  -4  171.08   16.70
  13   0   4  161.28   18.10
   1  12  -4  334.37   28.50
  12 -13  -4  417.96   31.30
  12 -13  -4  337.27   35.60
  13  -1   4  343.97   30.70
 -12  13   4  315.97   32.00
  11 -13  -4  379.56   35.70
   2  11  -4  373.56   28.00
  11 -13  -4  347.27   31.10
  13  -2   4  397.56   30.80
 -11  13   4  260.07   31.50
  10 -13  -4   32.10   14.50
  10 -13  -4   37.70   11.00
   3  10  -4   23.50    7.10
 -10  13   4   39.50   15.40
  13  -3   4   36.80   13.40
  13  -3   4   26.90   10.70
   9 -13  -4  805.22   54.79
   9 -13  -4  722.33   51.09
  -9  13   4  584.04   54.69
  13  -4   4  677.43   51.19
  13  -4   4  622.64   52.99
   8 -13  -4   85.99   12.60
   8 -13  -4   86.29   16.40
  13  -5   4   69.59   12.30
  13  -5   4   75.49   15.50
  -8  13   4   74.29   16.80
 -13   6  -4  152.18   20.90
   7 -13  -4  194.08   20.90
   7 -13  -4  172.78   16.20
  -7  13   4   87.69   18.90
  13  -6   4  136.29   19.40
  13  -6   4  152.18   16.70
 -13   7  -4  169.98   22.10
   6 -13  -4  139.09   15.50
   6 -13  -4  168.08   20.30
  13  -7   4  155.88   17.00
  13  -7   4  164.08   20.00
  -6  13   4  157.08   20.10
   5 -13  -4   52.89   14.30
 -13   8  -4   66.59   17.80
  13  -8   4   83.99   12.70
  13  -8   4   80.69   17.00
  -5  13   4   93.19   15.90
 -13   9  -4  707.03   59.59
   4 -13  -4  670.93   55.19
  13  -9   4  770.22   57.29
  13  -9   4  765.72   54.29
  -4  13   4  707.13   55.69
 -13  10  -4   41.40   18.80
  10   3  -4   44.30    6.30
   3 -13  -4   38.80   13.00
  13 -10   4   67.59   16.70
  13 -10   4   28.90   11.00
  -3  13   4   39.50   13.00
  11   2  -4  403.26   29.20
   2 -13  -4  357.06   33.90
 -13  11  -4  405.56   38.60
  13 -11   4  411.96   37.90
  -2  13   4  403.76   34.80
  13 -11   4  378.76   32.70
   1 -13  -4  370.56   32.50
  12   1  -4  347.97   27.00
 -13  12  -4  378.46   36.40
  -1  13   4  347.57   32.40
  13 -12   4  337.97   34.40
  13 -12   4  325.37   29.90
   0 -13  -4  139.19   19.40
  13   0  -4  173.98   15.60
 -13  13  -4  158.98   25.40
  13 -13   4  195.58   24.20
   0  13   4  146.19   18.70
  14  -1  -4   26.00    9.10
  -1 -13  -4   34.30   13.20
 -13  14  -4    8.80   19.10
   1  13   4   37.10   12.50
  13 -14   4   16.80   16.40
  -2 -13  -4  339.97   32.50
  15  -2  -4  305.57   29.80
 -13  15  -4  333.37   36.10
  13 -15   4  437.06   38.70
   2  13   4  397.56   33.40
  16  -3  -4  514.15   41.60
 -13  16  -4  483.05   46.30
   3  13   4  579.04   43.50
  13 -16   4  519.65   47.50
 -13  17  -4  345.17   35.20
  17  -4  -4  327.77   31.80
  13 -17   4  345.67   35.40
   4  13   4  357.66   33.00
  18  -5  -4   95.59   16.00
 -13  18  -4  106.39   22.40
  13 -18   4  108.79   22.60
   5  13   4   95.79   17.00
  19  -6  -4  121.49   17.60
 -13  19  -4  104.19   22.20
  13 -19   4   75.69   22.10
   6  13   4  109.19   17.80
  -5  19  -4   42.80   16.40
  19 -14  -4   26.60   16.20
   5 -19   4   13.90   12.60
  14   5   4   18.30   14.60
  18 -14  -4   60.59   16.50
  -4  18  -4   26.90   15.10
  14   4   4   26.50   14.40
   4 -18   4   56.39   12.70
  -3  17  -4  331.87   28.70
  17 -14  -4  241.38   28.60
  14   3   4  313.67   28.20
   3 -17   4  304.07   27.70
  16 -14  -4    1.70   13.80
  -2  16  -4   38.10   13.70
  14   2   4   21.30   12.70
  15 -14  -4  155.68   19.70
  15 -14  -4  166.38   25.10
  -1  15  -4  177.58   18.60
  14   1   4  120.59   18.00
  14 -14  -4   34.00   13.40
  14 -14  -4   27.70   17.90
   0  14  -4   30.70   10.90
  14   0   4    9.00   11.40
   1  13  -4   34.10   10.00
  13 -14  -4   37.70   17.80
  13 -14  -4   27.50   12.40
  14  -1   4   24.10   11.50
  12 -14  -4  155.68   22.20
   2  12  -4  156.38   15.80
  12 -14  -4  192.28   19.40
 -12  14   4  162.08   22.20
  14  -2   4  172.68   18.40
   3  11  -4  365.76   29.00
  11 -14  -4  348.27   36.80
  11 -14  -4  396.96   32.30
 -11  14   4  353.46   34.80
  14  -3   4  406.86   32.90
  10 -14  -4    0.10   13.80
  10 -14  -4   10.90   10.30
 -10  14   4    3.20   15.60
  14  -4   4   19.10   14.10
  14  -4   4   13.40   10.20
   9 -14  -4 1473.35   94.69
   9 -14  -4 1456.35   97.49
  -9  14   4 1144.29   97.09
  14  -5   4 1267.27   94.39
  14  -5   4 1293.47   96.59
   8 -14  -4  218.68   20.30
   8 -14  -4  194.88   24.20
  -8  14   4  203.38   24.50
  14  -6   4  263.27   25.20
  14  -6   4  188.38   20.20
   7 -14  -4   23.90   13.50
 -14   7  -4  -18.80   16.00
   7 -14  -4    6.00    9.20
  14  -7   4    6.20   10.50
  14  -7   4  -12.60   13.30
  -7  14   4    6.90   14.20
 -14   8  -4  232.58   26.30
   6 -14  -4  200.98   23.40
  14  -8   4  200.58   24.40
  14  -8   4  201.78   20.50
  -6  14   4  208.28   23.60
 -14   9  -4 1192.08   98.49
   5 -14  -4 1319.87   96.59
  14  -9   4 1311.57   97.59
  -5  14   4 1325.07   96.49
  14  -9   4 1497.85   95.49
   4 -14  -4    5.00   12.50
 -14  10  -4    6.90   18.10
  -4  14   4   10.40   12.80
  14 -10   4   18.90   14.80
  14 -10   4   24.90   11.20
 -14  11  -4  423.36   39.00
   3 -14  -4  407.66   34.70
  11   3  -4  405.26   29.20
  -3  14   4  377.66   34.90
  14 -11   4  365.66   33.40
  14 -11   4  350.86   38.30
 -14  12  -4  171.78   25.40
  12   2  -4  156.88   14.00
   2 -14  -4  165.48   19.60
  14 -12   4  147.09   21.70
  14 -12   4  136.79   16.90
  -2  14   4  150.18   19.30
  13   1  -4   25.20    8.10
 -14  13  -4   27.90   19.50
   1 -14  -4   34.80   13.60
  -1  14   4   15.50   13.20
  14 -13   4   19.40   17.80
  14 -13   4   30.60   17.80
 -14  14  -4   21.40   18.70
   0 -14  -4   30.10   13.20
  14   0  -4    2.30    8.40
   0  14   4   25.70   13.00
  14 -14   4   19.80   17.70
  -1 -14  -4  149.49   19.70
 -14  15  -4  146.79   24.80
  15  -1  -4  153.68   16.10
   1  14   4  129.79   18.60
  14 -15   4  167.48   25.40
  16  -2  -4   25.40   10.80
 -14  16  -4   61.59   20.10
  -2 -14  -4   20.90   14.20
   2  14   4   19.30   13.40
  14 -16   4   15.60   18.30
 -14  17  -4  298.47   31.20
  17  -3  -4  319.97   27.80
   3  14   4  258.57   26.40
  14 -17   4  219.28   30.80
  18  -4  -4   47.10   13.00
 -14  18  -4   80.39   20.50
  14 -18   4   22.80   20.30
   4  14   4   23.20   14.60
 -14  19  -4   31.60   19.60
  19  -5  -4   26.30   13.60
   5  14   4   22.30   15.00
  14 -19   4   46.20   20.80
  -4  19  -4   91.59   18.20
  19 -15  -4   94.69   19.40
  15   4   4  104.29   17.90
  18 -15  -4   26.10   16.30
  -3  18  -4   35.10   14.50
  15   3   4   14.40   14.10
  17 -15  -4  210.28   23.80
  -2  17  -4  187.48   21.60
  15   2   4  188.78   21.90
  16 -15  -4  208.78   28.00
  -1  16  -4  198.98   21.00
  16 -15  -4  169.88   22.50
  15   1   4  212.68   21.80
  15 -15  -4  344.37   32.30
   0  15  -4  295.67   28.50
  15 -15  -4  252.97   33.00
  15   0   4  345.07   31.20
   1  14  -4  131.79   15.70
  14 -15  -4  139.99   23.30
  14 -15  -4  146.59   19.00
  15  -1   4  157.58   18.30
  13 -15  -4  372.26   34.30
   2  13  -4  364.96   30.40
  13 -15  -4  374.56   39.40
  15  -2   4  383.06   34.20
 -13  15   4  423.16   39.30
  12 -15  -4   14.80   16.50
  12 -15  -4   51.29   12.80
  15  -3   4   27.20   12.10
 -12  15   4   45.10   17.40
  11 -15  -4  166.58   24.40
  11 -15  -4  236.48   22.40
 -11  15   4  232.18   26.80
  15  -4   4  257.97   22.80
  10 -15  -4   31.50   17.00
  10 -15  -4   37.80   11.70
  15  -5   4   51.19   12.50
 -10  15   4   42.60   17.50
   9 -15  -4  137.79   16.80
   9 -15  -4  147.29   22.00
  -9  15   4  169.88   23.10
  15  -6   4  144.69   17.70
  15  -6   4  185.98   22.00
   8 -15  -4  229.78   26.40
  15  -7   4  262.07   28.80
  15  -7   4  276.97   26.60
  -8  15   4  280.27   28.40
   7 -15  -4  273.57   27.50
  15  -8   4  251.17   27.60
  15  -8   4  208.28   22.90
  -7  15   4  250.57   27.30
 -15   9  -4  118.79   22.60
   6 -15  -4  131.29   19.90
  15  -9   4  148.79   17.80
  15  -9   4  193.48   22.90
  -6  15   4  170.38   21.60
 -15  10  -4   68.59   19.90
   5 -15  -4   75.99   16.40
  -5  15   4   42.60   15.60
  15 -10   4   24.70   16.70
  15 -10   4   52.69   13.40
 -15  11  -4  278.97   29.40
   4 -15  -4  235.98   24.80
  15 -11   4  217.28   27.20
  -4  15   4  213.38   24.60
  15 -11   4  233.78   22.80
 -15  12  -4   28.60   19.80
   3 -15  -4   39.40   13.90
  -3  15   4   38.90   15.10
  15 -12   4   40.60   17.80
  15 -12   4   30.50   12.30
 -15  13  -4  455.65   39.20
  13   2  -4  400.36   30.00
   2 -15  -4  402.76   35.60
  -2  15   4  349.37   36.00
  15 -13   4  345.07   37.30
  15 -13   4  360.86   33.70
   1 -15  -4  152.28   20.20
  14   1  -4  132.09   14.50
 -15  14  -4  177.48   25.10
  15 -14   4  146.69   23.90
  -1  15   4  124.19   19.00
   0 -15  -4  286.77   30.00
 -15  15  -4  404.46   35.00
  15   0  -4  260.67   26.00
   0  15   4  287.17   28.20
  15 -15   4  286.57   32.40
 -15  16  -4  225.78   28.60
  16  -1  -4  234.58   20.50
  -1 -15  -4  203.68   24.00
   1  15   4  190.18   23.20
  15 -16   4  205.28   28.60
  -2 -15  -4  219.98   24.00
 -15  17  -4  197.38   27.70
  17  -2  -4  199.98   20.90
  15 -17   4  210.78   28.90
   2  15   4  201.88   23.50
  18  -3  -4   23.10   12.30
 -15  18  -4   39.70   19.90
   3  15   4   15.30   14.40
  15 -18   4   23.00   20.60
 -15  19  -4  152.08   24.70
  19  -4  -4  133.49   17.70
  15 -19   4  107.79   25.10
   4  15   4   98.99   18.60
  18 -16  -4  237.18   26.20
  -2  18  -4  233.58   24.20
  16   2   4  214.28   24.40
  17 -16  -4  -14.00   14.30
  -1  17  -4   21.70   13.00
  16   1   4  -17.70   13.60
  16 -16  -4   14.50   19.40
  16 -16  -4    8.30   14.40
   0  16  -4   25.70   12.10
  16   0   4   17.60   14.20
   1  15  -4  254.97   21.30
  15 -16  -4  246.98   30.60
  15 -16  -4  221.28   24.00
  16  -1   4  164.08   22.70
  14 -16  -4   34.40   18.30
   2  14  -4   18.90   10.10
  14 -16  -4   12.80   13.40
  16  -2   4   30.40   13.60
  13 -16  -4  451.65   42.60
  13 -16  -4  502.45   47.30
 -13  16   4  589.74   48.10
  16  -3   4  538.15   43.00
  12 -16  -4   17.90   12.10
  12 -16  -4   21.80   18.20
 -12  16   4   27.10   17.90
  16  -4   4   34.30   13.00
  11 -16  -4   27.70   12.40
  11 -16  -4   18.40   17.10
  16  -5   4   28.50   12.70
 -11  16   4   11.30   17.20
  10 -16  -4  354.86   38.70
  16  -6   4  432.56   35.80
 -10  16   4  391.76   37.20
   9 -16  -4  375.36   38.40
  16  -7   4  361.96   38.40
  -9  16   4  449.76   37.80
  16  -7   4  378.46   35.30
   8 -16  -4   11.80   15.90
  16  -8   4   -2.70   15.70
  -8  16   4    6.90   16.80
  16  -8   4   -4.60   11.50
   7 -16  -4  518.65   46.80
  16  -9   4  507.25   46.40
  -7  16   4  500.95   47.00
  16  -9   4  554.34   42.70
   6 -16  -4  429.56   37.30
  -6  16   4  366.66   34.80
  16 -10   4  336.07   36.00
  16 -10   4  392.36   35.10
   5 -16  -4   19.40   15.00
 -16  11  -4   52.89   19.00
  16 -11   4    1.00   17.30
  16 -11   4   19.40   12.40
  -5  16   4   29.40   15.20
 -16  12  -4   54.09   18.50
   4 -16  -4    7.50   14.00
  -4  16   4   26.50   15.20
  16 -12   4   -6.30   11.50
  16 -12   4    7.50   17.60
   3 -16  -4  543.45   45.00
 -16  13  -4  557.74   50.29
  16 -13   4  486.65   49.20
  16 -13   4  518.95   43.20
  -3  16   4  536.25   45.70
   2 -16  -4   23.00   14.70
  14   2  -4   26.60   10.30
 -16  14  -4   21.00   19.00
  16 -14   4   22.80   19.80
  -2  16   4   33.20   15.30
  15   1  -4  199.28   18.90
 -16  15  -4  232.78   28.10
   1 -16  -4  176.48   23.60
  -1  16   4  181.88   23.20
  16 -15   4  268.97   30.50
 -16  16  -4   32.20   19.40
  16   0  -4   26.90   10.90
   0 -16  -4   20.10   14.80
  16 -16   4    2.80   19.40
   0  16   4  -21.90   14.10
  17  -1  -4    4.80   10.70
 -16  17  -4   -2.80   18.80
  -1 -16  -4   -0.60   14.70
  16 -17   4   -6.90   18.90
   1  16   4   -7.80   14.20
 -16  18  -4  180.28   26.40
  18  -2  -4  157.48   19.60
   2  16   4  183.28   22.60
  16 -18   4  215.48   29.10
  17 -17  -4   91.69   23.50
  17 -17  -4   59.69   17.80
   0  17  -4   81.29   14.60
  17   0   4   90.69   17.50
   1  16  -4   -2.00   10.50
  16 -17  -4    4.70   14.70
  16 -17  -4   15.40   20.60
  17  -1   4  -18.90   13.30
  15 -17  -4  216.18   23.50
  15 -17  -4  248.48   30.50
  17  -2   4  180.58   22.60
  14 -17  -4  328.67   33.60
  14 -17  -4  286.17   27.50
  17  -3   4  245.58   26.80
  13 -17  -4  291.17   28.30
  13 -17  -4  248.38   31.90
  17  -4   4  292.27   27.50
 -13  17   4  338.17   32.00
  12 -17  -4  178.98   25.80
  17  -5   4  150.58   19.70
 -12  17   4  179.18   25.40
  11 -17  -4   10.60   17.10
  17  -6   4    0.30   13.10
 -11  17   4    6.20   17.90
  10 -17  -4  133.09   22.80
 -10  17   4  127.09   22.50
  17  -7   4   99.19   17.20
   9 -17  -4    9.30   16.80
  17  -8   4    0.30   12.80
  -9  17   4   -3.80   17.50
   8 -17  -4   33.40   17.40
  17  -9   4   13.30   12.90
  17  -9   4    8.20   17.30
  -8  17   4   21.70   17.80
   7 -17  -4  124.59   21.50
  17 -10   4  123.39   22.70
  -7  17   4  109.79   21.00
  17 -10   4  115.19   17.80
   6 -17  -4   29.90   16.60
  17 -11   4   26.60   18.90
  -6  17   4   25.10   16.20
  17 -11   4   30.00   13.40
   5 -17  -4  142.09   22.60
  17 -12   4  172.78   20.90
  17 -12   4  208.28   27.20
  -5  17   4  202.98   23.70
   4 -17  -4  238.58   30.10
  17 -13   4  382.16   36.00
  17 -13   4  343.27   31.90
  -4  17   4  342.67   31.80
   3 -17  -4  215.38   27.60
 -17  14  -4  254.27   30.30
  17 -14   4  373.96   35.30
  -3  17   4  286.27   28.70
   2 -17  -4  167.48   23.60
 -17  15  -4  156.78   26.50
  17 -15   4  268.57   30.20
  -2  17   4  207.08   24.10
 -17  16  -4  -10.10   18.20
  16   1  -4   -2.20   10.00
   1 -17  -4    9.80   15.10
  -1  17   4   29.10   15.80
  17 -16   4   36.90   20.60
 -17  17  -4   75.79   21.40
   0 -17  -4   77.89   18.30
  17   0  -4  110.29   13.90
   0  17   4   81.89   18.40
  17 -17   4   62.79   22.90
  16 -18  -4  155.98   28.30
  16 -18  -4  180.48   23.00
  18  -2   4  199.48   22.90
  15 -18  -4   31.50   20.90
  18  -3   4   21.10   14.50
  14 -18  -4   62.39   21.80
  18  -4   4   19.70   14.60
  13 -18  -4   96.99   23.60
  18  -5   4   95.79   17.60
 -13  18   4  120.39   22.40
  12 -18  -4   80.49   22.10
  18  -6   4   68.59   16.60
 -12  18   4   74.79   21.30
  11 -18  -4   87.49   22.10
 -11  18   4  123.19   22.50
  18  -7   4   78.39   16.70
  10 -18  -4  129.89   23.60
  18  -8   4  138.59   18.80
 -10  18   4  105.29   23.20
   9 -18  -4    6.30   17.50
  -9  18   4   15.70   18.40
  18  -9   4   -8.80   12.80
   8 -18  -4  120.99   21.40
  18 -10   4   69.89   21.20
  -8  18   4   62.99   20.20
  18 -10   4   52.19   15.80
   7 -18  -4   76.79   19.70
  -7  18   4   95.69   20.80
  18 -11   4  110.39   22.80
  18 -11   4   65.29   16.30
   6 -18  -4   55.79   18.50
  18 -12   4   83.79   22.40
  18 -12   4   60.19   15.70
  -6  18   4   75.19   19.30
   5 -18  -4  121.89   20.50
  -5  18   4   78.99   20.00
  18 -13   4   65.39   16.30
  18 -13   4  123.19   24.20
   4 -18  -4   42.10   17.10
  18 -14   4   78.99   25.60
  18 -14   4   53.39   22.20
  -4  18   4   67.59   18.80
   3 -18  -4   24.00   16.80
  -3  18   4   16.50   16.70
  18 -15   4   24.50   21.80
   2 -18  -4  212.78   24.80
  18 -16   4  175.88   28.00
  -2  18   4  156.78   24.20
  15 -19  -4  114.19   25.10
  19  -4   4  103.29   19.10
  14 -19  -4   12.30   21.30
  19  -5   4   26.90   15.80
  13 -19  -4  109.09   23.90
 -13  19   4  111.79   23.00
  19  -6   4   32.10   17.00
  12 -19  -4    7.90   19.00
 -12  19   4   19.50   19.80
  19  -7   4   -5.40   14.70
  11 -19  -4  150.48   25.40
 -11  19   4  132.09   23.80
  19  -8   4  111.09   19.30
  10 -19  -4   -6.80   18.30
  19  -9   4   29.00   15.10
 -10  19   4   21.60   20.00
   9 -19  -4   11.80   18.40
  19 -10   4   35.70   15.50
  -9  19   4   49.30   19.80
   8 -19  -4  137.29   23.30
  19 -11   4   82.79   18.10
  -8  19   4  136.29   23.80
   7 -19  -4    0.50   17.80
  19 -12   4    3.90   14.20
  19 -12   4  -13.30   19.40
  -7  19   4   22.90   18.70
   6 -19  -4   80.69   20.60
  19 -13   4   85.49   24.20
  -6  19   4  117.09   22.40
  19 -13   4   97.89   17.90
   5 -19  -4   30.30   17.80
  -5  19   4   51.49   19.10
  19 -14   4    9.90   14.60
  19 -14   4   39.30   22.20
   4 -19  -4   88.59   20.50
  -4  19   4  148.19   22.40
  19 -15   4   97.09   25.60
  12 -20  -4   57.19   22.20
 -12  20   4   26.50   21.70
  20  -8   4   18.20   15.80
  11 -20  -4   -7.40   20.00
  20  -9   4  -11.10   14.90
 -11  20   4   36.90   20.50
  10 -20  -4   53.29   21.30
 -10  20   4    4.50   19.70
  20 -10   4   28.80   16.50
   9 -20  -4   14.00   19.70
  -9  20   4    1.80   19.10
  20 -11   4   -3.50   15.10
   8 -20  -4   43.40   20.10
  20 -12   4   31.60   16.10
  -8  20   4   45.30   20.40
   0   0  -5    4.40    4.10
   0   0   5   -0.60    3.80
  -1   0  -5 2835.02  222.28
   1  -1  -5 3545.15  222.38
   0   1  -5 3304.07  222.18
   1  -1  -5 3174.08  222.68
   0  -1   5 3324.27  221.98
  -1   1   5 3351.76  222.18
   1   0   5 3262.87  222.28
   1   0  -5 3086.69  217.68
   1   0  -5 3125.79  217.28
   0  -1  -5 3219.48  217.48
  -1   1  -5 2843.52  217.38
   0  -1  -5 3424.06  218.08
  -1   0   5 3262.57  217.08
   1  -1   5 3265.77  217.28
   0   1   5 3258.07  217.48
  -1   2  -5 2905.21  193.68
   2  -1  -5 2797.62  193.68
  -1  -1  -5 2500.75  193.78
   2  -1  -5 2949.00  194.08
   1   1   5 2852.31  193.88
  -2   1   5 2970.50  193.38
   1  -2   5 2869.11  193.38
   3  -2  -5  648.74   47.00
  -2  -1  -5  672.13   47.30
  -1   3  -5  604.94   46.70
   3  -2  -5  621.84   47.50
  -3   2   5  726.93   46.70
   2   1   5  753.32   47.60
   1  -3   5  685.23   47.40
   2  -2  -5   34.20    5.60
   0   2  -5   42.40    5.00
   2  -2  -5   39.50    6.80
  -2   0  -5   26.10    5.50
   2   0   5   42.10    5.90
  -2   2   5   37.70    5.40
  -2   1  -5 3087.49  199.88
   1  -2  -5 2802.72  200.28
   1  -2  -5 2898.41  199.88
   1   1  -5 2833.02  199.48
  -1   2   5 2987.30  199.78
   2  -1   5 2939.41  199.78
   0  -2  -5   40.60    7.40
   0  -2  -5   35.30    5.80
  -2   2  -5   34.30    5.70
   2   0  -5   42.10    5.20
   0   2   5   39.80    5.90
   2  -2   5   39.60    5.50
   3  -1  -5  717.43   45.70
  -2   3  -5  621.54   45.70
  -1  -2  -5  720.73   47.10
   2  -3   5  633.84   45.40
   2  -3   5  612.74   46.40
   1   2   5  616.54   46.10
  -2   4  -5  272.17   22.30
   4  -2  -5  310.77   22.40
   4  -2  -5  312.97   22.80
   2  -4   5  306.87   23.40
   2   2   5  305.37   23.30
  -2   5  -5  175.98   14.40
   5  -3  -5  196.38   16.10
   5  -3  -5  177.28   14.90
  -3  -2  -5  164.88   15.60
   3   2   5  176.58   15.70
  -5   3   5  168.78   13.70
   2  -5   5  178.78   16.10
  -1   4  -5  409.56   33.00
   4  -3  -5  485.55   33.70
  -3  -1  -5  476.55   33.90
   4  -3  -5  441.16   34.20
   1  -4   5  517.55   34.00
  -4   3   5  481.25   33.20
   3   1   5  479.75   34.10
  -3   0  -5   12.50    5.10
   3  -3  -5   13.40    5.00
   3  -3  -5   10.50    5.60
   0   3  -5    8.40    3.70
   0  -3   5   10.40    4.80
   3   0   5    6.80    5.10
  -3   3   5   16.70    4.50
  -3   1  -5  704.73   48.90
   2  -3  -5  750.52   49.60
   1   2  -5  740.03   48.10
   2  -3  -5  667.13   48.80
  -2   3   5  638.24   48.60
   3  -1   5  664.33   48.80
   2   1  -5  635.24   45.50
   1  -3  -5  648.44   46.30
  -3   2  -5  647.94   46.30
   1  -3  -5  580.04   46.70
   3  -2   5  680.33   46.20
   3  -2   5  655.33   47.10
  -1   3   5  760.32   46.40
   0  -3  -5   10.60    6.50
   3   0  -5   11.50    3.70
  -3   3  -5   13.10    4.90
   0  -3  -5   13.40    5.10
   0   3   5    4.60    5.00
   3  -3   5   11.50    4.20
   3  -3   5    9.00    6.20
   4  -1  -5  488.65   32.80
  -1  -3  -5  486.05   33.50
  -1  -3  -5  452.35   34.10
  -3   4  -5  492.55   33.20
   3  -4   5  428.06   32.70
   1   3   5  463.85   33.70
   3  -4   5  422.16   33.90
  -3   5  -5  171.18   14.90
  -2  -3  -5  154.58   16.60
  -2  -3  -5  203.18   15.20
   5  -2  -5  176.88   14.60
   2   3   5  177.68   16.00
   3  -5   5  167.28   15.80
   3  -5   5  175.88   13.70
  -3   6  -5  183.18   15.20
   6  -3  -5  174.48   15.30
  -3  -3  -5  165.28   15.70
   6  -3  -5  187.48   16.00
   3  -6   5  182.68   16.70
   3   3   5  162.18   16.10
  -3   7  -5  502.35   37.20
   7  -4  -5  487.95   37.40
  -4  -3  -5  481.85   37.40
   7  -4  -5  505.65   38.30
   4   3   5  560.34   38.00
   3  -7   5  556.14   38.20
   6  -4  -5  156.98   15.90
   6  -4  -5  167.58   15.30
  -4  -2  -5  172.08   15.60
  -2   6  -5  184.88   14.50
   2  -6   5  178.38   15.70
   4   2   5  187.68   16.00
  -6   4   5  164.28   14.00
   5  -4  -5   27.70    6.00
   5  -4  -5   30.60    7.20
  -1   5  -5   26.80    4.60
  -4  -1  -5   20.70    6.10
   1  -5   5   28.80    6.20
   4   1   5   28.30    6.30
  -5   4   5   33.00    5.40
   4  -4  -5  922.81   67.19
   4  -4  -5  993.00   66.69
   0   4  -5  927.61   65.79
  -4   0  -5  990.30   66.79
   4   0   5  954.40   66.79
  -4   4   5  972.90   66.39
   0  -4   5  941.71   66.29
   3  -4  -5  546.25   34.60
   3  -4  -5  479.85   33.70
   1   3  -5  469.85   32.30
  -3   4   5  447.26   33.30
   4  -1   5  454.05   33.60
  -1  -3   5  408.46   32.70
   2  -4  -5  294.67   22.70
   2  -4  -5  280.97   22.10
  -4   2  -5  277.87   22.30
   2   2  -5  302.87   20.80
   4  -2   5  289.07   23.00
  -2   4   5  287.47   22.30
   4  -2   5  293.37   22.20
   1  -4  -5  436.46   33.80
   3   1  -5  427.56   32.60
  -4   3  -5  448.96   33.80
   1  -4  -5  500.75   34.90
  -1   4   5  515.85   34.10
   4  -3   5  530.45   33.70
   4  -3   5  438.36   34.60
   0  -4  -5  841.22   64.89
   0  -4  -5  818.52   64.29
  -4   4  -5  913.31   64.39
   4   0  -5  968.40   63.59
   4  -4   5  939.31   64.09
   0   4   5  973.40   64.69
   4  -4   5 1001.90   65.29
  -1  -4  -5   30.50    6.40
   5  -1  -5   18.70    4.80
  -4   5  -5   20.20    6.00
  -1  -4  -5   43.60    8.50
   4  -5   5   27.40    7.70
   1   4   5   24.30    6.40
   4  -5   5   28.50    5.20
  -4   6  -5  180.88   16.00
   6  -2  -5  181.88   15.10
   6  -2  -5  188.08   15.10
  -2  -4  -5  155.18   15.70
  -2  -4  -5  182.88   17.70
   2   4   5  173.48   16.40
   4  -6   5  190.28   14.50
   4  -6   5  184.18   17.00
   7  -3  -5  549.65   39.40
   7  -3  -5  571.34   40.10
  -3  -4  -5  542.85   39.50
   7  -3  -5  559.84   39.40
  -4   7  -5  515.95   39.60
   4  -7   5  557.74   40.50
   3   4   5  529.75   39.90
   8  -4  -5    7.70    7.10
  -4   8  -5   11.90    6.60
   8  -4  -5    7.40    6.30
   8  -4  -5    2.50    6.10
  -4  -4  -5   17.00    6.10
   4   4   5    6.10    6.90
   4  -8   5   12.50    8.20
   9  -5  -5  260.77   22.20
   9  -5  -5  254.87   22.40
  -4   9  -5  247.18   22.70
   9  -5  -5  257.67   25.80
  -5  -4  -5  249.97   21.50
   4  -9   5  284.27   23.70
   5   4   5  306.37   23.10
  -5  -3  -5 1064.99   80.69
  -3   8  -5 1168.38   80.59
   8  -5  -5 1150.58   80.89
   8  -5  -5 1016.90   81.49
   3  -8   5 1292.07   81.39
   5   3   5 1255.77   81.19
  -5  -2  -5  387.96   31.00
   7  -5  -5  409.26   32.00
  -2   7  -5  431.06   30.20
   7  -5  -5  432.66   31.20
  -7   5   5  397.86   30.00
   2  -7   5  398.36   31.00
   5   2   5  452.15   31.40
   6  -5  -5 1231.48   86.99
  -1   6  -5 1143.39   85.29
   6  -5  -5 1144.69   86.09
   1  -6   5 1360.86   86.19
  -6   5   5 1267.17   85.79
   5   1   5 1308.07   86.49
   0   5  -5 1754.92  115.69
   5  -5  -5 1441.46  116.39
   5  -5  -5 1859.01  117.39
  -5   0  -5 1549.34  116.59
   0  -5   5 1795.52  116.19
   5   0   5 1773.62  116.69
  -5   5   5 1656.63  116.29
  -5   1  -5   49.20    7.20
   4  -5  -5   17.40    5.90
   4  -5  -5   27.60    7.50
   1   4  -5   27.40    3.70
   5  -1   5   21.70    7.40
   5  -1   5   20.10    6.30
  -4   5   5   23.50    6.00
  -1  -4   5   28.00    4.90
   3  -5  -5  185.28   17.00
   2   3  -5  181.38   13.20
  -5   2  -5  188.98   15.90
   3  -5  -5  171.48   15.80
  -3   5   5  180.88   15.70
   5  -2   5  147.69   16.20
   5  -2   5  189.88   15.90
  -2  -3   5  182.08   13.80
  -5   3  -5  152.38   15.50
   2  -5  -5  154.28   16.50
   3   2  -5  179.58   12.80
  -2   5   5  181.68   15.30
   5  -3   5  184.98   15.50
   5  -3   5  173.98   16.00
   1  -5  -5   26.30    8.20
  -5   4  -5   24.20    6.40
   4   1  -5   29.80    4.00
   1  -5  -5   20.80    6.30
  -1   5   5   34.60    6.90
   5  -4   5   21.10    7.80
   5  -4   5   24.70    5.80
   0  -5  -5 1693.63  120.39
   0  -5  -5 1671.43  119.69
  -5   5  -5 1907.91  119.99
   5   0  -5 1789.92  118.89
   5   0  -5 1773.22  118.89
   5  -5   5 1686.23  119.39
   0   5   5 1764.12  119.89
   5  -5   5 1606.34  120.39
  -1  -5  -5 1439.76   86.49
   6  -1  -5 1241.68   84.59
  -1  -5  -5 1268.37   85.29
  -5   6  -5 1292.57   85.49
   1   5   5 1191.88   85.49
   5  -6   5 1139.69   84.79
   5  -6   5 1038.50   85.79
  -5   7  -5  441.96   31.20
  -2  -5  -5  405.86   32.10
   7  -2  -5  397.56   29.90
  -2  -5  -5  378.86   30.40
   2   5   5  455.65   31.40
   5  -7   5  383.56   32.30
   5  -7   5  413.26   29.80
  -3  -5  -5 1125.19   81.09
  -3  -5  -5 1213.78   82.39
  -5   8  -5 1218.48   81.69
   8  -3  -5 1241.48   80.99
   5  -8   5 1096.79   82.39
   3   5   5 1083.99   81.39
  -4  -5  -5  355.86   23.80
   9  -4  -5  330.17   24.00
  -5   9  -5  310.67   25.20
   4   5   5  252.07   24.50
   5  -9   5  216.38   25.40
  10  -5  -5 3304.27  230.28
  -5  10  -5 3477.05  230.98
  -5  -5  -5 3424.96  230.38
   5 -10   5 3471.25  231.38
   5   5   5 3118.99  230.38
  11  -6  -5  974.40   70.09
  11  -6  -5 1000.90   70.19
  -5  11  -5  967.80   71.49
   5 -11   5  994.80   70.89
   6   5   5  978.50   70.19
  10  -6  -5  231.18   22.10
  10  -6  -5  299.97   22.50
  -4  10  -5  260.07   22.70
  -6  -4  -5  266.47   22.40
   6   4   5  228.98   22.10
   4 -10   5  208.18   22.30
  -3   9  -5 1750.42  123.29
  -6  -3  -5 1844.82  123.39
   9  -6  -5 1905.21  123.79
   9  -6  -5 1763.12  124.79
   6   3   5 1676.93  123.59
   3  -9   5 1765.62  123.79
   8  -6  -5   86.59   10.40
  -2   8  -5   91.39    9.30
  -6  -2  -5   80.19    9.90
   8  -6  -5   88.69   12.40
   2  -8   5   66.49   10.00
   6   2   5   67.19    9.90
  -8   6   5   78.89   10.30
   7  -6  -5 2077.59  149.99
  -1   7  -5 2279.17  149.19
  -6  -1  -5 2150.78  149.88
   7  -6  -5 2050.09  150.78
  -7   6   5 2256.07  149.79
   1  -7   5 2269.67  149.69
   6   1   5 2145.29  150.08
   6  -6  -5   12.80    8.20
  -6   0  -5   22.20    6.60
   6  -6  -5   22.70    6.60
   0   6  -5   16.80    3.90
   6   0   5   10.60    8.70
   6   0   5    2.80    6.60
  -6   6   5   15.00    6.20
   0  -6   5    3.80    5.10
   5  -6  -5 1252.57   86.59
   5  -6  -5 1211.18   87.29
   1   5  -5 1311.07   85.09
  -6   1  -5 1467.25   86.89
   6  -1   5 1152.28   87.29
   6  -1   5 1197.38   86.49
  -5   6   5 1216.18   86.49
  -1  -5   5 1156.08   85.49
  -6   2  -5  181.78   16.80
   4  -6  -5  203.98   18.30
   2   4  -5  177.18   13.60
   4  -6  -5  202.38   17.00
  -4   6   5  204.78   17.10
   6  -2   5  209.08   17.70
  -2  -4   5  192.18   14.20
   6  -2   5  164.48   16.90
   3  -6  -5  183.48   16.00
   3  -6  -5  193.38   17.70
  -6   3  -5  166.48   16.10
  -3  -3   5  167.48   12.90
   6  -3   5  182.58   17.60
  -3  -3   5  189.08   13.30
   6  -3   5  160.98   15.70
  -3   6   5  168.58   16.40
   2  -6  -5  153.48   16.30
   4   2  -5  185.48   13.00
   2  -6  -5  168.08   15.70
  -6   4  -5  157.88   16.10
   6  -4   5  193.98   15.80
   6  -4   5  173.18   17.90
  -2   6   5  188.48   16.80
  -6   5  -5 1229.48   85.29
   5   1  -5 1181.58   83.79
   1  -6  -5 1140.59   84.99
   1  -6  -5 1165.08   85.69
   6  -5   5 1336.27   86.39
  -1   6   5 1234.78   85.29
   6  -5   5 1296.77   84.99
   0  -6  -5   11.50    6.00
  -6   6  -5   18.70    7.00
   6   0  -5   12.00    4.40
   0  -6  -5   14.60    8.10
   6  -6   5   17.60    5.90
   6  -6   5   10.30    8.50
   0   6   5    5.00    6.70
  -1  -6  -5 2298.77  154.68
  -6   7  -5 2432.36  155.18
  -1  -6  -5 2120.49  155.48
   7  -1  -5 2249.57  154.08
   6  -7   5 2340.87  155.98
   6  -7   5 2108.79  154.28
   1   6   5 2212.98  154.98
   8  -2  -5   79.89    8.80
  -6   8  -5   60.69   10.40
  -2  -6  -5   72.19    9.30
  -2  -6  -5   72.09   11.60
   6  -8   5   84.49    8.60
   6  -8   5   83.69   12.40
   2   6   5   83.29   10.50
  -6   9  -5 1700.23  121.49
   9  -3  -5 1802.42  120.59
  -3  -6  -5 1988.10  122.19
  -3  -6  -5 1622.44  120.39
   6  -9   5 1667.23  121.89
   3   6   5 1702.23  121.09
  -4  -6  -5  263.17   21.90
  -6  10  -5  247.18   24.60
  10  -4  -5  236.18   21.90
   6 -10   5  272.57   24.40
   4   6   5  255.87   23.10
  -6  11  -5 1027.80   71.39
  11  -5  -5  944.21   69.19
   6 -11   5  966.30   70.89
   5   6   5  971.90   69.49
  12  -6  -5 1160.68   80.39
  -6  12  -5 1135.49   83.29
   6 -12   5 1141.89   81.69
   6   6   5 1095.19   80.29
  13  -7  -5  397.86   31.50
  -6  13  -5  313.27   33.90
   6 -13   5  420.26   32.60
   7   6   5  327.07   30.60
  12  -7  -5 1526.65   99.69
  -5  12  -5 1403.36  101.29
  12  -7  -5 1420.66   99.49
   5 -12   5 1330.47   99.79
   7   5   5 1395.96   99.29
  11  -7  -5   43.20    9.80
  -4  11  -5   22.10   10.80
  11  -7  -5   28.50    9.30
   4 -11   5   25.80    9.50
   7   4   5   40.10    9.40
  10  -7  -5  770.32   53.59
  10  -7  -5  752.32   55.89
  -3  10  -5  775.42   53.49
   3 -10   5  734.93   53.29
   7   3   5  651.23   53.29
  -2   9  -5  119.39   11.50
   9  -7  -5  129.39   12.90
   9  -7  -5  111.59   15.30
  -7  -2  -5  115.29   11.90
   2  -9   5  103.39   11.80
   7   2   5   75.69   11.70
   8  -7  -5  202.68   20.90
  -1   8  -5  182.78   16.60
  -7  -1  -5  202.88   18.10
   8  -7  -5  238.48   18.80
   7   1   5  197.18   18.90
   7   1   5  196.18   20.50
  -8   7   5  209.98   18.70
   1  -8   5  187.68   17.10
   7  -7  -5 2171.38  149.29
  -7   0  -5 2009.50  149.09
   0   7  -5 2158.38  147.99
   7  -7  -5 2277.57  150.58
  -7   7   5 2247.18  149.39
   7   0   5 2196.98  150.18
   0  -7   5 2156.98  148.29
   7   0   5 2113.79  149.29
   1   6  -5 2294.97  155.68
   6  -7  -5 2435.06  157.18
   6  -7  -5 2260.27  158.08
  -7   1  -5 2349.26  157.18
  -1  -6   5 2167.78  155.78
   7  -1   5 2291.77  157.98
   7  -1   5 2223.18  157.08
  -6   7   5 2251.87  157.28
  -7   2  -5  439.26   31.90
   5  -7  -5  394.66   32.40
   5  -7  -5  375.26   31.50
   2   5  -5  425.36   29.10
  -5   7   5  442.66   32.20
   7  -2   5  457.75   32.10
   7  -2   5  420.86   32.50
   4  -7  -5  626.34   40.80
   4  -7  -5  654.13   39.50
  -7   3  -5  503.85   39.20
   7  -3   5  558.74   39.10
   7  -3   5  448.96   40.10
  -4   7   5  429.96   39.50
  -7   4  -5  531.65   38.50
   3  -7  -5  505.95   38.00
   3  -7  -5  504.45   39.30
  -3   7   5  483.65   38.30
   7  -4   5  514.05   37.80
   7  -4   5  574.64   39.60
   2  -7  -5  401.66   30.50
   5   2  -5  405.46   28.20
   2  -7  -5  416.76   32.00
  -7   5  -5  374.06   30.90
  -2   7   5  399.26   31.10
   7  -5   5  428.46   31.90
   7  -5   5  414.36   30.60
   6   1  -5 2138.19  145.29
   1  -7  -5 2148.49  146.49
   1  -7  -5 1950.40  147.29
  -7   6  -5 2228.58  146.99
   7  -6   5 2280.27  146.59
  -1   7   5 2022.80  146.79
   0  -7  -5 2356.56  149.88
  -7   7  -5 2162.18  150.38
   7   0  -5 2181.28  148.89
   0  -7  -5 2049.40  150.68
   7  -7   5 2374.76  151.38
   7  -7   5 2043.90  149.59
   0   7   5 2075.69  150.08
   8  -1  -5  198.28   16.30
  -1  -7  -5  176.08   17.20
  -7   8  -5  186.18   18.00
  -1  -7  -5  213.68   20.00
   1   7   5  194.48   18.60
   7  -8   5  206.58   20.70
   7  -8   5  186.78   17.00
  -2  -7  -5  123.29   14.60
   9  -2  -5   99.39   10.80
  -7   9  -5  118.39   14.10
  -2  -7  -5  103.99   11.40
   2   7   5  106.19   12.70
   7  -9   5  116.49   15.30
  -7  10  -5  706.83   53.39
  -3  -7  -5  684.13   52.89
  10  -3  -5  697.63   51.19
   7 -10   5  686.83   53.49
   3   7   5  792.12   52.29
  11  -4  -5   20.10    8.40
  -7  11  -5   27.70   12.50
   7 -11   5   33.50   12.00
   4   7   5   25.30    9.50
  12  -5  -5 1249.57   94.49
  -7  12  -5 1343.97   97.69
   5   7   5 1431.06   95.09
   7 -12   5 1372.56   96.49
  -7  13  -5  356.66   35.20
  13  -6  -5  355.46   31.10
   6   7   5  387.76   31.60
   7 -13   5  386.66   33.70
  -7  14  -5  196.38   25.60
  14  -7  -5  202.08   19.60
   7 -14   5  194.28   21.10
   7   7   5  168.48   18.80
  -7  15  -5    0.50   18.30
  15  -8  -5   29.40   11.80
  15  -8  -5   26.30   11.80
   8   7   5   21.70   11.50
   7 -15   5   24.10   13.30
  -6  14  -5  167.18   23.20
  14  -8  -5  136.69   17.50
  14  -8  -5  166.98   17.90
   6 -14   5  159.68   18.80
   8   6   5  164.38   17.70
  13  -8  -5   94.79   13.30
  -5  13  -5   68.69   17.60
  13  -8  -5   91.79   13.40
   8   5   5   85.89   12.80
   5 -13   5   75.79   13.20
  12  -8  -5  213.78   21.20
  -4  12  -5  304.27   24.60
  12  -8  -5  269.07   23.40
   4 -12   5  224.78   21.90
   8   4   5  189.68   20.40
  11  -8  -5  127.59   14.50
  11  -8  -5  142.29   18.30
  -3  11  -5  134.79   15.50
   3 -11   5  122.29   13.80
   8   3   5  109.19   13.90
   8   3   5  136.39   16.50
  10  -8  -5  177.08   17.30
  -2  10  -5  204.98   18.40
  10  -8  -5  206.48   21.20
   8   2   5  123.19   15.90
   2 -10   5  181.08   17.20
   8   2   5  226.28   21.10
  -1   9  -5  534.95   41.20
  -8  -1  -5  537.05   42.10
   9  -8  -5  572.44   44.80
   9  -8  -5  584.44   42.70
   1  -9   5  627.24   41.40
   8   1   5  575.54   43.80
   8   1   5  554.14   42.80
  -9   8   5  596.14   42.90
   8  -8  -5  134.39   13.30
   8  -8  -5  110.89   14.80
  -8   0  -5  116.89   12.60
   0   8  -5  118.29   10.60
   0  -8   5  114.39   11.50
   8   0   5  127.99   14.70
   8   0   5   93.19   12.40
  -8   8   5  147.19   13.90
   1   7  -5  196.98   15.20
  -8   1  -5  188.28   18.80
   7  -8  -5  207.78   19.10
   7  -8  -5  196.48   20.00
  -7   8   5  201.48   18.50
  -1  -7   5  204.88   15.00
   8  -1   5  185.98   18.90
   8  -1   5  214.88   20.60
   6  -8  -5   83.49   12.50
  -8   2  -5   52.59    9.90
   6  -8  -5   67.89    9.70
   2   6  -5   71.19    6.50
  -6   8   5  108.49   11.70
   8  -2   5   94.39   10.70
   8  -2   5   78.19   11.20
  -8   3  -5 1272.77   83.39
   5  -8  -5 1148.69   82.89
   5  -8  -5 1293.47   84.39
  -5   8   5 1112.69   83.49
   8  -3   5 1102.39   83.99
   4  -8  -5   13.50    9.30
  -8   4  -5   11.80    7.50
   4  -8  -5   16.00    7.10
  -4   8   5    2.60    8.20
   8  -4   5   16.70    8.70
   8  -4   5    4.40    6.70
   3  -8  -5  997.70   81.79
  -8   5  -5 1248.98   81.79
   3  -8  -5 1187.88   81.19
   8  -5   5 1115.39   82.59
  -3   8   5 1270.57   81.99
   8  -5   5 1158.28   81.19
   2  -8  -5   92.49   10.40
   6   2  -5   95.29    7.50
  -8   6  -5   92.09   11.80
   2  -8  -5   79.99   11.90
   8  -6   5   81.49   10.40
  -2   8   5   68.39   11.60
   8  -6   5   71.19   12.60
  -8   7  -5  216.18   18.50
   1  -8  -5  223.88   20.20
   7   1  -5  179.28   14.80
   1  -8  -5  179.98   17.50
  -1   8   5  187.78   17.60
   8  -7   5  169.58   17.70
   8  -7   5  222.28   21.30
   8   0  -5  117.39   10.90
   0  -8  -5  149.09   15.70
  -8   8  -5  149.09   15.30
   0  -8  -5  111.59   12.30
   8  -8   5  125.39   12.70
   0   8   5  132.79   13.80
   8  -8   5  114.19   16.00
  -1  -8  -5  606.44   41.00
  -1  -8  -5  598.94   43.00
  -8   9  -5  558.34   43.60
   9  -1  -5  588.44   40.20
   1   8   5  504.05   42.00
   8  -9   5  519.75   43.90
   8  -9   5  526.35   40.70
  -2  -8  -5  211.38   21.00
  -8  10  -5  165.08   19.70
  10  -2  -5  204.68   17.80
   2   8   5  181.48   18.10
   8 -10   5  207.78   21.30
  -8  11  -5  122.79   18.00
  -3  -8  -5  138.09   16.10
  11  -3  -5  119.49   13.00
   3   8   5  124.29   14.20
   8 -11   5  128.59   17.70
  -8  12  -5  231.98   26.30
  12  -4  -5  264.97   22.80
   4   8   5  230.88   21.90
   8 -12   5  256.07   26.50
  13  -5  -5   82.89   12.30
  -8  13  -5   83.09   19.80
   5   8   5   83.59   13.00
   8 -13   5   77.99   15.60
  14  -6  -5  146.19   17.20
  -8  14  -5  182.68   24.90
   6   8   5  146.49   17.30
   8 -14   5  163.98   20.10
  15  -7  -5   18.00   11.00
  -8  15  -5   25.20   19.50
   8 -15   5    3.80   13.40
   7   8   5   12.10   11.10
  16  -8  -5  130.49   19.00
  -8  16  -5  169.98   25.00
   8 -16   5  211.88   22.20
   8   8   5  190.48   20.00
  -8  17  -5   43.60   18.70
  17  -9  -5   35.70   13.40
  17  -9  -5   29.40   13.90
   8 -17   5   27.70   14.40
   9   8   5   31.60   13.50
  16  -9  -5  531.65   44.80
  -7  16  -5  516.95   49.90
  16  -9  -5  536.55   44.60
   7 -16   5  607.64   45.00
   9   7   5  537.75   44.40
  15  -9  -5   31.90   12.50
  15  -9  -5   37.40   12.70
  -6  15  -5   29.50   17.90
   6 -15   5   41.60   12.90
   9   6   5   58.99   12.50
  14  -9  -5   67.89   13.10
  -5  14  -5   34.30   17.60
  14  -9  -5  117.19   13.90
   9   5   5   42.50   12.10
   5 -14   5   28.90   11.80
  13  -9  -5  145.19   16.70
  -4  13  -5  177.38   21.20
   9   4   5  140.09   16.20
   4 -13   5  126.99   15.60
  -3  12  -5   68.29   15.10
  12  -9  -5   73.19   12.30
   9   3   5   62.89   11.50
   3 -12   5   82.09   11.20
  11  -9  -5   71.49   16.60
  11  -9  -5   98.29   13.70
  -2  11  -5  105.69   14.20
   9   2   5  147.69   16.50
   9   2   5  106.09   13.30
   2 -11   5  110.99   12.00
  -1  10  -5  117.69   14.10
  10  -9  -5  127.99   15.70
  10  -9  -5  160.88   19.80
   9   1   5  219.38   18.10
   9   1   5  154.18   17.30
   1 -10   5  158.28   14.30
  -9   0  -5   68.69   10.70
   0   9  -5   80.39    8.90
   9  -9  -5   65.79   13.90
   9  -9  -5   72.09   11.40
   0  -9   5   79.49    8.20
  -9   9   5   61.19   11.90
   9   0   5  105.69   13.60
   9   0   5   80.09   11.20
   8  -9  -5  637.94   45.10
   8  -9  -5  608.94   42.80
   1   8  -5  623.84   40.40
  -9   1  -5  578.54   42.60
  -8   9   5  597.74   43.90
   9  -1   5  492.65   42.70
   9  -1   5  556.74   43.90
  -1  -8   5  528.45   39.70
  -9   2  -5  122.99   13.00
   7  -9  -5  108.19   12.70
   7  -9  -5  112.79   14.40
   2   7  -5  106.99    9.00
  -7   9   5  118.59   14.20
   9  -2   5   98.49   12.30
   9  -2   5   93.69   14.00
   6  -9  -5 1769.32  122.69
   6  -9  -5 1691.23  121.19
  -9   3  -5 1817.92  121.49
   9  -3   5 1787.22  121.39
  -6   9   5 1745.53  122.09
   9  -3   5 1674.83  122.19
   5  -9  -5  318.67   25.30
   5  -9  -5  333.07   23.80
  -9   4  -5  291.27   25.00
  -5   9   5  268.97   25.10
   9  -4   5  240.98   25.70
   9  -4   5  238.88   23.80
   4  -9  -5  231.38   23.20
   4  -9  -5  277.97   24.80
  -9   5  -5  264.27   24.40
   9  -5   5  305.67   26.50
   9  -5   5  320.27   23.70
  -4   9   5  304.47   25.90
  -9   6  -5 1558.14  119.09
   3  -9  -5 1761.02  119.69
   3  -9  -5 1509.35  117.99
  -3   9   5 1807.12  119.39
   9  -6   5 1815.22  118.59
   9  -6   5 1816.12  120.19
  -9   7  -5  131.49   15.00
   7   2  -5  122.59    9.90
   2  -9  -5  128.39   12.70
   2  -9  -5   87.49   14.40
   9  -7   5  144.59   16.70
   9  -7   5  122.69   13.10
  -2   9   5  117.99   14.00
   1  -9  -5  497.45   40.80
  -9   8  -5  486.75   43.30
   8   1  -5  526.55   39.20
   1  -9  -5  576.64   43.00
   9  -8   5  647.64   41.60
   9  -8   5  592.94   44.20
  -1   9   5  601.64   42.30
   0  -9  -5   66.69   12.70
   9   0  -5   76.59    8.40
  -9   9  -5   80.79   13.80
   0  -9  -5   77.29    9.80
   9  -9   5   81.19   10.20
   9  -9   5   68.49   14.30
   0   9   5   59.39   11.40
  -9  10  -5  187.88   19.30
  -1  -9  -5  145.39   16.40
  10  -1  -5  177.08   14.70
   9 -10   5  121.59   17.70
   1   9   5   95.99   14.70
  -2  -9  -5  100.89   14.30
  11  -2  -5   94.79   11.00
  -9  11  -5   87.09   17.10
   2   9   5   91.09   12.90
   9 -11   5   98.49   16.70
  -9  12  -5   86.89   18.40
  12  -3  -5   66.09   10.60
  -3  -9  -5   52.99   13.20
   3   9   5   86.19   12.60
   9 -12   5   84.29   15.90
  13  -4  -5  137.39   15.30
  -9  13  -5  130.49   23.10
   4   9   5  176.48   17.10
   9 -13   5  131.09   19.60
  -9  14  -5   22.60   19.50
  14  -5  -5   55.89   11.60
   5   9   5   76.19   12.90
   9 -14   5   71.99   16.50
  15  -6  -5   55.89   12.50
  -9  15  -5    6.80   20.10
   6   9   5   38.50   12.30
   9 -15   5   48.80   15.40
  -9  16  -5  553.04   52.19
  16  -7  -5  572.74   44.10
   7   9   5  515.25   43.60
   9 -16   5  524.85   45.40
  -9  17  -5   13.50   19.20
  17  -8  -5   57.09   13.70
   8   9   5   32.50   13.40
   9 -17   5   24.20   15.40
  18  -9  -5  435.16   41.30
  -9  18  -5  441.26   41.20
  18  -9  -5  461.95   40.60
   9 -18   5  434.06   40.80
   9   9   5  481.95   40.30
  19 -10  -5   34.60   15.50
  -9  19  -5   40.80   18.60
  19 -10  -5    0.40   15.10
   9 -19   5   28.70   16.40
  10   9   5   46.10   16.10
  18 -10  -5  291.47   26.90
  18 -10  -5  208.58   25.50
  -8  18  -5  271.77   29.00
   8 -18   5  239.18   26.80
  10   8   5  256.57   25.90
  -7  17  -5   28.10   18.00
  17 -10  -5   47.50   14.60
  17 -10  -5   74.59   15.60
  10   7   5   66.19   14.60
   7 -17   5   63.29   15.30
  16 -10  -5   15.90   12.80
  -6  16  -5   28.70   16.80
  16 -10  -5   17.80   13.00
  10   6   5    5.40   11.90
   6 -16   5    2.60   11.70
  -5  15  -5   19.10   16.20
  15 -10  -5   21.90   12.10
  15 -10  -5   27.80   12.30
  10   5   5   29.10   11.70
   5 -15   5   25.40   11.90
  -4  14  -5    0.30   15.10
  14 -10  -5    2.50   11.10
  10   4   5   -0.80    9.90
   4 -14   5    2.70    9.70
  13 -10  -5   48.20   12.00
  -3  13  -5   53.39   15.70
   3 -13   5   50.29   10.30
  10   3   5   43.20   11.10
  -2  12  -5   60.99   14.20
  12 -10  -5   27.40   15.70
  12 -10  -5   67.49   12.60
  10   2   5   51.59   11.90
   2 -12   5   66.89    9.80
  -1  11  -5   98.69   13.70
  11 -10  -5   92.39   13.50
  11 -10  -5   78.39   16.70
  10   1   5   94.39   15.60
  10   1   5  101.29   13.30
   1 -11   5  114.79   10.90
  10 -10  -5  117.19   14.20
  10 -10  -5  126.59   17.80
   0  10  -5  103.79   12.20
 -10  10   5  118.49   15.40
  10   0   5  118.09   13.90
  10   0   5   96.39   15.40
   0 -10   5  111.19   11.00
   1   9  -5  190.78   15.40
   9 -10  -5  190.28   17.50
 -10   1  -5  189.88   17.20
   9 -10  -5  151.88   20.00
  -9  10   5  113.59   17.70
 -10   2  -5  210.48   18.60
   8 -10  -5  208.18   22.00
   2   8  -5  195.58   15.00
   8 -10  -5  217.68   19.90
  -8  10   5  186.38   20.30
  10  -2   5  164.18   17.60
  10  -2   5  175.78   20.00
   7 -10  -5  692.63   58.99
 -10   3  -5  750.62   57.79
   7 -10  -5  803.42   57.39
  10  -3   5  807.42   57.59
  -7  10   5  833.82   59.49
  10  -3   5  883.81   59.29
   6 -10  -5  202.58   23.30
 -10   4  -5  249.97   23.40
   6 -10  -5  222.58   22.30
  10  -4   5  286.27   22.90
  -6  10   5  291.87   25.90
  10  -4   5  257.67   25.00
 -10   5  -5 3251.47  237.48
   5 -10  -5 3679.13  238.58
   5 -10  -5 3751.02  237.08
  -5  10   5 3254.77  237.78
  10  -5   5 3369.86  236.98
  10  -5   5 3406.06  238.18
 -10   6  -5  204.18   22.10
   4 -10  -5  252.67   23.60
   4 -10  -5  239.08   21.90
  10  -6   5  258.07   25.60
  10  -6   5  279.87   22.90
  -4  10   5  283.87   25.40
   3 -10  -5  698.03   53.39
 -10   7  -5  881.71   54.39
   3 -10  -5  697.43   51.49
  -3  10   5  755.12   53.49
  10  -7   5  601.94   53.99
  10  -7   5  688.93   51.69
 -10   8  -5  177.58   19.60
   2 -10  -5  212.68   18.10
   8   2  -5  194.68   14.30
   2 -10  -5  145.39   18.20
  10  -8   5  193.08   17.20
  -2  10   5  166.98   18.70
  10  -8   5  194.98   20.90
   1 -10  -5  112.89   16.00
 -10   9  -5  113.89   17.70
   9   1  -5  121.29   11.70
   1 -10  -5  122.39   13.70
  -1  10   5  157.58   16.10
  10  -9   5  223.28   20.40
  10  -9   5  202.38   17.20
 -10  10  -5  145.39   18.30
  10   0  -5  118.19   10.80
   0 -10  -5  129.69   16.10
   0  10   5   76.29   13.80
  10 -10   5   97.99   12.40
  10 -10   5   90.09   16.40
  11  -1  -5   91.89   10.40
 -10  11  -5   87.39   18.30
  -1 -10  -5   91.39   13.90
   1  10   5   87.09   13.20
  10 -11   5   79.89   16.20
 -10  12  -5   92.29   19.60
  12  -2  -5   67.39    9.70
  -2 -10  -5   46.60   12.80
  10 -12   5   40.80   14.80
   2  10   5   41.00   11.60
  13  -3  -5   59.49   10.50
 -10  13  -5   28.90   19.80
  -3 -10  -5   85.29   14.00
   3  10   5   48.70   11.80
  10 -13   5   29.40   15.20
 -10  14  -5    3.00   18.90
  14  -4  -5    4.00    9.20
  10 -14   5   15.80   14.40
   4  10   5   20.90   11.40
 -10  15  -5    4.60   19.50
  15  -5  -5   22.60   10.90
  10 -15   5   49.20   16.10
   5  10   5   38.40   12.60
  16  -6  -5   19.00   11.50
 -10  16  -5   10.20   19.70
   6  10   5    9.20   12.20
  10 -16   5   -2.70   15.10
  17  -7  -5   49.20   14.40
 -10  17  -5   65.19   21.40
  10 -17   5   64.59   18.30
   7  10   5   70.59   15.30
  18  -8  -5  229.08   24.00
 -10  18  -5  259.77   29.20
   8  10   5  208.78   23.90
  10 -18   5  216.28   25.90
 -10  19  -5   -3.70   18.40
  19  -9  -5   57.89   15.90
  19  -9  -5   32.70   15.50
   9  10   5   37.70   15.90
  10 -19   5   56.89   17.80
  19 -11  -5   24.90   15.20
  19 -11  -5    4.10   15.40
  -8  19  -5   29.40   17.70
   8 -19   5   14.70   14.60
  11   8   5    7.50   14.60
  18 -11  -5  305.17   30.80
  -7  18  -5  275.97   31.40
  18 -11  -5  290.37   30.20
  11   7   5  362.06   33.20
   7 -18   5  386.86   32.70
  -6  17  -5  212.48   25.60
  17 -11  -5  251.57   25.00
   6 -17   5  213.08   23.20
  11   6   5  249.88   24.00
  16 -11  -5   31.80   13.90
  -5  16  -5   34.10   15.70
  11   5   5   34.70   12.80
   5 -16   5   23.10   11.70
  15 -11  -5    6.60   12.30
  -4  15  -5   11.40   14.50
   4 -15   5   18.50   10.10
  11   4   5   12.30   11.80
  14 -11  -5  153.58   20.70
  -3  14  -5  222.78   23.70
   3 -14   5  235.28   20.80
  11   3   5  210.48   20.50
  13 -11  -5   26.00   16.50
  13 -11  -5   39.40   12.40
  -2  13  -5   45.30   14.90
  11   2   5   30.80   10.90
   2 -13   5   44.70    9.00
  12 -11  -5  963.40   75.29
  -1  12  -5  897.41   72.59
  12 -11  -5  933.31   72.19
   1 -12   5 1068.59   69.69
  11   1   5 1056.79   72.09
   0  11  -5 1122.69   87.99
  11 -11  -5 1230.28   91.19
  11 -11  -5 1237.98   88.59
  11   0   5 1319.27   88.49
  11   0   5 1313.67   90.19
   1  10  -5  103.49   11.70
  10 -11  -5  107.79   18.00
  10 -11  -5   83.79   13.20
  11  -1   5   92.49   12.90
  11  -1   5  110.69   15.90
 -10  11   5   62.49   15.40
   9 -11  -5   97.89   13.30
 -11   2  -5  127.69   15.80
   2   9  -5  112.59   10.20
   9 -11  -5  119.69   16.90
  -9  11   5   83.79   16.00
  11  -2   5   80.99   12.90
  11  -2   5   77.19   15.20
   8 -11  -5  143.79   18.70
 -11   3  -5  100.89   15.00
   8 -11  -5  119.19   14.20
  -8  11   5  157.88   18.30
  11  -3   5  118.59   14.40
  11  -3   5  135.29   17.20
 -11   4  -5   28.70   11.00
   7 -11  -5   38.90    9.80
   7 -11  -5   27.70   12.80
  11  -4   5   33.90    9.60
  11  -4   5   46.50   12.80
  -7  11   5   25.70   12.60
 -11   5  -5  828.02   66.39
   6 -11  -5  854.01   67.19
   6 -11  -5  878.01   65.09
  -6  11   5 1017.20   67.89
  11  -5   5  992.90   65.59
 -11   6  -5  998.00   70.59
   5 -11  -5  916.11   70.39
   5 -11  -5 1024.20   68.69
  11  -6   5  896.11   68.69
  -5  11   5  937.01   70.69
  11  -6   5 1001.80   71.19
 -11   7  -5   45.40   12.90
   4 -11  -5   40.90    8.90
   4 -11  -5   47.80   13.00
  11  -7   5   26.90    9.50
  11  -7   5   28.30   12.10
  -4  11   5   24.90   11.60
   3 -11  -5  116.29   13.70
   3 -11  -5  131.69   16.90
 -11   8  -5  149.59   18.50
  -3  11   5  147.39   17.20
  11  -8   5  132.39   14.60
  11  -8   5  142.29   19.10
 -11   9  -5   89.29   17.20
   2 -11  -5   85.09   14.50
   2 -11  -5   90.69   11.60
   9   2  -5   90.29    8.70
  11  -9   5  110.59   13.00
  11  -9   5  129.99   17.80
  -2  11   5  113.69   14.80
   1 -11  -5  103.29   15.20
 -11  10  -5   96.49   18.30
  10   1  -5   95.79    9.80
  11 -10   5   99.79   12.50
  -1  11   5   87.29   14.20
  11 -10   5  101.69   17.20
 -11  11  -5  999.60   87.59
   0 -11  -5 1219.78   84.99
  11   0  -5 1239.18   81.79
   0  11   5 1124.09   84.09
  11 -11   5 1214.48   86.59
 -11  12  -5 1034.20   80.29
  12  -1  -5 1110.89   73.59
  -1 -11  -5 1005.40   76.39
  11 -12   5 1012.70   78.09
   1  11   5 1032.50   75.59
  13  -2  -5   37.40    9.40
 -11  13  -5   33.70   20.70
  -2 -11  -5   36.40   13.00
  11 -13   5    8.80   15.60
   2  11   5   37.10   11.80
  14  -3  -5  263.77   21.70
 -11  14  -5  209.48   29.20
  -3 -11  -5  222.38   23.00
   3  11   5  165.58   20.70
  11 -14   5  188.68   24.60
 -11  15  -5   -5.10   20.20
  15  -4  -5    5.40    9.90
  11 -15   5   13.50   15.60
   4  11   5   16.50   12.10
  16  -5  -5   32.40   11.80
 -11  16  -5   53.19   20.90
  11 -16   5   16.60   16.10
   5  11   5   26.70   12.90
  17  -6  -5  212.18   21.70
 -11  17  -5  187.28   28.30
  11 -17   5  208.08   25.90
   6  11   5  196.58   22.10
 -11  18  -5  266.37   31.40
  18  -7  -5  343.47   28.30
   7  11   5  257.57   27.40
  11 -18   5  259.77   30.60
  19  -8  -5   24.70   14.20
 -11  19  -5   10.80   19.10
  11 -19   5   42.80   17.70
   8  11   5    6.80   14.70
  19 -12  -5  245.18   26.30
  -7  19  -5  240.78   27.40
  12   7   5  234.88   25.10
   7 -19   5  221.88   24.50
  -6  18  -5   19.30   15.60
  18 -12  -5   23.60   14.80
  12   6   5   15.20   14.30
   6 -18   5   16.70   12.80
  -5  17  -5  175.28   22.60
  17 -12  -5  164.88   21.80
  12   5   5  201.08   21.60
   5 -17   5  188.78   19.90
  -4  16  -5  113.49   18.40
  16 -12  -5  154.18   18.70
   4 -16   5  103.39   14.80
  12   4   5  111.79   17.10
  15 -12  -5   23.40   13.40
  -3  15  -5   29.80   14.10
   3 -15   5    9.00    9.30
  12   3   5   13.80   11.70
  14 -12  -5  244.98   24.50
  -2  14  -5  213.58   24.50
  12   2   5  270.27   24.30
   2 -14   5  277.07   22.50
  13 -12  -5  672.53   51.79
  -1  13  -5  623.34   51.59
  13 -12  -5  644.84   55.19
  12   1   5  715.03   51.19
  12 -12  -5   16.10   11.00
   0  12  -5   -4.10   11.70
  12 -12  -5   15.90   15.10
  12   0   5   -9.00    9.80
  11 -12  -5 1271.67   78.69
   1  11  -5 1008.20   73.99
  11 -12  -5  993.10   74.59
  12  -1   5  997.30   74.29
  12  -1   5 1046.50   76.19
 -11  12   5  906.71   76.19
  10 -12  -5   87.09   17.00
   2  10  -5   85.89   11.00
  10 -12  -5   78.49   12.70
  12  -2   5   58.29   12.20
 -10  12   5   32.90   14.90
  12  -2   5   28.80   14.00
   9 -12  -5   67.19   11.90
   9 -12  -5   47.00   15.40
  12  -3   5   58.09   11.80
  12  -3   5   75.79   15.20
  -9  12   5   85.49   16.60
 -12   4  -5  247.38   24.00
   8 -12  -5  219.08   22.10
   8 -12  -5  264.07   26.40
  12  -4   5  267.67   25.70
  -8  12   5  219.78   25.20
  12  -4   5  304.37   24.20
   7 -12  -5 1379.46  101.89
   7 -12  -5 1386.06   99.69
 -12   5  -5 1354.26  101.29
  12  -5   5 1405.36  101.69
  12  -5   5 1549.24  100.29
  -7  12   5 1440.36  102.29
   6 -12  -5 1090.59   84.49
 -12   6  -5 1140.89   84.49
   6 -12  -5 1213.58   82.49
  12  -6   5 1210.78   84.99
  12  -6   5 1129.29   82.69
  -6  12   5 1190.18   84.69
   5 -12  -5 1442.86   99.79
   5 -12  -5 1409.26   97.49
 -12   7  -5 1551.64  100.39
  -5  12   5 1380.86   99.49
  12  -7   5 1445.26   98.19
  12  -7   5 1133.79   99.49
   4 -12  -5  265.97   26.20
   4 -12  -5  234.48   21.90
 -12   8  -5  248.48   25.60
  12  -8   5  235.18   25.40
  12  -8   5  246.58   23.90
  -4  12   5  214.18   23.20
   3 -12  -5   68.29   14.40
 -12   9  -5   60.89   17.20
  -3  12   5   76.79   14.30
  12  -9   5   66.99   16.70
  12  -9   5   50.99   11.30
 -12  10  -5   69.99   18.00
  10   2  -5   44.40    6.80
   2 -12  -5   41.60   12.70
  -2  12   5   73.19   14.00
  12 -10   5   34.50   10.70
  12 -10   5   69.99   15.90
 -12  11  -5  987.30   83.79
  11   1  -5 1048.20   76.29
   1 -12  -5 1222.78   80.29
  12 -11   5 1116.49   78.29
  -1  12   5 1080.49   79.59
  12 -11   5 1102.49   81.79
 -12  12  -5   31.10   19.10
  12   0  -5    3.90    7.00
   0 -12  -5    3.60   11.80
   0  12   5  -18.40   10.50
  12 -12   5    3.40   15.20
  -1 -12  -5  710.83   52.99
  13  -1  -5  677.83   49.30
 -12  13  -5  686.53   59.39
  12 -13   5  631.34   55.29
   1  12   5  660.23   51.89
  -2 -12  -5  265.47   27.00
 -12  14  -5  313.67   34.00
  14  -2  -5  307.77   25.30
  12 -14   5  251.37   29.50
   2  12   5  253.87   25.50
  15  -3  -5   29.10   10.70
 -12  15  -5    9.30   20.50
   3  12   5   17.10   12.20
  12 -15   5    3.20   16.40
  16  -4  -5  129.99   15.30
 -12  16  -5   47.00   22.60
  12 -16   5   99.99   21.00
   4  12   5  117.39   16.90
 -12  17  -5  150.58   26.60
  17  -5  -5  185.98   20.10
   5  12   5  155.98   21.00
  12 -17   5  232.18   26.30
  18  -6  -5   15.60   13.10
 -12  18  -5    2.90   19.70
   6  12   5   -5.40   13.70
  12 -18   5   20.10   18.00
  19  -7  -5  241.18   25.40
 -12  19  -5  259.87   30.40
  12 -19   5  238.78   29.40
   7  12   5  241.88   26.00
  19 -13  -5  128.99   21.00
  -6  19  -5  121.79   21.30
   6 -19   5  157.28   19.00
  13   6   5  119.49   19.80
  -5  18  -5  188.18   22.30
  18 -13  -5  185.98   22.70
   5 -18   5  150.18   18.80
  13   5   5  166.08   20.90
  17 -13  -5   23.60   15.20
  -4  17  -5   -2.50   13.10
  13   4   5   15.80   13.60
   4 -17   5   12.20   10.40
  -3  16  -5  200.88   22.10
  16 -13  -5  200.48   23.20
  13   3   5  199.28   21.90
  -2  15  -5   -7.70   12.30
  15 -13  -5    0.10   12.80
  13   2   5   -1.00   11.90
  14 -13  -5  522.85   50.09
  14 -13  -5  528.45   44.80
  -1  14  -5  519.95   43.30
  13   1   5  602.14   44.00
   0  13  -5  382.56   32.60
  13 -13  -5  363.06   36.90
  13 -13  -5  388.96   34.40
  13   0   5  373.76   33.60
  12 -13  -5  688.63   54.39
  12 -13  -5  669.03   50.29
   1  12  -5  654.03   48.60
  13  -1   5  586.94   49.50
   2  11  -5   23.40   10.00
  11 -13  -5   43.40   16.20
  11 -13  -5   43.50   12.00
 -11  13   5   -0.80   14.90
  13  -2   5   26.60   10.90
  10 -13  -5   42.80   15.90
  10 -13  -5   56.49   11.90
 -10  13   5   44.50   16.40
  13  -3   5   41.00   11.70
  13  -3   5   19.50   14.30
   9 -13  -5  134.09   20.80
   9 -13  -5  145.09   16.60
  13  -4   5  141.59   19.40
  13  -4   5  165.78   17.00
  -9  13   5  133.09   20.90
 -13   5  -5   77.79   16.30
   8 -13  -5   70.09   16.20
   8 -13  -5   80.59   12.70
  13  -5   5   66.99   14.70
  -8  13   5   43.80   16.80
  13  -5   5   77.29   12.70
 -13   6  -5  409.56   37.00
   7 -13  -5  371.96   31.60
   7 -13  -5  325.47   35.00
  -7  13   5  390.26   36.90
  13  -6   5  353.96   35.30
  13  -6   5  425.96   32.60
   6 -13  -5  378.76   31.40
   6 -13  -5  394.96   35.60
 -13   7  -5  393.46   37.90
  -6  13   5  373.46   36.50
  13  -7   5  387.56   36.20
  13  -7   5  368.36   32.70
 -13   8  -5   49.40   17.30
   5 -13  -5   71.29   15.10
   5 -13  -5   57.49   11.10
  -5  13   5   76.89   15.90
  13  -8   5   94.89   17.30
  13  -8   5   73.79   12.70
   4 -13  -5  139.49   19.20
 -13   9  -5  157.08   22.80
  13  -9   5  132.79   16.30
  13  -9   5  158.78   21.60
  -4  13   5  141.19   19.00
 -13  10  -5   50.69   18.70
   3 -13  -5   23.80   13.50
  -3  13   5   57.99   14.10
  13 -10   5   70.39   17.60
  13 -10   5   59.69   12.20
  11   2  -5   39.90    7.10
 -13  11  -5   57.79   20.30
   2 -13  -5   33.10   13.30
  13 -11   5   30.50   11.00
  13 -11   5   37.00   17.00
  -2  13   5   36.10   13.30
 -13  12  -5  675.63   60.69
   1 -13  -5  668.03   53.39
  12   1  -5  665.03   49.00
  13 -12   5  668.33   56.39
  -1  13   5  750.22   53.59
   0 -13  -5  414.36   35.50
 -13  13  -5  386.26   40.00
  13   0  -5  407.56   30.90
  13 -13   5  361.86   39.20
   0  13   5  370.76   35.40
  14  -1  -5  540.25   40.30
 -13  14  -5  423.76   47.20
  -1 -13  -5  567.94   45.00
  13 -14   5  532.65   48.00
   1  13   5  537.25   43.70
 -13  15  -5    8.90   20.80
  15  -2  -5   25.10   10.00
  -2 -13  -5    5.30   13.90
   2  13   5    2.40   12.50
  13 -15   5   27.90   18.10
 -13  16  -5  245.88   30.00
  16  -3  -5  170.98   19.10
  13 -16   5  184.48   25.80
   3  13   5  207.18   21.80
 -13  17  -5   22.80   21.40
  17  -4  -5   26.10   12.00
   4  13   5   18.10   13.60
  13 -17   5   -0.80   17.80
  18  -5  -5  155.98   19.70
 -13  18  -5  142.99   26.10
  13 -18   5  166.78   25.50
   5  13   5  194.58   22.00
 -13  19  -5  133.39   25.40
  19  -6  -5  114.09   18.80
   6  13   5  149.88   20.80
  13 -19   5  157.08   24.60
  -5  19  -5  -11.60   16.00
  19 -14  -5   23.30   16.50
  14   5   5   19.70   15.20
  -4  18  -5   84.09   17.50
  18 -14  -5   58.39   17.30
  14   4   5   73.69   17.00
  -3  17  -5   48.10   14.50
  17 -14  -5   16.00   14.70
  14   3   5   25.60   14.40
  -2  16  -5  342.57   31.60
  16 -14  -5  382.36   34.70
  14   2   5  293.37   29.60
  -1  15  -5   18.10   11.10
  15 -14  -5    0.10   13.10
  14   1   5   -2.10   12.30
   0  14  -5   -1.20   10.00
  14 -14  -5    3.30   12.70
  14 -14  -5    8.70   17.80
  14   0   5   -3.30   11.80
  13 -14  -5  531.55   43.20
  13 -14  -5  547.95   48.30
   1  13  -5  524.75   40.50
  14  -1   5  517.65   43.20
  12 -14  -5  272.77   25.20
  12 -14  -5  252.87   29.50
  14  -2   5  263.07   24.90
  11 -14  -5  226.78   25.60
  11 -14  -5  212.88   20.30
 -11  14   5  126.09   23.00
  14  -3   5  176.38   19.90
  10 -14  -5   11.30   16.20
  10 -14  -5   12.10   11.00
 -10  14   5   15.10   16.60
  14  -4   5   -1.20   14.10
  14  -4   5   10.40   10.90
   9 -14  -5   35.30   16.10
   9 -14  -5   53.69   12.40
  14  -5   5   91.99   17.00
  -9  14   5   45.50   18.00
  14  -5   5   75.39   13.30
   8 -14  -5  196.28   23.40
   8 -14  -5  177.38   18.10
  -8  14   5  147.39   22.40
  14  -6   5  162.38   18.40
  14  -6   5  147.69   21.60
   7 -14  -5  199.48   19.80
   7 -14  -5  230.98   25.10
 -14   7  -5  187.18   25.20
  -7  14   5  197.08   24.80
  14  -7   5  213.28   24.80
  14  -7   5  204.78   20.90
 -14   8  -5  154.18   23.10
   6 -14  -5  190.08   21.80
  -6  14   5  109.39   20.30
  14  -8   5  150.08   17.60
  14  -8   5  153.48   22.20
 -14   9  -5   56.59   19.20
   5 -14  -5   70.19   15.70
  -5  14   5   54.09   15.80
  14  -9   5   39.60   17.20
  14  -9   5   25.90   11.50
 -14  10  -5   -7.00   17.80
   4 -14  -5   16.00   12.60
  -4  14   5   20.60   14.50
  14 -10   5   14.60   16.20
  14 -10   5   13.90   11.20
   3 -14  -5  220.38   24.50
 -14  11  -5  180.78   28.80
  -3  14   5  244.58   25.00
  14 -11   5  237.78   22.30
  14 -11   5  252.37   27.50
 -14  12  -5  273.97   33.40
   2 -14  -5  218.08   25.70
  14 -12   5  314.17   31.20
  14 -12   5  259.67   27.70
  -2  14   5  281.37   26.60
  13   1  -5  518.15   39.30
 -14  13  -5  471.55   48.10
   1 -14  -5  564.04   45.60
  14 -13   5  551.34   48.50
  -1  14   5  517.25   44.30
   0 -14  -5    9.50   13.90
  14   0  -5    4.30    8.40
 -14  14  -5  -23.30   20.70
   0  14   5   -9.70   13.40
  14 -14   5   10.90   17.60
 -14  15  -5    1.40   21.30
  -1 -14  -5   -7.90   13.80
  15  -1  -5    9.30    9.50
   1  14   5   -1.40   13.20
  14 -15   5   25.20   18.40
  16  -2  -5  349.27   32.00
 -14  16  -5  387.76   38.80
  -2 -14  -5  361.86   35.20
  14 -16   5  391.86   38.70
   2  14   5  384.36   35.90
 -14  17  -5   30.70   21.30
  17  -3  -5    4.00   11.30
  14 -17   5   -3.50   19.10
   3  14   5   19.50   14.40
 -14  18  -5   74.59   22.60
  18  -4  -5   77.09   14.90
   4  14   5   73.99   17.40
  14 -18   5  118.09   23.20
 -14  19  -5    0.60   21.00
  19  -5  -5   11.30   13.50
  14 -19   5   12.10   20.80
   5  14   5   26.10   15.30
  -3  18  -5   82.99   16.80
  18 -15  -5   50.19   17.70
  15   3   5   74.39   17.20
  -2  17  -5   22.70   13.70
  17 -15  -5   22.70   15.30
  15   2   5    0.30   13.60
  -1  16  -5    9.40   12.40
  16 -15  -5   -1.50   14.20
  15   1   5   30.80   13.80
  15 -15  -5   21.00   14.40
  15 -15  -5    5.20   18.50
   0  15  -5    9.40   11.30
  15   0   5    6.70   12.90
  14 -15  -5   -6.90   12.60
   1  14  -5   12.40   10.20
  14 -15  -5    0.30   18.00
  15  -1   5   -0.30   12.00
  13 -15  -5   23.50   13.00
  13 -15  -5   18.50   17.80
  15  -2   5    6.40   12.60
  12 -15  -5   15.40   17.40
  12 -15  -5   11.70   12.40
 -12  15   5  -14.50   16.50
  15  -3   5   25.80   12.50
  11 -15  -5    2.70   16.10
  11 -15  -5   23.50   12.60
  15  -4   5   33.60   12.40
 -11  15   5   13.00   17.70
  10 -15  -5   28.90   11.90
  10 -15  -5   26.10   16.90
  15  -5   5   38.30   16.80
  15  -5   5   47.00   13.10
 -10  15   5   38.30   18.10
   9 -15  -5   47.10   12.20
   9 -15  -5   57.89   17.40
  -9  15   5   48.60   18.60
  15  -6   5   46.20   13.00
  15  -6   5   39.40   16.60
   8 -15  -5   11.30   15.90
  15  -7   5   33.80   12.40
  15  -7   5   12.10   15.50
  -8  15   5  -27.20   15.90
   7 -15  -5   30.00   15.90
  15  -8   5   36.20   16.50
  15  -8   5   19.30   12.30
  -7  15   5   10.90   15.90
   6 -15  -5   50.49   16.50
 -15   9  -5   24.00   19.40
  -6  15   5   41.10   16.50
  15  -9   5   46.80   17.70
  15  -9   5   38.80   12.40
   5 -15  -5   28.50   15.50
 -15  10  -5   57.69   20.70
  15 -10   5   32.30   12.60
  15 -10   5   -0.90   16.40
  -5  15   5   23.60   15.90
   4 -15  -5    6.70   13.90
 -15  11  -5  -12.20   20.10
  15 -11   5    9.50   11.50
  15 -11   5    7.00   16.70
  -4  15   5   15.40   15.80
 -15  12  -5    3.80   21.30
   3 -15  -5   21.40   14.30
  15 -12   5   10.40   18.20
  15 -12   5   24.10   12.00
  -3  15   5   26.40   15.40
 -15  13  -5   12.90   21.40
   2 -15  -5   11.90   14.60
  15 -13   5  -11.20   16.80
  -2  15   5   -6.40   13.80
 -15  14  -5   31.80   21.80
   1 -15  -5    1.80   14.30
  14   1  -5    2.10    9.50
  15 -14   5    4.80   19.20
  -1  15   5   -9.20   14.10
 -15  15  -5   41.20   21.70
   0 -15  -5    8.50   14.10
  15   0  -5   13.20    9.70
   0  15   5   17.50   14.50
  15 -15   5   16.30   18.90
 -15  16  -5    7.10   20.60
  16  -1  -5   16.20   10.70
  -1 -15  -5   -2.50   14.60
  15 -16   5    3.00   20.20
   1  15   5    3.90   14.50
 -15  17  -5   16.30   21.00
  17  -2  -5   17.90   11.10
  15 -17   5   23.80   21.10
   2  15   5   16.10   14.80
  18  -3  -5   65.19   14.10
 -15  18  -5   85.79   23.60
  15 -18   5   32.50   22.10
   3  15   5   75.29   17.30
  -2  18  -5   46.50   14.60
  16   2   5   27.50   15.80
  17 -16  -5  131.49   20.50
  -1  17  -5  147.69   18.00
  16   1   5  103.89   19.40
   0  16  -5   31.00   12.40
  16 -16  -5   47.00   16.10
  16   0   5   36.70   14.90
  15 -16  -5   -5.10   13.60
  15 -16  -5   21.80   20.10
  16  -1   5   27.30   14.70
  14 -16  -5  375.96   38.00
  14 -16  -5  339.77   34.10
  16  -2   5  354.66   34.60
  13 -16  -5  175.28   22.20
  13 -16  -5  196.88   28.30
  16  -3   5  246.78   23.20
  12 -16  -5  116.79   17.20
  12 -16  -5  112.09   22.60
  16  -4   5   99.39   16.50
 -12  16   5  105.99   21.80
  11 -16  -5   55.29   13.80
  11 -16  -5   40.60   18.70
 -11  16   5    8.10   18.40
  16  -5   5   17.30   13.00
  10 -16  -5   -7.30   16.60
  10 -16  -5   -2.50   15.50
  16  -6   5   13.30   12.60
 -10  16   5    4.50   18.10
   9 -16  -5  555.24   48.10
  -9  16   5  529.65   49.40
  16  -7   5  490.55   43.90
  16  -7   5  588.64   48.20
   8 -16  -5  174.28   24.70
  16  -8   5  170.18   24.80
  16  -8   5  168.98   20.00
  -8  16   5  172.48   24.40
   7 -16  -5  480.25   48.00
  16  -9   5  574.24   44.80
  -7  16   5  606.64   50.29
  16  -9   5  577.44   49.90
   6 -16  -5   49.00   16.70
  16 -10   5    6.50   17.40
  -6  16   5   -8.20   16.40
  16 -10   5    7.90   12.80
 -16  11  -5   38.90   20.90
   5 -16  -5   27.10   16.00
  16 -11   5   16.50   12.60
  -5  16   5   48.00   17.60
  16 -11   5   42.40   18.70
 -16  12  -5  102.59   24.20
   4 -16  -5   91.19   19.20
  16 -12   5  142.49   24.40
  16 -12   5   97.49   16.30
  -4  16   5  125.39   20.60
 -16  13  -5  208.68   30.00
   3 -16  -5  202.38   24.80
  16 -13   5  206.68   28.60
  -3  16   5  204.08   24.90
   2 -16  -5  354.36   35.20
 -16  14  -5  362.66   39.00
  -2  16   5  365.06   34.50
  16 -14   5  420.26   39.90
 -16  15  -5   20.50   21.10
   1 -16  -5   -0.50   14.90
  16 -15   5   17.30   20.60
  -1  16   5    8.20   15.30
 -16  16  -5   36.90   21.70
  16   0  -5   51.69   11.30
   0 -16  -5   28.30   16.40
  16 -16   5   32.90   21.90
   0  16   5   44.30   16.70
 -16  17  -5   69.29   23.30
  -1 -16  -5   91.59   19.90
  17  -1  -5  130.69   15.60
  16 -17   5  120.29   25.50
   1  16   5  114.79   19.50
 -16  18  -5   55.89   22.20
  18  -2  -5   48.30   12.90
  16 -18   5   37.20   22.40
   2  16   5   17.00   16.00
  17 -17  -5   45.40   17.40
  17   0   5   79.19   18.00
  16 -17  -5  101.99   19.50
  16 -17  -5  112.69   25.70
  17  -1   5  132.79   19.70
  15 -17  -5   46.40   21.00
  15 -17  -5   -1.10   14.00
  17  -2   5   14.00   14.40
  14 -17  -5    8.40   20.30
  14 -17  -5   13.60   14.00
  17  -3   5    4.70   13.70
  13 -17  -5   49.10   20.80
  13 -17  -5   28.50   14.10
  17  -4   5  -12.00   13.30
  12 -17  -5  213.78   28.40
 -12  17   5  199.68   26.80
  17  -5   5  173.98   21.90
  11 -17  -5  232.38   29.40
  17  -6   5  201.18   23.30
 -11  17   5  224.88   28.20
  10 -17  -5   70.49   20.50
  17  -7   5   52.39   15.30
 -10  17   5   58.69   20.30
   9 -17  -5   30.70   18.10
  -9  17   5   18.20   19.00
  17  -8   5   18.20   18.60
  17  -8   5   36.20   14.20
   8 -17  -5   55.79   19.00
  17  -9   5   36.50   18.50
  17  -9   5   42.00   14.00
  -8  17   5   51.69   19.20
   7 -17  -5   83.09   20.10
  -7  17   5   68.99   20.10
  17 -10   5   84.69   21.30
  17 -10   5   63.09   15.70
   6 -17  -5  203.18   26.10
  17 -11   5  223.08   29.40
  17 -11   5  210.18   23.30
  -6  17   5  218.38   26.60
   5 -17  -5  155.98   23.80
  -5  17   5  185.78   24.50
  17 -12   5  197.88   28.10
  17 -12   5  192.48   21.40
 -17  13  -5   26.80   21.30
   4 -17  -5   15.10   15.50
  -4  17   5    3.20   16.90
  17 -13   5    0.40   19.50
 -17  14  -5   -2.50   20.20
   3 -17  -5   18.70   16.40
  -3  17   5   11.90   16.60
  17 -14   5    9.50   20.70
   2 -17  -5   23.20   16.60
 -17  15  -5   14.80   21.10
  17 -15   5   28.60   21.20
  -2  17   5   29.90   16.60
   1 -17  -5   94.89   20.30
 -17  16  -5  111.59   24.30
  17 -16   5  135.89   26.30
  -1  17   5  117.49   20.80
 -17  17  -5   61.39   22.40
   0 -17  -5   50.59   18.20
  17 -17   5   48.80   23.00
   0  17   5   72.09   18.60
  16 -18  -5   43.50   23.50
  18  -2   5   54.09   16.90
  15 -18  -5   56.99   21.60
  15 -18  -5   71.29   24.50
  18  -3   5   81.99   17.60
  14 -18  -5   96.69   23.80
  18  -4   5   97.99   17.90
  13 -18  -5  164.28   27.00
  18  -5   5  157.08   21.00
  12 -18  -5    6.30   20.20
 -12  18   5   18.50   19.80
  18  -6   5   27.40   14.70
  11 -18  -5  338.17   33.60
  18  -7   5  243.48   27.60
 -11  18   5  267.17   32.30
  10 -18  -5  273.47   32.00
  18  -8   5  240.18   26.60
 -10  18   5  268.87   31.30
   9 -18  -5  340.77   38.90
  -9  18   5  471.15   40.50
  18  -9   5  426.76   37.20
   8 -18  -5  216.08   28.20
  18 -10   5  245.48   25.30
  18 -10   5  229.88   29.90
  -8  18   5  231.08   29.50
   7 -18  -5  253.07   32.40
  18 -11   5  284.07   29.30
  -7  18   5  364.66   34.50
  18 -11   5  389.66   36.70
   6 -18  -5   42.10   18.30
  18 -12   5    8.50   20.40
  18 -12   5   -7.00   13.30
  -6  18   5    4.80   18.10
   5 -18  -5  156.68   23.70
  18 -13   5  132.89   25.90
  -5  18   5  139.49   23.40
  18 -13   5  135.49   26.70
   4 -18  -5   74.99   19.40
  -4  18   5   52.49   19.00
  18 -14   5   77.79   23.90
   3 -18  -5   69.39   19.50
  -3  18   5   74.09   19.90
  18 -15   5   87.99   24.50
   2 -18  -5   11.50   16.90
 -18  16  -5   20.40   20.60
  -2  18   5   12.30   17.00
  18 -16   5   41.10   23.20
  14 -19  -5   15.70   21.50
  19  -5   5    5.50   15.20
  13 -19  -5  139.09   27.50
  19  -6   5  169.98   22.30
  12 -19  -5  234.78   31.40
 -12  19   5  242.78   30.70
  19  -7   5  238.78   26.20
  11 -19  -5   10.00   20.00
 -11  19   5  -15.20   19.50
  19  -8   5   25.70   15.40
  10 -19  -5   24.60   20.00
 -10  19   5   69.59   22.50
  19  -9   5   35.10   15.60
   9 -19  -5   21.50   18.90
  -9  19   5   27.90   21.10
  19 -10   5   35.40   15.60
   8 -19  -5    2.70   18.40
  -8  19   5   20.80   19.80
  19 -11   5   22.70   15.20
  19 -11   5    7.30   20.10
   7 -19  -5  271.77   30.10
  -7  19   5  258.07   30.20
  19 -12   5  222.18   25.90
  19 -12   5  208.18   31.70
   6 -19  -5  158.18   24.50
  19 -13   5  133.99   22.30
  -6  19   5  145.19   24.90
  19 -13   5  148.99   28.20
   5 -19  -5   11.10   17.60
  19 -14   5    4.10   21.70
  -5  19   5   49.50   19.90
   0   0  -6 2521.15  173.68
   0   0   6 2553.64  173.48
   0   1  -6   28.00    5.50
  -1   0  -6   28.00    5.90
   1  -1  -6   15.90    6.60
   1  -1  -6   30.90    5.80
   1   0   6   29.60    5.70
  -1   1   6   31.90    5.10
   0  -1   6   31.30    4.70
  -1   1  -6   26.60    5.80
   0  -1  -6   44.00    6.30
   0  -1  -6   18.70    7.00
   1   0  -6   31.80    5.70
   0   1   6   36.20    5.60
   1  -1   6   29.50    5.10
  -1   0   6   29.70    4.60
  -1  -1  -6 2268.17  163.98
   2  -1  -6 2521.15  164.28
  -1   2  -6 2380.96  163.78
   2  -1  -6 2400.06  163.78
   1   1   6 2307.27  163.88
  -2   1   6 2409.56  163.38
   1  -2   6 2451.95  163.38
   3  -2  -6 2232.28  169.98
   3  -2  -6 2576.24  170.58
  -1   3  -6 2646.34  169.98
   1  -3   6 2477.35  170.38
  -3   2   6 2598.44  169.68
   2   1   6 2364.96  170.28
   2  -2  -6 2655.13  193.68
   2  -2  -6 3028.70  194.38
  -2   0  -6 2997.20  193.98
   0   2  -6 2773.12  193.48
  -2   2   6 2816.52  193.48
   2   0   6 2729.73  193.78
  -2   1  -6 2536.15  168.98
   1  -2  -6 2276.67  169.28
   1   1  -6 2512.65  168.58
   1  -2  -6 2591.54  168.98
  -1   2   6 2458.75  168.78
   2  -1   6 2415.76  168.68
   0  -2  -6 2911.61  189.38
  -2   2  -6 2714.33  188.48
   2   0  -6 2539.75  188.98
   0  -2  -6 3049.79  188.78
   2   0  -6 2681.13  188.18
   2  -2   6 2649.53  188.18
   0   2   6 2747.43  188.48
   3  -1  -6 2506.45  169.88
  -1  -2  -6 2431.36  170.48
  -2   3  -6 2325.57  169.58
  -1  -2  -6 2224.08  169.88
   3  -1  -6 2442.66  169.48
   2  -3   6 2642.24  169.28
   2  -3   6 2551.84  170.28
   1   2   6 2694.03  169.98
  -2   4  -6  233.68   18.30
   4  -2  -6  236.08   18.40
  -2  -2  -6  172.58   18.60
   4  -2  -6  245.18   19.10
   2   2   6  257.37   19.40
   2  -4   6  238.38   19.40
   5  -3  -6   94.59    9.10
  -3  -2  -6   60.99    9.20
   5  -3  -6   82.09    9.90
  -2   5  -6   92.59    8.70
   3   2   6   69.39    9.50
   2  -5   6   81.69   10.00
  -1   4  -6  757.52   55.09
   4  -3  -6  802.82   55.59
  -3  -1  -6  760.72   55.79
   4  -3  -6  738.73   56.09
  -4   3   6  810.02   54.99
   1  -4   6  808.12   55.79
   3   1   6  860.11   56.09
   3  -3  -6    0.90    5.20
  -3   0  -6    3.10    5.50
   3  -3  -6   -4.10    6.20
   0   3  -6    6.30    4.20
  -3   3   6    8.90    4.80
   0  -3   6    7.50    5.60
   3   0   6   -1.80    5.50
   2  -3  -6 2428.46  175.48
  -3   1  -6 2527.45  175.58
   2  -3  -6 2634.84  176.18
   1   2  -6 2472.65  174.98
   3  -1   6 2715.43  175.58
  -2   3   6 2595.94  175.38
   1  -3  -6 2749.52  180.58
  -3   2  -6 2813.82  179.88
   2   1  -6 2619.34  179.28
   1  -3  -6 2874.91  180.08
   3  -2   6 2349.17  180.28
  -1   3   6 2488.35  179.68
   3  -2   6 2489.15  179.58
  -3   3  -6    4.40    5.40
   3   0  -6   -5.40    4.10
   0  -3  -6    1.10    7.10
   0  -3  -6   11.50    5.80
   0   3   6    2.90    5.70
   3  -3   6   -5.40    4.20
   3  -3   6    2.80    6.80
  -1  -3  -6  929.81   57.09
   4  -1  -6  782.52   56.19
  -1  -3  -6  720.63   57.39
  -3   4  -6  889.81   56.69
   3  -4   6  761.62   55.99
   1   3   6  798.92   56.99
   3  -4   6  774.22   57.19
   5  -2  -6   83.19    9.10
  -3   5  -6   62.49    8.30
   5  -2  -6   63.49    8.00
  -2  -3  -6   72.49    9.00
   3  -5   6   83.89   10.30
   2   3   6   71.59    9.30
   6  -3  -6  592.24   43.10
   6  -3  -6  589.24   42.50
  -3   6  -6  646.34   42.50
  -3  -3  -6  565.74   43.00
   3  -6   6  570.04   43.30
   3   3   6  587.44   43.20
  -3   7  -6  551.54   39.00
   7  -4  -6  492.15   39.80
   7  -4  -6  543.65   39.30
  -4  -3  -6  514.05   39.30
   3  -7   6  556.74   40.00
   4   3   6  566.24   39.90
   6  -4  -6 1684.23  118.69
   6  -4  -6 1775.22  119.29
  -4  -2  -6 1686.13  118.89
  -2   6  -6 1795.42  118.29
   2  -6   6 1705.23  118.89
   4   2   6 1662.73  118.89
   5  -4  -6  463.25   33.70
   5  -4  -6  430.26   34.30
  -1   5  -6  427.06   32.70
  -4  -1  -6  460.15   33.90
   4   1   6  506.05   34.10
  -5   4   6  454.15   32.90
   1  -5   6  475.45   33.60
   4  -4  -6  479.85   36.70
   0   4  -6  491.55   35.70
  -4   0  -6  477.65   36.80
   4  -4  -6  553.84   37.50
   4   0   6  512.25   37.10
   0  -4   6  506.05   36.40
  -4   4   6  517.85   36.30
   3  -4  -6  798.92   56.69
   1   3  -6  797.22   54.99
  -4   1  -6  811.62   56.19
   3  -4  -6  787.32   55.99
  -3   4   6  763.02   55.69
  -1  -3   6  781.22   55.39
   4  -1   6  818.92   56.09
   2  -4  -6  232.08   19.40
   2   2  -6  246.88   17.70
  -4   2  -6  183.88   18.90
   2  -4  -6  227.58   20.30
   4  -2   6  261.17   21.10
  -2   4   6  248.58   19.20
   4  -2   6  238.88   19.00
   1  -4  -6  689.73   54.29
   3   1  -6  771.02   52.89
  -4   3  -6  752.72   53.69
   1  -4  -6  807.12   53.89
  -1   4   6  786.22   53.89
   4  -3   6  803.72   53.59
   4  -3   6  712.43   54.59
  -4   4  -6  470.85   36.40
   0  -4  -6  531.95   37.70
   4   0  -6  517.05   35.50
   0  -4  -6  455.55   36.50
   0   4   6  516.05   36.80
   4  -4   6  520.25   36.00
   4  -4   6  488.95   37.40
  -1  -4  -6  412.06   31.50
  -4   5  -6  416.26   31.20
   5  -1  -6  448.06   30.50
  -1  -4  -6  388.76   32.70
   4  -5   6  430.06   30.40
   4  -5   6  402.26   32.50
   1   4   6  426.36   31.90
  -4   6  -6 1533.85  112.59
  -2  -4  -6 1390.26  112.49
  -2  -4  -6 1790.42  113.99
   6  -2  -6 1698.03  112.29
   2   4   6 1644.04  112.99
   4  -6   6 1738.63  113.49
   7  -3  -6  527.25   39.90
  -3  -4  -6  590.74   40.60
  -4   7  -6  595.74   40.40
   4  -7   6  539.65   41.40
   3   4   6  502.75   40.80
  -4  -4  -6 1341.97   92.09
  -4   8  -6 1374.46   91.99
   8  -4  -6 1194.08   91.89
   4  -8   6 1390.56   92.99
   4   4   6 1303.77   92.49
  -4   9  -6  252.47   21.00
  -5  -4  -6  247.08   20.30
   9  -5  -6  234.88   21.20
   4  -9   6  186.88   21.30
   5   4   6  229.58   21.70
  -5  -3  -6 1033.60   73.29
   8  -5  -6 1110.99   75.39
   8  -5  -6 1107.19   73.49
  -3   8  -6 1085.09   72.99
   5   3   6  983.50   73.69
   3  -8   6  941.31   73.59
   7  -5  -6  383.66   29.30
  -2   7  -6  394.46   28.20
   7  -5  -6  359.46   29.80
  -5  -2  -6  425.36   29.50
   2  -7   6  360.76   28.90
   5   2   6  346.87   29.70
   6  -5  -6  757.62   57.99
  -1   6  -6  813.42   56.39
   6  -5  -6  814.72   57.39
  -5  -1  -6  874.11   57.49
   1  -6   6  793.42   57.09
   5   1   6  767.12   57.59
  -6   5   6  834.82   56.69
   5  -5  -6   19.90    6.70
  -5   0  -6    7.60    6.50
   0   5  -6   14.40    4.30
   5  -5  -6   14.20    7.90
   5   0   6   15.10    7.00
   0  -5   6   15.90    5.90
  -5   5   6   16.40    5.80
   4  -5  -6  380.66   31.70
   4  -5  -6  472.25   33.00
  -5   1  -6  359.16   31.80
   1   4  -6  452.45   30.30
   5  -1   6  405.16   31.80
  -1  -4   6  449.36   30.80
   5  -1   6  420.36   33.40
  -4   5   6  449.95   31.60
   3  -5  -6   67.69    9.20
  -5   2  -6   49.80    9.00
   2   3  -6   83.49    7.30
   3  -5  -6  102.19   11.60
  -2  -3   6   93.99    8.90
   5  -2   6   59.69   10.50
  -3   5   6   89.19    9.50
   5  -2   6   81.99    9.30
   2  -5  -6   91.89   10.80
   2  -5  -6   91.19   10.10
   3   2  -6   82.59    7.50
  -5   3  -6  101.29   10.30
  -2   5   6   85.89    9.90
   5  -3   6   50.09   10.50
   5  -3   6   93.29    9.80
   1  -5  -6  427.46   33.30
  -5   4  -6  456.05   33.50
   4   1  -6  450.45   31.70
   1  -5  -6  456.75   34.60
  -1   5   6  448.66   33.40
   5  -4   6  449.76   34.50
   5  -4   6  448.66   32.80
   5   0  -6   16.00    4.80
   0  -5  -6   23.50    6.70
  -5   5  -6   14.50    6.60
   0  -5  -6   15.90    8.70
   5  -5   6   13.70    5.80
   0   5   6   10.60    6.90
   5  -5   6   28.60    8.50
  -5   6  -6  858.01   59.29
  -1  -5  -6  829.12   59.19
   6  -1  -6  788.92   58.29
  -1  -5  -6  764.02   60.29
   5  -6   6  884.11   60.59
   5  -6   6  830.62   58.39
   1   5   6  908.41   59.69
  -2  -5  -6  395.96   30.80
  -5   7  -6  353.66   28.90
   7  -2  -6  391.26   28.00
  -2  -5  -6  382.46   28.50
   5  -7   6  359.16   30.00
   2   5   6  344.87   29.10
   8  -3  -6  945.61   69.39
  -5   8  -6 1033.60   70.09
  -3  -5  -6  946.41   69.69
   5  -8   6 1043.80   71.19
   3   5   6  984.00   70.19
  -5   9  -6  258.97   22.20
   9  -4  -6  222.78   20.70
  -4  -5  -6  212.08   20.60
   4   5   6  246.78   21.70
   5  -9   6  242.98   23.20
  -5  10  -6 1168.28   80.49
  10  -5  -6 1076.99   79.79
  -5  -5  -6 1223.18   79.79
   5 -10   6 1151.58   80.99
   5   5   6 1038.00   80.09
  11  -6  -6   76.49   12.20
  -5  11  -6   82.29   13.50
   6   5   6   89.49   12.40
   5 -11   6   82.79   13.50
  -4  10  -6  221.38   19.40
  10  -6  -6  170.48   17.30
  -6  -4  -6  215.38   18.60
   4 -10   6  179.58   18.20
   6   4   6  162.18   17.70
   9  -6  -6  453.15   35.00
  -3   9  -6  464.75   34.20
  -6  -3  -6  477.35   34.90
   6   3   6  433.26   35.00
   3  -9   6  437.86   34.70
  -2   8  -6  767.92   55.79
   8  -6  -6  819.12   56.99
  -6  -2  -6  813.42   56.69
   8  -6  -6  793.82   57.79
   6   2   6  868.21   57.39
   2  -8   6  715.13   56.29
  -1   7  -6   81.29    9.10
  -6  -1  -6  102.79   11.30
   7  -6  -6   89.99   11.10
   7  -6  -6  104.99   13.10
   1  -7   6  104.49   10.70
   6   1   6   95.19   11.40
   6  -6  -6   35.00    9.70
  -6   0  -6   39.20    8.10
   0   6  -6   31.10    5.30
   6  -6  -6   36.80    8.10
   6   0   6   41.00   10.00
   6   0   6   31.70    8.20
   0  -6   6   37.40    6.80
  -6   6   6   45.00    7.30
   5  -6  -6  771.82   57.69
  -6   1  -6  783.02   57.79
   1   5  -6  796.02   56.09
   5  -6  -6  824.92   58.69
   6  -1   6  745.83   58.49
  -1  -5   6  877.61   56.59
   6  -1   6  842.52   57.79
  -5   6   6  832.02   57.49
   4  -6  -6 1688.63  118.19
   2   4  -6 1631.04  116.79
   4  -6  -6 1814.72  119.19
  -6   2  -6 1619.54  118.29
   6  -2   6 1801.32  119.39
  -2  -4   6 1663.53  116.99
  -4   6   6 1725.43  118.19
   6  -2   6 1759.92  118.19
   3  -6  -6  578.54   43.00
   3   3  -6  585.24   41.10
   3  -6  -6  625.64   44.20
  -6   3  -6  679.33   43.40
   6  -3   6  558.44   42.80
  -3  -3   6  597.84   41.30
   6  -3   6  553.64   44.10
  -3   6   6  560.74   43.00
  -6   4  -6 1533.35  112.19
   4   2  -6 1620.24  110.69
   2  -6  -6 1553.04  111.89
   2  -6  -6 1656.03  112.99
   6  -4   6 1572.84  111.79
   6  -4   6 1631.24  113.19
  -2   6   6 1764.32  112.29
   5   1  -6  829.92   58.79
   1  -6  -6  878.01   61.49
  -6   5  -6  831.02   60.39
   1  -6  -6  879.11   60.29
   6  -5   6  845.72   59.89
   6  -5   6  851.11   61.49
  -1   6   6  847.22   60.39
  -6   6  -6   32.40    8.10
   0  -6  -6   37.90    8.00
   6   0  -6   38.40    5.90
   0  -6  -6   26.30    9.80
   6  -6   6   35.60   10.10
   6  -6   6   34.50    6.90
   0   6   6   31.70    8.30
  -1  -6  -6   99.59   13.70
  -6   7  -6   98.39   11.80
   7  -1  -6  112.79   10.20
  -1  -6  -6  113.59   11.40
   7  -1  -6   99.79   10.00
   6  -7   6   84.69   13.00
   1   6   6   79.19   11.90
   6  -7   6   89.49   11.40
  -2  -6  -6  693.63   53.19
   8  -2  -6  716.53   52.79
   8  -2  -6  747.33   52.79
  -2  -6  -6  800.82   55.39
  -6   8  -6  616.64   53.69
   6  -8   6  841.02   55.39
   2   6   6  824.12   54.29
  -3  -6  -6  476.95   35.50
   9  -3  -6  436.66   35.10
  -6   9  -6  475.85   36.60
   9  -3  -6  471.95   35.30
   3   6   6  496.85   36.70
   6  -9   6  470.35   38.10
  10  -4  -6  158.68   16.50
  -4  -6  -6  166.38   16.40
  10  -4  -6  177.78   16.70
  -6  10  -6  183.38   18.50
   4   6   6  197.58   18.00
   6 -10   6  216.58   19.80
  11  -5  -6   76.29   11.80
  -6  11  -6   97.29   14.20
  11  -5  -6   79.49   11.90
   5   6   6   85.29   12.40
   6 -11   6   73.49   14.10
  -6  12  -6  310.47   27.80
  12  -6  -6  288.27   26.60
  12  -6  -6  313.17   26.80
   6   6   6  285.57   26.50
   6 -12   6  286.17   28.40
  13  -7  -6  211.58   21.10
  13  -7  -6  232.58   21.40
  -6  13  -6  223.28   24.90
   7   6   6  222.08   21.30
   6 -13   6  205.18   22.00
  12  -7  -6   76.79   12.30
  -5  12  -6   82.29   14.80
   5 -12   6   62.39   13.00
   7   5   6   48.90   11.70
  11  -7  -6  304.67   28.30
  -4  11  -6  308.37   28.60
   4 -11   6  327.47   28.10
   7   4   6  358.16   28.40
  10  -7  -6  342.07   30.20
  -3  10  -6  409.06   29.80
  -7  -3  -6  377.36   29.60
   7   3   6  385.16   30.60
   3 -10   6  340.27   29.60
   9  -7  -6  434.66   33.40
   9  -7  -6  412.16   34.70
  -7  -2  -6  455.15   32.90
  -2   9  -6  432.66   31.50
   2  -9   6  420.96   32.20
   7   2   6  355.06   33.00
  -1   8  -6  196.38   16.80
   8  -7  -6  174.28   17.60
   8  -7  -6  221.48   22.20
  -7  -1  -6  187.68   17.70
   7   1   6  198.08   19.80
   1  -8   6  222.48   17.80
   7   1   6  181.78   17.70
   7  -7  -6    7.10    9.70
   7  -7  -6    6.50    7.50
   0   7  -6   11.50    4.70
  -7   0  -6   20.00    8.00
  -7   7   6    1.60    6.80
   0  -7   6   10.40    5.90
   7   0   6   12.40    7.80
   7   0   6   12.70   10.40
   6  -7  -6   65.29   12.60
   6  -7  -6   99.49   11.30
  -7   1  -6   78.19   11.00
   1   6  -6   98.49    8.80
  -1  -6   6   80.79    8.50
   7  -1   6  105.39   13.60
   7  -1   6   83.79   11.10
  -6   7   6   83.29   10.60
   5  -7  -6  364.56   30.50
   2   5  -6  365.76   26.20
  -7   2  -6  368.06   29.40
   5  -7  -6  352.46   29.10
   7  -2   6  371.26   30.80
  -5   7   6  376.26   29.10
  -2  -5   6  354.46   26.30
   7  -2   6  439.66   29.20
   4  -7  -6  527.75   38.80
   3   4  -6  535.15   36.30
  -7   3  -6  576.84   39.40
   4  -7  -6  461.55   39.30
  -4   7   6  545.65   39.20
   7  -3   6  502.25   38.60
   7  -3   6  513.45   40.20
   3  -7  -6  450.95   38.30
  -7   4  -6  478.65   38.10
   4   3  -6  505.95   35.20
   3  -7  -6  509.05   37.80
   7  -4   6  530.85   39.60
  -3   7   6  520.55   38.20
   7  -4   6  560.04   37.70
   5   2  -6  358.46   25.80
   2  -7  -6  416.86   28.70
   2  -7  -6  333.37   29.80
  -7   5  -6  378.96   28.80
   7  -5   6  368.06   28.10
  -2   7   6  354.06   29.00
   7  -5   6  329.37   30.20
  -7   6  -6   83.39   11.60
   6   1  -6   83.69    8.50
   6   1  -6   96.79    8.60
   1  -7  -6   75.69   12.80
   1  -7  -6   87.29   10.60
   7  -6   6  130.29   14.70
  -1   7   6  115.29   12.10
   7  -6   6   84.09   10.50
   7   0  -6   11.00    5.30
   0  -7  -6   10.40   10.10
   0  -7  -6   12.10    7.10
   7   0  -6    7.80    5.20
  -7   7  -6    8.30    8.20
   0   7   6    4.90    8.20
   7  -7   6   20.20    6.70
   7  -7   6   17.60   10.10
  -7   8  -6  208.28   19.40
   8  -1  -6  225.48   18.00
  -1  -7  -6  266.47   22.40
  -1  -7  -6  237.28   19.50
   7  -8   6  187.28   20.70
   1   7   6  156.78   18.30
   9  -2  -6  398.36   29.80
  -2  -7  -6  385.06   32.80
  -7   9  -6  345.07   31.90
  -2  -7  -6  389.86   30.30
   7  -9   6  397.86   33.10
   2   7   6  409.16   31.40
  -7  10  -6  414.66   33.10
  10  -3  -6  380.86   30.10
  -3  -7  -6  384.56   30.10
   7 -10   6  403.36   33.70
   3   7   6  349.87   31.70
  -7  11  -6  386.76   31.80
  11  -4  -6  309.97   28.30
  11  -4  -6  345.77   28.40
   7 -11   6  368.86   32.00
   4   7   6  327.27   29.60
  12  -5  -6   71.99   11.70
  -7  12  -6   58.99   15.50
  12  -5  -6   49.50   11.10
   5   7   6   68.39   12.60
   7 -12   6   99.49   15.40
  -7  13  -6  204.38   25.20
  13  -6  -6  234.98   21.00
  13  -6  -6  195.58   20.50
   7 -13   6  228.68   22.90
   6   7   6  204.08   20.50
  14  -7  -6  111.79   15.00
  -7  14  -6   60.89   20.90
  14  -7  -6  112.19   15.00
   7   7   6  100.49   14.90
   7 -14   6   87.89   16.10
  15  -8  -6   65.79   14.40
  15  -8  -6   60.99   14.20
  -7  15  -6   52.89   21.20
   8   7   6   83.79   14.90
   7 -15   6  104.29   16.00
  -6  14  -6   82.29   21.00
  14  -8  -6  105.99   15.20
   6 -14   6  104.29   15.40
   8   6   6  101.29   15.20
  13  -8  -6  191.48   19.40
  -5  13  -6  152.98   22.10
   8   5   6  179.58   19.30
   5 -13   6  199.08   19.40
  -4  12  -6   -4.10   11.40
  12  -8  -6   14.30   10.00
   4 -12   6    8.10    9.40
   8   4   6    2.00    9.80
  11  -8  -6  473.85   39.50
  -3  11  -6  522.25   39.40
   8   3   6  542.75   42.30
   8   3   6  483.15   39.70
   3 -11   6  516.75   38.80
  -8  -2  -6    7.20    8.70
  10  -8  -6    9.50    9.30
  -2  10  -6   15.30    7.70
  10  -8  -6   21.50   12.60
   2 -10   6   10.50    7.70
   8   2   6   24.60    9.40
   8   2   6   11.80   11.40
   9  -8  -6 1025.40   70.39
  -8  -1  -6  991.20   69.89
  -1   9  -6 1016.70   68.69
   9  -8  -6  948.61   71.79
   1  -9   6  938.21   68.69
   8   1   6  982.20   71.49
   8   1   6  970.00   70.29
   8  -8  -6   73.09   10.70
  -8   0  -6   81.09   10.90
   0   8  -6   66.09    7.80
   8  -8  -6   94.09   14.20
   8   0   6   50.29   10.40
  -8   8   6   74.09   10.70
   8   0   6   59.59   12.90
   0  -8   6   58.09    7.90
   1   7  -6  225.68   16.20
   7  -8  -6  217.88   22.10
   7  -8  -6  233.88   19.90
  -8   1  -6  215.48   19.70
  -7   8   6  204.48   19.00
  -1  -7   6  196.88   16.00
   8  -1   6  189.28   20.40
   8  -1   6  197.88   18.90
   2   6  -6  717.03   52.49
   6  -8  -6  735.23   56.39
   6  -8  -6  752.02   55.09
  -8   2  -6  759.72   55.19
   8  -2   6  814.12   56.69
  -6   8   6  804.42   55.49
   8  -2   6  787.32   55.19
  -8   3  -6  816.22   68.39
   5  -8  -6 1004.30   69.99
   3   5  -6  961.30   66.19
   5  -8  -6  880.71   68.49
   8  -3   6 1110.09   68.79
   8  -3   6 1011.10   70.19
  -5   8   6 1003.20   69.09
  -8   4  -6 1377.66   90.79
   4  -8  -6 1320.37   90.49
   4  -8  -6 1271.77   91.59
   8  -4   6 1180.28   90.19
   8  -4   6 1325.87   91.89
  -4   8   6 1281.57   90.89
  -8   5  -6  925.01   68.69
   3  -8  -6  862.81   68.99
   5   3  -6 1051.39   66.19
   3  -8  -6 1080.19   68.49
   8  -5   6  951.30   69.99
  -3   8   6  892.21   68.79
   8  -5   6  939.61   68.09
   6   2  -6  792.52   53.09
   2  -8  -6  756.42   55.09
  -8   6  -6  947.81   56.39
   2  -8  -6  756.12   56.09
  -2   8   6  726.13   55.59
   8  -6   6  679.53   54.79
   8  -6   6  719.63   56.89
   1  -8  -6  172.68   20.40
  -8   7  -6  237.58   21.80
   1  -8  -6  225.78   19.80
   7   1  -6  201.58   17.00
   8  -7   6  226.38   19.70
   8  -7   6  244.68   23.10
  -1   8   6  215.28   19.60
   0  -8  -6   83.09   12.90
   8   0  -6   60.79    8.20
  -8   8  -6   58.09   11.30
   0  -8  -6   57.69    9.60
   8  -8   6   71.29    9.70
   8  -8   6   72.99   13.50
   0   8   6   66.29   11.40
  -1  -8  -6  963.70   66.99
  -8   9  -6  972.80   68.59
   9  -1  -6  943.71   66.39
  -1  -8  -6  834.72   68.09
   1   8   6  988.80   67.89
   8  -9   6  975.10   69.49
  -2  -8  -6    4.80   10.50
  -8  10  -6   14.60   10.90
  -2  -8  -6    8.00    7.80
  10  -2  -6    2.60    7.40
   8 -10   6    7.00   12.10
   2   8   6   12.50    9.80
  -8  11  -6  586.24   44.60
  11  -3  -6  566.74   40.90
  -3  -8  -6  517.95   43.20
   3   8   6  546.05   42.50
   8 -11   6  514.25   44.00
  -8  12  -6   -6.20   13.30
  12  -4  -6    6.50    8.70
   4   8   6   15.20   10.70
   8 -12   6    9.70   12.90
  13  -5  -6  181.88   18.40
  -8  13  -6  173.48   23.90
   5   8   6  150.98   18.50
   8 -13   6  223.78   22.50
  14  -6  -6  114.89   15.40
  14  -6  -6   94.59   14.90
  -8  14  -6   76.19   21.60
   6   8   6  132.99   16.00
   8 -14   6  117.39   18.30
  -8  15  -6   53.49   22.00
  15  -7  -6   90.19   14.70
  15  -7  -6   97.49   14.80
   8 -15   6   74.29   16.30
   7   8   6   52.09   14.10
  16  -8  -6  -13.90   12.40
  16  -8  -6    7.30   12.80
  -8  16  -6   13.10   20.80
   8   8   6    1.10   13.10
   8 -16   6    9.40   14.10
  17  -9  -6  371.06   35.30
  -8  17  -6  374.66   39.50
  17  -9  -6  401.76   37.50
   9   8   6  470.75   38.10
   8 -17   6  415.36   37.50
  -7  16  -6   73.89   21.50
  16  -9  -6   42.70   14.50
   9   7   6   50.39   14.50
   7 -16   6   57.39   15.10
  15  -9  -6   25.80   12.50
  -6  15  -6   15.90   18.50
   6 -15   6   39.40   12.60
   9   6   6    2.10   12.20
  14  -9  -6   26.50   12.10
  -5  14  -6    3.10   16.80
   5 -14   6   -2.70   10.40
   9   5   6    6.50   11.50
  -4  13  -6  209.78   25.20
  13  -9  -6  241.58   23.50
   9   4   6  255.67   23.60
   4 -13   6  273.27   23.90
  -3  12  -6  287.07   27.40
  12  -9  -6  285.17   26.30
   3 -12   6  281.47   24.20
   9   3   6  280.37   28.40
   9   3   6  230.08   23.70
  -2  11  -6  656.83   50.19
  11  -9  -6  597.34   50.89
   2 -11   6  694.23   49.30
   9   2   6  744.73   52.79
   9   2   6  709.13   51.29
  10  -9  -6 1132.09   87.49
  10  -9  -6 1076.29   89.29
  -1  10  -6 1241.58   86.19
   9   1   6 1328.37   87.79
   1 -10   6 1249.38   85.79
   9   1   6 1372.96   89.09
   0   9  -6   17.30    6.30
   9  -9  -6    4.80   12.20
   9  -9  -6    3.80    8.70
  -9   0  -6   19.30    8.80
   9   0   6   10.90   10.80
   0  -9   6    9.10    5.10
   9   0   6    7.80    9.30
   8  -9  -6  891.81   69.89
   1   8  -6 1009.60   67.89
   8  -9  -6 1037.40   72.19
  -9   1  -6  937.51   69.99
   9  -1   6  995.20   70.29
   9  -1   6  945.91   70.89
  -8   9   6 1048.80   70.79
  -9   2  -6  385.26   32.30
   7  -9  -6  368.76   33.00
   7  -9  -6  393.76   32.30
   2   7  -6  402.06   28.50
   9  -2   6  452.65   32.30
  -7   9   6  425.36   33.40
   9  -2   6  404.76   34.00
   6  -9  -6  456.45   35.60
   6  -9  -6  418.26   37.10
  -9   3  -6  442.46   35.50
   3   6  -6  449.16   31.70
   9  -3   6  467.25   35.60
  -6   9   6  507.65   37.00
   9  -3   6  483.15   37.60
   5  -9  -6  244.38   22.50
   5  -9  -6  218.28   23.10
  -9   4  -6  271.97   23.60
   9  -4   6  255.37   22.60
   9  -4   6  260.47   25.20
  -5   9   6  247.18   22.50
   4  -9  -6  267.07   22.60
   4  -9  -6  227.88   20.80
  -9   5  -6  226.38   22.50
   9  -5   6  214.78   22.20
   9  -5   6  215.98   21.20
  -4   9   6  223.18   22.30
   3  -9  -6  382.86   34.50
   3  -9  -6  518.15   37.10
  -9   6  -6  476.45   36.40
   9  -6   6  452.95   34.90
   9  -6   6  480.65   37.70
  -3   9   6  428.36   35.80
   2  -9  -6  449.66   32.20
   2  -9  -6  427.76   34.40
  -9   7  -6  434.16   33.70
   7   2  -6  411.56   29.50
   9  -7   6  351.76   34.70
  -2   9   6  409.16   33.40
   9  -7   6  393.06   32.00
  -9   8  -6 1060.89   71.69
   1  -9  -6  971.60   69.99
   1  -9  -6 1013.40   71.49
   8   1  -6  944.01   68.59
   9  -8   6  937.11   69.89
   9  -8   6 1107.09   72.99
  -1   9   6  924.61   70.99
   0  -9  -6   13.00    7.90
   9   0  -6    2.80    6.30
  -9   9  -6    0.70   10.90
   0  -9  -6    8.70   11.30
   0   9   6   12.10    9.90
   9  -9   6   11.80   11.90
  -9  10  -6 1177.98   88.79
  10  -1  -6 1205.28   85.99
  -1  -9  -6 1342.47   88.79
   1   9   6 1217.68   87.59
   9 -10   6 1214.58   89.29
  11  -2  -6  710.43   49.10
  -2  -9  -6  679.93   51.79
  -9  11  -6  711.53   52.99
   2   9   6  572.64   50.29
   9 -11   6  680.23   52.59
  12  -3  -6  290.47   25.80
  -9  12  -6  287.67   29.00
   9 -12   6  271.87   28.30
   3   9   6  313.77   27.90
  13  -4  -6  252.97   22.90
  -9  13  -6  291.37   28.30
   9 -13   6  188.48   23.90
   4   9   6  196.78   21.40
  14  -5  -6    8.40   10.40
  -9  14  -6   17.10   19.40
   5   9   6   14.40   11.40
   9 -14   6   18.90   13.90
  15  -6  -6    6.90   11.30
  -9  15  -6   29.50   21.30
   6   9   6    8.40   12.40
   9 -15   6   20.20   14.60
  -9  16  -6   70.59   23.70
  16  -7  -6   54.19   14.10
  16  -7  -6   69.39   14.30
   7   9   6   58.39   14.60
   9 -16   6   45.70   15.90
  -9  17  -6  462.45   42.30
  17  -8  -6  422.36   38.80
  17  -8  -6  434.16   38.60
   8   9   6  367.26   38.30
   9 -17   6  432.66   40.00
  18  -9  -6   87.39   17.10
  18  -9  -6   97.59   17.40
  -9  18  -6   32.90   21.00
   9 -18   6   73.19   17.60
   9   9   6   55.69   16.70
  -9  19  -6  177.58   25.60
  19 -10  -6  205.88   23.00
  10   9   6  156.58   22.80
   9 -19   6  147.59   23.00
  18 -10  -6   32.60   15.30
  -8  18  -6   38.70   19.80
  10   8   6   44.30   16.40
   8 -18   6   53.09   15.90
  17 -10  -6   83.19   16.50
  -7  17  -6   62.99   20.50
   7 -17   6   50.89   15.00
  10   7   6   72.49   16.60
  -6  16  -6  133.19   22.80
  16 -10  -6   80.89   16.80
   6 -16   6  107.09   16.00
  10   6   6  142.79   17.90
  -5  15  -6  145.89   23.60
  15 -10  -6  148.79   18.90
  10   5   6  137.79   18.00
   5 -15   6  150.68   17.20
  -4  14  -6   -6.90   15.90
  14 -10  -6    8.30   11.90
  10   4   6    2.50   11.10
   4 -14   6    7.20    9.40
  13 -10  -6  608.04   45.20
  -3  13  -6  522.15   46.80
  10   3   6  575.14   44.90
   3 -13   6  559.64   42.30
  -2  12  -6  388.66   34.30
  12 -10  -6  393.86   34.10
  10   2   6  379.16   41.70
   2 -12   6  381.86   30.40
  10   2   6  433.76   34.20
  11 -10  -6  151.58   18.40
  -1  11  -6  168.48   17.20
  11 -10  -6  187.28   22.70
  10   1   6  228.48   21.90
  10   1   6  174.18   18.30
   1 -11   6  174.58   16.20
  10 -10  -6  177.58   17.90
   0  10  -6  179.48   17.10
  10 -10  -6  149.88   21.20
  10   0   6  174.48   18.10
  10   0   6  176.88   20.30
   1   9  -6 1243.48   82.79
 -10   1  -6 1196.28   84.89
   9 -10  -6 1238.68   85.19
   9 -10  -6 1322.27   87.49
  10  -1   6 1080.69   86.09
  10  -1   6 1141.49   84.69
  -9  10   6 1149.08   85.69
   2   8  -6   10.80    4.60
 -10   2  -6   -0.50    9.20
   8 -10  -6    4.90   11.80
   8 -10  -6   20.00    9.20
  -8  10   6   20.00   11.40
  10  -2   6    5.70    9.10
  10  -2   6    8.10   12.10
   7 -10  -6  321.47   29.30
 -10   3  -6  326.07   29.70
   7 -10  -6  324.37   32.10
  10  -3   6  384.66   29.60
  -7  10   6  394.16   32.20
  10  -3   6  398.26   32.20
   6 -10  -6  204.88   21.40
   6 -10  -6  173.38   18.10
 -10   4  -6  178.48   18.80
  10  -4   6  192.48   18.40
  10  -4   6  227.88   21.70
  -6  10   6  193.98   20.20
   5 -10  -6 1120.29   81.79
   5 -10  -6 1164.58   83.69
 -10   5  -6 1162.48   82.79
  10  -5   6 1244.78   83.99
  -5  10   6 1152.28   83.29
  10  -5   6 1111.69   81.69
   4 -10  -6  184.58   19.40
 -10   6  -6  209.78   18.90
   4 -10  -6  208.58   18.40
  10  -6   6  140.19   16.30
  -4  10   6  131.79   17.80
  10  -6   6  161.58   19.90
   3 -10  -6  396.66   30.10
   3 -10  -6  340.87   32.50
 -10   7  -6  438.16   32.90
  10  -7   6  342.07   30.50
  10  -7   6  385.06   33.80
  -3  10   6  379.96   32.20
 -10   8  -6    5.60   11.40
   2 -10  -6    9.50    8.30
   8   2  -6    1.10    4.90
   2 -10  -6   -4.40   11.00
  10  -8   6   10.70   12.10
  10  -8   6   -0.90    8.30
  -2  10   6   17.00   10.60
   1 -10  -6 1120.19   83.89
   1 -10  -6 1189.68   82.09
   9   1  -6 1117.19   80.69
 -10   9  -6 1131.29   84.39
  10  -9   6 1192.98   82.19
  -1  10   6 1248.38   83.69
  10  -9   6 1156.28   84.99
 -10  10  -6  127.89   19.60
  10   0  -6  173.58   16.20
   0 -10  -6  162.38   19.60
  10 -10   6  205.08   22.10
   0  10   6  148.19   17.70
 -10  11  -6  205.98   22.60
  -1 -10  -6  156.68   19.50
  11  -1  -6  193.68   17.80
  10 -11   6  147.99   21.30
   1  10   6  175.18   18.70
 -10  12  -6  408.16   36.60
  12  -2  -6  399.16   31.50
  -2 -10  -6  410.66   35.60
  10 -12   6  393.96   36.80
   2  10   6  342.57   33.50
  13  -3  -6  540.05   42.70
 -10  13  -6  548.65   51.09
  10 -13   6  570.44   47.30
   3  10   6  575.54   44.50
  14  -4  -6   11.90   10.60
 -10  14  -6  -30.80   18.80
   4  10   6   10.40   11.50
  10 -14   6   11.60   15.70
  15  -5  -6  142.29   17.00
 -10  15  -6  135.59   26.50
  10 -15   6  147.39   21.50
   5  10   6  117.49   17.40
  16  -6  -6   81.79   15.40
 -10  16  -6   91.79   25.30
   6  10   6  104.39   16.90
  10 -16   6  102.49   19.60
  17  -7  -6   56.89   14.60
 -10  17  -6   79.49   24.00
  17  -7  -6   84.79   15.60
   7  10   6   58.89   16.20
  10 -17   6   63.79   18.00
 -10  18  -6   45.30   21.50
  18  -8  -6   31.70   14.90
  18  -8  -6   51.19   15.00
   8  10   6   12.50   15.30
  10 -18   6   20.80   16.60
 -10  19  -6  186.48   27.10
  19  -9  -6  178.28   22.70
  19  -9  -6  168.88   22.30
  10 -19   6  166.68   23.20
   9  10   6  148.39   21.80
  19 -11  -6   99.89   18.60
  -8  19  -6  111.19   21.80
   8 -19   6   98.79   18.00
  11   8   6   69.69   18.50
  18 -11  -6   28.30   15.50
  -7  18  -6   26.00   18.70
   7 -18   6   20.50   14.20
  11   7   6   25.10   14.70
  -6  17  -6  240.08   28.90
  17 -11  -6  255.27   26.60
   6 -17   6  269.47   25.40
  11   6   6  251.87   25.80
  -5  16  -6   79.29   20.00
  16 -11  -6   71.69   15.90
  11   5   6   62.09   15.30
   5 -16   6   81.69   14.10
  15 -11  -6  163.48   18.60
  -4  15  -6  140.79   21.30
   4 -15   6   96.19   14.30
  11   4   6   69.29   15.80
  -3  14  -6  166.98   22.80
  14 -11  -6  217.58   21.00
   3 -14   6  149.59   16.40
  11   3   6  158.98   19.00
  -2  13  -6    8.60   14.00
  13 -11  -6   22.10   12.30
   2 -13   6   10.70    7.70
  11   2   6    8.90   11.70
  12 -11  -6   78.59   14.00
  12 -11  -6   61.09   17.70
  -1  12  -6   71.19   13.70
  11   1   6   66.39   13.10
  11 -11  -6   88.39   14.50
  11 -11  -6   90.89   18.60
   0  11  -6  117.69   13.40
  11   0   6  126.19   15.30
  11   0   6  116.29   18.00
  10 -11  -6  151.08   18.60
   1  10  -6  207.68   17.80
  10 -11  -6  189.68   23.00
  11  -1   6  178.28   21.80
  11  -1   6  204.58   19.30
   9 -11  -6  685.43   51.09
 -11   2  -6  732.03   51.69
   2   9  -6  705.33   47.90
   9 -11  -6  679.73   53.69
  11  -2   6  639.14   52.69
  11  -2   6  672.93   50.89
  -9  11   6  629.34   52.79
 -11   3  -6  476.35   41.20
   8 -11  -6  548.45   41.10
   8 -11  -6  492.85   43.30
  11  -3   6  523.05   40.90
  -8  11   6  529.05   42.60
  11  -3   6  559.34   43.00
   7 -11  -6  334.17   32.10
   7 -11  -6  369.06   29.20
 -11   4  -6  313.97   29.50
  11  -4   6  340.97   31.80
  -7  11   6  337.87   32.00
  11  -4   6  310.47   28.90
   6 -11  -6   96.19   12.30
   6 -11  -6   86.89   15.80
 -11   5  -6   83.39   13.70
  11  -5   6   53.49   11.70
  -6  11   6   91.79   15.30
  11  -5   6   68.49   15.20
   5 -11  -6   60.29   14.60
   5 -11  -6   86.29   11.70
 -11   6  -6   69.49   13.80
  -5  11   6   63.29   14.20
  11  -6   6   60.09   14.50
  11  -6   6   84.89   12.20
   4 -11  -6  306.17   27.00
 -11   7  -6  355.36   31.10
   4 -11  -6  322.27   29.90
  11  -7   6  321.67   27.80
  -4  11   6  294.47   29.70
  11  -7   6  302.57   30.90
   3 -11  -6  468.15   42.80
   3 -11  -6  515.05   40.50
 -11   8  -6  607.64   43.90
  11  -8   6  490.05   44.40
  -3  11   6  576.64   43.50
  11  -8   6  573.34   41.30
 -11   9  -6  605.24   53.49
   9   2  -6  628.04   47.70
   2 -11  -6  687.33   49.90
   2 -11  -6  612.14   52.19
  11  -9   6  751.72   50.59
  -2  11   6  778.82   52.59
  11  -9   6  721.53   53.99
 -11  10  -6  149.29   20.90
  10   1  -6  147.49   13.90
   1 -11  -6  133.09   19.30
  11 -10   6  177.98   22.00
  -1  11   6  201.18   19.20
   0 -11  -6   89.99   16.30
 -11  11  -6  109.69   19.90
  11   0  -6  118.69   12.00
  11 -11   6   86.09   17.70
   0  11   6  106.39   15.40
  -1 -11  -6   82.69   16.00
  12  -1  -6   93.79   11.50
 -11  12  -6   68.29   19.70
  11 -12   6   73.39   18.00
   1  11   6   64.39   13.60
 -11  13  -6   49.10   20.20
  13  -2  -6   27.60    9.80
  -2 -11  -6   11.50   13.20
  11 -13   6    5.00   15.20
   2  11   6   38.60   12.40
 -11  14  -6  168.98   27.70
  14  -3  -6  147.49   17.50
  11 -14   6  192.18   24.10
   3  11   6  172.58   19.60
 -11  15  -6   69.89   24.50
  15  -4  -6   65.99   14.40
  11 -15   6  109.99   20.20
   4  11   6  135.69   17.00
  16  -5  -6   82.79   14.40
 -11  16  -6   48.40   23.50
  11 -16   6   84.89   19.60
   5  11   6   71.29   15.70
  17  -6  -6  306.77   27.00
 -11  17  -6  318.47   36.00
   6  11   6  235.48   26.90
  11 -17   6  286.17   30.50
 -11  18  -6   19.20   22.10
  18  -7  -6   31.80   14.20
  18  -7  -6   38.90   14.40
   7  11   6    6.10   15.00
  11 -18   6   22.50   18.10
 -11  19  -6   90.69   23.90
  19  -8  -6   66.99   17.30
  19  -8  -6   90.69   17.90
   8  11   6   92.19   19.30
  11 -19   6   98.59   20.60
   7 -19   6   15.90   13.70
  18 -12  -6   88.39   19.00
  -6  18  -6  123.59   20.80
   6 -18   6  120.79   16.90
  12   6   6  100.79   19.00
  17 -12  -6   67.79   16.30
  -5  17  -6   29.20   16.80
  12   5   6   41.80   15.30
   5 -17   6   50.79   12.50
  16 -12  -6   46.60   15.00
  -4  16  -6   27.60   16.40
  12   4   6   32.50   14.20
   4 -16   6   24.20   10.60
  15 -12  -6   27.40   13.90
  -3  15  -6   16.00   15.90
  12   3   6   12.20   13.00
  14 -12  -6  127.79   17.90
  -2  14  -6  112.39   19.50
  12   2   6  142.29   17.80
  -1  13  -6   76.99   17.00
  13 -12  -6  105.19   16.00
  12   1   6  105.79   15.60
   0  12  -6   45.10   12.90
  12 -12  -6   27.80   17.40
  12 -12  -6   38.40   12.20
  12   0   6   21.50   11.80
  11 -12  -6   64.49   13.40
  11 -12  -6   61.89   18.10
   1  11  -6   75.89   11.90
  12  -1   6   48.20   12.50
  12  -1   6   67.29   15.40
  10 -12  -6  442.06   37.60
  10 -12  -6  467.55   33.40
 -10  12   6  309.67   34.30
  12  -2   6  355.76   35.10
  12  -2   6  358.86   33.20
   9 -12  -6  343.87   28.40
   9 -12  -6  309.67   31.00
  12  -3   6  310.57   29.00
  -9  12   6  285.47   29.50
  12  -3   6  292.07   31.20
   8 -12  -6    7.00   14.20
   8 -12  -6   -6.60    9.70
 -12   4  -6   -2.20   11.70
  12  -4   6    6.60   10.10
  -8  12   6   -0.80   13.70
  12  -4   6    8.60   13.40
   7 -12  -6   56.89   14.70
 -12   5  -6   80.79   14.70
   7 -12  -6   68.39   12.40
  12  -5   6   69.59   12.40
  -7  12   6   84.59   16.30
  12  -5   6   82.59   16.20
   6 -12  -6  316.07   29.90
   6 -12  -6  313.57   27.90
 -12   6  -6  284.97   28.60
  -6  12   6  351.06   30.10
  12  -6   6  324.27   28.70
  12  -6   6  306.57   31.60
 -12   7  -6   88.29   16.00
   5 -12  -6  109.49   17.00
   5 -12  -6   90.19   12.20
  12  -7   6   35.40   14.40
  -5  12   6   50.59   15.20
  12  -7   6   76.19   12.90
 -12   8  -6    2.10   13.70
   4 -12  -6   -0.40   12.70
   4 -12  -6   18.50    9.20
  -4  12   6   16.50   13.10
  12  -8   6    3.20   14.30
  12  -8   6  -12.40    9.10
   3 -12  -6  270.67   29.00
   3 -12  -6  310.27   27.90
 -12   9  -6  316.37   29.60
  12  -9   6  312.77   30.00
  12  -9   6  259.97   26.60
  -3  12   6  295.27   27.60
   2 -12  -6  418.86   36.10
 -12  10  -6  429.96   40.50
  -2  12   6  389.06   36.30
  12 -10   6  389.66   33.20
  12 -10   6  394.26   38.50
 -12  11  -6   81.29   19.50
  11   1  -6   63.89    9.30
   1 -12  -6   76.49   15.80
  12 -11   6   80.09   18.10
  -1  12   6   47.60   14.00
   0 -12  -6   16.00   13.90
 -12  12  -6   28.90   19.50
  12   0  -6   34.60    8.60
  12 -12   6   19.00   16.30
   0  12   6   44.10   13.50
  -1 -12  -6  116.39   18.00
  13  -1  -6   90.59   12.40
 -12  13  -6   87.69   23.30
   1  12   6   85.09   15.50
  12 -13   6   74.89   19.40
  -2 -12  -6   91.79   19.00
 -12  14  -6  162.68   27.30
  14  -2  -6  183.38   16.30
   2  12   6  123.49   18.30
  12 -14   6  153.18   23.00
 -12  15  -6   -0.90   21.70
  15  -3  -6    8.90   10.80
   3  12   6    6.50   13.20
  12 -15   6   21.60   17.20
  16  -4  -6   24.50   12.20
 -12  16  -6   46.30   22.80
   4  12   6   27.10   14.30
  12 -16   6   18.60   18.00
 -12  17  -6   27.90   23.00
  17  -5  -6   49.70   13.60
   5  12   6   41.60   15.80
  12 -17   6   55.09   19.10
  18  -6  -6  100.09   17.10
 -12  18  -6  104.09   25.90
   6  12   6  128.59   19.70
  12 -18   6  120.29   22.40
  19  -7  -6   -1.80   14.10
  12 -19   6   19.60   19.00
  -5  18  -6   37.80   16.40
  18 -13  -6   36.00   16.60
  13   5   6   52.49   16.50
  17 -13  -6   31.60   15.80
  -4  17  -6    1.40   14.50
  13   4   6   -6.80   13.70
  16 -13  -6    2.00   14.10
  -3  16  -6   16.00   14.60
  13   3   6   -7.70   13.30
  15 -13  -6  513.55   42.30
  -2  15  -6  498.85   41.40
  13   2   6  419.36   40.40
  -1  14  -6  439.06   37.70
  14 -13  -6  377.16   37.70
  13   1   6  429.06   37.20
  13 -13  -6  854.11   62.79
   0  13  -6  758.32   62.29
  13 -13  -6  830.52   66.99
  13   0   6  874.11   62.59
   1  12  -6   92.49   14.90
  12 -13  -6   95.39   15.50
  12 -13  -6  115.49   21.70
  13  -1   6   57.79   14.30
  11 -13  -6   11.40   11.30
  11 -13  -6    6.20   16.20
  13  -2   6   26.10   15.40
  13  -2   6   16.70   11.20
  10 -13  -6  606.34   45.80
  10 -13  -6  575.94   49.60
 -10  13   6  493.95   48.70
  13  -3   6  609.04   48.50
  13  -3   6  608.64   45.70
   9 -13  -6  271.87   27.20
   9 -13  -6  266.97   23.00
  -9  13   6  207.78   26.00
  13  -4   6  246.28   26.20
  13  -4   6  191.28   22.00
   8 -13  -6  165.68   18.50
   8 -13  -6  181.08   22.90
 -13   5  -6  175.78   21.30
  13  -5   6  212.68   23.30
  13  -5   6  159.78   18.40
  -8  13   6  166.08   22.50
 -13   6  -6  207.48   24.20
   7 -13  -6  208.08   20.70
   7 -13  -6  212.88   25.00
  -7  13   6  226.68   25.00
  13  -6   6  242.88   25.40
  13  -6   6  214.08   21.20
   6 -13  -6  224.28   20.70
   6 -13  -6  238.78   24.90
 -13   7  -6  242.88   24.90
  13  -7   6  268.67   26.60
  -6  13   6  207.38   24.20
  13  -7   6  161.48   20.70
   5 -13  -6  188.68   18.20
 -13   8  -6  184.18   23.40
   5 -13  -6  197.48   22.10
  -5  13   6  167.18   21.60
  13  -8   6  165.68   18.60
  13  -8   6  150.48   22.80
 -13   9  -6  233.08   27.50
   4 -13  -6  196.48   24.60
  13  -9   6  245.08   27.00
  -4  13   6  334.67   27.30
  13  -9   6  252.47   22.90
 -13  10  -6  634.64   53.29
   3 -13  -6  565.64   48.20
  13 -10   6  630.44   50.99
  -3  13   6  566.84   47.90
  13 -10   6  592.64   46.00
 -13  11  -6   31.40   19.10
   2 -13  -6   20.80   13.70
  13 -11   6  -11.50   15.60
  -2  13   6   12.20   13.60
  12   1  -6  101.29   11.60
 -13  12  -6   99.09   23.40
   1 -13  -6   77.09   16.80
  13 -12   6  113.19   21.00
  -1  13   6   74.29   16.70
 -13  13  -6  795.22   69.59
   0 -13  -6  737.83   62.09
  13   0  -6  828.72   58.29
  13 -13   6  820.82   65.39
   0  13   6  852.61   61.99
  14  -1  -6  436.76   34.10
  -1 -13  -6  355.76   39.10
 -13  14  -6  396.56   42.50
   1  13   6  450.85   38.10
  13 -14   6  447.66   42.50
 -13  15  -6  310.47   42.20
  15  -2  -6  404.06   35.00
  -2 -13  -6  408.26   38.50
   2  13   6  474.05   38.80
  13 -15   6  515.95   43.50
 -13  16  -6  -30.40   22.40
  16  -3  -6   14.70   11.30
  13 -16   6   -6.60   17.90
   3  13   6  -11.70   13.40
  17  -4  -6   22.60   12.80
 -13  17  -6   20.90   22.50
   4  13   6   26.30   15.30
  13 -17   6    4.50   18.00
  18  -5  -6   41.70   13.80
 -13  18  -6   -0.80   21.90
   5  13   6   30.80   15.80
  13 -18   6   39.10   19.00
  -4  18  -6  -10.60   14.20
  18 -14  -6   -8.90   15.40
  14   4   6    1.30   15.20
  17 -14  -6   23.20   16.20
  -3  17  -6   11.20   14.00
  14   3   6   24.80   14.60
  -2  16  -6   73.99   15.80
  16 -14  -6   85.59   17.50
  14   2   6   81.49   16.50
  15 -14  -6  143.39   19.60
  -1  15  -6  119.69   17.60
  14   1   6  152.38   19.60
  14 -14  -6   -6.50   13.00
   0  14  -6   13.20   11.80
  14   0   6    5.40   12.70
  13 -14  -6  427.16   38.20
  13 -14  -6  456.65   43.60
  14  -1   6  396.96   37.70
  12 -14  -6  175.48   19.60
  12 -14  -6  190.78   25.60
  14  -2   6  124.59   18.40
  11 -14  -6  148.69   19.10
  11 -14  -6  185.88   24.90
  14  -3   6  172.38   22.70
  14  -3   6  152.18   19.10
  10 -14  -6   -3.60   16.50
  10 -14  -6   20.70   11.80
  14  -4   6   21.90   12.20
 -10  14   6   -8.90   15.60
  14  -4   6   14.10   14.60
   9 -14  -6   12.70   16.40
   9 -14  -6   16.50   11.40
  14  -5   6   -6.30   15.10
  14  -5   6   19.90   11.50
  -9  14   6  -19.00   15.20
   8 -14  -6  102.79   19.50
   8 -14  -6   93.69   14.80
  -8  14   6   78.49   19.90
  14  -6   6  124.69   15.90
  14  -6   6  105.89   18.80
 -14   7  -6  117.19   20.70
   7 -14  -6  125.99   20.00
   7 -14  -6  100.29   14.70
  14  -7   6   80.99   19.60
  -7  14   6  125.09   20.70
  14  -7   6  106.09   15.90
   6 -14  -6  143.69   20.10
 -14   8  -6  126.29   22.00
  14  -8   6  107.49   16.30
  14  -8   6  123.29   21.10
  -6  14   6  128.19   20.50
 -14   9  -6   14.50   18.30
   5 -14  -6    6.20   13.90
  14  -9   6   -6.90   10.70
  14  -9   6   -8.30   16.00
  -5  14   6   -3.40   15.20
 -14  10  -6    6.20   19.50
   4 -14  -6   -7.70   13.70
  14 -10   6    5.90   16.90
  14 -10   6    1.90   11.00
  -4  14   6    2.50   14.70
 -14  11  -6  154.98   26.60
   3 -14  -6  232.18   24.00
  14 -11   6  173.18   24.10
  -3  14   6  140.69   21.90
 -14  12  -6   98.99   25.80
   2 -14  -6  113.79   19.90
  -2  14   6  150.08   20.50
  14 -12   6  166.08   24.10
   1 -14  -6  443.56   40.20
 -14  13  -6  398.56   43.50
  -1  14   6  433.56   39.50
  14 -13   6  404.66   43.10
   0 -14  -6   -1.30   14.20
  14   0  -6   17.10    9.10
 -14  14  -6   -9.50   22.70
   0  14   6   -6.70   13.60
  14 -14   6    9.60   19.10
  15  -1  -6  138.69   16.00
 -14  15  -6  164.58   29.40
  -1 -14  -6  128.09   21.40
  14 -15   6  179.68   25.50
   1  14   6  117.59   19.70
  16  -2  -6   96.89   14.30
 -14  16  -6   85.39   25.90
  14 -16   6   63.79   21.20
   2  14   6   68.69   17.50
 -14  17  -6   10.90   23.90
  17  -3  -6   16.30   12.30
   3  14   6   30.70   15.60
  14 -17   6   19.60   20.30
 -14  18  -6   24.80   23.00
  18  -4  -6   -4.10   12.30
  14 -18   6    0.40   18.90
   4  14   6   -7.60   15.30
  17 -15  -6  199.38   25.20
  -2  17  -6  215.58   23.00
  15   2   6  227.68   24.40
  16 -15  -6   54.19   16.40
  -1  16  -6   43.60   13.40
  15   1   6   59.19   16.20
  15 -15  -6  416.46   40.00
  15   0   6  445.36   39.70
  14 -15  -6  133.09   18.80
  14 -15  -6  144.19   26.20
  15  -1   6  124.69   18.90
  13 -15  -6  467.85   44.80
  13 -15  -6  354.16   38.80
  15  -2   6  501.05   39.40
  12 -15  -6  -20.90   17.40
  12 -15  -6   20.90   13.40
  15  -3   6    3.70   12.60
  11 -15  -6  105.29   22.50
  11 -15  -6   92.39   16.50
  15  -4   6  157.38   17.80
 -11  15   6   67.89   22.00
  10 -15  -6  163.08   24.10
  10 -15  -6  174.28   19.10
  15  -5   6  146.39   22.70
  15  -5   6  167.68   19.30
 -10  15   6   88.09   22.50
   9 -15  -6   27.50   12.20
   9 -15  -6    6.10   17.50
  -9  15   6    0.40   17.80
  15  -6   6   33.10   13.10
  15  -6   6   12.80   16.40
   8 -15  -6  102.19   20.70
   8 -15  -6   88.59   14.50
  -8  15   6   89.89   20.70
  15  -7   6   75.89   15.10
  15  -7   6   65.29   19.40
 -15   8  -6   66.59   21.60
   7 -15  -6   47.60   17.50
  15  -8   6   85.09   19.90
  -7  15   6   96.39   20.30
  15  -8   6  102.79   15.50
   6 -15  -6   10.00   15.30
 -15   9  -6   16.40   20.10
  15  -9   6   28.80   12.30
  15  -9   6   11.20   17.70
  -6  15   6   11.40   16.60
 -15  10  -6  127.89   25.70
   5 -15  -6  163.48   22.80
  15 -10   6  159.18   19.00
  15 -10   6  150.98   24.10
  -5  15   6  166.48   22.70
   4 -15  -6  142.39   20.20
 -15  11  -6  141.69   26.10
  15 -11   6   76.19   20.00
  15 -11   6   53.09   15.00
  -4  15   6  120.19   19.70
 -15  12  -6   -0.50   22.30
   3 -15  -6    4.20   14.60
  15 -12   6  -10.00   17.50
  -3  15   6   23.90   16.10
   2 -15  -6  512.15   43.80
 -15  13  -6  490.15   48.00
  -2  15   6  488.45   43.70
  15 -13   6  429.96   44.90
   1 -15  -6  106.49   20.10
 -15  14  -6  169.58   28.90
  15 -14   6  114.39   23.80
  -1  15   6  130.49   20.20
 -15  15  -6  451.85   45.40
   0 -15  -6  487.65   41.60
  15 -15   6  386.16   42.10
   0  15   6  430.66   41.20
  -1 -15  -6   59.49   18.20
  16  -1  -6   72.19   12.90
 -15  16  -6   66.89   24.70
  15 -16   6   41.30   20.80
   1  15   6   30.70   16.40
 -15  17  -6  281.17   35.90
  17  -2  -6  280.87   25.70
   2  15   6  282.57   28.90
  15 -17   6  273.87   34.00
  -1  17  -6  213.68   23.40
  17 -16  -6  145.99   22.40
  16   1   6  152.78   22.10
  16 -16  -6    3.80   15.40
  16   0   6    5.00   15.10
  15 -16  -6   49.40   16.20
  15 -16  -6   48.20   34.60
  16  -1   6   59.09   16.20
  14 -16  -6  104.19   24.30
  14 -16  -6   65.59   16.80
  16  -2   6   68.99   16.70
  13 -16  -6  -22.70   12.80
  13 -16  -6  -10.60   18.80
  16  -3   6  -23.60   12.80
  12 -16  -6   14.90   13.50
  12 -16  -6    7.10   19.80
  16  -4   6   17.30   13.50
  11 -16  -6   78.09   15.90
  11 -16  -6  106.49   22.50
  16  -5   6  111.39   16.80
 -11  16   6   93.89   21.90
  10 -16  -6  122.79   17.00
  10 -16  -6  116.99   23.00
  16  -6   6  117.69   22.40
 -10  16   6   67.69   21.90
  16  -6   6  130.29   18.20
   9 -16  -6   69.49   19.90
  16  -7   6   53.29   14.70
  16  -7   6   78.39   19.70
  -9  16   6   23.90   19.30
   8 -16  -6    1.90   16.40
  16  -8   6    2.20   17.20
  16  -8   6   -0.10   12.60
  -8  16   6   -8.80   17.70
   7 -16  -6   58.09   18.90
  -7  16   6   77.69   21.10
  16  -9   6   62.89   19.80
  16  -9   6   78.99   15.20
   6 -16  -6  110.59   20.50
 -16  10  -6  133.19   27.20
  16 -10   6   81.89   21.10
  16 -10   6   75.19   16.00
  -6  16   6  107.99   21.60
 -16  11  -6   56.19   24.10
   5 -16  -6   61.49   18.40
  -5  16   6  109.49   20.40
  16 -11   6   93.09   22.50
  16 -11   6   64.29   15.20
   4 -16  -6   20.10   16.90
 -16  12  -6   41.20   24.20
  -4  16   6   49.10   18.40
  16 -12   6   24.50   19.30
   3 -16  -6   16.00   16.10
 -16  13  -6   11.10   23.50
  -3  16   6   18.90   16.70
  16 -13   6   -8.00   18.30
 -16  14  -6   15.00   23.50
   2 -16  -6   52.09   18.10
  -2  16   6   71.89   18.90
  16 -14   6   71.09   22.60
   1 -16  -6   55.29   18.20
 -16  15  -6   47.50   25.00
  16 -15   6   59.29   23.10
  -1  16   6   52.29   17.90
 -16  16  -6  -24.00   22.10
   0 -16  -6    0.40   16.60
  16 -16   6  -13.00   20.90
   0  16   6    4.50   15.60
  -1 -16  -6  181.48   24.50
 -16  17  -6  190.88   29.60
  16 -17   6  155.58   28.50
   1  16   6  167.58   23.40
  16 -17  -6  150.28   22.80
  17  -1   6  218.88   24.00
  15 -17  -6  298.77   28.30
  15 -17  -6  291.07   34.60
  17  -2   6  219.08   26.80
  14 -17  -6   40.50   21.80
  14 -17  -6   29.20   15.80
  17  -3   6   28.10   15.00
  13 -17  -6   12.50   21.30
  13 -17  -6   38.30   15.20
  17  -4   6   26.00   14.40
  12 -17  -6   64.19   21.50
  12 -17  -6   77.89   17.10
  17  -5   6   23.10   14.60
  11 -17  -6  287.77   33.50
 -11  17   6  244.18   31.60
  17  -6   6  303.37   28.20
  10 -17  -6   73.69   21.60
  17  -7   6  117.09   34.80
 -10  17   6   72.29   21.90
  17  -7   6   68.49   16.40
   9 -17  -6  421.16   41.00
  17  -8   6  328.57   38.00
  17  -8   6  416.26   36.60
  -9  17   6  348.27   38.00
   8 -17  -6  384.76   41.50
  17  -9   6  428.16   41.10
  17  -9   6  402.96   37.60
  -8  17   6  406.26   40.00
   7 -17  -6   81.79   20.50
  17 -10   6   70.39   15.90
  -7  17   6   95.79   21.70
  17 -10   6   53.09   21.20
   6 -17  -6  253.57   29.90
  17 -11   6  245.28   31.30
  -6  17   6  283.67   30.40
  17 -11   6  233.18   25.50
   5 -17  -6   29.20   18.00
  -5  17   6   29.60   19.40
  17 -12   6   59.39   21.90
   4 -17  -6   20.40   17.00
 -17  13  -6    5.50   22.50
  17 -13   6   39.30   21.90
  -4  17   6   10.60   18.30
   3 -17  -6   25.70   18.00
 -17  14  -6   12.90   22.70
  -3  17   6   -0.30   17.50
  17 -14   6   38.90   22.40
 -17  15  -6  278.07   34.00
   2 -17  -6  192.18   27.80
  17 -15   6  317.57   34.60
  -2  17   6  235.58   28.30
   1 -17  -6  170.78   25.20
 -17  16  -6  235.38   30.90
  -1  17   6  146.09   23.80
  17 -16   6  204.88   29.90
  14 -18  -6   -5.80   20.80
  18  -4   6   -1.00   15.00
  13 -18  -6   58.39   22.40
  18  -5   6   23.50   15.60
  12 -18  -6  111.89   25.00
  18  -6   6  111.59   19.40
  11 -18  -6   40.70   21.30
 -11  18   6   21.70   20.70
  18  -7   6   39.20   15.90
  10 -18  -6   34.00   19.90
 -10  18   6    0.30   21.10
  18  -8   6   34.40   15.10
   9 -18  -6   44.90   21.10
  18  -9   6   64.19   16.00
  18  -9   6   95.99   23.20
  -9  18   6   30.20   21.30
   8 -18  -6   49.50   20.10
  18 -10   6   -3.20   20.00
  -8  18   6   17.70   20.40
  18 -10   6   21.40   14.70
   7 -18  -6   22.30   18.70
  18 -11   6    4.90   14.40
  18 -11   6   13.90   20.80
  -7  18   6   44.40   20.40
   6 -18  -6  110.19   22.10
  -6  18   6   93.69   23.00
  18 -12   6  113.39   25.00
   5 -18  -6   16.80   18.50
  18 -13   6   27.50   21.80
  -5  18   6   30.00   19.30
   4 -18  -6   -1.00   17.70
  18 -14   6   16.30   22.40
  -4  18   6   13.40   18.70
  12 -19  -6    7.40   21.40
  19  -7   6   -0.30   15.30
  11 -19  -6  107.79   25.20
  19  -8   6   70.29   17.90
 -11  19   6  107.29   25.00
  10 -19  -6  177.18   28.10
  19  -9   6  166.68   22.00
 -10  19   6  175.28   28.40
   9 -19  -6  165.68   26.60
  19 -10   6  152.98   21.60
  -9  19   6  147.69   27.20
   8 -19  -6   26.50   19.90
  -8  19   6  119.69   24.10
  19 -11   6   88.19   24.70
  19 -11   6   82.39   17.90
   7 -19  -6    1.40   19.20
  19 -12   6    4.20   22.00
   0   0  -7    9.20    5.70
   0   0   7   -5.60    4.50
   0   1  -7  103.69   10.20
   1  -1  -7   98.59   10.30
   1  -1  -7  106.19   11.60
  -1   0  -7   90.49   10.50
   1   0   7  121.79   11.20
  -1   1   7  105.09    9.80
   1   0  -7  108.59   10.30
  -1   1  -7  105.39   10.50
   0  -1  -7   99.09   10.60
   1  -1   7  101.19    9.70
   0   1   7  108.99   10.10
   2  -1  -7    4.40    5.50
  -1   2  -7    5.90    5.40
   2  -1  -7    9.90    6.70
  -1  -1  -7    6.50    6.30
   1   1   7    5.10    5.50
  -1   3  -7  273.77   20.00
   3  -2  -7  237.38   20.10
   3  -2  -7  245.58   20.60
  -2  -1  -7  195.88   20.30
   1  -3   7  271.57   20.80
   2   1   7  268.07   20.50
   0   2  -7   14.50    5.70
  -2   0  -7   25.80    6.70
   2  -2  -7   37.30    6.70
   2  -2  -7    8.90    7.20
   2   0   7   15.00    6.00
  -2   2   7   20.30    5.30
   1  -2  -7   15.70    7.40
   1   1  -7    5.00    5.00
  -2   1  -7   -3.30    5.80
   1  -2  -7    4.60    5.90
   2  -1   7    3.30    5.20
  -1   2   7    6.00    5.30
   0  -2  -7    4.00    6.20
  -2   2  -7   13.30    6.10
   0  -2  -7   15.00    7.90
   2   0  -7   25.20    5.80
   2  -2   7   22.20    5.20
   0   2   7   22.60    6.30
  -1  -2  -7  259.87   21.60
   3  -1  -7  260.77   21.20
   3  -1  -7  270.67   20.60
  -2   3  -7  261.77   20.90
   1   2   7  253.87   21.20
   2  -3   7  245.48   22.10
   4  -2  -7  579.84   42.80
  -2  -2  -7  585.24   43.40
   4  -2  -7  619.74   43.40
  -2   4  -7  552.04   42.70
   2   2   7  608.54   43.40
   2  -4   7  636.54   43.80
   5  -3  -7  415.96   29.60
  -3  -2  -7  400.46   29.90
  -2   5  -7  386.06   29.00
   5  -3  -7  404.86   30.00
   3   2   7  342.87   29.70
   2  -5   7  373.86   29.80
  -3  -1  -7 1274.97   97.19
   4  -3  -7 1431.36   96.99
   4  -3  -7 1386.56   97.49
  -1   4  -7 1382.66   96.59
   1  -4   7 1463.65   97.29
   3   1   7 1449.15   97.29
   0   3  -7    1.40    5.00
  -3   0  -7   -7.20    6.40
   3  -3  -7    2.60    6.00
   3  -3  -7    0.70    6.80
   3   0   7    1.20    6.00
   0  -3   7    0.20    6.20
  -3   3   7    4.60    5.00
  -3   1  -7  191.68   19.90
   2  -3  -7  279.77   19.90
   1   2  -7  231.78   18.70
   2  -3  -7  243.98   20.70
  -2   3   7  260.87   19.40
   3  -1   7  221.98   19.40
   1  -3  -7  274.77   21.80
   2   1  -7  270.87   20.50
  -3   2  -7  287.97   21.70
   1  -3  -7  263.87   22.70
  -1   3   7  238.38   21.10
   3  -2   7  261.27   21.00
   3  -2   7  257.67   22.80
  -3   3  -7    2.00    6.00
   0  -3  -7    1.40    8.20
   3   0  -7   -4.10    4.80
   0  -3  -7    6.90    6.60
   3  -3   7   -3.40    4.80
   3  -3   7   -1.20    7.30
   0   3   7    7.20    6.30
  -1  -3  -7 1397.26   98.59
  -1  -3  -7 1409.26   97.89
  -3   4  -7 1451.45   97.59
   4  -1  -7 1493.65   97.29
   1   3   7 1374.46   97.79
   3  -4   7 1311.97   98.29
  -3   5  -7  384.36   28.90
   5  -2  -7  387.56   28.60
  -2  -3  -7  308.57   29.20
   2   3   7  406.16   29.60
   3  -5   7  416.66   30.30
  -3  -3  -7  616.14   46.90
   6  -3  -7  697.73   46.60
  -3   6  -7  649.83   46.50
   3   3   7  628.74   47.40
   3  -6   7  638.34   47.40
  -4  -3  -7 1828.52  132.09
   7  -4  -7 1899.91  131.79
  -3   7  -7 1906.91  131.59
   4   3   7 1992.00  132.39
   3  -7   7 1915.41  132.39
  -2   6  -7    8.70    5.90
  -4  -2  -7   10.70    7.50
   6  -4  -7   12.00    6.90
   6  -4  -7   16.20    7.50
   4   2   7    7.90    7.70
   2  -6   7    1.70    7.40
  -1   5  -7  181.98   15.70
   5  -4  -7  155.38   17.40
  -4  -1  -7  181.58   17.90
   5  -4  -7  193.38   17.10
   4   1   7  192.18   17.80
   1  -5   7  186.08   16.90
   0   4  -7 1793.62  118.79
   4  -4  -7 1605.54  119.99
   4  -4  -7 1667.63  119.49
  -4   0  -7 1723.13  119.69
   4   0   7 1794.42  119.69
   0  -4   7 1757.72  119.29
  -4   4   7 1749.22  118.99
   3  -4  -7 1424.76   98.19
   3  -4  -7 1510.45   97.59
  -4   1  -7 1294.27   97.39
   1   3  -7 1578.34   96.69
  -1  -3   7 1402.96   97.09
   4  -1   7 1254.17   97.19
  -3   4   7 1344.27   96.99
   2  -4  -7  576.14   44.00
   2  -4  -7  591.44   43.10
  -4   2  -7  574.84   43.30
   2   2  -7  591.44   42.10
   4  -2   7  590.44   42.90
  -2   4   7  619.94   43.00
   4  -2   7  624.04   44.60
   1  -4  -7 1466.35   99.89
   3   1  -7 1358.26   98.09
  -4   3  -7 1203.58   98.69
   1  -4  -7 1390.86   98.89
   4  -3   7 1589.34   99.99
   4  -3   7 1490.15   98.59
  -1   4   7 1496.15   98.99
   0  -4  -7 1646.94  119.79
   4   0  -7 1709.13  118.29
  -4   4  -7 1916.61  119.09
   0  -4  -7 1921.51  119.39
   4  -4   7 1643.34  119.59
   0   4   7 1566.24  118.89
   4  -4   7 1655.13  118.39
  -1  -4  -7  206.78   18.50
  -4   5  -7  185.18   17.90
   5  -1  -7  214.08   16.90
  -1  -4  -7  229.78   20.80
   1   4   7  185.78   17.50
   4  -5   7  179.98   19.20
  -2  -4  -7    2.10    6.90
   6  -2  -7    6.20    5.90
  -4   6  -7    0.40    6.70
   4  -6   7   17.20    9.00
   2   4   7   -3.30    7.50
  -3  -4  -7 1813.32  125.89
  -4   7  -7 1781.52  125.59
   7  -3  -7 1878.31  125.49
   4  -7   7 1829.42  126.49
   3   4   7 1774.92  126.09
   8  -4  -7  515.35   39.80
  -4   8  -7  514.65   39.90
  -4  -4  -7  528.85   40.30
   4   4   7  560.74   41.20
   4  -8   7  569.84   41.20
   9  -5  -7  258.27   21.40
  -5  -4  -7  169.78   18.90
  -4   9  -7  213.68   20.90
   5   4   7  254.27   22.60
   4  -9   7  241.38   22.10
  -5  -3  -7 1040.40   79.39
  -3   8  -7 1141.69   78.89
   8  -5  -7 1139.59   79.49
   5   3   7 1162.48   79.79
   3  -8   7 1144.09   79.69
   7  -5  -7  372.76   36.40
  -5  -2  -7  398.36   32.10
   7  -5  -7  421.26   32.00
  -2   7  -7  435.76   30.80
   2  -7   7  415.06   31.90
   5   2   7  409.36   32.30
   6  -5  -7 1466.95  102.19
  -1   6  -7 1462.25  101.29
  -5  -1  -7 1236.78  101.99
   6  -5  -7 1421.36  102.79
   1  -6   7 1742.93  102.29
   5  -5  -7  284.27   24.40
   5  -5  -7  264.27   25.00
   0   5  -7  305.57   22.50
  -5   0  -7  328.47   24.70
  -5   5   7  296.47   24.60
   5   0   7  303.87   24.40
   0  -5   7  297.87   23.40
   4  -5  -7  178.18   18.60
   1   4  -7  194.08   15.20
   4  -5  -7  196.38   17.70
  -5   1  -7  197.98   17.80
  -4   5   7  177.48   16.90
  -1  -4   7  195.98   16.00
   5  -1   7  143.69   17.40
   5  -1   7  184.48   17.40
  -5   2  -7  330.57   29.70
   3  -5  -7  386.06   30.10
   3  -5  -7  388.26   30.90
   2   3  -7  372.16   28.00
   5  -2   7  398.36   29.80
  -2  -3   7  412.46   28.60
   5  -2   7  405.46   31.00
  -3   5   7  405.96   29.60
   2  -5  -7  401.86   32.90
   3   2  -7  433.56   30.00
   2  -5  -7  437.86   31.90
   5  -3   7  381.96   31.10
  -2   5   7  405.26   31.60
   5  -3   7  432.56   33.10
   4   1  -7  174.58   14.70
   1  -5  -7  180.98   17.60
   1  -5  -7  176.58   17.20
  -5   4  -7  137.79   15.20
  -1   5   7  167.28   16.80
   5  -4   7  191.78   15.90
   5  -4   7  200.28   18.90
   0  -5  -7  336.27   25.70
   5   0  -7  303.97   23.40
   0  -5  -7  270.87   26.70
  -5   5  -7  326.07   25.40
   0   5   7  285.37   25.60
   5  -5   7  312.67   24.40
   5  -5   7  338.47   26.80
  -1  -5  -7 1626.34  116.59
   6  -1  -7 1708.63  114.59
  -1  -5  -7 1769.92  115.49
  -5   6  -7 1779.02  115.59
   1   5   7 1555.54  115.49
   5  -6   7 1531.45  116.19
  -5   7  -7  432.86   33.30
  -2  -5  -7  383.86   33.20
   7  -2  -7  461.05   32.50
  -2  -5  -7  442.96   35.40
   2   5   7  428.16   33.80
   5  -7   7  451.95   34.60
  -5   8  -7 1081.59   78.19
  -3  -5  -7 1176.78   78.39
   8  -3  -7 1181.88   77.99
   5  -8   7 1038.10   79.29
   3   5   7 1059.99   78.59
  -5   9  -7  262.47   21.70
  -4  -5  -7  249.38   21.40
   9  -4  -7  244.08   20.80
   4   5   7  186.28   20.10
   5  -9   7  195.98   21.40
  -5  10  -7   24.90    9.90
  -5  -5  -7   21.40    8.60
  10  -5  -7   22.50    9.30
   5 -10   7   16.00   10.90
   5   5   7   30.80   10.60
  -5  11  -7  227.58   19.20
  11  -6  -7  181.08   18.00
   5 -11   7  147.49   18.50
   6   5   7  150.68   17.80
  -6  -4  -7   16.70    8.70
  -4  10  -7    9.50    8.80
  10  -6  -7    8.00    9.40
   4 -10   7   21.40   10.40
   6   4   7   20.30   10.30
  -6  -3  -7   59.19   10.10
  -3   9  -7   43.80    8.80
   9  -6  -7   49.99   10.20
   6   3   7   40.70   10.50
   3  -9   7   30.10    9.80
   8  -6  -7   53.49    9.90
  -2   8  -7   66.59    8.50
  -6  -2  -7   38.10    9.30
   6   2   7   50.59   10.20
   2  -8   7   34.50    9.30
  -1   7  -7  330.17   26.40
   7  -6  -7  317.57   28.10
  -6  -1  -7  282.77   27.80
   7  -6  -7  339.77   29.40
   6   1   7  449.46   29.70
   1  -7   7  406.46   27.70
   0   6  -7   27.80    5.80
   6  -6  -7   43.00   10.50
   6  -6  -7   29.60    8.30
  -6   0  -7   42.20    8.90
   6   0   7   37.00    8.90
   0  -6   7   31.30    7.20
   6   0   7   15.20    9.90
   5  -6  -7 1807.62  115.29
   5  -6  -7 1809.92  114.39
   1   5  -7 1722.53  112.89
  -6   1  -7 1583.74  114.29
  -5   6   7 1517.55  113.69
  -1  -5   7 1557.24  113.19
   6  -1   7 1646.64  114.19
   6  -1   7 1523.25  115.29
   4  -6  -7    6.00    7.30
  -6   2  -7    6.80    7.60
   2   4  -7    6.10    4.40
   4  -6  -7   15.00    8.80
  -4   6   7   18.20    7.40
  -2  -4   7   11.10    5.10
   6  -2   7   15.10    7.40
   6  -2   7   14.10   10.10
   3   3  -7  660.23   45.40
   3  -6  -7  665.93   47.90
   3  -6  -7  609.04   47.10
  -6   3  -7  650.13   47.30
  -3  -3   7  631.84   45.50
  -3   6   7  661.53   47.20
   6  -3   7  656.33   48.70
   6  -3   7  655.23   47.10
   2  -6  -7   11.90    9.40
   2  -6  -7    3.40    7.60
  -6   4  -7   -0.50    7.50
   4   2  -7   11.20    4.60
   6  -4   7    0.20    6.60
  -2   6   7   13.80    7.70
   6  -4   7  -10.90    9.30
   1  -6  -7 1658.33  111.99
   5   1  -7 1539.15  110.49
  -6   5  -7 1415.16  111.79
   1  -6  -7 1477.75  112.79
  -1   6   7 1676.63  112.19
   6  -5   7 1756.82  113.19
   6  -5   7 1760.82  111.49
   6   0  -7   33.80    6.20
  -6   6  -7   29.80    8.50
   0  -6  -7   27.90    8.30
   0  -6  -7   28.40   10.90
   6  -6   7   42.60   11.20
   0   6   7   15.60    8.70
  -1  -6  -7  410.76   33.00
   7  -1  -7  410.96   29.40
  -1  -6  -7  375.66   30.70
  -6   7  -7  432.16   31.20
   6  -7   7  346.17   32.00
   1   6   7  361.06   31.40
  -6   8  -7   38.50    9.80
   8  -2  -7   27.80    8.00
  -2  -6  -7   49.10    9.40
  -2  -6  -7   43.40   12.10
   2   6   7   58.49   10.80
   6  -8   7   65.29   12.80
   9  -3  -7   28.40    8.50
  -3  -6  -7   25.20    9.00
  -6   9  -7   33.40   10.00
   6  -9   7   46.10   12.30
   3   6   7   53.39   10.60
  -4  -6  -7   12.90    8.40
  10  -4  -7   24.90    9.10
  -6  10  -7   23.30   10.00
   6 -10   7   11.50   10.80
   4   6   7    5.40    9.80
  -6  11  -7  170.28   19.30
  11  -5  -7  159.48   17.80
   6 -11   7  209.48   20.60
   5   6   7  183.28   18.80
  12  -6  -7   10.90   10.70
  -6  12  -7   30.10   13.00
   6   6   7   16.00   11.00
   6 -12   7   17.00   12.30
  -6  13  -7  364.76   32.70
  13  -7  -7  390.86   32.20
   6 -13   7  356.06   32.60
   7   6   7  304.57   32.10
  -5  12  -7  312.07   29.30
  12  -7  -7  323.17   28.30
   5 -12   7  258.77   27.10
   7   5   7  298.47   27.70
  11  -7  -7    2.60    9.90
  -4  11  -7    5.00    9.90
   7   4   7   23.20   10.40
   4 -11   7    6.10    9.70
  10  -7  -7  776.62   51.89
  -7  -3  -7  727.63   51.19
  -3  10  -7  723.13   50.59
   7   3   7  642.74   51.79
   3 -10   7  609.34   50.89
   9  -7  -7  255.67   23.70
  -7  -2  -7  277.17   23.90
  -2   9  -7  246.08   21.70
   2  -9   7  254.77   22.60
   7   2   7  254.17   24.40
   8  -7  -7  682.73   56.29
  -7  -1  -7  798.42   55.29
  -1   8  -7  796.62   53.59
   8  -7  -7  763.72   55.19
   7   1   7  662.23   56.09
   7   1   7  834.42   55.89
   1  -8   7  752.72   53.99
   7  -7  -7  120.89   14.90
  -7   0  -7  148.29   15.50
   7  -7  -7  171.08   18.10
   0   7  -7  161.78   13.80
   7   0   7  191.08   16.50
   0  -7   7  131.29   14.50
   7   0   7  156.18   18.30
   6  -7  -7  389.06   30.80
  -7   1  -7  415.06   29.90
   6  -7  -7  448.26   29.80
   1   6  -7  426.96   26.50
   7  -1   7  321.77   29.30
  -1  -6   7  320.67   26.80
  -6   7   7  313.37   28.60
   7  -1   7  258.27   30.90
  -7   2  -7  417.36   34.20
   2   5  -7  450.05   31.10
   5  -7  -7  441.96   35.00
   5  -7  -7  430.26   33.80
  -2  -5   7  443.46   31.30
   7  -2   7  484.85   35.20
   7  -2   7  399.06   33.60
  -5   7   7  400.86   33.40
   3   4  -7 1914.51  127.29
  -7   3  -7 1705.83  129.09
   4  -7  -7 2038.10  130.29
   4  -7  -7 2092.19  129.29
   7  -3   7 1738.33  129.99
  -3  -4   7 1773.02  127.19
  -4   7   7 1799.62  128.89
   7  -3   7 1842.22  128.89
   3  -7  -7 1908.61  129.79
   4   3  -7 1845.22  128.09
   3  -7  -7 1852.71  130.79
  -7   4  -7 1842.62  129.89
  -3   7   7 1932.61  129.89
   7  -4   7 1843.82  129.49
  -4  -3   7 1862.01  127.99
   7  -4   7 1896.41  131.09
   5   2  -7  419.46   30.30
   2  -7  -7  418.36   32.70
   2  -7  -7  406.26   33.70
  -7   5  -7  403.06   33.00
  -2   7   7  417.96   33.40
   7  -5   7  456.25   34.90
   7  -5   7  446.56   32.40
   6   1  -7  315.07   25.90
   1  -7  -7  343.67   28.60
  -7   6  -7  317.27   28.80
   1  -7  -7  297.37   30.20
  -1   7   7  402.86   29.50
   7  -6   7  431.26   31.30
   7  -6   7  397.66   27.80
   0  -7  -7  128.59   14.60
   7   0  -7  162.08   14.00
   0  -7  -7  115.89   16.70
  -7   7  -7  168.38   16.00
   7  -7   7  177.88   17.80
   0   7   7  130.19   15.40
  -1  -7  -7  735.13   54.19
  -7   8  -7  678.63   54.79
   8  -1  -7  714.23   53.19
  -1  -7  -7  830.42   56.49
   1   7   7  748.73   54.99
   7  -8   7  793.32   56.39
  -7   9  -7  253.47   26.10
  -2  -7  -7  344.77   28.10
   9  -2  -7  281.67   23.60
  -2  -7  -7  296.87   24.80
   2   7   7  264.67   26.20
   7  -9   7  264.07   27.30
  10  -3  -7  608.84   47.10
  -7  10  -7  664.93   49.00
  -3  -7  -7  549.95   46.90
   7 -10   7  763.82   50.19
   3   7   7  650.93   48.70
  -7  11  -7    4.00   11.60
  11  -4  -7   13.20    9.40
   4   7   7    5.40   10.30
   7 -11   7   31.40   12.90
  12  -5  -7  290.77   28.10
  -7  12  -7  261.17   27.90
   7 -12   7  365.86   31.00
   5   7   7  327.87   28.70
  -7  13  -7  305.37   31.70
  13  -6  -7  332.27   31.00
   6   7   7  348.67   31.70
   7 -13   7  365.76   33.50
  -7  14  -7  424.26   38.20
  14  -7  -7  399.46   35.20
   7   7   7  370.46   35.90
   7 -14   7  410.66   36.10
  15  -8  -7  624.64   47.50
  -7  15  -7  585.04   54.29
   8   7   7  570.24   47.70
   7 -15   7  557.24   47.50
  -6  14  -7  177.38   23.30
  14  -8  -7  142.59   18.40
   6 -14   7  156.58   18.90
   8   6   7  127.89   18.40
  13  -8  -7  270.87   24.60
  -5  13  -7  281.07   26.60
   8   5   7  237.38   24.40
   5 -13   7  256.07   26.10
  12  -8  -7  328.87   31.00
  -4  12  -7  316.27   31.40
   8   4   7  363.46   31.70
   4 -12   7  370.16   29.90
  -3  11  -7 1046.60   70.29
  11  -8  -7 1006.90   70.99
   8   3   7  955.30   72.69
   8   3   7  958.00   70.99
   3 -11   7  925.21   69.79
  10  -8  -7   24.60   10.30
  -2  10  -7   23.30    8.40
  -8  -2  -7   25.90    9.70
   8   2   7   34.40   13.90
   8   2   7   12.50   10.60
   2 -10   7   11.00    8.20
  -8  -1  -7  456.45   35.70
  -1   9  -7  446.86   33.60
   9  -8  -7  382.86   35.70
   9  -8  -7  429.56   38.00
   8   1   7  498.55   36.70
   1  -9   7  449.95   33.80
   8   1   7  512.05   38.70
   8  -8  -7  995.80   71.59
   8  -8  -7 1000.80   73.69
  -8   0  -7 1008.60   71.69
   0   8  -7  993.50   69.69
   8   0   7 1001.00   73.29
   8   0   7 1010.90   71.99
   0  -8   7  999.30   69.79
   1   7  -7  769.42   53.09
   7  -8  -7  688.43   55.29
  -8   1  -7  878.01   55.99
   7  -8  -7  710.63   56.89
  -1  -7   7  758.12   52.99
   8  -1   7  747.83   57.29
   8  -1   7  776.12   55.69
   6  -8  -7   52.19   10.00
   6  -8  -7   46.80   12.70
   2   6  -7   30.90    5.70
  -8   2  -7   51.39   10.70
   8  -2   7   43.30   10.00
  -6   8   7   58.89   10.00
   8  -2   7   82.69   13.80
  -8   3  -7 1091.69   79.89
   3   5  -7 1145.69   77.39
   5  -8  -7 1162.68   79.79
   5  -8  -7 1165.48   81.09
   8  -3   7 1070.79   79.49
   8  -3   7 1115.79   81.09
  -5   8   7 1124.09   79.79
   4   4  -7  498.75   35.50
  -8   4  -7  541.25   38.90
   4  -8  -7  492.65   38.70
   4  -8  -7  533.15   40.20
   8  -4   7  496.85   38.30
  -4   8   7  472.05   38.90
   8  -4   7  517.15   40.90
   3  -8  -7 1150.18   86.49
   3  -8  -7 1224.98   85.29
  -8   5  -7 1331.07   85.89
   5   3  -7 1109.99   83.19
   8  -5   7 1313.97   87.19
  -3   8   7 1193.58   85.59
   8  -5   7 1209.58   85.09
  -8   6  -7   30.10   10.10
   6   2  -7   51.69    6.30
   2  -8  -7   54.59   12.70
   2  -8  -7   57.09    9.70
   8  -6   7   36.00    9.10
   8  -6   7   24.00   12.10
  -2   8   7   33.10   10.00
   1  -8  -7  715.93   58.79
   7   1  -7  818.72   55.99
   1  -8  -7  815.12   57.79
  -8   7  -7  810.82   58.59
   8  -7   7  800.42   58.69
   8  -7   7  833.92   59.79
  -1   8   7  786.52   58.49
   0  -8  -7 1056.19   73.69
   0  -8  -7 1002.70   71.79
  -8   8  -7  964.50   72.39
   8   0  -7  998.40   70.39
   0   8   7 1024.80   72.59
   8  -8   7 1001.60   73.89
  -1  -8  -7  476.35   38.60
  -1  -8  -7  419.36   35.50
  -8   9  -7  493.25   37.60
   9  -1  -7  444.66   34.60
   1   8   7  456.55   37.30
   8  -9   7  496.55   39.00
  -2  -8  -7   42.80    9.50
  -2  -8  -7   21.20   13.00
  10  -2  -7   20.90    8.70
  -8  10  -7    9.90   11.60
   8 -10   7   23.30   13.10
   2   8   7   20.90   10.80
  11  -3  -7  949.01   68.79
  -8  11  -7  906.01   70.89
  11  -3  -7  933.81   68.69
   3   8   7 1046.10   70.19
   8 -11   7  960.60   71.09
  12  -4  -7  360.66   30.20
  -8  12  -7  365.66   34.80
  12  -4  -7  347.77   30.30
   8 -12   7  320.57   34.10
   4   8   7  362.06   32.00
  13  -5  -7  257.27   24.40
  -8  13  -7  273.87   28.30
   8 -13   7  297.87   30.30
   5   8   7  255.27   25.10
  14  -6  -7  151.48   18.90
  -8  14  -7  125.79   24.20
   6   8   7  191.38   20.00
   8 -14   7  163.28   21.10
  15  -7  -7  628.14   47.90
  -8  15  -7  552.04   52.09
   7   8   7  595.04   47.80
   8 -15   7  589.14   49.10
  -8  16  -7  -48.10   20.80
  16  -8  -7    0.20   13.20
   8 -16   7  -10.70   13.60
   8   8   7   -5.90   13.30
  17  -9  -7   -2.80   13.80
  -8  17  -7   -5.10   21.60
   9   8   7  -10.50   14.80
   8 -17   7   14.70   14.70
  -7  16  -7   33.00   22.50
  16  -9  -7   65.69   15.80
   7 -16   7   81.09   16.00
   9   7   7   69.09   16.00
  15  -9  -7   31.00   13.60
  -6  15  -7   36.70   20.10
   6 -15   7   11.70   12.60
   9   6   7   10.50   13.60
  -5  14  -7  524.65   48.00
  14  -9  -7  478.45   43.70
   5 -14   7  528.25   42.50
   9   5   7  619.44   44.40
  13  -9  -7   31.30   12.70
  -4  13  -7   18.40   13.70
   4 -13   7   13.60   10.10
   9   4   7    1.80   11.90
  12  -9  -7  494.55   40.90
  -3  12  -7  480.05   40.40
   9   3   7  499.95   42.90
   9   3   7  514.95   41.10
   3 -12   7  518.45   38.50
  -2  11  -7   54.59   10.80
  11  -9  -7   43.90   12.20
   9   2   7   32.70   14.70
   2 -11   7   55.99    9.50
   9   2   7   36.10   11.90
  -1  10  -7  320.67   25.40
  10  -9  -7  264.47   27.40
  -9  -1  -7  333.77   28.50
   9   1   7  318.37   28.20
   1 -10   7  302.77   24.40
   9   1   7  331.07   30.80
   9  -9  -7   12.80    9.80
  -9   0  -7    1.10    9.20
   9  -9  -7    5.50   12.90
   0   9  -7    7.10    6.30
   9   0   7   24.80   13.20
   9   0   7    7.00    9.90
   0  -9   7   11.40    5.70
   8  -9  -7  490.55   37.00
   8  -9  -7  446.46   39.00
   1   8  -7  467.95   33.20
  -9   1  -7  465.75   36.60
   9  -1   7  467.45   38.70
   9  -1   7  416.76   36.70
   2   7  -7  252.67   19.00
   7  -9  -7  264.47   24.20
  -9   2  -7  250.17   24.10
   7  -9  -7  248.28   26.40
  -7   9   7  239.48   24.10
   9  -2   7  261.57   26.40
   9  -2   7  231.88   23.20
   3   6  -7   38.20    5.40
   6  -9  -7   42.70   10.10
   6  -9  -7   35.70   12.80
  -9   3  -7   39.40   10.60
   9  -3   7   42.80   13.20
   9  -3   7   69.09   11.00
  -6   9   7   44.10   11.10
  -9   4  -7  181.38   20.00
   4   5  -7  247.38   16.30
   5  -9  -7  239.68   21.40
   5  -9  -7  220.78   22.40
   9  -4   7  192.98   22.30
   9  -4   7  174.68   19.10
  -5   9   7  222.78   20.80
  -9   5  -7  200.38   20.60
   4  -9  -7  259.07   23.50
   4  -9  -7  262.17   22.10
   5   4  -7  205.38   16.70
   9  -5   7  219.88   22.80
  -4   9   7  222.58   21.10
   9  -5   7  263.17   21.70
   6   3  -7   46.90    5.70
   3  -9  -7   49.90   10.00
  -9   6  -7   49.60   11.20
   3  -9  -7   40.10   12.60
  -3   9   7   44.40   11.10
   9  -6   7   51.29   13.60
   9  -6   7   24.00    9.30
   2  -9  -7  220.08   24.30
   2  -9  -7  285.27   23.00
   7   2  -7  248.58   19.50
  -9   7  -7  211.28   22.50
  -2   9   7  293.07   25.10
   9  -7   7  252.07   26.50
   9  -7   7  257.27   22.70
   1  -9  -7  404.46   34.70
  -9   8  -7  447.46   36.90
   1  -9  -7  394.96   36.20
   8   1  -7  464.35   32.60
  -1   9   7  447.06   35.90
   9  -8   7  499.15   38.50
   9   0  -7    2.30    6.90
   0  -9  -7   15.60   12.10
   0  -9  -7   -6.10    8.30
   9   0  -7   11.50    7.10
  -9   9  -7   -6.20   10.60
   9  -9   7   16.60   13.00
   0   9   7    5.60   10.60
  -9  10  -7  311.27   30.80
  -1  -9  -7  319.67   30.40
  10  -1  -7  297.67   25.70
  -1  -9  -7  317.77   27.10
  10  -1  -7  287.07   25.80
   1   9   7  323.37   29.50
   9 -10   7  364.76   32.90
  -2  -9  -7   30.40   14.10
  -9  11  -7   44.40   14.30
  11  -2  -7   40.10   10.20
  11  -2  -7   62.89   10.80
   2   9   7   58.09   12.90
   9 -11   7   61.39   15.80
  -9  12  -7  534.65   43.80
  12  -3  -7  472.45   38.50
  12  -3  -7  486.65   38.70
   3   9   7  476.35   39.80
   9 -12   7  501.95   42.40
  13  -4  -7    5.50   10.50
  -9  13  -7   -1.20   16.10
  13  -4  -7   16.30   10.60
   4   9   7   14.40   12.60
   9 -13   7    9.60   14.60
  -9  14  -7  476.85   45.00
  14  -5  -7  548.45   40.80
  14  -5  -7  489.75   40.60
   5   9   7  455.05   41.50
   9 -14   7  486.85   44.00
  15  -6  -7   31.30   13.10
  -9  15  -7   61.99   22.20
  15  -6  -7   14.30   12.60
   6   9   7    8.80   13.40
   9 -15   7   15.10   15.70
  -9  16  -7   90.29   24.80
  16  -7  -7   67.39   15.80
   7   9   7   60.99   16.40
   9 -16   7   58.49   17.20
  -9  17  -7    5.20   22.50
  17  -8  -7   26.00   14.80
   8   9   7   -6.90   14.30
   9 -17   7   10.10   15.90
  -9  18  -7   51.29   23.20
  18  -9  -7   46.60   16.50
   9   9   7   19.40   16.30
   9 -18   7   32.70   16.50
  -8  18  -7  117.89   25.00
  18 -10  -7  134.59   19.90
   8 -18   7   89.49   18.00
  10   8   7  106.99   19.30
  -7  17  -7   14.30   21.00
  17 -10  -7   51.29   16.20
  10   7   7   28.50   16.00
   7 -17   7   49.00   14.20
  -6  16  -7  165.98   26.70
  16 -10  -7  212.88   22.20
   6 -16   7  160.78   19.20
  10   6   7  138.39   20.70
  -5  15  -7  152.88   25.10
  15 -10  -7  177.78   20.80
   5 -15   7  159.08   18.20
  10   5   7  161.78   20.20
  14 -10  -7  495.55   40.60
  -4  14  -7  503.95   44.30
   4 -14   7  466.65   37.20
  10   4   7  433.06   40.20
  -3  13  -7   42.70   14.90
  13 -10  -7   61.49   14.20
  10   3   7   60.29   14.30
   3 -13   7   63.59   10.50
  -2  12  -7   61.59   12.90
  12 -10  -7   72.29   14.30
   2 -12   7   78.69   10.20
  10   2   7   88.19   14.20
  10   2   7   56.69   16.00
  -1  11  -7   80.69   12.10
  11 -10  -7   71.49   13.80
  10   1   7   93.79   14.20
  10   1   7  104.09   16.60
   0  10  -7    1.10    7.30
  10 -10  -7    9.10   10.50
  10 -10  -7    8.30   14.80
  10   0   7   22.60   10.90
  10   0   7   -6.30   13.30
 -10   1  -7  342.37   28.00
   9 -10  -7  239.88   25.80
   9 -10  -7  325.07   31.60
   1   9  -7  300.97   23.70
  10  -1   7  324.57   30.70
  10  -1   7  341.87   28.70
 -10   2  -7   26.40   10.80
   2   8  -7   32.30    5.70
   8 -10  -7   23.40   13.60
   8 -10  -7   31.70   10.90
  -8  10   7   30.50   14.20
  10  -2   7   17.90   10.20
  10  -2   7   19.20   13.20
   7 -10  -7  723.33   54.39
 -10   3  -7  700.23   52.49
   7 -10  -7  669.43   52.19
  10  -3   7  678.93   52.19
  10  -3   7  715.13   54.49
  -7  10   7  711.23   53.09
   6 -10  -7   10.70   12.60
 -10   4  -7   12.60   10.30
   6 -10  -7    9.50    9.50
  10  -4   7   -4.30    8.90
  10  -4   7    0.30   12.40
  -6  10   7    0.00   10.80
   5 -10  -7   34.60   10.20
 -10   5  -7   26.50   10.90
   5 -10  -7   24.70   12.60
  -5  10   7   21.20   11.50
  10  -5   7   19.10    9.30
  10  -5   7   30.60   13.50
   4 -10  -7   -5.80   11.50
 -10   6  -7   24.40   11.40
   4 -10  -7    6.80    9.00
  -4  10   7   26.00   11.70
  10  -6   7   22.90   13.10
  10  -6   7    9.20    9.30
   3 -10  -7  729.13   48.80
   3 -10  -7  604.04   50.49
 -10   7  -7  671.53   50.39
  -3  10   7  633.14   50.09
  10  -7   7  614.34   51.19
  10  -7   7  654.73   48.60
   2 -10  -7   22.10    9.30
   8   2  -7   18.30    6.30
   8   2  -7   19.70    6.30
   2 -10  -7   18.40   12.70
 -10   8  -7   32.10   12.40
  10  -8   7   16.30   13.30
  -2  10   7   29.00   11.70
  10  -8   7   19.40    9.60
   1 -10  -7  328.37   30.20
 -10   9  -7  278.27   27.20
   9   1  -7  307.67   23.90
   9   1  -7  299.37   23.70
   1 -10  -7  330.97   26.60
  -1  10   7  303.77   28.80
  10  -9   7  227.38   28.10
   0 -10  -7   32.40   13.60
  10   0  -7   22.70    8.10
 -10  10  -7    8.00   13.20
  10 -10   7   -3.30   13.20
   0  10   7   23.70   12.00
  11  -1  -7  100.79   12.50
  11  -1  -7  115.69   12.60
  -1 -10  -7  105.79   16.70
 -10  11  -7  111.19   18.10
   1  10   7   92.29   15.10
  10 -11   7   65.79   16.90
 -10  12  -7   80.69   18.20
  12  -2  -7   73.79   12.10
  12  -2  -7   74.19   12.30
  -2 -10  -7  110.39   17.00
   2  10   7   89.59   15.10
  10 -12   7   54.09   17.10
  13  -3  -7   81.09   12.80
  13  -3  -7   55.79   12.40
 -10  13  -7   59.49   19.30
   3  10   7   51.99   14.40
  10 -13   7   50.89   17.40
 -10  14  -7  415.66   42.50
  14  -4  -7  449.66   37.90
  14  -4  -7  463.85   38.40
  10 -14   7  489.45   42.10
   4  10   7  468.05   40.00
  15  -5  -7  140.29   18.50
 -10  15  -7  163.88   27.60
  15  -5  -7  133.79   18.10
   5  10   7  161.78   19.70
  10 -15   7  140.89   21.80
  16  -6  -7  160.08   20.20
  16  -6  -7  137.39   19.90
 -10  16  -7  148.89   29.70
   6  10   7  189.68   21.70
  10 -16   7  187.18   23.80
 -10  17  -7   35.60   24.80
  17  -7  -7   43.40   15.30
  10 -17   7   29.80   16.90
   7  10   7   50.39   16.70
 -10  18  -7  138.19   27.50
  18  -8  -7  136.29   19.70
  10 -18   7   86.99   20.70
   8  10   7  127.49   20.40
  -7  18  -7   80.19   22.50
  18 -11  -7   87.69   18.60
   7 -18   7   77.29   16.20
  11   7   7   93.19   18.50
  -6  17  -7  101.29   22.60
  17 -11  -7   64.39   17.40
   6 -17   7   89.89   16.10
  11   6   7   62.19   17.30
  16 -11  -7  142.89   19.00
  -5  16  -7   87.99   22.40
  11   5   7   78.29   17.20
   5 -16   7   72.09   14.00
  -4  15  -7  488.65   45.30
  15 -11  -7  510.85   44.40
   4 -15   7  555.44   40.50
  11   4   7  477.35   44.00
  14 -11  -7  380.66   38.60
  -3  14  -7  398.66   38.50
  11   3   7  529.45   39.00
  13 -11  -7   36.10   13.30
  -2  13  -7   25.30   14.30
  11   2   7   26.90   13.00
  12 -11  -7  114.79   18.30
  -1  12  -7  156.38   17.70
  11   1   7  191.88   19.50
  11   1   7  195.68   22.80
  11 -11  -7   67.79   18.40
  11 -11  -7   54.79   13.40
   0  11  -7   77.99   11.20
  11   0   7   48.20   16.30
  11   0   7   58.39   13.20
   1  10  -7   94.99   10.50
  10 -11  -7   83.19   18.50
  10 -11  -7   97.69   14.60
  11  -1   7   70.09   16.20
  11  -1   7   69.69   13.80
   9 -11  -7   34.70   16.20
   9 -11  -7   62.19   12.90
 -11   2  -7   60.39   13.00
  11  -2   7   66.99   12.70
  11  -2   7   61.09   15.50
   8 -11  -7  865.71   65.79
 -11   3  -7 1015.00   66.59
   8 -11  -7  813.12   67.99
  11  -3   7  857.41   65.39
  11  -3   7  892.11   66.89
  -8  11   7  958.40   67.29
   7 -11  -7   10.10    9.90
   7 -11  -7    0.40   13.80
 -11   4  -7   20.90   11.50
  11  -4   7   -4.30    9.50
  -7  11   7   16.60   12.80
  11  -4   7   12.20   13.20
   6 -11  -7  120.69   16.80
 -11   5  -7  157.38   18.60
   6 -11  -7  156.28   20.60
  11  -5   7  172.48   20.40
  11  -5   7  217.78   18.40
  -6  11   7  200.88   20.70
 -11   6  -7  224.28   20.80
   5 -11  -7  164.08   20.30
   5 -11  -7  210.28   18.20
  11  -6   7  150.88   20.90
  -5  11   7  169.38   20.20
  11  -6   7  132.99   17.30
   4 -11  -7    7.30   12.90
 -11   7  -7   13.10   12.40
   4 -11  -7   12.70    9.90
  11  -7   7   30.10   12.60
  11  -7   7   17.70    9.80
  -4  11   7   17.90   12.40
   3 -11  -7  888.01   71.69
   3 -11  -7 1041.90   74.49
 -11   8  -7 1132.99   74.69
  11  -8   7 1063.99   72.19
  11  -8   7  877.41   74.59
  -3  11   7 1038.90   73.89
 -11   9  -7   40.00   14.50
   2 -11  -7   43.90   11.10
   2 -11  -7   67.69   15.80
  11  -9   7   43.30   15.90
  -2  11   7   51.79   13.70
   1 -11  -7   61.49   15.60
  10   1  -7   85.19   10.70
 -11  10  -7   88.29   17.40
  11 -10   7   99.69   18.30
  -1  11   7   80.09   15.00
  11   0  -7   61.49   10.40
 -11  11  -7   54.29   17.90
   0 -11  -7   45.10   15.50
   0  11   7   67.49   14.70
  11 -11   7   86.49   18.30
 -11  12  -7  201.08   24.50
  12  -1  -7  163.58   16.70
  -1 -11  -7  223.38   22.70
   1  11   7  146.69   19.30
  11 -12   7  121.59   21.30
  13  -2  -7   17.20   10.60
 -11  13  -7   26.20   19.40
  -2 -11  -7   36.70   15.40
  11 -13   7   18.20   16.40
   2  11   7   21.80   13.80
  14  -3  -7  507.65   37.50
 -11  14  -7  434.56   43.40
  14  -3  -7  478.45   37.50
  11 -14   7  386.26   42.00
   3  11   7  406.86   39.50
  15  -4  -7  505.55   43.00
 -11  15  -7  537.65   50.59
  15  -4  -7  497.75   42.90
   4  11   7  576.94   45.10
  11 -15   7  530.75   46.90
  16  -5  -7  107.99   16.90
 -11  16  -7  103.39   27.00
  16  -5  -7   95.49   16.30
   5  11   7   80.99   17.70
  11 -16   7  110.79   20.80
 -11  17  -7   62.69   26.90
  17  -6  -7   80.29   16.10
  17  -6  -7   49.90   15.60
  11 -17   7   72.19   19.80
   6  11   7   55.69   16.70
 -11  18  -7  104.29   27.20
  18  -7  -7   93.99   17.60
  11 -18   7   93.99   20.60
   7  11   7   74.39   18.10
  -6  18  -7  124.79   22.50
  18 -12  -7   94.29   19.80
  12   6   7  113.49   20.00
  -5  17  -7  122.69   23.00
  17 -12  -7  150.58   21.10
  12   5   7  134.99   20.30
  -4  16  -7   51.39   19.30
  16 -12  -7   44.50   16.40
  12   4   7   46.40   15.60
  -3  15  -7   28.60   18.30
  15 -12  -7   50.19   15.20
  12   3   7   43.50   15.10
  14 -12  -7    7.40   13.20
  -2  14  -7   25.30   16.50
  12   2   7   15.10   13.80
  13 -12  -7  208.98   22.90
  -1  13  -7  220.48   23.00
  12   1   7  195.58   22.30
  12 -12  -7   30.90   13.10
   0  12  -7   -2.30   11.00
  12   0   7    5.00   12.60
  12   0   7   13.00   17.30
   1  11  -7  183.38   17.10
  11 -12  -7  209.18   25.60
  11 -12  -7  153.88   19.70
  12  -1   7  187.58   23.40
  12  -1   7  176.88   20.00
  10 -12  -7   89.59   19.80
  10 -12  -7   65.09   14.30
  12  -2   7   86.99   17.50
  12  -2   7   73.79   14.00
   9 -12  -7  557.74   45.50
 -12   3  -7  543.85   43.00
   9 -12  -7  484.35   41.50
  12  -3   7  474.95   41.30
  12  -3   7  510.85   44.00
   8 -12  -7  421.66   36.40
 -12   4  -7  392.96   33.70
   8 -12  -7  338.07   32.10
  12  -4   7  365.06   35.30
  12  -4   7  320.87   31.70
  -8  12   7  351.16   35.20
   7 -12  -7  301.77   28.50
   7 -12  -7  269.57   30.60
 -12   5  -7  321.57   29.10
  -7  12   7  382.96   33.20
  12  -5   7  319.57   29.10
  12  -5   7  316.37   31.00
   6 -12  -7   15.60   13.90
   6 -12  -7   24.30   10.80
 -12   6  -7   32.30   13.70
  -6  12   7    5.60   13.90
  12  -6   7   31.90   11.00
  12  -6   7   15.50   14.00
 -12   7  -7  354.16   32.40
   5 -12  -7  281.17   29.10
   5 -12  -7  351.66   27.50
  12  -7   7  236.98   29.20
  -5  12   7  298.17   29.00
  12  -7   7  307.37   28.40
   4 -12  -7  342.37   34.70
   4 -12  -7  358.46   31.20
 -12   8  -7  368.86   36.30
  12  -8   7  348.37   31.60
  12  -8   7  370.96   36.40
  -4  12   7  434.76   34.90
   3 -12  -7  437.06   39.00
   3 -12  -7  488.25   42.40
 -12   9  -7  516.35   43.40
  12  -9   7  528.85   44.50
  12  -9   7  551.64   43.30
  -3  12   7  496.55   42.80
   2 -12  -7   75.49   16.80
 -12  10  -7   62.99   18.00
  -2  12   7   81.39   15.70
  12 -10   7   77.29   18.40
 -12  11  -7  140.49   23.50
   1 -12  -7  154.78   21.40
  12 -11   7  192.28   24.20
  -1  12   7  180.88   20.70
  12   0  -7    2.70    9.10
   0 -12  -7    5.40   13.80
 -12  12  -7   28.30   19.30
  12 -12   7    5.70   15.40
   0  12   7    5.70   13.40
  -1 -12  -7  217.48   25.70
 -12  13  -7  208.88   30.10
  13  -1  -7  246.98   21.50
   1  12   7  231.18   24.40
  12 -13   7  233.18   28.20
  -2 -12  -7    0.90   14.40
 -12  14  -7   14.60   21.80
  14  -2  -7    7.60   10.70
  12 -14   7   10.90   17.40
   2  12   7    5.10   14.00
  15  -3  -7   29.00   12.50
 -12  15  -7   22.10   23.20
  12 -15   7   19.50   17.80
   3  12   7   29.30   15.20
  16  -4  -7   41.50   13.70
 -12  16  -7   39.90   24.60
  16  -4  -7   36.80   13.60
  12 -16   7   58.39   19.80
   4  12   7   34.60   15.90
  17  -5  -7  150.18   19.50
  17  -5  -7  111.49   18.70
 -12  17  -7  169.08   30.10
   5  12   7  159.48   21.60
  12 -17   7  175.38   25.10
 -12  18  -7   59.99   26.20
  18  -6  -7  148.69   18.90
  18  -6  -7   90.29   17.70
   6  12   7   70.79   18.70
  12 -18   7  116.69   22.20
  -4  17  -7   34.50   17.70
  17 -13  -7   60.59   17.20
  13   4   7   38.10   16.80
  -3  16  -7   14.20   16.90
  16 -13  -7   29.60   16.10
  13   3   7   33.30   15.80
  15 -13  -7   45.00   15.20
  -2  15  -7   31.20   16.80
  13   2   7   21.90   14.50
  -1  14  -7    1.60   15.10
  14 -13  -7   10.60   13.40
  13   1   7   11.00   14.20
   0  13  -7  202.38   21.30
  13 -13  -7  159.58   20.50
  13   0   7  140.39   19.60
  12 -13  -7  311.57   30.90
  12 -13  -7  221.88   23.50
  13  -1   7  180.58   22.40
  11 -13  -7   19.90   18.10
  11 -13  -7   31.40   13.50
  13  -2   7   27.20   12.70
  13  -2   7   31.00   16.30
  10 -13  -7   62.79   19.30
  10 -13  -7   48.70   13.80
  13  -3   7   53.09   16.80
  13  -3   7   50.89   13.50
   9 -13  -7   31.10   12.20
   9 -13  -7   28.60   17.20
  13  -4   7   15.10   11.80
  -9  13   7   42.70   16.40
  13  -4   7   27.60   16.40
   8 -13  -7  255.67   24.60
   8 -13  -7  296.37   29.50
 -13   5  -7  324.17   27.80
  -8  13   7  248.58   27.80
  13  -5   7  284.67   28.50
  13  -5   7  219.68   24.00
   7 -13  -7  372.26   35.70
   7 -13  -7  331.07   31.60
 -13   6  -7  319.27   31.80
  13  -6   7  404.06   32.10
  -7  13   7  345.67   33.00
  13  -6   7  329.17   33.10
   6 -13  -7  384.06   36.20
   6 -13  -7  391.56   32.50
 -13   7  -7  416.06   37.60
  -6  13   7  331.57   33.90
  13  -7   7  327.67   32.90
  13  -7   7  401.16   37.40
 -13   8  -7  269.87   27.20
   5 -13  -7  262.07   25.10
   5 -13  -7  225.48   26.00
  13  -8   7  231.38   23.00
  -5  13   7  258.37   26.80
  13  -8   7  237.38   27.80
 -13   9  -7   25.60   16.70
   4 -13  -7   24.50   15.10
  13  -9   7   15.70   11.10
  13  -9   7   23.10   15.60
  -4  13   7   39.40   15.90
 -13  10  -7   54.29   18.80
   3 -13  -7   55.89   16.50
  -3  13   7   68.19   16.70
  13 -10   7   62.89   19.20
   2 -13  -7   40.40   16.00
 -13  11  -7   40.90   19.10
  13 -11   7   30.20   18.00
  -2  13   7   26.30   14.80
 -13  12  -7  192.68   30.40
   1 -13  -7  250.07   27.50
  13 -12   7  248.38   29.50
  -1  13   7  304.17   27.30
   0 -13  -7  188.18   23.40
  13   0  -7  175.58   17.90
 -13  13  -7  147.09   27.70
  13 -13   7  188.38   25.50
   0  13   7  161.48   21.60
  14  -1  -7    6.00   10.60
 -13  14  -7  -32.50   21.50
  -1 -13  -7   -7.20   14.70
  13 -14   7   27.20   18.50
   1  13   7   16.40   14.90
  15  -2  -7   48.70   12.70
 -13  15  -7   54.29   25.70
  13 -15   7   36.00   19.80
   2  13   7   39.40   15.70
  16  -3  -7   30.80   12.70
 -13  16  -7   29.80   25.40
   3  13   7   14.20   15.90
  13 -16   7   53.89   20.40
 -13  17  -7   33.10   26.40
  17  -4  -7   41.20   14.20
  17  -4  -7   27.50   13.80
   4  13   7   26.30   16.60
  13 -17   7   40.10   19.90
  -3  17  -7    4.30   15.20
  17 -14  -7   23.10   16.60
  14   3   7    0.20   15.40
  -2  16  -7   96.89   18.10
  16 -14  -7  112.89   19.00
  14   2   7   81.29   18.50
  -1  15  -7  185.68   20.40
  15 -14  -7  125.49   20.40
  14   1   7  116.69   19.30
  14 -14  -7   98.89   17.90
  14   0   7   86.89   17.20
  13 -14  -7    8.60   13.50
  14  -1   7    8.20   13.40
  12 -14  -7   -4.70   13.00
  12 -14  -7   -9.20   18.40
  14  -2   7   -7.70   13.10
  11 -14  -7  487.45   40.70
  11 -14  -7  544.15   46.20
  14  -3   7  442.66   40.70
  14  -3   7  429.26   43.30
  10 -14  -7  459.35   40.30
  10 -14  -7  480.35   44.70
  14  -4   7  533.75   43.70
  14  -4   7  419.66   40.20
   9 -14  -7  508.45   40.40
   9 -14  -7  540.95   45.10
  -9  14   7  429.36   42.10
  14  -5   7  416.86   40.00
  14  -5   7  499.35   43.70
   8 -14  -7  144.09   22.70
   8 -14  -7  150.68   18.10
 -14   6  -7  150.58   25.60
  -8  14   7  154.08   23.10
  14  -6   7  140.59   18.10
  14  -6   7  129.99   22.50
   7 -14  -7  390.46   39.30
 -14   7  -7  438.56   40.70
   7 -14  -7  416.16   34.80
  -7  14   7  430.96   38.10
  14  -7   7  367.96   39.70
  14  -7   7  378.16   35.80
 -14   8  -7  156.78   23.10
   6 -14  -7  173.68   23.20
   6 -14  -7  169.18   18.00
  14  -8   7  112.69   21.80
  14  -8   7  141.89   18.30
  -6  14   7  144.69   22.50
   5 -14  -7  536.65   44.90
 -14   9  -7  477.05   44.70
  -5  14   7  492.15   46.00
  14  -9   7  532.55   46.40
  14  -9   7  476.55   41.00
 -14  10  -7  484.65   44.90
   4 -14  -7  506.95   44.20
  14 -10   7  472.55   46.10
  -4  14   7  494.45   45.00
   3 -14  -7  384.46   41.60
 -14  11  -7  436.06   43.50
  14 -11   7  517.25   45.10
  -3  14   7  529.85   43.40
   2 -14  -7   -9.90   14.90
 -14  12  -7   11.30   21.60
  -2  14   7    3.50   15.60
  14 -12   7   -1.10   17.50
   1 -14  -7   15.60   15.50
 -14  13  -7    5.30   23.20
  -1  14   7    3.10   14.60
  14 -13   7    5.80   18.70
   0 -14  -7   69.89   18.80
 -14  14  -7   91.09   26.70
  14 -14   7   93.29   22.30
   0  14   7   70.09   17.50
  15  -1  -7  182.38   18.40
 -14  15  -7  124.49   29.70
  -1 -14  -7  151.98   22.90
   1  14   7  144.59   21.30
  14 -15   7  136.79   26.10
 -14  16  -7   65.89   27.80
  16  -2  -7  103.79   15.80
  14 -16   7  124.29   24.00
   2  14   7   80.39   19.00
 -14  17  -7  -19.30   24.10
  17  -3  -7    5.00   12.70
  14 -17   7   -7.90   19.00
   3  14   7   -5.30   16.40
  16 -15  -7   94.99   19.40
  15   1   7   91.09   18.60
  15 -15  -7    2.10   15.20
  15   0   7    7.30   14.80
  14 -15  -7  209.68   23.50
  15  -1   7  167.78   22.50
  13 -15  -7   62.59   22.50
  13 -15  -7   43.80   15.90
  15  -2   7   50.79   15.40
  12 -15  -7   -1.50   19.70
  12 -15  -7   21.30   14.20
  15  -3   7   33.00   14.30
  11 -15  -7  536.85   44.80
  11 -15  -7  508.45   49.60
  15  -4   7  549.65   47.70
  15  -4   7  518.35   44.50
  10 -15  -7  141.99   19.20
  10 -15  -7  161.28   25.60
  15  -5   7  178.68   20.00
  15  -5   7  133.69   22.90
   9 -15  -7   24.70   17.80
   9 -15  -7   -8.50   12.30
  15  -6   7    3.40   13.10
  -9  15   7   24.70   18.70
  15  -6   7   11.00   17.00
   8 -15  -7  667.83   51.49
   8 -15  -7  604.14   46.50
  -8  15   7  588.04   52.39
  15  -7   7  566.44   47.40
  15  -7   7  470.35   50.09
   7 -15  -7  585.44   52.09
 -15   8  -7  671.43   55.89
  15  -8   7  595.94   49.20
  -7  15   7  636.74   54.49
  15  -8   7  619.24   53.59
   6 -15  -7   31.60   17.80
 -15   9  -7   12.90   20.00
  15  -9   7   41.40   18.30
  -6  15   7   22.60   18.20
  15  -9   7   19.30   12.80
   5 -15  -7  175.18   24.20
 -15  10  -7  152.18   26.90
  -5  15   7  145.49   23.30
  15 -10   7  167.88   25.80
 -15  11  -7  540.05   50.39
   4 -15  -7  497.35   47.30
  15 -11   7  580.24   50.79
  -4  15   7  576.64   49.30
 -15  12  -7   17.40   22.80
   3 -15  -7   37.40   17.50
  -3  15   7   14.40   16.80
  15 -12   7   16.00   19.50
   2 -15  -7   35.60   17.10
 -15  13  -7   18.90   24.80
  15 -13   7   38.20   20.60
  -2  15   7   65.99   17.90
 -15  14  -7  177.18   31.70
   1 -15  -7  144.79   23.40
  -1  15   7  172.48   22.70
  15 -14   7  168.08   27.80
 -15  15  -7   52.99   27.00
   0 -15  -7    6.60   16.30
  15 -15   7   38.90   21.30
   0  15   7   16.10   16.20
  -1 -15  -7   87.29   20.00
 -15  16  -7  130.79   29.70
   1  15   7   70.59   18.70
  15 -16   7   88.29   23.60
  16 -16  -7    7.50   16.20
  16   0   7   18.80   16.10
  15 -16  -7   97.59   19.20
  16  -1   7  104.09   18.80
  14 -16  -7   97.39   19.20
  14 -16  -7  119.09   34.00
  16  -2   7   98.89   18.70
  13 -16  -7   12.40   15.00
  13 -16  -7   17.40   21.90
  16  -3   7   31.30   15.20
  12 -16  -7   34.90   15.60
  12 -16  -7   80.49   23.20
  16  -4   7   27.20   14.90
  11 -16  -7   94.19   17.30
  11 -16  -7  152.98   25.40
  16  -5   7  101.19   18.00
  10 -16  -7  203.48   28.20
  10 -16  -7  165.18   21.30
 -10  16   7  151.08   34.30
  16  -6   7  227.08   27.30
  16  -6   7  190.68   22.30
   9 -16  -7   88.09   21.20
  16  -7   7   43.90   15.50
  -9  16   7   57.89   21.70
  16  -7   7   78.09   20.90
   8 -16  -7  -11.90   17.40
  16  -8   7   -3.70   18.10
  16  -8   7   13.40   13.70
  -8  16   7   -8.80   18.50
   7 -16  -7   77.89   20.40
  16  -9   7   80.09   22.80
  16  -9   7   99.89   18.70
  -7  16   7   72.69   21.60
 -16  10  -7  200.68   30.20
   6 -16  -7  227.28   26.40
  -6  16   7  158.28   25.10
  16 -10   7  138.29   20.00
  16 -10   7  183.18   28.00
 -16  11  -7  107.99   26.20
   5 -16  -7  103.79   21.10
  16 -11   7  110.99   23.40
  -5  16   7   84.59   20.80
   4 -16  -7   37.00   18.00
 -16  12  -7   58.89   25.50
  -4  16   7   -5.10   18.10
  16 -12   7   46.20   21.20
 -16  13  -7   46.30   25.90
   3 -16  -7   16.40   17.90
  -3  16   7   29.30   18.20
  16 -13   7   18.10   21.00
 -16  14  -7   97.09   28.60
   2 -16  -7  112.99   21.30
  16 -14   7   93.79   25.40
  -2  16   7  124.59   21.70
   1 -16  -7   83.29   20.80
 -16  15  -7  112.99   28.90
  -1  16   7  112.99   21.10
  16 -15   7  117.89   26.50
   0 -16  -7    6.50   18.10
 -16  16  -7   16.60   25.10
  16 -16   7   -3.70   21.40
   0  16   7  -22.60   16.60
  14 -17  -7    4.10   21.60
  14 -17  -7   21.50   15.90
  17  -3   7    4.40   14.70
  13 -17  -7   78.89   17.00
  13 -17  -7   31.50   22.20
  17  -4   7   39.90   16.10
  12 -17  -7  131.19   19.90
  12 -17  -7  144.79   26.20
  17  -5   7  146.79   20.50
  11 -17  -7   94.89   24.30
  17  -6   7   85.69   17.50
  10 -17  -7   34.60   21.30
  17  -7   7   34.70   20.40
  17  -7   7   64.29   16.20
 -10  17   7   16.80   21.30
   9 -17  -7   -9.40   18.40
  17  -8   7    2.40   19.10
  17  -8   7    6.90   14.50
  -9  17   7    4.50   20.00
   8 -17  -7    8.00   17.60
  -8  17   7   -1.20   19.70
  17  -9   7    6.10   20.00
  17  -9   7    4.80   13.50
   7 -17  -7   32.80   19.50
  17 -10   7   38.30   21.10
  -7  17   7   20.50   20.60
  17 -10   7   31.80   14.80
   6 -17  -7   68.19   20.10
  17 -11   7   70.49   22.70
  -6  17   7   96.19   22.00
   5 -17  -7  136.99   23.10
 -17  12  -7  140.89   31.10
  -5  17   7  131.79   24.10
  17 -12   7  123.49   25.80
   4 -17  -7   36.30   19.20
 -17  13  -7   49.60   26.00
  17 -13   7   50.19   23.20
  -4  17   7   17.40   19.20
   3 -17  -7   41.30   19.00
 -17  14  -7   45.50   25.90
  17 -14   7    3.40   21.30
  -3  17   7   20.60   18.90
  12 -18  -7  134.59   26.10
  18  -6   7   94.39   19.50
  11 -18  -7  108.59   23.80
  18  -7   7   65.79   18.00
  10 -18  -7   90.19   23.30
 -10  18   7   66.89   23.40
  18  -8   7   88.29   17.70
   9 -18  -7    9.50   19.50
  -9  18   7   -0.40   21.90
  18  -9   7   43.70   21.70
  18  -9   7   31.00   15.20
   8 -18  -7  127.59   23.90
  18 -10   7   76.89   17.70
  18 -10   7  115.99   25.00
  -8  18   7   87.09   25.00
   7 -18  -7   57.89   21.70
  18 -11   7  115.99   25.00
  -7  18   7   99.29   23.60
   6 -18  -7   77.49   21.80
  18 -12   7  129.59   25.80
  -6  18   7   88.29   23.30
   0   0  -8 1041.50   73.09
   0   1  -8   -1.10    6.10
   1  -1  -8    8.50    6.60
  -1   0  -8    0.20    6.50
   1   0   8    2.20    5.70
   0  -1  -8    2.80    6.80
   1   0  -8    6.90    6.30
  -1   1  -8    1.20    6.30
   0   1   8   -0.10    5.60
   2  -1  -8  218.18   18.20
  -1   2  -8  220.38   18.00
  -1  -1  -8  179.08   18.70
   1   1   8  189.18   17.90
  -2  -1  -8 1151.08   75.39
   3  -2  -8 1071.79   75.69
   3  -2  -8 1187.28   75.19
  -1   3  -8 1032.60   74.69
   2   1   8  989.00   74.89
   1  -3   8  993.20   75.39
  -2   0  -8  430.36   31.50
   2  -2  -8  432.06   31.90
   2  -2  -8  430.46   31.20
   0   2  -8  380.26   30.50
   2   0   8  372.46   30.80
   1   1  -8  177.88   17.40
   1  -2  -8  207.78   19.80
   1  -2  -8  205.48   18.20
  -2   1  -8  201.88   18.20
   2  -1   8  181.98   16.90
  -1   2   8  200.48   16.80
   2   0  -8  405.06   30.10
   0  -2  -8  364.36   30.90
  -2   2  -8  395.46   30.50
   0   2   8  430.76   30.30
  -2   3  -8  862.41   68.89
   3  -1  -8  944.01   68.89
  -1  -2  -8 1094.69   69.69
   2  -3   8 1022.40   70.19
   1   2   8 1004.50   69.19
  -2  -2  -8 4709.43  326.77
  -2   4  -8 4506.85  326.27
   4  -2  -8 5164.78  326.47
   2   2   8 4580.84  326.47
   2  -4   8 4925.51  327.07
  -2   5  -8  764.02   52.29
   5  -3  -8  715.73   52.49
  -3  -2  -8  752.42   53.19
   2  -5   8  667.93   52.89
   3   2   8  760.92   52.89
  -1   4  -8  432.26   31.70
   4  -3  -8  391.76   32.50
   4  -3  -8  416.66   32.20
  -3  -1  -8  391.46   32.60
   3   1   8  463.05   32.90
   1  -4   8  454.05   33.00
  -3   0  -8   40.50    9.00
   0   3  -8   65.89    8.10
   3  -3  -8   50.59   10.20
   3  -3  -8   48.80    8.90
   0  -3   8   54.19    9.20
   3   0   8   44.40    8.70
  -3   1  -8 1077.79   73.09
   2  -3  -8  981.90   73.89
   2  -3  -8 1019.20   72.89
   1   2  -8 1028.40   72.29
  -2   3   8 1076.69   72.99
   3  -1   8 1034.30   72.59
   2   1  -8 1044.80   72.99
  -3   2  -8 1205.48   73.99
   1  -3  -8 1086.19   74.79
   1  -3  -8 1034.90   73.69
   3  -2   8 1121.19   74.99
  -1   3   8  963.40   73.29
   3  -2   8  904.21   73.39
   0  -3  -8   53.89   11.20
   3   0  -8   57.99    8.20
  -3   3  -8   48.10    9.00
   0  -3  -8   71.49    9.90
   3  -3   8   55.49   11.10
   0   3   8   52.09    8.90
  -3   4  -8  484.45   32.80
   4  -1  -8  464.55   32.10
  -1  -3  -8  414.46   33.20
   3  -4   8  380.26   33.30
   1   3   8  391.96   32.70
  -2  -3  -8  691.03   51.19
  -3   5  -8  728.23   50.69
   5  -2  -8  640.64   50.29
   2   3   8  726.23   51.09
   3  -5   8  733.33   51.59
   6  -3  -8   80.89   10.60
  -3  -3  -8   81.29   11.50
  -3   6  -8   88.59   10.40
   3  -6   8   88.99   12.10
   3   3   8   71.19   11.30
   7  -4  -8  216.88   21.80
  -4  -3  -8  239.68   22.60
  -3   7  -8  232.68   21.40
   4   3   8  283.87   23.90
   3  -7   8  280.07   23.20
   6  -4  -8   73.49   10.90
  -4  -2  -8   80.49   11.50
  -2   6  -8   73.39    9.80
   4   2   8   98.59   12.00
   2  -6   8  100.09   11.80
  -4  -1  -8   82.09   10.90
  -1   5  -8   45.00    8.10
   5  -4  -8   63.89    9.70
   5  -4  -8   78.99   12.40
   1  -5   8   56.79    9.70
   4   1   8   66.09   10.40
   0   4  -8 1544.35   99.99
  -4   0  -8 1455.25  100.99
   4  -4  -8 1486.05  100.69
   4  -4  -8 1325.97  101.09
   4   0   8 1466.45  100.79
   0  -4   8 1390.26  100.39
   1   3  -8  466.55   33.50
  -4   1  -8  488.45   35.40
   3  -4  -8  514.25   35.00
   3  -4  -8  504.95   36.10
  -1  -3   8  417.96   34.10
   4  -1   8  379.06   34.20
   2  -4  -8 5394.06  348.67
  -4   2  -8 4925.11  347.77
   2   2  -8 5089.29  346.97
   2  -4  -8 5264.97  347.77
   4  -2   8 4913.31  347.37
  -2   4   8 4898.31  347.37
   4  -2   8 5135.69  348.77
   3   1  -8  408.96   29.60
   1  -4  -8  385.16   32.40
  -4   3  -8  301.77   30.60
   1  -4  -8  424.46   31.00
  -1   4   8  465.55   30.90
   4  -3   8  395.46   32.30
   4   0  -8 1456.85  100.29
   0  -4  -8 1563.74  102.39
   0  -4  -8 1374.56  101.19
  -4   4  -8 1412.26  100.89
   4  -4   8 1477.95  102.19
   0   4   8 1418.86  100.99
  -4   5  -8   49.80    9.10
   5  -1  -8   43.70    8.00
  -1  -4  -8   63.59    9.60
   4  -5   8   52.49   11.10
   1   4   8   38.20    9.60
  -2  -4  -8   82.09   11.50
   6  -2  -8   99.79   10.80
  -4   6  -8   96.59   11.10
   4  -6   8   68.39   12.70
   2   4   8   88.69   12.10
   7  -3  -8  280.57   23.30
  -3  -4  -8  303.77   24.30
  -4   7  -8  300.97   23.80
   4  -7   8  257.37   25.20
   3   4   8  228.68   24.20
   8  -4  -8   71.99   10.90
  -4  -4  -8   70.89   11.60
  -4   8  -8   74.99   11.00
   4   4   8   68.39   12.10
   4  -8   8   83.19   13.00
  -5  -4  -8  163.18   18.00
   9  -5  -8  196.48   18.40
  -4   9  -8  192.08   18.30
   4  -9   8  232.18   21.60
   5   4   8  191.28   19.20
  -3   8  -8  410.36   33.60
   8  -5  -8  442.76   34.50
  -5  -3  -8  506.75   34.80
   5   3   8  437.76   35.10
   3  -8   8  408.16   34.90
  -2   7  -8  154.28   14.30
   7  -5  -8  170.08   15.70
   5   2   8  131.89   15.70
   2  -7   8  153.58   15.60
  -1   6  -8  228.98   20.30
   6  -5  -8  261.47   22.30
  -5  -1  -8  239.58   22.80
   1  -6   8  258.77   21.50
   5   1   8  244.88   23.20
   0   5  -8   27.30    6.50
   5  -5  -8   37.10    8.70
  -5   0  -8   29.80    8.90
   5  -5  -8   44.40   10.40
   0  -5   8   31.90    7.90
   5   0   8   31.30    9.10
   4  -5  -8   39.00    9.60
   1   4  -8   61.89    7.60
   4  -5  -8   80.49   11.80
  -5   1  -8   56.39   10.10
  -1  -4   8   47.60    8.40
   5  -1   8   68.89   12.90
   5  -1   8   49.70    9.50
   3  -5  -8  687.43   54.09
   3  -5  -8  667.83   53.09
  -5   2  -8  681.83   53.09
   2   3  -8  729.93   51.79
   5  -2   8  781.02   53.09
   5  -2   8  763.32   54.79
  -3   5   8  785.52   52.89
  -2  -3   8  774.32   52.29
   2  -5  -8  749.33   53.99
  -5   3  -8  771.22   53.09
   2  -5  -8  801.22   52.89
   3   2  -8  749.73   51.39
  -2   5   8  706.43   52.49
   5  -3   8  694.63   52.09
   5  -3   8  626.24   53.79
   4   1  -8   55.39    7.90
   1  -5  -8   61.39   10.20
   1  -5  -8   45.10   10.90
  -5   4  -8   71.79   10.10
   5  -4   8   52.99   11.80
  -1   5   8   72.39   10.30
  -5   5  -8   34.50    8.80
   0  -5  -8   47.00   11.70
   5   0  -8   41.70    7.10
   0  -5  -8   55.09    9.90
   0   5   8   20.20    9.30
   5  -5   8   34.00   11.40
  -5   6  -8  205.68   22.20
  -1  -5  -8  253.07   22.40
   6  -1  -8  257.97   20.80
  -1  -5  -8  288.97   25.30
   5  -6   8  253.57   24.80
   1   5   8  238.18   23.10
   7  -2  -8  138.59   13.60
  -5   7  -8  119.89   14.40
  -2  -5  -8  151.28   15.00
   5  -7   8  147.19   16.90
   2   5   8  153.28   15.80
  -3  -5  -8  418.46   33.40
   8  -3  -8  396.96   32.30
  -5   8  -8  397.46   32.80
   5  -8   8  445.96   35.00
   3   5   8  423.36   34.10
  -5   9  -8  216.58   20.70
  -4  -5  -8  232.08   22.20
   9  -4  -8  247.98   22.00
   5  -9   8  234.68   22.50
   4   5   8  202.98   21.50
  -5  -5  -8   48.00   10.40
  -5  10  -8   26.40   10.40
  10  -5  -8   39.80   10.70
   5   5   8   17.30   11.30
   5 -10   8   52.59   12.30
  11  -6  -8   17.20   11.00
  -5  11  -8   31.60   11.20
   6   5   8   20.20   11.90
   5 -11   8   22.50   12.00
  10  -6  -8   54.19   11.00
  -6  -4  -8   34.70   10.60
  -4  10  -8   51.09   10.60
   6   4   8   39.50   12.20
   4 -10   8   39.40   11.30
  -6  -3  -8  661.83   51.79
  -3   9  -8  718.53   51.19
   9  -6  -8  656.53   51.99
   3  -9   8  709.83   51.89
   6   3   8  764.42   52.89
  -2   8  -8   57.69    9.30
   8  -6  -8   56.99   10.90
  -6  -2  -8   62.69   11.40
   2  -8   8   69.29   11.10
   6   2   8   69.39   12.10
  -1   7  -8    8.20    6.60
   7  -6  -8    2.00    8.70
  -6  -1  -8   11.60    9.20
   1  -7   8   12.50    7.70
   6   1   8    8.50    9.50
   6  -6  -8   33.30    9.10
  -6   0  -8   39.00    9.60
   0   6  -8   23.00    6.70
   6  -6  -8   36.20   11.00
   0  -6   8   24.50    7.80
   6   0   8   33.40   12.90
   6   0   8   33.90    9.70
   5  -6  -8  247.68   23.10
   1   5  -8  227.48   18.90
   5  -6  -8  239.98   21.70
  -6   1  -8  208.68   21.60
   6  -1   8  239.08   23.40
  -1  -5   8  237.88   19.50
   6  -1   8  236.78   22.10
   4  -6  -8  113.59   12.50
  -6   2  -8   73.49   11.70
   2   4  -8   92.29    9.20
   4  -6  -8  109.39   14.20
  -2  -4   8   80.39    9.60
   6  -2   8   74.39   13.80
   6  -2   8   74.79   11.20
  -4   6   8   96.69   11.30
   3   3  -8   72.19    8.20
   3  -6  -8   82.29   13.30
  -6   3  -8   67.79   10.80
   3  -6  -8   56.59   10.70
  -3  -3   8   81.19    8.80
  -3   6   8   70.29   10.90
   6  -3   8   68.69   10.40
   6  -3   8   69.69   13.30
   2  -6  -8   77.09   12.90
   4   2  -8   66.69    8.50
  -6   4  -8   82.79   11.60
   2  -6  -8   74.19   11.10
   6  -4   8   89.69   13.30
  -2   6   8   92.79   11.90
   6  -4   8   95.79   10.70
   1  -6  -8  246.88   22.40
  -6   5  -8  247.68   22.30
   1  -6  -8  240.38   24.00
   5   1  -8  234.58   19.10
  -1   6   8  245.28   22.50
   6  -5   8  206.28   22.00
   0  -6  -8   33.50   12.20
   6   0  -8   25.10    6.90
   0  -6  -8   35.00    9.50
  -6   6  -8   29.10    9.00
   0   6   8   39.20   10.10
   6  -6   8   18.00   11.40
   7  -1  -8   -2.80    6.50
  -1  -6  -8   -1.00    8.20
  -6   7  -8   13.90    8.80
  -1  -6  -8   -4.90   11.40
   1   6   8   11.50    9.80
   6  -7   8   20.10   10.80
  -6   8  -8   63.99   11.40
   8  -2  -8   60.29    9.60
  -2  -6  -8   65.79   11.30
   6  -8   8   65.89   13.60
   2   6   8   61.89   11.80
   9  -3  -8  751.92   52.79
  -6   9  -8  733.83   53.69
  -3  -6  -8  648.04   52.99
   3   6   8  775.12   54.29
   6  -9   8  705.43   54.79
  -4  -6  -8   42.20   10.60
  -6  10  -8   48.70   11.90
  10  -4  -8   64.29   11.30
   4   6   8   43.80   12.20
   6 -10   8   56.29   13.90
  -6  11  -8   23.60   11.70
  11  -5  -8   31.00   11.00
   6 -11   8   41.50   13.10
   5   6   8   33.50   12.30
  12  -6  -8   -7.60   10.90
  -6  12  -8   -0.40   12.40
   6 -12   8    6.80   12.30
   6   6   8  -13.30   11.50
  13  -7  -8   63.29   14.30
  -6  13  -8   62.79   16.10
   6 -13   8   48.20   14.00
   7   6   8   53.79   14.80
  12  -7  -8   48.20   12.70
  -5  12  -8   53.69   13.40
   5 -12   8   37.80   12.80
   7   5   8   29.70   13.00
  -4  11  -8  250.97   22.70
  11  -7  -8  237.08   23.10
   4 -11   8  260.67   24.90
   7   4   8  239.98   23.30
  10  -7  -8  442.76   33.70
  -7  -3  -8  413.66   33.20
  -3  10  -8  414.66   32.20
   7   3   8  371.16   33.50
   3 -10   8  360.46   32.50
  -2   9  -8  337.27   26.60
   9  -7  -8  358.06   28.80
  -7  -2  -8  357.76   29.00
   7   2   8  295.27   29.50
   2  -9   8  288.87   27.00
  -1   8  -8  446.36   34.00
  -7  -1  -8  474.35   36.60
   8  -7  -8  435.46   36.30
   7   1   8  482.55   37.10
   1  -8   8  439.26   34.50
   7   1   8  490.05   39.40
  -7   0  -8  524.75   37.80
   7  -7  -8  460.55   38.40
   7  -7  -8  486.25   37.20
   0   7  -8  483.95   34.90
   7   0   8  434.56   37.60
   7   0   8  453.65   39.60
   0  -7   8  474.95   35.40
  -7   1  -8   11.30    9.20
   6  -7  -8   11.70    8.90
   1   6  -8    3.00    5.40
   6  -7  -8    2.70   11.00
   7  -1   8    8.70    9.10
  -1  -6   8   10.80    6.40
   7  -1   8   17.90   12.30
   5  -7  -8  137.49   17.10
  -7   2  -8  166.28   16.10
   5  -7  -8  137.89   15.40
   2   5  -8  149.39   13.60
   7  -2   8  170.08   15.80
   7  -2   8  124.09   17.70
  -2  -5   8  147.49   14.00
   4  -7  -8  279.87   24.00
   4  -7  -8  278.17   25.40
  -7   3  -8  228.38   23.70
   3   4  -8  291.87   20.20
  -3  -4   8  239.38   20.00
   7  -3   8  247.78   23.30
  -4   7   8  243.88   23.40
   7  -3   8  270.17   26.30
   3  -7  -8  249.28   23.60
   4   3  -8  239.98   20.40
   3  -7  -8  273.67   25.80
  -7   4  -8  221.08   23.70
  -3   7   8  274.27   24.20
   7  -4   8  297.47   26.80
  -4  -3   8  279.77   20.30
   7  -4   8  283.87   23.10
   5   2  -8  150.48   13.70
   2  -7  -8  181.78   18.50
   2  -7  -8  134.49   15.30
  -7   5  -8  152.48   15.90
   7  -5   8  124.99   17.50
   7  -5   8  152.58   16.60
  -2   7   8  145.49   16.00
   1  -7  -8   -3.60    9.80
   6   1  -8   16.00    6.00
   1  -7  -8    6.90    8.80
  -7   6  -8   11.60    9.20
   7  -6   8   -1.30   10.80
  -1   7   8   -3.50    9.30
   7   0  -8  448.96   34.70
  -7   7  -8  460.45   37.20
   0  -7  -8  465.55   37.00
   0  -7  -8  517.85   39.30
   7  -7   8  447.96   38.70
   0   7   8  506.15   37.90
  -1  -7  -8  491.25   38.40
  -7   8  -8  441.76   36.10
  -1  -7  -8  399.96   34.80
   8  -1  -8  448.16   33.70
   7  -8   8  436.76   37.40
   1   7   8  479.55   36.80
  -7   9  -8  296.77   28.60
   9  -2  -8  285.67   26.30
  -2  -7  -8  323.77   27.80
   7  -9   8  355.36   30.40
   2   7   8  342.17   29.50
  10  -3  -8  346.17   29.70
  -3  -7  -8  313.47   29.70
  -7  10  -8  343.07   31.50
   7 -10   8  381.46   33.80
   3   7   8  413.16   32.30
  -7  11  -8  270.67   24.20
  11  -4  -8  219.48   21.90
   4   7   8  255.07   23.30
   7 -11   8  222.88   24.10
  -7  12  -8   24.80   13.90
  12  -5  -8   40.10   12.50
   5   7   8   28.10   13.30
   7 -12   8   74.79   15.40
  -7  13  -8   48.70   16.20
  13  -6  -8   41.10   13.30
   6   7   8   39.60   14.10
   7 -13   8   39.90   14.70
  -7  14  -8  243.68   28.00
  14  -7  -8  237.68   24.50
   7   7   8  222.88   24.60
   7 -14   8  244.58   25.10
  15  -8  -8   66.09   16.30
  -7  15  -8   54.29   21.50
   8   7   8   66.99   16.40
   7 -15   8   78.59   16.50
  -6  14  -8   19.60   16.90
  14  -8  -8   29.40   13.90
   6 -14   8   16.50   12.80
   8   6   8   29.80   14.50
  13  -8  -8  111.49   17.10
  -5  13  -8  113.89   18.30
   8   5   8  130.69   17.30
   5 -13   8  106.59   16.00
  -4  12  -8   64.59   13.40
  12  -8  -8   38.80   13.30
   4 -12   8   57.29   12.30
   8   4   8   32.60   13.00
   8   4   8   42.30   16.90
  11  -8  -8  192.88   19.70
  -3  11  -8  154.28   17.90
   3 -11   8  192.98   18.20
   8   3   8  204.98   23.60
   8   3   8  164.48   19.40
  10  -8  -8  968.50   73.39
  -8  -2  -8 1000.50   73.29
  -2  10  -8 1004.60   71.89
   8   2   8 1058.79   73.99
   8   2   8 1096.39   75.89
   2 -10   8  973.90   71.89
  -1   9  -8  434.26   32.70
   9  -8  -8  436.56   35.30
  -8  -1  -8  484.15   35.50
   1  -9   8  422.76   32.80
   8   1   8  417.66   38.20
   8   1   8  377.96   35.00
   0   8  -8  440.26   33.10
  -8   0  -8  499.65   36.60
   8  -8  -8  495.05   40.20
   8  -8  -8  425.86   36.20
   0  -8   8  431.86   33.30
   8   0   8  426.36   38.70
   8   0   8  455.75   36.80
   7  -8  -8  418.56   38.20
   7  -8  -8  528.55   37.20
   1   7  -8  457.85   33.60
  -8   1  -8  438.56   36.60
   8  -1   8  400.46   36.30
  -1  -7   8  461.35   33.50
   8  -1   8  544.75   39.80
  -8   2  -8   54.59   11.60
   6  -8  -8   64.79   14.10
   2   6  -8   62.59    7.40
   6  -8  -8   55.49   11.20
   8  -2   8   43.60   14.10
   8  -2   8   67.59   11.60
   3   5  -8  376.16   29.80
  -8   3  -8  422.46   33.90
   5  -8  -8  386.06   34.80
   5  -8  -8  422.46   33.50
  -5   8   8  407.86   33.60
   8  -3   8  438.16   33.40
   8  -3   8  473.85   36.00
  -8   4  -8   72.09   12.00
   4   4  -8   69.69    7.80
   4  -8  -8   83.59   11.80
   4  -8  -8   63.59   14.00
   8  -4   8   79.99   11.50
   8  -4   8   88.99   15.70
  -4   8   8   61.49   12.20
   3  -8  -8  424.36   35.60
   3  -8  -8  430.26   33.50
  -8   5  -8  399.46   34.10
   5   3  -8  457.65   30.40
  -3   8   8  404.86   34.30
   8  -5   8  409.66   35.80
   8  -5   8  366.36   32.70
   2  -8  -8   56.59   14.00
   6   2  -8   57.49    7.60
  -8   6  -8   65.59   11.50
   2  -8  -8   42.80   10.90
  -2   8   8   63.29   12.20
   8  -6   8   73.79   14.30
   1  -8  -8  472.65   35.90
  -8   7  -8  418.96   36.50
   1  -8  -8  456.05   37.90
   7   1  -8  438.86   32.90
   8  -7   8  451.85   38.10
  -1   8   8  457.95   36.80
  -8   8  -8  358.46   34.10
   0  -8  -8  412.76   33.90
   8   0  -8  415.66   31.50
   0  -8  -8  447.96   35.50
   0   8   8  438.06   34.80
   8  -8   8  428.66   36.30
  -1  -8  -8  394.56   33.70
  -1  -8  -8  368.96   36.60
  -8   9  -8  418.96   35.40
   9  -1  -8  423.36   32.30
   1   8   8  445.86   35.80
   8  -9   8  451.65   37.10
  10  -2  -8 1025.60   73.69
  -8  10  -8 1006.20   75.49
  -2  -8  -8  975.80   74.19
   2   8   8 1096.49   75.69
   8 -10   8 1090.09   77.09
  11  -3  -8  169.98   17.50
  -8  11  -8  159.68   20.00
   8 -11   8  164.98   20.90
   3   8   8  144.09   18.80
  12  -4  -8   23.70   11.60
  -8  12  -8   39.30   14.80
   8 -12   8   44.10   15.40
   4   8   8   45.00   13.40
  -8  13  -8  121.99   20.40
  13  -5  -8  117.99   16.60
   5   8   8  109.89   17.20
   8 -13   8  121.19   19.40
  14  -6  -8   25.80   13.20
  -8  14  -8   15.40   17.70
   6   8   8   14.00   13.70
   8 -14   8    1.00   14.20
  -8  15  -8   43.40   21.80
  15  -7  -8   55.89   15.70
   7   8   8   62.69   16.10
   8 -15   8   63.39   16.50
  -8  16  -8   -5.90   22.80
  16  -8  -8    8.60   14.60
   8   8   8    9.10   14.90
   8 -16   8   10.60   14.70
  -8  17  -8   36.30   24.60
  17  -9  -8   46.70   17.10
   8 -17   8   52.99   16.40
   9   8   8   51.29   17.70
  -7  16  -8   53.49   24.00
  16  -9  -8   59.69   17.40
   9   7   8   93.39   18.20
   7 -16   8   95.39   16.90
  -6  15  -8  329.47   34.70
  15  -9  -8  306.47   30.60
   9   6   8  315.07   30.40
   6 -15   8  347.97   31.40
  14  -9  -8  437.86   41.20
  -5  14  -8  434.16   43.80
   9   5   8  503.45   41.50
   5 -14   8  494.75   38.70
  -4  13  -8  169.68   19.80
  13  -9  -8  135.39   19.30
   4 -13   8  163.48   17.40
   9   4   8  164.38   20.00
  12  -9  -8   39.80   13.20
  -3  12  -8   34.50   12.10
   3 -12   8   43.20   10.50
   9   3   8   32.30   13.40
   9   3   8   43.20   16.10
  11  -9  -8   71.49   14.30
  -2  11  -8   77.79   12.60
   9   2   8  101.59   15.30
   9   2   8   94.09   18.20
   2 -11   8   90.69   11.80
  -1  10  -8  434.66   35.20
  10  -9  -8  449.26   38.00
  -9  -1  -8  443.76   37.40
   1 -10   8  458.05   34.50
   9   1   8  478.15   38.80
   9   1   8  536.35   41.20
  -9   0  -8 1100.69   76.19
   9  -9  -8 1092.29   76.49
   0   9  -8 1066.09   73.99
   9   0   8  862.51   77.49
   9   0   8 1158.48   76.59
   1   8  -8  394.86   30.90
  -9   1  -8  423.06   34.90
   8  -9  -8  426.36   34.70
   8  -9  -8  440.66   37.50
   9  -1   8  415.46   35.10
   9  -1   8  456.05   37.80
   7  -9  -8  284.97   28.50
   2   7  -8  322.47   24.00
   7  -9  -8  347.37   30.90
  -9   2  -8  307.97   28.60
   9  -2   8  288.47   27.90
   9  -2   8  358.36   31.70
   6  -9  -8  626.64   54.99
  -9   3  -8  760.42   53.99
   3   6  -8  721.03   50.39
   6  -9  -8  707.43   53.39
   9  -3   8  764.12   56.09
  -6   9   8  742.33   53.99
   9  -3   8  726.73   53.59
   5  -9  -8  217.18   23.20
   5  -9  -8  235.88   20.90
   4   5  -8  234.98   17.10
  -9   4  -8  249.88   23.00
  -5   9   8  176.78   20.50
   9  -4   8  198.48   19.80
   9  -4   8  189.78   22.00
   4  -9  -8  243.88   23.90
   4  -9  -8  236.88   21.20
   5   4  -8  191.48   17.40
  -9   5  -8  228.38   21.70
  -4   9   8  276.57   22.30
   9  -5   8  214.78   23.60
   9  -5   8  221.58   20.30
  -9   6  -8  758.92   55.69
   6   3  -8  706.33   51.79
   3  -9  -8  737.43   54.49
   3  -9  -8  724.23   56.79
   9  -6   8  769.82   54.39
  -3   9   8  786.22   55.79
   9  -6   8  730.73   56.89
   2  -9  -8  310.07   31.10
   2  -9  -8  285.77   28.20
  -9   7  -8  350.96   29.90
   7   2  -8  331.97   24.30
  -2   9   8  325.47   29.20
   9  -7   8  300.07   31.10
  -9   8  -8  446.06   36.40
   1  -9  -8  422.96   36.90
   8   1  -8  415.86   31.40
   1  -9  -8  433.96   34.60
  -1   9   8  374.16   35.20
   9  -8   8  431.86   37.40
   0  -9  -8 1109.69   77.29
  -9   9  -8 1012.10   76.09
   9   0  -8 1087.79   73.39
   0  -9  -8 1007.60   74.59
   9  -9   8  947.01   77.39
   0   9   8 1069.49   76.09
  -9  10  -8  518.05   40.10
  -1  -9  -8  420.26   38.70
  10  -1  -8  433.36   35.60
  -1  -9  -8  464.25   36.70
   1   9   8  469.45   39.10
   9 -10   8  468.05   40.10
  -9  11  -8   83.09   16.20
  11  -2  -8   84.09   12.90
   2   9   8   66.39   14.60
   9 -11   8   82.29   17.10
  12  -3  -8   37.70   12.00
  -9  12  -8   49.00   16.00
   9 -12   8   44.20   15.50
   3   9   8   40.80   14.20
  13  -4  -8  207.18   19.30
  -9  13  -8  152.58   23.10
   9 -13   8  142.79   21.40
   4   9   8  116.99   19.40
  -9  14  -8  481.55   47.40
  14  -5  -8  516.05   41.00
   9 -14   8  459.45   43.80
   5   9   8  459.95   42.00
  -9  15  -8  325.57   38.30
  15  -6  -8  362.86   34.80
   6   9   8  359.66   34.80
   9 -15   8  370.36   36.80
  16  -7  -8   97.39   17.70
  -9  16  -8  149.39   27.80
   9 -16   8   75.59   18.60
   7   9   8   41.40   16.70
  17  -8  -8   59.49   16.60
  -9  17  -8   21.30   25.40
   8   9   8    8.90   16.60
   9 -17   8   20.20   16.00
  -7  17  -8   51.59   24.10
  17 -10  -8   70.49   18.10
   7 -17   8   69.99   15.50
  10   7   8   51.39   17.50
  16 -10  -8   83.39   18.40
  -6  16  -8   70.29   23.30
  10   6   8   75.39   17.10
   6 -16   8   80.29   15.70
  -5  15  -8   62.59   20.90
  15 -10  -8   58.49   16.50
  10   5   8   40.80   15.90
   5 -15   8   59.09   13.20
  -4  14  -8   95.39   19.30
  14 -10  -8  107.19   17.70
  10   4   8  129.59   18.40
   4 -14   8   91.39   14.00
  13 -10  -8  330.97   32.70
  -3  13  -8  330.37   29.90
   3 -13   8  350.56   30.40
  10   3   8  316.07   30.00
  12 -10  -8   74.99   15.40
  -2  12  -8   74.89   13.70
  10   2   8   80.99   18.70
  10   2   8  100.49   15.80
  11 -10  -8   64.49   13.80
  -1  11  -8   71.99   11.30
  10   1   8   45.00   16.90
  10   1   8   48.10   14.20
  10 -10  -8    0.90   11.70
   0  10  -8   15.90    8.00
  10   0   8   20.40   15.30
  10   0   8   24.00   12.00
   9 -10  -8  463.15   38.20
   9 -10  -8  451.45   40.90
   1   9  -8  450.35   33.70
 -10   1  -8  440.06   37.60
  10  -1   8  462.75   37.90
  10  -1   8  475.65   40.60
 -10   2  -8 1139.39   75.89
   8 -10  -8 1040.70   75.69
   8 -10  -8 1164.28   78.49
   2   8  -8 1021.50   72.69
  10  -2   8  984.70   76.89
  10  -2   8  963.20   75.69
   7 -10  -8  323.27   30.80
 -10   3  -8  343.97   30.60
   3   7  -8  342.17   26.50
   7 -10  -8  293.87   33.00
  10  -3   8  368.06   32.60
  10  -3   8  436.76   30.90
   6 -10  -8   66.59   12.10
   6 -10  -8   51.09   15.10
 -10   4  -8   50.09   12.10
  -6  10   8   20.90   12.10
  10  -4   8   44.80   15.00
  10  -4   8   20.50   10.60
   5 -10  -8   37.70   13.60
   5 -10  -8   56.99   11.70
 -10   5  -8   23.90   11.70
  10  -5   8   25.80   14.50
  -5  10   8   54.09   12.70
  10  -5   8   30.90   10.60
   4 -10  -8   36.20   14.00
   4 -10  -8   37.50   11.20
 -10   6  -8   57.59   12.60
  -4  10   8   39.20   12.80
  10  -6   8   44.70   15.10
  10  -6   8   49.80   11.20
 -10   7  -8  383.46   34.60
   3 -10  -8  349.07   33.80
   3 -10  -8  404.06   32.70
  10  -7   8  421.46   36.10
  -3  10   8  375.26   33.70
   2 -10  -8 1113.29   74.69
   8   2  -8 1009.30   72.19
   2 -10  -8 1008.00   76.99
 -10   8  -8 1017.60   75.89
  -2  10   8 1101.09   75.89
  10  -8   8  978.60   77.59
   1 -10  -8  466.35   39.30
   9   1  -8  453.65   33.40
 -10   9  -8  422.46   39.00
   1 -10  -8  457.55   36.20
  10  -9   8  369.16   40.50
  -1  10   8  467.55   38.60
 -10  10  -8   37.60   14.20
  10   0  -8   22.90    8.90
   0 -10  -8   33.70   14.60
  10 -10   8   26.40   15.30
   0  10   8   22.90   13.10
  11  -1  -8   38.40   10.90
  -1 -10  -8   61.19   16.70
 -10  11  -8   65.29   16.30
  10 -11   8   75.69   17.20
   1  10   8   48.20   14.80
 -10  12  -8   97.39   18.70
  12  -2  -8   71.99   13.30
  10 -12   8  100.89   18.70
   2  10   8   61.69   15.20
 -10  13  -8  274.67   32.20
  13  -3  -8  331.47   30.10
   3  10   8  314.87   29.40
  10 -13   8  346.37   35.00
 -10  14  -8   89.39   23.50
  14  -4  -8  105.69   16.40
  10 -14   8  114.99   20.90
   4  10   8  130.09   18.50
 -10  15  -8   56.89   24.00
  15  -5  -8   34.00   14.70
  10 -15   8   40.50   17.80
   5  10   8   53.99   16.00
 -10  16  -8   94.59   27.40
  16  -6  -8   96.59   17.50
  10 -16   8   88.99   19.70
   6  10   8   61.69   17.30
 -10  17  -8   64.89   26.50
  17  -7  -8   60.39   16.70
   7  10   8   22.80   17.00
  10 -17   8   53.39   18.30
  17 -11  -8   18.80   17.00
  -6  17  -8   21.30   21.50
  11   6   8   29.10   16.60
  16 -11  -8   20.70   15.70
  -5  16  -8   -2.40   20.30
  11   5   8   -8.70   14.80
  -4  15  -8  249.68   30.50
  15 -11  -8  235.38   26.60
  11   4   8  282.47   27.00
  14 -11  -8  205.08   23.30
  -3  14  -8  207.98   24.80
  11   3   8  197.58   23.00
  13 -11  -8  539.05   43.10
  -2  13  -8  496.75   41.90
  11   2   8  464.45   42.90
  12 -11  -8   -3.90   12.30
  -1  12  -8   -1.60   10.40
  11   1   8    7.30   16.30
  11   1   8    5.50   12.60
   0  11  -8  656.73   47.80
  11 -11  -8  640.84   51.09
  11   0   8  664.53   53.29
  11   0   8  627.74   50.59
   1  10  -8   55.29    9.10
  10 -11  -8   42.30   18.50
  10 -11  -8   59.49   14.00
  11  -1   8   82.09   17.80
  11  -1   8   62.89   13.70
 -11   2  -8   72.99   14.10
   9 -11  -8   62.79   14.00
   9 -11  -8  101.09   19.00
  11  -2   8   69.89   17.20
  11  -2   8   76.39   14.10
   8 -11  -8  168.68   19.60
 -11   3  -8  208.98   20.60
   8 -11  -8  197.28   24.20
  11  -3   8  170.78   22.40
  11  -3   8  190.58   19.90
   7 -11  -8  251.87   26.20
 -11   4  -8  312.77   27.30
   7 -11  -8  244.18   23.20
  11  -4   8  201.68   25.10
  11  -4   8  214.18   22.60
  -7  11   8  255.17   27.60
   6 -11  -8   19.80   14.70
 -11   5  -8   29.40   12.80
   6 -11  -8   31.70   11.70
  11  -5   8   50.99   16.00
  11  -5   8   46.80   11.40
  -6  11   8   34.20   13.40
   5 -11  -8   36.00   11.40
 -11   6  -8   46.70   13.20
   5 -11  -8   40.50   14.80
  11  -6   8    2.70   14.70
  11  -6   8   14.20   11.20
  -5  11   8   26.20   13.30
   4 -11  -8  211.38   21.80
 -11   7  -8  266.97   24.70
   4 -11  -8  235.78   25.80
  11  -7   8  241.08   22.40
  11  -7   8  246.58   25.80
  -4  11   8  229.48   24.20
 -11   8  -8  170.58   20.30
   3 -11  -8  167.08   20.90
   3 -11  -8  161.08   17.70
  -3  11   8  130.89   19.10
  11  -8   8  164.18   21.90
   2 -11  -8   75.29   18.10
   2 -11  -8   92.39   14.10
 -11   9  -8   85.59   16.80
  11  -9   8  111.79   19.70
  -2  11   8  121.19   17.30
   1 -11  -8   59.09   16.40
  10   1  -8   68.99   10.40
 -11  10  -8   67.79   16.50
  11 -10   8   65.39   17.70
  -1  11   8   57.49   15.60
   0 -11  -8  638.44   52.89
  11   0  -8  628.44   48.00
 -11  11  -8  671.03   54.39
  11 -11   8  646.24   54.09
   0  11   8  673.33   52.29
  12  -1  -8   -6.80   10.20
  -1 -11  -8  -11.80   14.80
 -11  12  -8   -9.20   16.40
   1  11   8   20.50   14.10
  11 -12   8   -6.50   15.30
  13  -2  -8  407.06   38.80
 -11  13  -8  510.75   47.90
  11 -13   8  519.75   44.70
   2  11   8  515.95   42.30
  14  -3  -8  150.68   19.50
 -11  14  -8  193.78   28.80
   3  11   8  159.18   21.40
  11 -14   8  195.68   25.80
  15  -4  -8  204.48   24.10
 -11  15  -8  279.97   33.60
  11 -15   8  240.58   29.00
   4  11   8  248.08   26.00
 -11  16  -8  -26.00   24.70
  16  -5  -8   20.80   14.20
  11 -16   8   36.10   18.70
   5  11   8    8.40   16.10
  17  -6  -8    8.60   14.80
 -11  17  -8   -4.80   26.40
   6  11   8   46.90   17.20
  11 -17   8   27.50   18.10
  -5  17  -8   -1.80   19.50
  17 -12  -8   22.80   16.60
  12   5   8    8.90   16.20
  -4  16  -8   -3.30   19.80
  16 -12  -8   13.70   15.60
  12   4   8   -5.30   15.80
  -3  15  -8   52.09   19.70
  15 -12  -8   27.70   15.40
  12   3   8   -2.00   15.00
  -2  14  -8   15.30   15.70
  14 -12  -8   11.40   14.20
  12   2   8    8.30   14.40
  -1  13  -8   49.00   14.50
  13 -12  -8   54.19   15.20
  12   1   8   37.70   14.90
  12 -12  -8  376.36   34.70
   0  12  -8  368.06   32.00
  12   0   8  363.06   37.90
  12   0   8  382.26   35.30
  11 -12  -8   19.10   13.10
  12  -1   8    3.00   12.30
  12  -1   8   12.90   15.70
  10 -12  -8   62.99   19.60
  10 -12  -8   90.89   15.50
  12  -2   8   48.60   17.60
  12  -2   8   75.69   14.70
   9 -12  -8   40.10   17.80
 -12   3  -8   37.50   13.50
   9 -12  -8   29.60   12.90
  12  -3   8   40.40   16.50
  12  -3   8   45.40   13.10
   8 -12  -8   42.10   17.50
 -12   4  -8   34.10   13.80
   8 -12  -8   38.10   12.60
  12  -4   8   53.59   16.20
  12  -4   8   29.30   12.50
 -12   5  -8   51.09   15.00
   7 -12  -8   57.19   13.00
   7 -12  -8   90.29   18.30
  12  -5   8   54.19   12.80
  12  -5   8   47.40   16.60
  -7  12   8   47.10   16.10
   6 -12  -8   24.50   11.30
   6 -12  -8    2.40   15.10
 -12   6  -8   -0.20   13.10
  12  -6   8    6.20   15.40
  12  -6   8    8.00   11.10
  -6  12   8   19.40   14.30
   5 -12  -8   29.70   15.70
   5 -12  -8   40.30   12.20
 -12   7  -8   37.70   15.10
  12  -7   8   50.99   12.70
  12  -7   8   65.99   17.80
  -5  12   8   56.59   15.70
   4 -12  -8   60.49   12.50
 -12   8  -8   56.49   16.00
   4 -12  -8   59.09   15.30
  -4  12   8   27.50   15.20
  12  -8   8   49.00   17.10
   3 -12  -8   37.80   11.80
   3 -12  -8   48.60   16.10
 -12   9  -8   53.09   16.70
  -3  12   8   39.10   15.20
  12  -9   8   23.70   16.70
 -12  10  -8   87.49   18.50
   2 -12  -8   57.89   17.20
  -2  12   8   57.59   16.50
  12 -10   8   72.09   19.10
 -12  11  -8   23.80   17.60
   1 -12  -8   -9.50   15.00
  12 -11   8  -12.70   15.90
  -1  12   8   -1.10   14.50
   0 -12  -8  334.47   36.00
  12   0  -8  301.67   29.80
 -12  12  -8  431.86   36.80
   0  12   8  345.47   32.30
  12 -12   8  387.96   37.90
  13  -1  -8   15.20   11.90
  -1 -12  -8   43.20   17.10
 -12  13  -8   43.40   21.50
   1  12   8   64.09   16.30
  12 -13   8   64.19   19.20
 -12  14  -8   18.20   22.00
  14  -2  -8   21.10   12.60
   2  12   8   30.80   15.60
  12 -14   8    0.00   18.10
 -12  15  -8   29.80   24.60
  15  -3  -8   -8.00   12.90
  12 -15   8   -5.30   17.90
   3  12   8   20.90   15.80
 -12  16  -8  -14.50   24.60
  16  -4  -8   -5.90   13.40
  12 -16   8   24.30   19.00
   4  12   8    4.40   16.00
 -12  17  -8    0.90   26.10
  17  -5  -8   30.40   15.10
   5  12   8   17.20   16.80
  12 -17   8   -5.90   18.50
  16 -13  -8  231.18   26.50
  -3  16  -8  261.47   28.80
  13   3   8  220.58   26.10
  -2  15  -8   84.49   19.60
  15 -13  -8  118.99   19.00
  13   2   8   42.00   16.80
  14 -13  -8   -5.90   14.60
  -1  14  -8   45.20   16.50
  13   1   8   25.80   15.10
  13 -13  -8   21.40   14.70
  13   0   8   29.70   14.20
  12 -13  -8   42.80   15.40
  13  -1   8   56.39   18.50
  13  -1   8   34.50   14.60
  11 -13  -8  507.65   48.00
  11 -13  -8  505.15   43.60
  13  -2   8  506.95   43.20
  13  -2   8  501.05   45.60
  10 -13  -8  331.37   29.30
  10 -13  -8  328.57   33.90
  13  -3   8  280.47   28.30
  13  -3   8  310.67   31.90
   9 -13  -8  136.29   23.10
   9 -13  -8  181.18   19.80
  13  -4   8  147.19   18.90
  13  -4   8  139.09   22.40
 -13   5  -8   88.59   18.20
   8 -13  -8  110.19   20.90
   8 -13  -8  133.29   17.20
  13  -5   8  110.89   20.90
  13  -5   8  110.29   16.20
 -13   6  -8   43.50   15.50
   7 -13  -8   47.70   13.20
   7 -13  -8   47.60   17.40
  13  -6   8   52.29   17.40
  -7  13   8   12.80   16.10
  13  -6   8   54.49   13.30
 -13   7  -8   82.69   17.50
   6 -13  -8   57.19   13.40
   6 -13  -8   44.00   17.70
  13  -7   8   42.10   17.60
  13  -7   8   60.39   13.70
  -6  13   8   64.49   17.90
   5 -13  -8   98.29   19.40
 -13   8  -8   96.79   19.50
   5 -13  -8  111.79   15.80
  -5  13   8   97.39   18.90
  13  -8   8  134.09   21.40
 -13   9  -8  136.49   22.50
   4 -13  -8  172.58   22.20
  -4  13   8  156.38   21.80
  13  -9   8  131.19   22.40
   3 -13  -8  403.56   39.30
 -13  10  -8  366.86   36.00
  13 -10   8  364.16   36.90
  -3  13   8  349.57   34.10
   2 -13  -8  493.95   44.60
 -13  11  -8  508.55   48.10
  13 -11   8  469.45   46.60
  -2  13   8  498.55   43.40
 -13  12  -8   72.19   21.70
   1 -13  -8   35.50   17.00
  -1  13   8   51.29   16.70
  13 -12   8   27.50   18.90
 -13  13  -8    9.90   21.30
   0 -13  -8   14.70   17.10
  13 -13   8   15.30   19.40
   0  13   8    7.50   16.20
  -1 -13  -8   38.40   17.60
 -13  14  -8  -12.70   22.30
  14  -1  -8    9.40   11.80
   1  13   8    4.00   15.60
  13 -14   8    8.80   19.20
  15  -2  -8   56.49   14.90
 -13  15  -8   70.69   27.10
  13 -15   8  113.99   23.30
   2  13   8  107.29   19.20
  16  -3  -8  170.88   22.70
 -13  16  -8  207.58   34.10
  13 -16   8  218.18   29.00
   3  13   8  264.37   26.60
  -2  16  -8  180.18   24.10
  16 -14  -8  173.08   24.20
  14   2   8  195.28   23.50
  15 -14  -8  123.39   20.00
  14   1   8   87.09   18.60
  14 -14  -8   -2.70   14.40
  14   0   8    9.00   15.00
  13 -14  -8    0.70   14.90
  14  -1   8   19.10   14.30
  12 -14  -8   23.20   14.70
  14  -2   8   24.90   14.40
  11 -14  -8  232.58   23.10
  11 -14  -8  181.18   27.30
  14  -3   8  175.88   24.50
  14  -3   8  156.98   21.00
  10 -14  -8   83.19   16.80
  10 -14  -8   76.49   21.80
  14  -4   8  122.69   21.90
  14  -4   8   99.29   16.80
   9 -14  -8  414.86   44.70
   9 -14  -8  493.35   41.10
  14  -5   8  510.85   44.60
  14  -5   8  462.85   40.30
   8 -14  -8   55.49   18.80
 -14   6  -8   19.30   17.30
   8 -14  -8   20.60   13.00
  14  -6   8    6.10   16.50
  -8  14   8    5.90   18.20
  14  -6   8   17.30   13.30
   7 -14  -8  192.28   22.90
   7 -14  -8  241.18   27.90
 -14   7  -8  230.78   26.90
  -7  14   8  224.98   27.40
  14  -7   8  251.07   28.00
  14  -7   8  264.27   24.50
   6 -14  -8   31.00   17.50
   6 -14  -8   16.50   11.90
 -14   8  -8   -1.50   16.80
  -6  14   8   11.50   17.30
  14  -8   8   18.30   18.10
  14  -8   8   14.80   12.30
 -14   9  -8  534.15   46.40
   5 -14  -8  367.66   41.50
  -5  14   8  519.05   44.20
  14  -9   8  442.96   43.80
   4 -14  -8  106.29   20.10
 -14  10  -8  120.79   23.10
  14 -10   8   94.29   21.70
  -4  14   8  101.49   20.30
   3 -14  -8  142.39   23.70
 -14  11  -8  263.67   29.40
  -3  14   8  173.68   24.40
  14 -11   8  179.88   26.40
   2 -14  -8   11.20   16.50
 -14  12  -8   -4.20   21.40
  -2  14   8   -5.70   15.70
  14 -12   8   -6.80   17.70
 -14  13  -8   34.90   24.00
   1 -14  -8   20.50   17.70
  14 -13   8   19.50   20.20
  -1  14   8   29.60   16.80
 -14  14  -8   -2.70   24.30
   0 -14  -8   10.30   17.40
   0  14   8  -10.70   16.30
  14 -14   8   -9.90   19.20
 -14  15  -8   45.30   27.50
  14 -15   8  124.69   25.60
   1  14   8  130.59   21.50
 -14  16  -8  179.38   33.20
  16  -2  -8  143.59   20.00
  14 -16   8  154.58   26.30
   2  14   8  145.19   23.00
  15 -15  -8   68.99   17.80
  15   0   8   36.00   16.70
  14 -15  -8   83.59   19.10
  15  -1   8  105.39   19.40
  13 -15  -8   63.59   17.90
  15  -2   8   83.99   17.70
  12 -15  -8   14.50   14.40
  12 -15  -8    2.30   20.20
  15  -3   8    6.00   14.10
  11 -15  -8  253.07   26.20
  11 -15  -8  292.27   33.20
  15  -4   8  220.58   28.60
  15  -4   8  238.58   25.60
  10 -15  -8   72.79   16.40
  10 -15  -8   61.79   21.10
  15  -5   8   90.69   20.80
  15  -5   8   45.50   15.30
   9 -15  -8  303.77   30.50
   9 -15  -8  313.37   34.90
  15  -6   8  360.26   33.80
  15  -6   8  351.36   35.30
   8 -15  -8   73.99   20.90
   8 -15  -8   70.49   15.20
  15  -7   8   46.70   19.70
  15  -7   8   67.59   18.10
  -8  15   8   45.80   20.00
   7 -15  -8   57.49   20.10
 -15   8  -8   50.89   21.10
  15  -8   8   41.10   19.20
  -7  15   8   71.79   23.80
  15  -8   8   74.39   15.10
   6 -15  -8  419.76   39.40
 -15   9  -8  416.76   41.60
  -6  15   8  350.46   36.20
  15  -9   8  301.67   35.90
   5 -15  -8   82.29   20.30
 -15  10  -8   51.29   22.60
  -5  15   8   66.49   20.60
  15 -10   8   77.29   22.30
   4 -15  -8  292.17   32.30
 -15  11  -8  268.77   35.00
  -4  15   8  311.47   31.50
  15 -11   8  283.87   33.80
 -15  12  -8   33.20   22.80
   3 -15  -8  -11.20   16.40
  -3  15   8   18.60   17.50
  15 -12   8  -22.30   18.70
 -15  13  -8   85.49   28.00
   2 -15  -8   89.39   20.00
  -2  15   8   50.79   19.30
  15 -13   8   40.90   21.10
 -15  14  -8   95.99   29.00
   1 -15  -8  112.99   21.90
  -1  15   8   75.29   19.60
  15 -14   8   69.89   23.90
 -15  15  -8   45.20   27.40
   0 -15  -8   50.79   19.90
  15 -15   8   57.29   23.50
   0  15   8   60.49   19.60
  14 -16  -8  213.78   25.80
  16  -2   8  211.98   25.20
  13 -16  -8  220.98   26.50
  16  -3   8  268.57   27.10
  12 -16  -8   13.80   21.60
  12 -16  -8    1.80   14.90
  16  -4   8   -6.60   14.30
  11 -16  -8  -14.70   19.90
  11 -16  -8   25.50   15.20
  16  -5   8   21.30   19.70
  16  -5   8   36.70   15.10
  10 -16  -8   86.49   23.00
  10 -16  -8   56.09   16.40
  16  -6   8   60.49   16.40
  16  -6   8   93.59   22.70
   9 -16  -8   97.49   22.50
  16  -7   8   94.99   23.10
  16  -7   8   63.49   16.60
   8 -16  -8   26.80   19.30
  -8  16   8    2.80   19.60
  16  -8   8  -12.60   13.10
  16  -8   8    9.60   19.90
   7 -16  -8   90.49   22.00
  16  -9   8   96.69   22.90
  -7  16   8   77.39   22.70
 -16  10  -8   83.29   26.00
   6 -16  -8   99.49   22.30
  -6  16   8  104.39   23.10
  16 -10   8   84.99   23.70
   5 -16  -8   -0.10   17.90
 -16  11  -8   24.80   24.00
  -5  16   8   18.70   19.60
  16 -11   8    9.60   21.00
   4 -16  -8   -9.40   17.80
 -16  12  -8   35.00   25.00
  -4  16   8    7.00   18.70
  16 -12   8   12.10   20.90
   3 -16  -8  276.17   30.40
 -16  13  -8  151.08   33.10
  16 -13   8  229.38   32.20
  -3  16   8  221.48   28.30
   2 -16  -8  176.18   26.70
 -16  14  -8  191.48   35.00
  16 -14   8  184.88   30.00
  -2  16   8  189.18   26.00
  13 -17  -8  358.96   40.00
  12 -17  -8   16.30   16.00
  12 -17  -8  -21.90   20.90
  17  -5   8   -1.70   14.80
  11 -17  -8   19.70   21.80
  17  -6   8   41.70   15.70
  10 -17  -8   25.60   21.50
  17  -7   8   66.79   22.10
  17  -7   8   54.59   16.70
   9 -17  -8   58.89   22.10
  17  -8   8   54.89   16.00
  17  -8   8   23.10   20.70
   8 -17  -8    8.80   20.00
  -8  17   8   47.90   23.00
  17  -9   8   31.50   21.90
   7 -17  -8   52.59   21.20
  -7  17   8  105.69   24.50
  17 -10   8   71.49   23.10
   6 -17  -8   23.70   19.30
  -6  17   8   -5.30   21.10
  17 -11   8   54.89   22.70
 -17  12  -8   45.80   25.90
   5 -17  -8   -6.30   18.70
  17 -12   8   37.80   21.80
  -5  17   8  -18.50   19.60
   4 -17  -8  297.27   33.80
   0   0  -9    9.50    7.60
   0   1  -9  848.12   60.89
   1  -1  -9  969.20   61.29
  -1   0  -9  750.02   60.99
   0  -1  -9 1125.19   71.29
  -1   1  -9  947.71   70.69
   1   0  -9  942.81   70.59
  -1   2  -9  107.79   12.10
  -1  -1  -9   99.59   12.40
   2  -1  -9  110.19   11.90
  -1   3  -9  233.98   22.30
  -2  -1  -9  253.57   23.30
   3  -2  -9  275.57   23.30
   1  -3   9  276.77   23.90
   2   1   9  282.17   22.80
  -2   0  -9    0.90    8.00
   0   2  -9   19.80    7.50
   2  -2  -9   15.40    7.90
  -2   1  -9   91.09   11.90
   1  -2  -9  107.69   12.40
   1   1  -9   98.49   11.30
   0  -2  -9   12.20    8.40
  -2   2  -9   13.50    7.70
   2   0  -9   10.50    7.20
   2  -2   9   15.50    9.90
  -1  -2  -9  267.17   23.10
  -2   3  -9  282.77   22.70
   3  -1  -9  270.57   22.40
   2  -3   9  252.87   24.60
   1   2   9  222.18   22.60
  -2  -2  -9 1278.27   90.09
   4  -2  -9 1214.98   89.39
  -2   4  -9 1341.97   89.49
   2   2   9 1263.87   89.69
   2  -4   9 1290.17   90.39
  -3  -2  -9  425.96   37.40
  -2   5  -9  484.25   36.50
   5  -3  -9  466.25   36.60
   3   2   9  489.65   37.40
   2  -5   9  533.45   38.10
  -1   4  -9  229.78   19.40
  -3  -1  -9  222.58   21.00
   4  -3  -9  228.18   20.50
   3   1   9  190.08   18.90
   1  -4   9  196.78   21.00
  -3   0  -9    8.60    8.10
   3  -3  -9  -11.90    8.00
   0   3  -9    8.30    6.80
   3   0   9   -3.00    7.40
   0  -3   9    0.70    8.20
   1   2  -9  291.97   23.60
  -3   1  -9  269.97   24.80
   2  -3  -9  280.47   25.70
   2  -3  -9  304.57   24.50
   1  -3  -9  228.08   23.70
   1  -3  -9  254.37   23.10
  -3   2  -9  243.88   22.70
   2   1  -9  252.87   21.20
   3  -2   9  286.87   24.90
  -3   3  -9    7.00    8.10
   3   0  -9    3.20    6.80
   0  -3  -9    5.00    8.40
   0   3   9    2.10    7.40
   3  -3   9    0.30   10.20
  -1  -3  -9  191.38   18.50
  -3   4  -9  183.68   17.40
   4  -1  -9  172.68   16.90
   3  -4   9  208.28   20.50
   1   3   9  219.18   19.50
  -2  -3  -9  490.45   39.20
  -3   5  -9  568.44   38.50
   5  -2  -9  519.25   37.90
   3  -5   9  443.56   39.00
   2   3   9  507.45   38.80
   6  -3  -9  438.56   32.70
  -3  -3  -9  419.96   33.70
  -3   6  -9  380.66   32.30
   3  -6   9  439.06   34.30
   3   3   9  393.06   33.00
   7  -4  -9  361.56   28.10
  -3   7  -9  323.27   27.00
  -4  -3  -9  315.37   28.60
   3  -7   9  317.57   28.80
   4   3   9  319.77   28.80
  -4  -2  -9   13.00    9.40
  -2   6  -9   16.20    7.60
   6  -4  -9    1.00    8.30
   4   2   9   -9.90    9.20
   2  -6   9   16.60    9.30
  -4  -1  -9   10.60    9.00
  -1   5  -9    8.20    7.00
   5  -4  -9   -3.50    8.30
   4   1   9   13.20    8.80
   1  -5   9   18.50    8.50
   0   4  -9 1310.67   95.49
  -4   0  -9 1415.06   96.69
   4  -4  -9 1461.05   96.49
   4   0   9 1357.96   96.29
   0  -4   9 1341.97   96.19
   3  -4  -9  217.88   21.00
   1   3  -9  202.88   19.10
   3  -4  -9  199.98   20.60
  -4   1  -9  169.28   18.90
   4  -1   9  235.68   24.00
  -1  -3   9  245.48   20.10
   4  -1   9  239.58   20.10
   2   2  -9 1363.06   92.99
  -4   2  -9 1333.47   93.99
   2  -4  -9 1350.66   93.79
   2  -4  -9 1392.56   94.99
   4  -2   9 1238.68   95.09
   3   1  -9  238.68   19.20
   1  -4  -9  254.87   21.00
   1  -4  -9  221.78   22.80
  -4   3  -9  201.68   19.10
  -1   4   9  193.68   19.90
   4  -3   9  183.48   20.40
  -4   4  -9 1545.85  103.49
   0  -4  -9 1696.63  104.19
   4   0  -9 1363.06  102.59
   4  -4   9 1451.25  104.39
   0   4   9 1374.36  103.29
  -1  -4  -9    1.80    8.80
   5  -1  -9    0.10    7.10
  -4   5  -9    3.40    8.10
   4  -5   9    2.70   10.20
   1   4   9   14.30    8.70
  -4   6  -9    4.80    8.10
  -2  -4  -9   25.80    9.60
   6  -2  -9    3.90    7.70
   4  -6   9   11.30   10.60
   2   4   9    6.20    9.60
   7  -3  -9  327.77   28.60
  -3  -4  -9  347.67   30.00
  -4   7  -9  335.07   28.90
   3   4   9  383.86   30.50
   4  -7   9  354.66   30.50
  -4  -4  -9 1120.39   75.99
   8  -4  -9 1042.70   75.19
  -4   8  -9  995.30   75.09
   4  -8   9 1057.59   76.19
   4   4   9 1065.39   75.99
  -4   9  -9   43.00   10.10
  -5  -4  -9   22.30   10.30
   9  -5  -9   24.80   10.30
   5   4   9   31.40   11.40
   4  -9   9   13.10   11.10
  -5  -3  -9  688.03   46.80
  -3   8  -9  540.95   45.10
   8  -5  -9  602.14   46.10
   5   3   9  645.24   46.60
   3  -8   9  595.04   46.40
   7  -5  -9  346.07   29.60
  -5  -2  -9  292.17   30.00
  -2   7  -9  397.06   28.50
   2  -7   9  362.06   29.60
   5   2   9  350.56   30.70
   6  -5  -9  513.45   35.90
  -5  -1  -9  399.46   36.10
  -1   6  -9  477.25   34.50
   5   1   9  446.96   36.40
   1  -6   9  435.46   35.20
   0   5  -9  223.38   19.90
  -5   0  -9  251.37   23.10
   5  -5  -9  208.08   20.30
   5   0   9  227.28   20.60
   0  -5   9  239.18   20.90
  -5   1  -9    2.80    9.00
   4  -5  -9   13.50    8.60
   4  -5  -9   -0.50    9.70
   1   4  -9    6.70    6.50
   5  -1   9   19.50   12.00
  -1  -4   9    8.70    7.50
   5  -1   9    8.00    8.20
   2   3  -9  535.05   35.00
   3  -5  -9  452.15   37.50
   3  -5  -9  513.05   37.00
  -5   2  -9  493.65   36.90
   5  -2   9  369.46   37.80
   5  -2   9  453.75   40.90
  -2  -3   9  449.16   35.00
  -5   3  -9  421.16   36.60
   3   2  -9  461.75   34.60
   2  -5  -9  469.75   38.10
   2  -5  -9  450.35   36.60
   5  -3   9  556.94   38.90
   1  -5  -9   13.90   11.40
   4   1  -9    3.40    6.50
  -5   4  -9   -2.10    8.40
   1  -5  -9   -3.70    8.70
   5  -4   9    0.80   10.70
  -1   5   9   -6.70    8.30
  -5   5  -9  268.47   23.30
   5   0  -9  237.18   21.00
   0  -5  -9  293.97   23.90
   0  -5  -9  242.28   25.70
   0   5   9  238.28   23.40
   5  -5   9  230.38   23.80
  -5   6  -9  433.06   35.00
  -1  -5  -9  383.66   35.30
   6  -1  -9  466.65   33.80
   5  -6   9  457.55   36.50
   1   5   9  475.95   35.90
  -5   7  -9  388.76   30.90
  -2  -5  -9  380.66   31.40
   7  -2  -9  396.26   29.70
   2   5   9  328.27   31.30
   5  -7   9  346.47   31.80
  -5   8  -9  635.14   47.20
   8  -3  -9  634.04   46.50
  -3  -5  -9  676.73   47.40
   3   5   9  630.34   48.10
   5  -8   9  558.54   47.80
  -5   9  -9    9.70    9.80
   9  -4  -9    5.00    9.40
  -4  -5  -9   18.90   10.30
   5  -9   9   35.60   12.30
   4   5   9   30.60   11.80
  10  -5  -9   -9.20   10.10
  -5  10  -9    1.80   10.10
  -5  -5  -9   -8.00    9.80
   5 -10   9   11.00   12.00
   5   5   9  -12.20   11.10
  11  -6  -9  161.98   18.50
  -5  11  -9  173.38   18.50
   5 -11   9  175.48   19.40
   6   5   9  119.09   18.70
  -4  10  -9   25.40   10.30
  -6  -4  -9   15.60   10.60
  10  -6  -9    6.30   10.80
   6   4   9   12.10   11.80
   4 -10   9   18.00   11.20
   9  -6  -9   47.20   11.90
  -6  -3  -9   50.49   11.70
  -3   9  -9   55.89   10.30
   3  -9   9   51.29   12.00
   6   3   9   39.60   12.20
   8  -6  -9    4.90    9.90
  -6  -2  -9    7.40    9.90
  -2   8  -9   28.80    8.70
   6   2   9   34.80   11.50
   2  -8   9   35.70   10.20
  -6  -1  -9  253.27   28.50
   7  -6  -9  331.57   28.90
  -1   7  -9  351.16   26.60
   6   1   9  381.96   29.40
   1  -7   9  345.17   27.80
   6  -6  -9    9.60    9.00
   0   6  -9    4.30    6.70
  -6   0  -9    6.60    9.60
   6   0   9    9.30   12.70
   0  -6   9    6.90    7.80
   6   0   9    0.00    9.90
   5  -6  -9  422.56   34.80
   5  -6  -9  447.06   36.20
  -6   1  -9  400.76   34.90
   1   5  -9  438.66   32.70
   6  -1   9  479.45   38.10
   6  -1   9  479.65   35.00
  -1  -5   9  421.66   33.20
  -6   2  -9   -6.90    9.00
   4  -6  -9    0.20   10.70
   2   4  -9    0.10    6.20
   4  -6  -9   10.10    8.80
  -2  -4   9    6.10    7.00
   6  -2   9   18.00    8.70
   6  -2   9    7.90   11.90
  -6   3  -9  373.96   34.10
   3   3  -9  436.06   32.00
   3  -6  -9  424.36   35.70
   3  -6  -9  441.46   34.10
   6  -3   9  469.55   36.60
  -3  -3   9  423.46   32.10
   2  -6  -9   10.60    9.10
   2  -6  -9   -7.40    9.90
   4   2  -9    6.80    6.30
  -6   4  -9   -1.20    9.00
   6  -4   9   -7.70   11.20
  -2   6   9    4.70    9.20
   1  -6  -9  445.26   36.00
  -6   5  -9  463.85   35.90
   1  -6  -9  425.16   37.60
   5   1  -9  453.45   33.60
  -1   6   9  440.46   35.90
   6  -5   9  469.35   37.80
   6   0  -9   15.50    7.10
   0  -6  -9   -1.50    9.40
   0  -6  -9   -7.80   11.40
  -6   6  -9   23.00    9.80
   0   6   9   -6.90    9.40
   6  -6   9    6.80   11.50
   7  -1  -9  336.97   26.70
  -6   7  -9  388.26   29.00
  -1  -6  -9  299.37   28.60
   1   6   9  296.47   29.10
   6  -7   9  305.37   30.00
  -6   8  -9   10.60    9.70
   8  -2  -9   22.90    8.80
  -2  -6  -9   34.10   10.70
   2   6   9    6.90   10.80
   6  -8   9   23.60   12.20
   9  -3  -9   54.69   11.10
  -3  -6  -9   51.49   11.90
  -6   9  -9   54.59   12.00
   3   6   9   77.09   13.60
   6  -9   9   37.10   13.60
  10  -4  -9   24.40   10.80
  -6  10  -9   33.50   11.30
  -4  -6  -9   11.10   10.80
   6 -10   9    4.20   12.80
   4   6   9    6.00   12.00
  -6  11  -9  182.08   19.40
  11  -5  -9  170.18   18.60
   6 -11   9  164.38   20.00
   5   6   9  140.49   19.50
  12  -6  -9   18.10   12.50
  -6  12  -9   24.10   13.40
   6   6   9   18.30   14.10
   6 -12   9   30.90   14.20
  13  -7  -9   12.60   13.50
  -6  13  -9   24.40   15.30
   7   6   9   43.70   14.60
   6 -13   9   27.70   14.10
  12  -7  -9  592.34   50.29
  -5  12  -9  684.23   50.59
   7   5   9  652.13   51.09
   5 -12   9  622.54   49.70
  11  -7  -9   16.10   12.10
  -4  11  -9    7.20   10.90
   4 -11   9   10.40   11.00
   7   4   9   -4.30   11.90
  10  -7  -9   98.79   15.10
  -3  10  -9  110.89   13.70
  -7  -3  -9   78.99   14.40
   3 -10   9  118.79   14.60
   7   3   9  110.99   15.90
  -2   9  -9  159.68   16.00
  -7  -2  -9  221.88   18.90
   9  -7  -9  173.58   18.40
   2  -9   9  147.29   16.50
   7   2   9  144.89   18.20
   7   2   9  143.79   22.00
   8  -7  -9  599.74   48.10
  -7  -1  -9  672.63   48.50
  -1   8  -9  591.84   45.80
   7   1   9  653.93   48.70
   1  -8   9  647.44   46.40
   7   1   9  625.64   49.90
   0   7  -9 1373.36   92.29
   7  -7  -9 1309.07   93.69
  -7   0  -9 1327.47   93.89
   7   0   9 1338.97   94.09
   0  -7   9 1286.67   92.39
   7   0   9 1314.17   95.99
  -7   1  -9  384.36   30.00
   1   6  -9  350.16   26.80
   6  -7  -9  373.36   30.10
   6  -7  -9  315.37   30.70
   7  -1   9  371.66   30.00
  -1  -6   9  309.17   26.90
   7  -1   9  345.87   32.90
   5  -7  -9  451.65   32.40
   5  -7  -9  369.56   33.40
   2   5  -9  380.36   29.20
  -7   2  -9  389.16   32.70
  -2  -5   9  364.66   29.20
   7  -2   9  406.56   35.20
   7  -2   9  375.46   31.90
   3   4  -9  291.57   25.40
   4  -7  -9  321.07   28.90
  -7   3  -9  304.07   28.60
   4  -7  -9  326.57   31.40
  -3  -4   9  351.26   25.20
   7  -3   9  339.97   28.00
   7  -3   9  383.56   31.80
   3  -7  -9  399.06   31.50
  -7   4  -9  386.46   29.60
   3  -7  -9  345.97   29.30
   4   3  -9  351.36   26.00
  -3   7   9  296.37   29.00
  -4  -3   9  313.27   25.80
   7  -4   9  315.57   31.50
   5   2  -9  372.16   29.00
   2  -7  -9  368.96   32.30
   2  -7  -9  419.16   34.20
  -7   5  -9  381.96   32.30
   7  -5   9  417.46   35.30
  -2   7   9  374.36   32.20
  -5  -2   9  374.06   28.90
   6   1  -9  318.37   26.00
  -7   6  -9  314.07   29.30
   1  -7  -9  360.26   29.80
   1  -7  -9  346.47   31.80
   7  -6   9  336.67   31.30
  -1   7   9  344.77   29.90
   0  -7  -9 1267.87   93.59
   7   0  -9 1326.17   90.19
  -7   7  -9 1344.67   91.99
   0  -7  -9 1242.58   91.79
   7  -7   9 1218.68   93.09
   0   7   9 1354.66   92.29
  -7   8  -9  610.44   48.60
  -1  -7  -9  612.24   50.79
   8  -1  -9  619.04   46.70
  -1  -7  -9  710.83   48.70
   1   7   9  645.34   49.40
   7  -8   9  635.34   49.99
   9  -2  -9  151.98   16.70
  -2  -7  -9  180.58   18.40
  -7   9  -9  155.68   18.50
   7  -9   9  202.28   21.60
   2   7   9  184.78   19.60
  10  -3  -9  136.49   15.10
  -3  -7  -9  137.49   15.50
  -7  10  -9  114.49   16.40
   7 -10   9   95.79   17.50
   3   7   9   91.29   16.20
  11  -4  -9    2.60   10.60
  -7  11  -9   11.30   12.40
   7 -11   9   22.50   13.80
   4   7   9   -2.50   12.40
  12  -5  -9  553.74   47.90
  -7  12  -9  641.74   50.49
   7 -12   9  604.04   49.70
   5   7   9  658.13   49.50
  -7  13  -9   40.10   16.20
  13  -6  -9   35.40   14.00
   7 -13   9   32.30   14.70
   6   7   9   36.20   14.70
  14  -7  -9  307.67   30.50
  -7  14  -9  309.77   32.90
   7 -14   9  329.57   32.80
   7   7   9  376.16   34.80
  15  -8  -9  206.18   24.00
  -7  15  -9  171.58   27.20
   8   7   9  182.08   23.50
   7 -15   9  203.08   23.20
  14  -8  -9   57.09   16.90
  -6  14  -9  105.59   19.70
   6 -14   9   82.39   15.90
   8   6   9   92.79   17.50
  13  -8  -9  207.38   21.80
  -5  13  -9  150.98   21.00
   8   5   9  180.28   25.10
   8   5   9  149.09   20.70
   5 -13   9  164.78   19.50
  -4  12  -9  299.97   25.80
  12  -8  -9  289.07   26.50
   8   4   9  259.97   26.50
   8   4   9  259.37   30.00
   4 -12   9  248.68   26.40
  -3  11  -9  534.25   41.60
  11  -8  -9  540.45   43.40
   8   3   9  500.15   44.00
   3 -11   9  510.65   40.90
   8   3   9  573.74   46.90
  -8  -2  -9  219.28   22.10
  10  -8  -9  273.47   23.30
  -2  10  -9  223.58   20.60
   2 -10   9  218.18   21.90
   8   2   9  215.58   25.60
   8   2   9  214.28   22.50
  -8  -1  -9  358.86   33.40
  -1   9  -9  326.67   30.50
   9  -8  -9  383.76   33.40
   8   1   9  418.56   37.30
   8   1   9  411.76   33.90
   1  -9   9  424.56   30.70
  -8   0  -9  403.46   33.00
   8  -8  -9  415.36   32.90
   0   8  -9  352.06   29.50
   0  -8   9  381.66   29.80
   8   0   9  384.76   33.60
   8   0   9  399.76   36.50
   1   7  -9  634.34   45.30
   7  -8  -9  622.84   48.00
  -8   1  -9  698.33   48.90
   8  -1   9  616.54   50.69
   8  -1   9  577.14   47.90
   6  -8  -9   38.90   13.40
   6  -8  -9   34.00   11.00
  -8   2  -9   35.80   11.80
   2   6  -9   33.20    7.10
   8  -2   9   10.20   13.70
   8  -2   9   35.70   10.70
   5  -8  -9  676.93   48.50
   3   5  -9  620.24   45.40
  -8   3  -9  595.24   48.20
   5  -8  -9  708.63   50.29
   8  -3   9  607.14   50.39
   8  -3   9  617.84   47.80
   4   4  -9 1061.99   72.99
   4  -8  -9  985.90   75.39
   4  -8  -9 1129.59   77.39
  -8   4  -9 1118.59   75.99
   8  -4   9  993.30   77.09
   8  -4   9  989.80   77.29
  -8   5  -9  601.34   46.10
   3  -8  -9  584.04   45.40
   3  -8  -9  514.75   47.20
   5   3  -9  598.04   42.70
  -3   8   9  641.94   46.20
   8  -5   9  640.34   48.00
   6   2  -9   19.50    6.80
  -8   6  -9   12.40   10.50
   2  -8  -9   19.10   12.00
   2  -8  -9   23.20   10.80
   8  -6   9   26.40   13.30
  -2   8   9   30.70   11.70
  -8   7  -9  629.64   48.90
   7   1  -9  643.64   45.90
   1  -8  -9  637.24   49.90
   1  -8  -9  552.54   48.40
   8  -7   9  647.24   51.29
  -1   8   9  714.43   49.80
  -8   8  -9  359.66   34.30
   8   0  -9  385.56   30.60
   0  -8  -9  449.46   36.90
   0  -8  -9  370.86   33.30
   0   8   9  386.26   34.00
   8  -8   9  429.26   36.70
  -1  -8  -9  451.35   34.20
   9  -1  -9  431.56   32.30
  -8   9  -9  426.36   35.60
  -1  -8  -9  383.26   37.30
   1   8   9  372.46   35.60
   8  -9   9  353.76   36.50
  -2  -8  -9  177.88   20.30
  10  -2  -9  223.58   19.90
  -8  10  -9  201.88   22.00
   8 -10   9  221.48   24.30
   2   8   9  224.68   22.60
  -8  11  -9  510.65   43.10
  11  -3  -9  520.15   40.60
   3   8   9  448.56   42.70
   8 -11   9  556.24   44.80
  12  -4  -9  268.67   25.00
  -8  12  -9  256.77   27.30
   8 -12   9  282.37   27.90
   4   8   9  252.57   26.30
  13  -5  -9  157.18   20.50
  -8  13  -9  207.48   23.90
   8 -13   9  181.68   23.00
   5   8   9  158.18   21.40
  14  -6  -9   77.79   16.60
  -8  14  -9   80.39   20.30
   6   8   9   61.79   16.70
   8 -14   9   75.59   17.70
  15  -7  -9  173.28   22.20
  -8  15  -9  133.39   26.30
   8 -15   9  175.08   22.90
   7   8   9  167.38   22.40
  -8  16  -9   47.20   24.50
  16  -8  -9   56.99   17.60
   8 -16   9   49.70   16.50
   8   8   9   69.09   18.40
  16  -9  -9    8.40   16.20
  -7  16  -9  -38.20   21.30
   9   7   9   15.20   16.00
   7 -16   9    3.50   13.90
  -6  15  -9  -21.80   17.90
  15  -9  -9   -6.80   14.70
   9   6   9    9.40   15.20
   6 -15   9   -2.20   14.10
  -5  14  -9  400.36   35.50
  14  -9  -9  419.96   37.30
   5 -14   9  373.06   33.40
   9   5   9  333.77   33.70
  -4  13  -9   79.49   16.70
  13  -9  -9   83.79   17.20
   9   4   9  109.79   17.90
   9   4   9   99.29   21.90
   4 -13   9  101.09   14.50
  -3  12  -9  275.27   25.50
  12  -9  -9  275.97   27.00
   3 -12   9  269.37   25.80
   9   3   9  305.27   27.90
   9   3   9  285.37   30.30
  -2  11  -9   15.30   10.30
  11  -9  -9   37.60   13.70
   9   2   9   24.80   13.50
   9   2   9   38.50   16.70
  -9  -1  -9  110.89   16.10
  -1  10  -9  103.19   13.60
  10  -9  -9   85.69   16.40
   9   1   9  168.88   17.80
   9   1   9  158.78   20.40
   9  -9  -9   19.00   11.80
   0   9  -9   40.00    8.70
  -9   0  -9   21.60   11.80
   9   0   9   14.60   15.50
   9   0   9   34.40   12.50
   8  -9  -9  393.56   33.70
   1   8  -9  407.26   29.10
  -9   1  -9  349.27   33.40
   9  -1   9  339.87   33.10
   9  -1   9  379.56   36.40
   7  -9  -9  158.88   18.00
   7  -9  -9  174.08   21.40
  -9   2  -9  147.29   18.00
   2   7  -9  154.88   15.40
   9  -2   9  143.19   17.30
   9  -2   9  172.28   21.00
   3   6  -9   44.40    7.50
  -9   3  -9   61.39   12.70
   6  -9  -9   47.50   12.40
   6  -9  -9   42.80   14.40
   9  -3   9   58.69   11.90
   9  -3   9   39.70   15.20
   4   5  -9   17.10    6.40
   5  -9  -9   19.40   11.10
   5  -9  -9   11.20   13.10
  -9   4  -9   16.60   11.10
   9  -4   9   15.90   10.60
   9  -4   9   39.90   14.80
   5   4  -9   37.90    6.70
  -9   5  -9   27.20   11.70
   4  -9  -9   39.10   11.60
   4  -9  -9   21.90   13.60
  -4   9   9   15.70   12.10
   9  -5   9    6.20   14.10
   3  -9  -9   50.89   15.30
   3  -9  -9   48.00   11.90
   6   3  -9   48.60    7.70
  -9   6  -9   47.90   12.70
   9  -6   9   43.60   15.60
  -3   9   9   54.29   13.30
   2  -9  -9  220.68   23.00
   2  -9  -9  192.38   19.30
  -9   7  -9  178.38   20.00
   7   2  -9  185.08   16.80
  -2   9   9  174.38   20.00
   9  -7   9  142.09   21.00
   1  -9  -9  368.86   35.90
   1  -9  -9  335.87   32.60
  -9   8  -9  336.47   33.70
   8   1  -9  375.06   29.00
  -1   9   9  449.16   34.70
   9  -8   9  390.66   35.40
   0  -9  -9   41.50   15.00
   0  -9  -9   36.00   11.30
   9   0  -9   35.30    8.90
  -9   9  -9   37.20   13.50
   9  -9   9   36.90   15.60
   0   9   9   58.49   14.50
  -9  10  -9  143.89   19.10
  -1  -9  -9  172.88   17.60
  10  -1  -9  161.38   15.80
  -1  -9  -9  173.28   21.80
   9 -10   9  126.19   20.40
   1   9   9   92.59   18.30
  -9  11  -9   39.90   15.60
  11  -2  -9   36.30   11.40
   2   9   9   30.70   13.90
   9 -11   9   27.30   16.60
  12  -3  -9  246.78   23.90
  -9  12  -9  255.07   27.20
   3   9   9  228.78   25.50
   9 -12   9  262.77   27.70
  13  -4  -9   87.79   15.80
  -9  13  -9   97.79   20.00
   9 -13   9   91.69   19.70
   4   9   9   89.69   17.40
  14  -5  -9  319.37   31.50
  -9  14  -9  355.46   36.00
   5   9   9  336.07   32.50
   9 -14   9  405.46   37.60
  -9  15  -9    6.20   20.90
  15  -6  -9   -4.80   14.40
   9 -15   9   -3.70   16.20
   6   9   9    0.90   15.00
  16  -7  -9   -0.70   15.80
  -9  16  -9    1.20   24.10
   9 -16   9    9.00   16.40
   7   9   9  -10.50   15.50
  -6  16  -9   88.69   24.80
  16 -10  -9   57.39   18.60
  10   6   9  129.29   20.30
   6 -16   9  102.89   18.80
  -5  15  -9   12.60   19.10
  15 -10  -9   10.00   15.50
  10   5   9   21.00   16.00
  -4  14  -9  412.16   43.40
  14 -10  -9  479.55   42.60
  10   4   9  507.95   41.80
  13 -10  -9   47.80   15.50
  -3  13  -9   12.20   13.80
  10   3   9   65.09   28.50
  10   3   9   61.59   15.70
  -2  12  -9   30.70   12.00
  12 -10  -9   47.30   14.80
  10   2   9   29.90   14.90
  10   2   9   37.60   17.20
  -1  11  -9   23.60   10.10
  11 -10  -9   16.70   13.10
  10   1   9   21.10   16.70
  10   1   9    8.60   13.20
  10 -10  -9  114.49   16.70
   0  10  -9  109.39   12.80
  10   0   9   92.59   16.30
  10   0   9  109.09   20.30
   1   9  -9  161.58   14.40
 -10   1  -9  176.48   18.80
   9 -10  -9  161.28   18.80
  10  -1   9  113.19   17.70
  10  -1   9  121.99   21.10
 -10   2  -9  220.38   23.10
   2   8  -9  226.48   19.70
   8 -10  -9  222.88   22.90
   8 -10  -9  256.67   26.80
  10  -2   9  262.47   27.00
  10  -2   9  253.07   23.30
   3   7  -9  140.09   13.00
 -10   3  -9  141.69   17.50
   7 -10  -9  103.69   19.20
   7 -10  -9  166.38   17.60
  10  -3   9   90.29   19.20
  10  -3   9  124.39   16.40
   6 -10  -9   17.80   14.40
 -10   4  -9   -5.70   11.50
   6 -10  -9   13.70   11.30
  10  -4   9   20.20   15.40
  10  -4   9   15.00   10.60
   5 -10  -9   -0.80   11.10
 -10   5  -9   10.60   11.70
   5 -10  -9  -23.60   13.20
  -5  10   9  -22.10   18.00
  10  -5   9    1.60   10.30
  10  -5   9   -2.10   14.30
 -10   6  -9   21.70   12.20
   4 -10  -9   -3.20   12.50
   4 -10  -9    2.10   10.80
  -4  10   9   25.70   13.60
  10  -6   9   33.60   14.90
 -10   7  -9  101.19   16.30
   3 -10  -9  131.89   19.40
   3 -10  -9   97.69   15.50
  10  -7   9  131.89   20.00
  -3  10   9  127.09   18.10
 -10   8  -9  249.78   24.90
   2 -10  -9  221.18   23.00
   8   2  -9  249.97   20.70
   2 -10  -9  280.87   27.50
  10  -8   9  200.18   25.70
  -2  10   9  268.07   25.20
 -10   9  -9  101.79   17.80
   1 -10  -9  129.89   20.50
   1 -10  -9  126.59   16.20
   9   1  -9  111.99   13.10
  -1  10   9  175.98   19.50
  10  -9   9  174.28   21.90
   0 -10  -9  146.49   24.10
 -10  10  -9  123.99   18.70
  10   0  -9  118.79   13.80
   0 -10  -9  111.29   19.70
   0  10   9  117.89   18.40
  10 -10   9  120.09   20.30
  -1 -10  -9   12.20   15.60
  11  -1  -9   12.60   10.10
 -10  11  -9    1.40   14.60
   1  10   9   15.50   14.20
  10 -11   9    4.10   16.10
 -10  12  -9   54.19   17.40
  12  -2  -9   21.80   12.30
   2  10   9   45.00   15.60
  10 -12   9   35.10   16.60
  13  -3  -9   22.30   13.10
 -10  13  -9   48.00   18.90
  10 -13   9   23.10   17.30
   3  10   9   34.70   15.30
 -10  14  -9  526.25   43.70
  14  -4  -9  383.86   38.70
  10 -14   9  481.85   43.60
   4  10   9  398.76   41.20
 -10  15  -9   37.30   22.60
  15  -5  -9   14.70   14.90
   5  10   9  -14.00   15.70
  10 -15   9   10.00   17.40
 -10  16  -9  173.58   29.70
  16  -6  -9   99.39   19.10
  10 -16   9   68.09   20.00
   6  10   9  108.59   20.30
  -5  16  -9   31.40   21.90
  16 -11  -9   50.19   17.80
  11   5   9   61.89   18.20
  15 -11  -9  259.37   26.10
  -4  15  -9  209.58   28.10
  11   4   9  164.58   24.30
  14 -11  -9  237.38   25.70
  -3  14  -9  223.48   26.10
  11   3   9  234.88   25.90
  -2  13  -9    5.80   13.00
  13 -11  -9   25.60   14.70
  11   2   9   25.50   15.00
  -1  12  -9  274.97   26.80
  12 -11  -9  342.87   30.40
  11   1   9  311.67   33.00
  11   1   9  342.67   29.80
  11 -11  -9  838.52   65.09
   0  11  -9  841.12   61.59
  11   0   9  832.02   64.69
  11   0   9  911.51   67.39
  10 -11  -9   12.00   13.10
   1  10  -9    9.90    8.60
  11  -1   9   13.80   12.90
  11  -1   9    9.30   16.70
   9 -11  -9   30.30   13.20
 -11   2  -9   55.99   13.70
  11  -2   9   24.80   13.20
  11  -2   9   29.40   16.30
 -11   3  -9  562.34   44.80
   8 -11  -9  529.55   44.20
   8 -11  -9  561.24   47.40
  11  -3   9  555.24   43.70
  11  -3   9  519.65   47.20
   7 -11  -9    4.90   15.40
 -11   4  -9   -5.40   12.20
   7 -11  -9    3.50   11.90
  11  -4   9   -2.60   14.60
  11  -4   9    7.90   11.30
 -11   5  -9  221.28   22.30
   6 -11  -9  181.48   23.50
   6 -11  -9  187.88   20.70
  11  -5   9  190.58   24.80
  11  -5   9  196.78   20.40
   5 -11  -9  151.78   22.10
 -11   6  -9  179.68   21.20
   5 -11  -9  177.98   19.70
  11  -6   9  206.98   23.80
  -5  11   9  167.38   21.20
   4 -11  -9   17.20   15.50
 -11   7  -9    4.80   13.30
   4 -11  -9   -2.50   11.10
  -4  11   9    0.10   14.40
  11  -7   9   -2.90   15.10
 -11   8  -9  579.04   45.00
   3 -11  -9  523.05   45.60
   3 -11  -9  446.06   42.00
  11  -8   9  529.45   46.30
  -3  11   9  578.24   45.20
   2 -11  -9   29.70   12.20
 -11   9  -9   20.30   14.60
   2 -11  -9   -2.40   14.90
  -2  11   9   14.30   15.00
  11  -9   9   18.40   17.00
 -11  10  -9   13.10   15.10
   1 -11  -9    0.70   15.70
  11 -10   9   -2.50   16.60
  -1  11   9   17.00   15.00
 -11  11  -9  901.21   66.59
  11   0  -9  810.72   60.69
   0 -11  -9  803.22   65.59
  11 -11   9  781.42   67.19
   0  11   9  904.61   64.89
 -11  12  -9  287.47   30.80
  -1 -11  -9  313.87   30.70
  12  -1  -9  284.67   27.20
  11 -12   9  230.68   29.80
   1  11   9  256.47   28.00
 -11  13  -9   44.50   19.90
  13  -2  -9   36.80   13.10
  11 -13   9   24.10   18.00
   2  11   9   34.10   16.20
 -11  14  -9  210.08   30.40
  14  -3  -9  199.98   23.70
   3  11   9  250.77   26.10
  11 -14   9  266.57   29.40
 -11  15  -9  147.49   30.40
  15  -4  -9  174.68   22.80
   4  11   9  227.58   25.20
  11 -15   9  240.18   28.00
  16  -5  -9   70.39   17.90
 -11  16  -9   57.69   27.10
   5  11   9   57.89   18.60
  11 -16   9   64.29   20.30
  16 -12  -9   41.70   18.00
  -4  16  -9   58.39   22.00
  12   4   9   46.00   18.20
  -3  15  -9   24.60   18.80
  15 -12  -9   16.40   16.60
  12   3   9   -4.30   16.00
  -2  14  -9   -4.90   15.30
  14 -12  -9    4.60   15.50
  12   2   9    6.60   15.10
  -1  13  -9   39.90   14.20
  13 -12  -9   60.19   16.50
  12   1   9   50.99   16.30
  12 -12  -9   -5.30   13.80
  12   0   9    6.60   17.50
  12   0   9  -16.10   13.20
  11 -12  -9  377.56   29.50
  12  -1   9  247.98   30.90
  12  -1   9  241.98   27.10
  10 -12  -9   34.20   14.20
  12  -2   9   19.90   16.90
  12  -2   9   35.40   14.30
   9 -12  -9  333.47   27.50
 -12   3  -9  263.07   27.10
   9 -12  -9  274.67   30.40
  12  -3   9  224.78   25.60
  12  -3   9  274.47   29.80
 -12   4  -9  289.77   27.60
   8 -12  -9  269.97   30.40
   8 -12  -9  271.27   26.90
  12  -4   9  302.27   26.70
  12  -4   9  260.77   29.50
   7 -12  -9  541.85   48.30
   7 -12  -9  607.74   51.79
 -12   5  -9  557.94   49.90
  12  -5   9  615.34   51.59
  12  -5   9  696.43   48.10
   6 -12  -9   19.70   15.80
 -12   6  -9   -1.20   13.90
   6 -12  -9   25.80   13.00
  12  -6   9    2.70   15.50
 -12   7  -9  636.14   50.19
   5 -12  -9  601.34   50.49
   5 -12  -9  622.24   47.00
  12  -7   9  575.14   50.79
  -5  12   9  533.65   49.80
 -12   8  -9  264.27   27.90
   4 -12  -9  284.47   30.30
   4 -12  -9  330.37   28.70
  -4  12   9  260.77   28.20
  12  -8   9  219.18   29.50
   3 -12  -9  318.87   26.60
   3 -12  -9  225.88   28.40
 -12   9  -9  243.28   28.70
  12  -9   9  288.17   31.20
  -3  12   9  294.57   28.80
 -12  10  -9   52.39   17.70
   2 -12  -9   49.50   17.40
  12 -10   9   12.20   18.00
  -2  12   9   43.70   16.70
   1 -12  -9  307.07   32.30
 -12  11  -9  239.88   31.10
  12 -11   9  328.57   33.60
  -1  12   9  336.87   30.90
 -12  12  -9    2.80   18.20
   0 -12  -9   15.90   16.40
  12 -12   9   15.00   17.90
   0  12   9  -17.80   14.90
  13  -1  -9   51.19   13.40
 -12  13  -9   61.79   21.80
  12 -13   9   49.60   19.50
   1  12   9   57.09   17.60
 -12  14  -9    8.70   21.60
  14  -2  -9   -7.10   12.30
   2  12   9   -2.10   16.30
  12 -14   9    9.10   18.70
  15  -3  -9   12.20   14.00
 -12  15  -9  -32.20   23.50
   3  12   9  -12.20   16.00
  12 -15   9    7.90   19.60
  16  -4  -9   63.19   17.10
 -12  16  -9   25.50   26.70
  12 -16   9   44.40   20.70
   4  12   9   62.69   18.60
  15 -13  -9   51.09   17.90
  -2  15  -9   18.30   18.40
  13   2   9   51.49   17.80
  14 -13  -9  112.19   19.70
  13   1   9   77.19   18.30
  13 -13  -9   22.00   15.70
  13   0   9    3.70   14.50
  12 -13  -9   57.59   16.70
  13  -1   9   56.99   16.10
  13  -1   9   73.99   20.40
  11 -13  -9   42.80   15.20
  13  -2   9   38.90   18.20
  13  -2   9    6.90   14.10
  10 -13  -9   51.39   20.30
  10 -13  -9   43.80   15.00
  13  -3   9    2.10   16.90
  13  -3   9   20.00   13.90
   9 -13  -9   86.29   17.00
   9 -13  -9   87.19   21.80
  13  -4   9  111.99   20.50
  13  -4   9   93.29   16.50
 -13   5  -9  193.28   22.70
   8 -13  -9  172.18   24.70
   8 -13  -9  145.59   19.90
  13  -5   9  158.88   19.40
  13  -5   9  154.58   24.90
   7 -13  -9   22.90   13.60
   7 -13  -9   42.40   18.70
 -13   6  -9   16.60   15.50
  13  -6   9   33.70   17.20
  13  -6   9    5.20   12.60
 -13   7  -9   44.60   17.00
   6 -13  -9   35.30   17.80
   6 -13  -9   16.00   12.90
  13  -7   9   26.20   18.20
  -6  13   9   56.79   19.20
   5 -13  -9  193.38   20.20
 -13   8  -9  127.69   22.00
   5 -13  -9  161.48   24.20
  13  -8   9  145.99   23.40
  -5  13   9  165.38   23.20
 -13   9  -9   89.79   19.80
   4 -13  -9   57.59   18.80
  13  -9   9   77.99   20.20
  -4  13   9   62.89   18.70
   3 -13  -9   22.50   17.30
 -13  10  -9   16.60   18.00
  -3  13   9   56.29   17.70
  13 -10   9   43.70   19.30
   2 -13  -9   27.80   17.50
 -13  11  -9    6.40   18.60
  -2  13   9   60.99   18.20
  13 -11   9   24.50   19.30
   1 -13  -9   60.19   19.50
 -13  12  -9   38.90   21.30
  13 -12   9   69.99   20.50
  -1  13   9   70.29   19.20
   0 -13  -9    9.30   18.00
 -13  13  -9  -22.60   20.50
   0  13   9   12.00   17.20
  13 -13   9  -11.20   18.40
 -13  14  -9  117.09   27.20
   1  13   9  116.09   21.10
  13 -14   9   90.59   24.00
  15  -2  -9    6.90   13.70
 -13  15  -9   59.69   26.40
  13 -15   9   66.39   22.30
   2  13   9   34.00   18.10
  15 -14  -9  112.49   20.80
  14   1   9  106.69   19.90
  14 -14  -9   14.80   16.50
  14   0   9   -0.60   15.40
  13 -14  -9   73.69   18.20
  14  -1   9   88.19   18.40
  12 -14  -9   13.40   15.00
  14  -2   9    2.30   18.90
  14  -2   9   10.90   14.80
  11 -14  -9  259.57   26.60
  14  -3   9  239.08   29.70
  14  -3   9  235.68   26.00
  10 -14  -9  433.16   41.90
  10 -14  -9  489.05   46.50
  14  -4   9  473.85   40.80
  14  -4   9  456.75   45.40
   9 -14  -9  369.96   37.30
   9 -14  -9  409.16   40.10
  14  -5   9  354.56   36.20
  14  -5   9  427.86   41.20
   8 -14  -9   65.09   21.20
   8 -14  -9   47.70   15.60
 -14   6  -9   71.59   19.90
  14  -6   9   61.99   20.30
  14  -6   9   65.69   15.20
   7 -14  -9  360.56   31.70
 -14   7  -9  284.07   32.80
   7 -14  -9  355.36   34.60
  14  -7   9  293.27   34.10
   6 -14  -9   83.59   15.40
 -14   8  -9   38.20   18.90
   6 -14  -9   23.20   18.70
  -6  14   9   46.90   19.60
  14  -8   9   77.99   20.90
   5 -14  -9  422.66   40.90
 -14   9  -9  461.15   39.60
  14  -9   9  355.66   38.60
  -5  14   9  343.67   36.70
   4 -14  -9  450.35   44.90
 -14  10  -9  426.56   43.40
  -4  14   9  493.95   45.90
  14 -10   9  499.75   46.40
   3 -14  -9  239.48   29.00
 -14  11  -9  216.28   30.20
  -3  14   9  202.68   27.50
  14 -11   9  259.47   31.10
   2 -14  -9   -0.10   17.80
 -14  12  -9   -3.70   21.80
  14 -12   9   -1.20   18.90
  -2  14   9  -18.50   17.60
 -14  13  -9   63.79   25.60
   1 -14  -9   82.89   21.60
  14 -13   9   92.09   23.30
  -1  14   9  103.99   21.40
 -14  14  -9   19.00   25.40
   0 -14  -9   -3.90   18.40
   0  14   9   25.20   18.20
  14 -14   9   -8.00   20.10
 -14  15  -9  121.09   29.90
  14 -15   9  102.99   25.70
   1  14   9  108.89   21.60
  14 -15  -9  119.09   21.10
  15  -1   9  119.99   20.50
  13 -15  -9   42.10   16.90
  15  -2   9   34.60   16.10
  12 -15  -9   26.00   16.10
  15  -3   9   19.20   15.20
  11 -15  -9  191.88   23.70
  11 -15  -9  212.18   29.80
  15  -4   9  181.48   22.90
  15  -4   9  211.98   28.30
  10 -15  -9   47.60   15.90
  10 -15  -9   18.00   21.00
  15  -5   9    8.20   14.30
  15  -5   9   12.10   18.40
   9 -15  -9   23.10   20.50
   9 -15  -9    2.60   13.90
  15  -6   9    8.00   13.70
  15  -6   9  -10.10   18.00
   8 -15  -9  173.18   21.70
   8 -15  -9  182.58   27.20
  15  -7   9  185.08   27.10
 -15   8  -9  177.28   26.50
   7 -15  -9  188.08   26.40
  15  -8   9  152.18   25.80
 -15   9  -9  -14.40   19.70
   6 -15  -9   13.00   17.80
  15  -9   9  -19.50   18.20
  -6  15   9   -1.40   19.50
   5 -15  -9   12.10   19.10
 -15  10  -9  -18.80   20.60
  -5  15   9  -10.80   19.70
  15 -10   9   24.60   20.30
 -15  11  -9  236.08   31.00
   4 -15  -9  185.48   26.50
  15 -11   9  176.88   28.60
  -4  15   9  189.78   26.80
   3 -15  -9  -16.50   17.70
 -15  12  -9   -3.70   22.50
  -3  15   9   -7.70   18.70
  15 -12   9  -14.10   19.70
 -15  13  -9   70.99   26.50
   2 -15  -9   39.10   20.10
  15 -13   9   35.20   21.70
  -2  15   9   39.90   19.60
 -15  14  -9  104.89   29.90
   1 -15  -9   76.49   22.20
  15 -14   9  114.89   24.90
  -1  15   9   68.09   21.30
  12 -16  -9   50.99   17.90
  16  -4   9   62.59   17.20
  11 -16  -9   69.19   23.50
  11 -16  -9   68.19   18.30
  16  -5   9   47.20   16.60
  16  -5   9   64.09   22.10
  10 -16  -9  130.99   25.80
  10 -16  -9  130.29   19.50
  16  -6   9   83.19   18.70
  16  -6   9  111.79   24.40
   9 -16  -9   25.20   21.00
  16  -7   9  -27.30   19.30
   8 -16  -9   59.99   21.50
  16  -8   9   52.09   21.40
   7 -16  -9   11.00   19.70
  16  -9   9   37.70   21.60
   6 -16  -9   79.89   22.80
 -16  10  -9   78.69   25.80
  -6  16   9   95.09   24.10
  16 -10   9   89.39   24.60
   5 -16  -9   75.19   22.10
 -16  11  -9   81.39   25.90
  -5  16   9   17.70   21.20
  16 -11   9   91.69   24.60
   4 -16  -9   36.10   20.80
 -16  12  -9   41.70   26.20
  16 -12   9   43.40   23.20
  -4  16   9   54.49   22.00
   0   0 -10   71.69   11.40
   1  -1 -10   11.30    9.10
  -1   0 -10    9.40    9.00
   0   1 -10   18.90    8.70
   0  -1 -10   16.40    9.10
  -1   1 -10   11.30    8.50
   1   0 -10    6.60    8.70
   2  -1 -10 1010.50   74.69
  -1   2 -10  987.40   74.59
  -1  -1 -10 1133.49   75.19
   1  -2  10 1084.19   75.89
   3  -2 -10   91.49   12.50
  -1   3 -10  112.39   12.80
  -2  -1 -10   90.09   13.20
   1  -3  10  111.49   14.40
   0   2 -10  989.50   72.69
  -2   0 -10 1055.99   73.39
   2  -2 -10 1038.20   73.19
   0  -2  10 1018.50   73.89
  -2   1 -10  962.20   68.29
   1  -2 -10  954.90   68.39
   1   1 -10  939.51   67.89
   2   0 -10  969.40   70.79
   0  -2 -10  956.70   71.19
  -2   2 -10 1060.09   71.29
   2  -2  10  995.50   72.39
   3  -1 -10  112.19   12.50
  -1  -2 -10   82.79   12.80
  -2   3 -10   97.69   12.40
   2  -3  10   89.59   14.00
   4  -2 -10  555.54   41.80
  -2   4 -10  548.05   41.60
  -2  -2 -10  541.85   42.60
   2  -4  10  551.64   42.90
   5  -3 -10  211.58   19.80
  -2   5 -10  223.58   21.10
  -3  -2 -10  208.98   20.50
   3   2  10  210.18   20.40
   2  -5  10  218.98   22.60
   4  -3 -10  233.78   24.30
  -1   4 -10  263.37   23.60
  -3  -1 -10  301.87   25.60
   1  -4  10  256.87   24.60
   0   3 -10  157.68   15.80
   3  -3 -10  194.48   17.00
  -3   0 -10  138.19   16.50
   0  -3  10  162.78   17.40
   1   2 -10   99.09   12.20
   2  -3 -10   95.39   13.20
  -3   1 -10  111.09   13.70
   1  -3 -10   74.39   12.80
   2   1 -10  101.39   11.90
  -3   2 -10   81.79   12.40
   3  -2  10  101.29   15.40
   0  -3 -10  143.69   17.30
   3   0 -10  170.58   16.30
  -3   3 -10  204.68   17.60
   3  -3  10  170.98   19.30
  -1  -3 -10  201.48   20.50
   4  -1 -10  209.98   19.80
  -3   4 -10  257.17   22.10
   3  -4  10  248.08   24.60
  -2  -3 -10  221.38   20.40
  -3   5 -10  189.18   19.20
   5  -2 -10  210.38   19.40
   3  -5  10  196.78   21.10
   2   3  10  240.88   20.60
  -3   6 -10   58.59   11.20
   6  -3 -10   87.09   11.90
  -3  -3 -10   76.69   13.10
   3  -6  10   76.19   13.60
   3   3  10   89.79   13.30
   7  -4 -10  139.59   15.60
  -4  -3 -10  132.49   16.50
  -3   7 -10  149.99   15.20
   3  -7  10  131.49   16.60
   4   3  10  128.79   16.70
   6  -4 -10  609.84   49.20
  -2   6 -10  605.54   48.50
  -4  -2 -10  649.04   49.70
   2  -6  10  680.03   49.70
   4   2  10  758.02   50.19
  -4  -1 -10  409.06   34.10
   5  -4 -10  396.16   33.10
  -1   5 -10  434.06   32.30
   1  -5  10  426.66   32.80
   4   1  10  346.07   34.00
   0   4 -10  196.28   16.40
  -4   0 -10  153.68   17.30
   4  -4 -10  138.29   16.60
   0  -4  10  164.88   17.10
   3  -4 -10  244.68   23.80
  -4   1 -10  233.78   24.10
   1   3 -10  252.47   22.50
   4  -1  10  322.07   27.80
  -1  -3  10  246.18   23.30
   2   2 -10  532.55   39.00
   2  -4 -10  539.75   41.80
  -4   2 -10  526.55   40.50
   2  -4 -10  438.66   40.10
   4  -2  10  564.64   42.40
   1  -4 -10  245.28   23.00
   3   1 -10  259.77   22.60
  -4   3 -10  299.87   24.00
   4  -3  10  215.58   24.00
   4   0 -10  160.98   15.20
  -4   4 -10  146.79   16.00
   0  -4 -10  156.28   16.90
   4  -4  10  138.49   17.80
  -4   5 -10  359.56   33.70
  -1  -4 -10  501.75   35.10
   5  -1 -10  402.16   32.90
   1   4  10  445.36   35.50
   4  -5  10  412.06   35.40
  -4   6 -10  660.63   49.99
  -2  -4 -10  693.43   50.79
   6  -2 -10  669.83   49.60
   4  -6  10  705.63   51.29
   2   4  10  634.74   50.49
  -4   7 -10  122.39   15.20
   7  -3 -10  144.39   15.40
  -3  -4 -10  145.99   16.60
   4  -7  10  133.29   17.10
   3   4  10  128.49   16.20
  -4   8 -10 1175.98   86.29
  -4  -4 -10 1308.77   87.09
   8  -4 -10 1149.98   86.29
   4  -8  10 1269.57   87.49
   4   4  10 1175.08   87.09
  -5  -4 -10   66.99   13.30
  -4   9 -10   55.09   11.80
   9  -5 -10   45.90   12.60
   4  -9  10   48.80   13.30
   5   4  10   42.60   13.30
  -5  -3 -10  192.08   20.40
   8  -5 -10  190.78   19.90
  -3   8 -10  210.98   19.40
   3  -8  10  206.08   20.60
   5   3  10  188.98   20.80
   7  -5 -10  335.47   31.30
  -5  -2 -10  400.56   32.20
  -2   7 -10  387.06   30.60
   5   2  10  369.96   32.60
   2  -7  10  368.76   31.50
  -1   6 -10  318.47   26.20
   6  -5 -10  321.47   28.30
  -5  -1 -10  337.77   29.10
   1  -6  10  282.07   27.00
   5   1  10  306.07   28.50
   0   5 -10  202.18   19.30
  -5   0 -10  161.18   19.30
   5  -5 -10  200.68   19.10
   5   0  10  228.98   26.40
   0  -5  10  193.98   19.50
   5   0  10  184.58   22.20
  -5   1 -10  343.07   34.00
   1   4 -10  409.76   31.70
   4  -5 -10  397.66   33.80
  -1  -4  10  441.66   32.40
   5  -1  10  443.96   36.90
   3  -5 -10  188.28   22.50
  -5   2 -10  215.88   20.80
   2   3 -10  242.78   20.40
   3  -5 -10  238.48   22.20
  -2  -3  10  216.58   20.50
   5  -2  10  217.18   23.10
   2  -5 -10  242.68   21.80
   3   2 -10  241.88   20.90
  -5   3 -10  215.68   21.10
   2  -5 -10  255.67   24.50
   5  -3  10  199.98   22.70
  -3  -2  10  230.28   21.80
   1  -5 -10  386.06   33.50
  -5   4 -10  480.15   33.40
   1  -5 -10  369.46   34.80
   4   1 -10  390.96   30.90
   5  -4  10  355.96   34.20
   0  -5 -10  197.48   19.90
   5   0 -10  201.98   19.60
  -5   5 -10  205.28   19.60
   5  -5  10  200.98   22.00
  -1  -5 -10  292.87   26.70
  -5   6 -10  290.17   26.60
   6  -1 -10  292.07   24.90
   1   5  10  267.17   26.80
   5  -6  10  284.57   28.90
  -2  -5 -10  377.36   31.40
   7  -2 -10  344.67   29.30
  -5   7 -10  356.56   30.50
   2   5  10  335.87   31.00
   5  -7  10  329.87   31.40
   8  -3 -10  244.58   20.70
  -5   8 -10  203.28   20.60
  -3  -5 -10  244.98   21.90
   3   5  10  171.18   21.10
   5  -8  10  216.18   23.10
  -4  -5 -10   46.70   12.80
  -5   9 -10   51.09   12.00
   9  -4 -10   44.30   12.10
   4   5  10   65.99   14.20
   5  -9  10   46.70   14.30
  -5  -5 -10 1066.89   72.89
  -5  10 -10  994.90   72.49
  10  -5 -10  951.80   72.39
   5 -10  10 1044.10   73.79
   5   5  10  906.01   72.79
  -5  11 -10  275.37   25.90
  11  -6 -10  246.18   26.00
   6   5  10  283.27   27.00
   5 -11  10  300.77   28.90
  -6  -4 -10   91.49   15.00
  -4  10 -10   97.29   14.30
  10  -6 -10  104.29   15.60
   6   4  10   89.39   16.10
   4 -10  10   88.29   15.20
  -6  -3 -10  105.69   14.80
  -3   9 -10   75.69   12.70
   9  -6 -10   86.39   14.30
   3  -9  10   75.49   14.00
   6   3  10   63.29   15.00
  -2   8 -10  403.96   32.20
   8  -6 -10  381.86   33.80
  -6  -2 -10  343.97   34.10
   2  -8  10  410.26   33.20
   6   2  10  449.36   35.10
  -1   7 -10   73.89   10.80
  -6  -1 -10   75.29   13.50
   7  -6 -10   90.29   13.50
   1  -7  10   77.39   12.40
   6   1  10   61.59   16.20
   6   1  10   70.89   13.60
   0   6 -10  942.41   66.39
  -6   0 -10 1063.19   68.69
   6  -6 -10  946.41   68.09
   0  -6  10  877.11   66.59
   6   0  10  877.71   70.39
   6   0  10  910.71   67.79
   1   5 -10  316.57   24.50
  -6   1 -10  279.77   27.10
   5  -6 -10  262.07   26.80
   6  -1  10  327.37   30.80
  -1  -5  10  273.37   24.90
   4  -6 -10  736.63   54.69
  -6   2 -10  692.53   51.49
   2   4 -10  664.43   49.20
   4  -6 -10  713.13   51.49
  -2  -4  10  650.43   49.40
   6  -2  10  655.23   53.39
   3   3 -10   81.39   10.50
  -6   3 -10   61.29   12.60
   3  -6 -10   64.19   15.10
   3  -6 -10   84.59   13.20
   6  -3  10   82.89   15.70
  -3  -3  10   86.19   10.90
  -6   4 -10  653.53   51.29
   2  -6 -10  733.33   51.39
   2  -6 -10  695.43   53.09
   4   2 -10  637.04   49.10
  -4  -2  10  685.33   49.50
   6  -4  10  701.53   53.09
   1  -6 -10  290.37   30.00
  -6   5 -10  304.27   28.00
   1  -6 -10  299.47   27.90
   5   1 -10  297.07   25.10
   6  -5  10  330.17   30.40
   0  -6 -10  899.51   65.19
  -6   6 -10  847.12   64.99
   6   0 -10  888.01   63.29
   0   6  10  877.11   64.89
   6  -6  10  921.51   66.79
  -1  -6 -10   78.99   13.60
  -6   7 -10   80.09   13.30
   7  -1 -10   77.39   11.50
   6  -7  10   91.59   15.90
   1   6  10   63.19   13.30
  -2  -6 -10  481.05   36.40
   8  -2 -10  420.86   34.20
  -6   8 -10  468.25   36.20
   2   6  10  376.66   35.60
   6  -8  10  395.46   37.70
  -6   9 -10   80.69   14.30
  -3  -6 -10   84.79   14.50
   9  -3 -10   90.29   13.60
   3   6  10   79.39   15.40
   6  -9  10   93.49   16.80
  10  -4 -10   91.59   14.80
  -6  10 -10  100.99   15.70
  -4  -6 -10   78.69   14.70
   6 -10  10  102.09   17.40
   4   6  10  113.39   16.80
  11  -5 -10  279.77   26.10
  -6  11 -10  307.77   26.70
   6 -11  10  251.07   26.60
   5   6  10  248.78   26.20
  -6  12 -10 1203.98   83.69
  12  -6 -10 1144.29   82.99
   6 -12  10 1106.49   83.09
   6   6  10 1086.29   83.69
  13  -7 -10  200.88   24.30
  -6  13 -10  203.28   24.80
   6 -13  10  220.68   24.00
   7   6  10  255.77   25.30
  12  -7 -10   21.90   14.20
  -5  12 -10   50.79   14.00
   7   5  10    0.10   14.00
   5 -12  10   34.40   13.60
  11  -7 -10   99.69   16.50
  -4  11 -10   90.19   14.50
   7   4  10   86.59   16.80
   4 -11  10   78.39   15.00
  10  -7 -10  121.49   17.10
  -7  -3 -10  117.19   16.60
  -3  10 -10  130.69   15.80
   3 -10  10  103.89   15.30
   7   3  10  123.69   17.70
   9  -7 -10  143.19   17.60
  -7  -2 -10  147.19   17.50
  -2   9 -10  142.89   15.50
   7   2  10  109.79   17.10
   2  -9  10  119.59   15.50
   7   2  10  159.68   22.70
  -7  -1 -10  126.29   16.50
  -1   8 -10  134.69   13.70
   8  -7 -10  104.09   15.80
   7   1  10  112.39   19.80
   1  -8  10  116.19   14.30
   7   1  10  105.09   16.20
   0   7 -10   45.20    9.30
   7  -7 -10   68.19   12.80
  -7   0 -10   49.60   12.90
   7   0  10   49.60   16.10
   0  -7  10   54.59   10.30
   7   0  10   51.19   12.70
   1   6 -10   74.19   10.80
  -7   1 -10   79.49   14.20
   6  -7 -10   95.79   14.20
  -1  -6  10   85.79   11.30
   7  -1  10   99.09   14.00
   7  -1  10  108.39   18.40
  -7   2 -10  420.16   32.00
   2   5 -10  369.66   27.90
   5  -7 -10  353.76   31.50
  -2  -5  10  330.77   27.70
   7  -2  10  299.87   33.60
   4  -7 -10  129.99   18.40
   4  -7 -10  113.09   15.90
  -7   3 -10  154.38   17.00
   3   4 -10  127.59   13.30
   7  -3  10  137.09   19.50
  -3  -4  10  138.69   13.20
  -7   4 -10  127.49   17.10
   4   3 -10  150.08   13.90
   3  -7 -10  148.49   19.80
   3  -7 -10  124.29   16.60
   7  -4  10  161.38   20.30
  -4  -3  10  145.69   13.70
  -7   5 -10  320.07   31.40
   2  -7 -10  320.77   30.90
   2  -7 -10  308.77   32.80
   5   2 -10  337.27   27.40
  -5  -2  10  365.46   27.20
   7  -5  10  400.86   34.70
  -7   6 -10   89.89   13.90
   1  -7 -10   46.80   13.20
   1  -7 -10   95.39   16.70
   6   1 -10   83.29   10.70
  -1   7  10   75.89   13.60
   7  -6  10   54.09   15.50
  -7   7 -10   42.40   12.20
   0  -7 -10   62.19   16.00
   7   0 -10   41.60    9.40
   0  -7 -10   33.10   12.20
   7  -7  10   42.50   14.50
   0   7  10   52.19   13.20
  -7   8 -10   89.49   15.20
   8  -1 -10  116.19   13.50
  -1  -7 -10   98.29   15.40
   1   7  10  107.49   16.00
   7  -8  10  120.79   18.30
  -7   9 -10  129.39   17.10
  -2  -7 -10  120.79   16.80
   9  -2 -10  111.69   15.10
   7  -9  10  150.78   20.20
   2   7  10  146.09   18.00
  10  -3 -10   99.99   15.20
  -3  -7 -10  123.69   16.50
  -7  10 -10  110.89   16.90
   3   7  10  112.29   17.50
   7 -10  10  132.89   19.10
  -7  11 -10   79.99   16.00
  11  -4 -10   91.49   14.90
   7 -11  10   94.39   17.70
   4   7  10   62.69   16.10
  12  -5 -10   15.70   13.30
  -7  12 -10    7.70   14.70
   7 -12  10   16.70   14.40
   5   7  10   13.30   14.40
  -7  13 -10  227.08   25.80
  13  -6 -10  239.88   24.70
   6   7  10  197.48   24.80
   7 -13  10  217.68   25.50
  14  -7 -10   25.90   16.30
  -7  14 -10   59.19   18.90
   7 -14  10   41.60   15.80
   7   7  10   35.20   16.50
  -7  15 -10   38.20   20.80
  15  -8 -10   38.40   17.20
   8   7  10   30.20   16.90
   7 -15  10   38.50   15.40
  -6  14 -10   69.09   18.50
  14  -8 -10   35.50   16.60
   6 -14  10   48.80   14.80
   8   6  10   37.30   16.80
  -5  13 -10  187.68   22.00
  13  -8 -10  164.88   21.80
   8   5  10  161.48   22.10
   5 -13  10  168.58   19.80
   8   5  10  152.58   25.30
  12  -8 -10   13.50   14.40
  -4  12 -10    6.00   12.40
   8   4  10  -22.50   17.80
   8   4  10   21.20   15.00
   4 -12  10   -9.00   11.30
  -3  11 -10   92.09   14.60
  11  -8 -10  113.59   17.10
   3 -11  10   88.89   14.10
   8   3  10   65.49   20.70
   8   3  10   91.09   16.90
  -8  -2 -10   54.09   14.80
  -2  10 -10  109.09   13.70
  10  -8 -10   89.39   16.00
   2 -10  10  100.29   13.40
   8   2  10   75.39   19.00
   8   2  10   89.39   16.30
   9  -8 -10   89.59   15.20
  -8  -1 -10   88.19   15.30
  -1   9 -10   79.99   12.10
   1  -9  10   78.89   14.40
   8   1  10   74.09   15.50
   8   1  10   64.09   17.60
   8  -8 -10   34.80   12.60
   0   8 -10   32.50    8.80
  -8   0 -10   34.20   13.00
   8   0  10   37.20   16.80
   8   0  10   41.70   12.90
   7  -8 -10  115.19   16.60
   1   7 -10  124.99   13.20
  -8   1 -10  106.19   16.60
   8  -1  10  130.29   16.40
   8  -1  10  147.59   20.50
   2   6 -10  440.56   33.00
  -8   2 -10  438.86   37.20
   6  -8 -10  446.06   36.80
   8  -2  10  393.46   39.70
   8  -2  10  417.76   39.40
  -8   3 -10  218.98   22.10
   5  -8 -10  203.98   21.40
   5  -8 -10  228.98   24.50
   3   5 -10  224.18   19.50
   8  -3  10  201.98   24.20
   4  -8 -10 1150.68   88.49
  -8   4 -10 1230.08   87.29
   4   4 -10 1202.68   84.69
   4  -8 -10 1277.97   87.29
   8  -4  10 1210.48   89.19
   3  -8 -10  223.38   24.10
  -8   5 -10  232.88   22.10
   3  -8 -10  213.88   21.80
   5   3 -10  200.38   19.20
   8  -5  10  209.08   24.00
   2  -8 -10  372.06   37.40
   2  -8 -10  452.05   34.60
   6   2 -10  376.76   30.80
  -8   6 -10  392.86   34.90
   8  -6  10  428.16   37.20
   1  -8 -10  123.69   19.20
  -8   7 -10  119.19   16.20
   1  -8 -10  115.19   16.20
   7   1 -10  130.69   13.00
  -1   8  10   97.79   16.80
   8  -7  10  105.79   18.20
   0  -8 -10   57.09   16.70
   8   0 -10   40.90    9.50
  -8   8 -10   48.50   13.50
   0  -8 -10   33.10   12.30
   0   8  10   51.19   13.80
   8  -8  10   19.90   14.50
  -1  -8 -10   82.39   14.30
   9  -1 -10   90.19   12.40
  -8   9 -10   71.89   15.10
   1   8  10   61.29   15.50
   8  -9  10   92.19   18.30
  -8  10 -10   68.59   15.50
  10  -2 -10   85.79   13.10
  -2  -8 -10   78.09   14.60
   2   8  10   66.79   16.10
   8 -10  10   80.49   17.80
  11  -3 -10  107.29   15.50
  -8  11 -10   93.29   17.30
   3   8  10   97.79   17.50
   8 -11  10  103.79   19.50
  -8  12 -10  -18.50   14.60
  12  -4 -10   22.10   13.00
   8 -12  10   26.10   15.70
   4   8  10  -15.00   14.50
  13  -5 -10  160.38   20.80
  -8  13 -10  149.88   23.50
   8 -13  10  174.98   23.60
   5   8  10  174.48   22.40
  14  -6 -10   61.09   16.50
  -8  14 -10   35.10   19.60
   6   8  10   46.00   17.30
   8 -14  10   47.10   17.30
  15  -7 -10   43.50   17.30
  -8  15 -10   47.70   22.40
   8 -15  10   42.50   17.40
   7   8  10   40.80   17.50
  -6  15 -10   48.40   20.80
  15  -9 -10   44.20   17.60
   9   6  10   60.29   18.20
   6 -15  10   51.89   14.60
  14  -9 -10   92.89   19.10
  -5  14 -10   69.89   19.10
   9   5  10   96.89   19.30
   5 -14  10  103.79   18.60
  13  -9 -10   76.49   18.20
  -4  13 -10  102.29   17.40
   9   4  10   91.29   18.30
   9   4  10  115.89   23.00
  12  -9 -10   78.69   16.80
  -3  12 -10   59.59   14.00
   9   3  10   74.19   16.80
   9   3  10   68.19   20.50
  -2  11 -10   56.29   12.20
  11  -9 -10   62.29   15.80
   9   2  10   75.49   20.20
   9   2  10   47.00   15.50
  -9  -1 -10   70.09   15.50
  -1  10 -10   87.89   12.80
  10  -9 -10   91.99   16.10
   9   1  10   66.99   15.60
   9   1  10   78.99   19.30
   0   9 -10   34.00    9.60
  -9   0 -10   35.60   13.20
   9  -9 -10   39.40   13.70
   9   0  10   40.80   13.30
   9   0  10   49.50   17.90
   1   8 -10   73.79   10.40
   8  -9 -10   83.09   15.30
  -9   1 -10   70.99   14.80
   9  -1  10   70.99   18.40
   9  -1  10   74.29   14.30
  -9   2 -10   96.49   16.00
   7  -9 -10   79.49   16.00
   2   7 -10  107.59   12.20
   9  -2  10  152.88   17.10
   9  -2  10  157.88   20.80
   6  -9 -10   79.59   14.70
   3   6 -10   83.19   10.40
  -9   3 -10   81.79   15.00
   6  -9 -10   91.29   17.80
   9  -3  10  101.69   19.20
   5  -9 -10   44.00   13.10
   4   5 -10   45.60    8.50
  -9   4 -10   56.89   13.70
   5  -9 -10   28.00   16.50
   9  -4  10   50.09   16.90
   4  -9 -10   73.79   17.00
   4  -9 -10   67.89   13.50
   5   4 -10   65.29    9.10
  -9   5 -10   50.49   14.00
   9  -5  10   27.40   16.20
   3  -9 -10   98.59   18.10
   6   3 -10   72.89   10.20
   3  -9 -10   76.79   14.60
  -9   6 -10   97.69   15.90
   9  -6  10   89.89   17.50
   2  -9 -10  146.39   17.80
   7   2 -10  149.39   14.30
   2  -9 -10  189.48   23.00
  -9   7 -10  153.78   19.20
   9  -7  10  112.09   19.90
  -2   9  10  121.09   18.40
  -9   8 -10   67.39   15.20
   1  -9 -10   86.49   14.50
   8   1 -10   62.39   10.50
   1  -9 -10   74.79   18.00
   9  -8  10   89.79   18.10
  -1   9  10   69.99   15.70
   0  -9 -10   40.20   12.70
  -9   9 -10   46.70   14.60
   9   0 -10   39.70   10.00
   0  -9 -10   30.50   15.80
   9  -9  10   35.10   16.00
   0   9  10   30.80   15.00
  10  -1 -10   75.99   12.40
  -1  -9 -10   63.89   14.10
  -9  10 -10   64.29   16.20
   9 -10  10   65.09   18.60
   1   9  10   59.09   16.10
  -9  11 -10   66.89   17.40
  11  -2 -10   78.39   13.90
   9 -11  10   56.39   18.70
   2   9  10   93.39   17.40
  -9  12 -10  100.39   19.00
  12  -3 -10   58.39   14.40
   3   9  10   77.79   17.40
   9 -12  10   58.09   18.30
  -9  13 -10   98.09   20.90
  13  -4 -10  111.49   17.30
   9 -13  10   80.69   19.90
   4   9  10   87.19   18.60
  14  -5 -10   85.19   17.80
  -9  14 -10   92.79   22.10
   5   9  10   86.49   19.00
   9 -14  10   67.89   19.40
  15  -6 -10   16.50   16.50
  -9  15 -10   35.70   22.00
   6   9  10   40.80   17.90
   9 -15  10   40.70   18.20
  15 -10 -10  -10.20   16.60
  -5  15 -10   15.00   19.10
  10   5  10   -0.80   16.00
  -4  14 -10   49.40   17.10
  14 -10 -10   54.79   17.30
  10   4  10   19.90   16.60
  13 -10 -10   -0.60   15.10
  -3  13 -10    3.10   13.50
  10   3  10   -4.20   15.00
  10   3  10    9.20   18.60
  12 -10 -10   75.69   17.40
  -2  12 -10   87.09   14.40
  10   2  10   70.39   20.10
  10   2  10   69.69   17.20
  -1  11 -10  127.59   15.60
  11 -10 -10  123.19   19.30
  10   1  10  112.49   22.60
  10   1  10  128.89   19.10
  10 -10 -10   17.60   13.50
   0  10 -10   24.40    9.60
  10   0  10   12.60   17.50
  10   0  10    7.20   13.20
   1   9 -10   54.09   10.20
 -10   1 -10   71.29   15.30
   9 -10 -10   68.89   15.30
  10  -1  10   67.69   15.00
  10  -1  10   79.79   18.50
   8 -10 -10   83.89   16.10
   2   8 -10   90.29   10.90
 -10   2 -10   96.79   16.00
  10  -2  10   79.69   19.10
  10  -2  10   71.59   15.00
 -10   3 -10  104.69   17.00
   3   7 -10   96.89   12.90
   7 -10 -10  126.49   17.10
  10  -3  10  108.19   20.80
  10  -3  10  122.89   17.30
   6 -10 -10   90.39   19.60
 -10   4 -10   86.19   16.30
   6 -10 -10   97.39   16.30
  10  -4  10  106.89   19.90
 -10   5 -10 1041.00   75.09
   5 -10 -10  900.91   76.39
   5 -10 -10 1051.79   74.39
  10  -5  10 1043.50   76.69
   4 -10 -10  103.19   15.80
   4 -10 -10   87.59   17.90
 -10   6 -10   71.99   16.00
  10  -6  10   93.39   18.80
   3 -10 -10  154.78   21.30
 -10   7 -10  123.69   18.60
   3 -10 -10  160.38   18.60
  10  -7  10  113.49   21.20
  -3  10  10  135.29   26.70
   8   2 -10   77.79   11.10
 -10   8 -10   91.69   16.60
   2 -10 -10   98.09   20.10
   2 -10 -10   96.19   15.60
  10  -8  10   89.89   19.50
  -2  10  10  109.69   17.80
   1 -10 -10   61.29   18.60
   1 -10 -10   87.79   15.10
 -10   9 -10   67.49   16.90
   9   1 -10  102.89   11.90
  -1  10  10  110.69   17.80
  10  -9  10   82.49   19.70
  10   0 -10   22.20    9.90
 -10  10 -10   19.60   14.60
   0 -10 -10   23.40   16.10
   0  10  10   24.80   15.60
  10 -10  10   23.90   17.00
 -10  11 -10  123.49   20.60
  11  -1 -10  138.99   15.90
   1  10  10  157.68   20.50
  10 -11  10   77.19   21.50
 -10  12 -10   88.59   19.30
  12  -2 -10   74.09   14.60
   2  10  10   63.89   18.10
  10 -12  10  113.09   20.60
 -10  13 -10   -6.50   17.60
  13  -3 -10    9.20   13.20
  10 -13  10   -0.60   17.60
   3  10  10   13.30   15.80
 -10  14 -10   40.70   22.00
  14  -4 -10   68.19   16.40
   4  10  10   50.59   18.20
  10 -14  10   70.79   20.00
  15  -5 -10    6.80   15.60
 -10  15 -10   24.80   23.30
   5  10  10   17.70   17.00
  10 -15  10   27.70   18.40
  15 -11 -10    5.40   16.50
  -4  15 -10  -11.50   18.20
  11   4  10   25.50   17.20
  -3  14 -10  151.98   22.00
  14 -11 -10  155.38   22.90
  11   3  10  140.49   21.60
  13 -11 -10   -6.30   15.30
  -2  13 -10  -12.30   12.80
  11   2  10  -10.80   19.80
  11   2  10   -6.60   14.80
  12 -11 -10    6.20   14.80
  -1  12 -10   -2.30   11.00
  11   1  10   -3.80   16.90
  11   1  10   -0.70   15.10
  11 -11 -10  162.08   20.90
   0  11 -10  135.59   16.10
  11   0  10  171.98   25.20
  11   0  10  139.69   19.80
  10 -11 -10  118.29   18.20
  11  -1  10  127.29   22.80
  11  -1  10   88.69   17.00
   9 -11 -10   74.19   16.30
 -11   2 -10   74.09   16.20
  11  -2  10   78.69   19.90
  11  -2  10   91.79   16.00
   8 -11 -10   86.39   16.70
 -11   3 -10   79.19   16.40
  11  -3  10   85.99   15.60
  11  -3  10   78.99   19.80
   7 -11 -10   63.59   19.30
   7 -11 -10  106.99   16.50
 -11   4 -10   67.49   15.90
  11  -4  10   77.59   18.60
   6 -11 -10  280.77   29.50
   6 -11 -10  337.67   29.30
 -11   5 -10  212.28   25.30
  11  -5  10  216.78   27.40
   5 -11 -10  246.38   25.60
   5 -11 -10  254.07   29.30
 -11   6 -10  299.27   27.60
  11  -6  10  277.47   30.10
 -11   7 -10   69.69   16.50
   4 -11 -10   97.79   16.10
   4 -11 -10   70.69   18.70
  11  -7  10   73.99   19.00
   3 -11 -10   88.79   19.80
 -11   8 -10  100.69   18.10
   3 -11 -10   86.39   15.90
  11  -8  10   87.09   19.90
  -3  11  10  100.49   19.00
   2 -11 -10   77.29   15.30
 -11   9 -10   78.59   17.90
   2 -11 -10   80.59   19.20
  -2  11  10   85.59   18.30
  11  -9  10   59.99   19.20
 -11  10 -10  118.49   20.80
   1 -11 -10  109.19   21.80
  -1  11  10  105.59   20.20
  11 -10  10  119.59   22.30
  11   0 -10  149.59   16.80
   0 -11 -10  141.89   23.70
 -11  11 -10  176.88   23.60
  11 -11  10  155.28   24.40
   0  11  10  164.48   22.50
  12  -1 -10    8.30   11.70
 -11  12 -10   13.80   18.20
   1  11  10    8.30   16.10
  11 -12  10   26.10   17.90
 -11  13 -10  -18.70   18.30
  13  -2 -10   16.60   13.10
   2  11  10   30.20   17.20
  11 -13  10    5.80   18.10
  14  -3 -10  112.09   18.20
 -11  14 -10  120.59   25.40
   3  11  10  107.39   20.70
  11 -14  10  121.09   23.40
 -11  15 -10   17.60   23.60
  15  -4 -10   10.10   15.60
  11 -15  10    4.80   18.80
   4  11  10    8.40   17.10
  14 -12 -10   -9.90   16.70
  -2  14 -10    3.90   15.30
  12   2  10   11.00   16.90
  13 -12 -10   27.20   16.60
  -1  13 -10   43.40   17.10
  12   1  10    5.00   15.20
  12 -12 -10  262.27   28.70
  12   0  10  261.87   32.10
  12   0  10  296.87   28.30
  11 -12 -10    0.30   14.80
  12  -1  10   24.70   19.00
  12  -1  10    9.20   14.40
  10 -12 -10   96.89   18.10
  12  -2  10   99.69   21.20
  12  -2  10   83.79   17.00
 -12   3 -10   62.39   16.80
   9 -12 -10   60.39   16.10
  12  -3  10   43.20   14.90
  12  -3  10   79.49   20.40
   8 -12 -10   24.00   17.90
 -12   4 -10  -19.60   14.20
   8 -12 -10   26.00   13.90
  12  -4  10   33.40   18.70
 -12   5 -10   25.00   15.30
   7 -12 -10   33.00   17.90
   7 -12 -10   19.60   14.10
  12  -5  10   40.20   18.20
 -12   6 -10 1118.19   87.29
   6 -12 -10 1151.28   85.99
   6 -12 -10 1215.28   89.19
  12  -6  10 1229.28   89.19
   5 -12 -10   15.40   13.40
 -12   7 -10   25.60   15.80
   5 -12 -10   16.10   17.60
  12  -7  10   33.10   17.80
 -12   8 -10   -3.90   15.10
   4 -12 -10    0.80   12.70
   4 -12 -10   19.20   16.90
  12  -8  10    6.00   17.30
   3 -12 -10   47.60   14.80
 -12   9 -10   47.40   18.00
   3 -12 -10   50.99   18.10
  -3  12  10   71.39   18.70
  12  -9  10   65.49   19.80
 -12  10 -10   70.29   19.50
   2 -12 -10   73.39   20.50
  12 -10  10   69.79   20.80
  -2  12  10   92.99   19.30
   1 -12 -10    1.40   17.80
 -12  11 -10  -13.10   17.50
  12 -11  10    1.90   18.10
  -1  12  10  -11.60   16.50
 -12  12 -10  314.87   33.40
   0 -12 -10  276.27   32.50
  12 -12  10  308.17   33.30
   0  12  10  290.07   30.70
 -12  13 -10   43.10   21.60
  12 -13  10   19.70   18.90
   1  12  10   31.70   18.00
 -12  14 -10   18.20   22.70
  14  -2 -10   -4.60   13.50
  12 -14  10  -31.20   18.50
   2  12  10   40.20   18.10
  14 -13 -10  187.78   25.80
  13   1  10  225.48   25.80
  13 -13 -10  448.96   43.50
  13   0  10  467.45   42.90
  12 -13 -10   47.40   16.50
  13  -1  10    8.90   15.60
  13  -1  10   13.40   19.30
  11 -13 -10    7.20   15.10
  13  -2  10   -3.60   14.50
  13  -2  10    1.40   18.70
  10 -13 -10   21.50   15.30
  13  -3  10   -0.70   18.60
  13  -3  10   26.20   14.90
   9 -13 -10  100.99   18.00
  13  -4  10  100.89   17.30
  13  -4  10   70.89   21.60
   8 -13 -10  147.09   20.90
 -13   5 -10  172.48   22.40
   8 -13 -10  168.58   26.30
  13  -5  10  179.78   25.90
   7 -13 -10  318.47   31.10
 -13   6 -10  209.98   26.60
   7 -13 -10  222.68   24.70
  13  -6  10  200.38   28.50
   6 -13 -10  227.78   24.90
   6 -13 -10  258.27   29.70
 -13   7 -10  211.08   27.00
  13  -7  10  249.58   30.00
   5 -13 -10  185.48   25.40
   5 -13 -10  192.78   21.50
 -13   8 -10  157.08   23.80
  13  -8  10  155.58   26.10
 -13   9 -10   85.69   20.50
   4 -13 -10   71.69   20.30
  13  -9  10   84.79   22.10
  -4  13  10  109.99   26.00
 -13  10 -10   31.40   18.90
   3 -13 -10   17.80   18.50
  13 -10  10   16.00   19.80
  -3  13  10   -0.10   17.80
   2 -13 -10  -22.70   17.00
 -13  11 -10  -13.30   18.20
  -2  13  10   22.70   18.20
  13 -11  10  -17.00   18.50
 -13  12 -10   36.00   21.10
   1 -13 -10   14.20   18.90
  13 -12  10   32.90   20.50
  -1  13  10   18.50   18.10
 -13  13 -10  440.56   43.50
  13 -13  10  391.86   41.40
   0  13  10  468.25   44.20
 -13  14 -10  210.28   32.20
  13 -14  10  193.28   29.40
   1  13  10  210.28   26.90
  13 -14 -10  188.38   24.60
  14  -1  10  179.98   23.70
  12 -14 -10   -5.10   16.10
  14  -2  10  -18.50   14.60
  14  -2  10   -3.30   19.50
  11 -14 -10  117.59   20.20
  14  -3  10  133.09   20.20
  14  -3  10  111.09   23.60
  10 -14 -10   14.60   15.90
  14  -4  10   65.99   21.40
  14  -4  10   45.10   15.40
   9 -14 -10  114.79   18.80
   9 -14 -10   94.49   24.30
  14  -5  10   82.19   22.40
   8 -14 -10   43.20   15.60
 -14   6 -10   40.30   21.90
   8 -14 -10   13.90   19.80
  14  -6  10   58.69   20.50
 -14   7 -10   33.00   18.90
   7 -14 -10   21.50   20.40
   7 -14 -10   49.80   15.30
  14  -7  10   58.69   21.00
 -14   8 -10   38.00   19.30
   6 -14 -10   50.99   15.90
   6 -14 -10   32.80   20.40
  14  -8  10   58.49   21.20
   5 -14 -10   74.09   21.20
 -14   9 -10  121.29   23.00
  14  -9  10  104.49   23.20
 -14  10 -10   30.40   20.50
   4 -14 -10   37.70   19.90
  -4  14  10   45.60   20.90
  14 -10  10   31.30   21.30
 -14  11 -10  132.19   26.40
   3 -14 -10  152.38   24.90
  14 -11  10  115.49   26.60
  -3  14  10  151.68   24.50
 -14  12 -10   -5.20   21.50
   2 -14 -10  -12.80   19.50
  -2  14  10   -3.20   18.40
  14 -12  10   -1.80   20.90
   1 -14 -10  195.18   28.30
 -14  13 -10  202.28   31.80
  -1  14  10  181.78   26.80
  14 -13  10  164.58   28.60
  11 -15 -10   36.10   16.60
  15  -4  10   20.50   15.40
  15  -4  10   27.10   21.00
  10 -15 -10   20.10   15.80
  15  -5  10   17.70   19.60
   9 -15 -10   24.90   22.20
   9 -15 -10   49.99   16.70
  15  -6  10   37.10   20.30
   8 -15 -10   28.70   15.00
   8 -15 -10   35.60   21.00
  15  -7  10   18.30   20.40
 -15   8 -10   46.30   21.50
   7 -15 -10   44.90   21.10
  15  -8  10   36.60   22.00
   6 -15 -10   55.49   22.00
 -15   9 -10   62.49   22.50
  15  -9  10   52.79   22.40
 -15  10 -10   63.69   23.00
   5 -15 -10   18.40   19.50
  15 -10  10   21.90   21.10
   4 -15 -10    1.10   19.30
 -15  11 -10  -11.60   22.40
  15 -11  10   38.80   23.10
  -4  15  10   -2.60   20.00
   0   0 -11   -0.80    9.30
  -1   0 -11  262.37   24.40
   1  -1 -11  228.38   21.80
   0   1 -11  231.58   21.60
   1   0 -11  253.47   25.70
  -1   1 -11  267.97   25.60
   0  -1 -11  291.87   26.10
   2  -1 -11 1327.57   86.99
  -1   2 -11 1232.68   86.79
  -1  -1 -11 1169.48   86.99
   1  -2  11 1157.48   87.59
   3  -2 -11  483.85   37.70
  -1   3 -11  538.85   37.90
  -2  -1 -11  451.85   37.90
   1  -3  11  419.36   38.30
   2  -2 -11   39.60   11.30
  -2   0 -11   51.49   11.90
   0   2 -11   48.70   10.90
   0  -2  11   52.19   13.00
   1  -2 -11 1352.36   86.29
  -2   1 -11 1206.08   85.89
   1   1 -11 1071.69   85.19
  -2   2 -11   54.69   11.50
   0  -2 -11   36.00   11.60
   2   0 -11   38.30   10.60
   2  -2  11   47.90   14.10
   3  -1 -11  381.96   34.80
  -1  -2 -11  394.96   35.70
  -2   3 -11  425.76   35.10
   2  -3  11  535.35   37.60
  -2  -2 -11  412.76   33.60
   4  -2 -11  369.36   31.60
  -2   4 -11  364.96   31.90
   2  -4  11  387.36   33.40
  -2   5 -11   20.30    9.90
  -3  -2 -11   23.40   11.60
   5  -3 -11   12.90   10.70
   2  -5  11   13.30   11.50
  -3  -1 -11   72.49   13.50
  -1   4 -11   82.89   12.50
   4  -3 -11   63.39   12.60
   1  -4  11  116.69   14.60
   0   3 -11    1.40    8.90
  -3   0 -11    4.50   10.60
   3  -3 -11    2.90    9.90
   0  -3  11   -3.90   10.00
   2  -3 -11  458.05   37.30
   1   2 -11  444.86   36.20
  -3   1 -11  411.56   37.50
   3  -1  11  490.85   39.60
  -1  -2  11  480.35   37.30
   2   1 -11  453.25   36.10
  -3   2 -11  459.35   37.10
   1  -3 -11  480.55   37.40
   3  -2  11  424.06   39.30
   3   0 -11   -6.20    9.00
   0  -3 -11   19.00   10.70
  -3   3 -11    6.60   10.40
   3  -3  11   15.60   12.30
  -3   4 -11  113.99   14.00
   4  -1 -11  107.79   13.40
  -1  -3 -11   93.89   14.70
   3  -4  11   74.89   15.40
  -3   5 -11   10.10    9.80
  -2  -3 -11    6.70   10.80
   5  -2 -11   10.40    9.80
   3  -5  11   15.40   12.30
   6  -3 -11   -0.80    9.70
  -3   6 -11   -3.60    9.50
  -3  -3 -11    9.00   11.20
   3  -6  11   18.10   12.40
   7  -4 -11  141.59   16.40
  -4  -3 -11  100.89   16.50
  -3   7 -11  116.09   15.20
   3  -7  11  143.29   17.40
  -2   6 -11   -1.00    9.30
   6  -4 -11   25.00   10.90
  -4  -2 -11    5.90   11.20
   2  -6  11    7.50   10.80
  -4  -1 -11   -7.70   11.20
  -1   5 -11  -10.90    8.90
   5  -4 -11    9.10   10.60
   1  -5  11    2.60   10.40
  -4   0 -11  220.08   23.10
   0   4 -11  282.17   24.00
   4  -4 -11  239.98   22.80
   0  -4  11  265.97   24.70
   4   0  11  237.38   25.90
   1   3 -11  102.29   12.60
  -4   1 -11   90.39   14.00
   3  -4 -11  109.89   14.20
  -1  -3  11   62.79   12.90
   4  -1  11   63.09   16.80
   2   2 -11  372.36   30.30
   2  -4 -11  330.47   31.60
  -4   2 -11  368.66   31.90
  -2  -2  11  381.96   31.30
   4  -2  11  347.57   33.90
   3   1 -11   75.09   12.20
   1  -4 -11  100.09   14.60
  -4   3 -11   98.19   14.00
   4  -3  11  109.69   17.00
   4   0 -11  245.98   22.80
   0  -4 -11  213.18   22.20
  -4   4 -11  236.98   22.10
   4  -4  11  236.58   24.30
  -4   5 -11   12.20   10.60
  -1  -4 -11    1.00   11.10
   5  -1 -11   27.00    9.70
   4  -5  11   15.90   12.90
  -2  -4 -11   19.70   12.00
   6  -2 -11   25.10   10.30
  -4   6 -11   17.10   10.60
   4  -6  11   26.30   13.10
   7  -3 -11  120.89   16.00
  -3  -4 -11  149.09   17.50
  -4   7 -11  133.89   16.50
   4  -7  11  133.59   18.20
   8  -4 -11  679.23   53.59
  -4  -4 -11  720.63   54.49
  -4   8 -11  660.53   53.09
   4   4  11  734.33   54.69
   4  -8  11  732.43   54.89
  -5  -4 -11    0.50   11.70
   9  -5 -11  -13.50   11.80
  -4   9 -11    9.80   11.20
   4  -9  11    0.00   12.60
   5   4  11   18.30   13.40
   8  -5 -11  646.24   55.29
  -5  -3 -11  806.32   56.19
  -3   8 -11  740.63   54.89
   5   3  11  726.23   56.29
   3  -8  11  747.73   55.79
  -2   7 -11    0.50    9.60
   7  -5 -11   10.10   11.70
  -5  -2 -11   28.80   12.60
   2  -7  11    7.10   11.00
  -1   6 -11   39.40   10.40
  -5  -1 -11   55.49   13.30
   6  -5 -11   39.80   12.10
   1  -6  11   57.19   12.20
  -5   0 -11   41.40   12.90
   0   5 -11   54.39   10.50
   5  -5 -11   42.60   12.20
   5   0  11   42.90   16.50
   0  -5  11   63.39   11.70
   4  -5 -11    6.40   10.60
  -5   1 -11    7.50   10.90
   1   4 -11    2.70    9.00
  -1  -4  11   -2.60    9.40
   5  -1  11   -8.50   13.80
   2   3 -11   -0.40    8.60
   3  -5 -11    6.20   11.20
  -5   2 -11    9.20   11.00
   5  -2  11   21.60   14.30
  -2  -3  11    6.60    9.50
   2  -5 -11    6.90   11.10
   3   2 -11    0.40    8.70
  -5   3 -11   13.80   10.90
   5  -3  11   19.70   13.20
  -3  -2  11    2.10    9.70
   1  -5 -11   14.80   11.70
   4   1 -11   -0.20    8.70
  -5   4 -11   10.60   11.00
   5  -4  11   20.90   13.80
  -5   5 -11   56.29   12.20
   5   0 -11   43.10   10.10
   0  -5 -11   55.69   13.10
   5  -5  11   36.80   14.30
  -5   6 -11   30.50   11.80
  -1  -5 -11   43.50   12.90
   6  -1 -11   39.10   10.40
   5  -6  11   43.20   13.70
   7  -2 -11   30.50   10.60
  -5   7 -11   -5.40   11.10
  -2  -5 -11   19.50   12.10
   5  -7  11    4.10   13.40
   8  -3 -11  745.03   54.39
  -5   8 -11  695.63   54.59
  -3  -5 -11  732.23   55.59
   3   5  11  684.93   55.29
   5  -8  11  750.22   56.99
   9  -4 -11  -14.00   11.10
  -4  -5 -11    3.10   12.20
  -5   9 -11    0.60   11.30
   5  -9  11    2.30   13.20
   4   5  11  -14.30   12.00
  10  -5 -11  590.34   47.90
  -5  -5 -11  625.74   47.80
  -5  10 -11  555.44   47.50
   5 -10  11  610.44   48.90
   5   5  11  591.44   48.60
  -5  11 -11   59.49   14.60
  11  -6 -11   49.10   15.50
   5 -11  11   50.39   14.90
   6   5  11   60.29   16.60
  -4  10 -11   72.39   13.90
  10  -6 -11   69.69   15.20
  -6  -4 -11   41.00   14.00
   4 -10  11   70.99   14.90
   6   4  11   47.10   15.20
  -3   9 -11  366.26   31.50
  -6  -3 -11  339.67   33.20
   9  -6 -11  347.97   33.10
   6   3  11  367.46   34.10
   3  -9  11  351.86   32.00
  -6  -2 -11   22.80   12.50
   8  -6 -11    2.80   12.20
  -2   8 -11   22.10   10.50
   6   2  11   42.80   16.60
   6   2  11   16.80   17.50
   2  -8  11   35.00   12.00
   7  -6 -11  388.66   32.60
  -6  -1 -11  347.47   31.60
  -1   7 -11  353.86   29.10
   6   1  11  301.37   33.00
   1  -7  11  322.07   29.80
   6  -6 -11   -0.60   10.90
   0   6 -11    5.70    9.10
  -6   0 -11   -9.30   11.30
   6   0  11    5.20   14.50
   0  -6  11  -15.50    9.10
   5  -6 -11   44.70   12.80
   1   5 -11   40.00   10.10
  -6   1 -11   35.80   12.60
  -1  -5  11   42.40   10.50
   6  -1  11   57.89   16.40
   4  -6 -11   36.40   11.70
   2   4 -11   20.70    8.80
  -6   2 -11   16.00   11.70
  -2  -4  11    8.20    9.10
   6  -2  11   13.80   15.10
   3  -6 -11   -2.50   11.10
  -6   3 -11   -5.10   11.10
   3   3 -11    3.50    8.50
  -3  -3  11   -1.60    8.40
   6  -3  11    1.10   13.90
   2  -6 -11    9.00   11.60
   4   2 -11   20.30    9.10
  -6   4 -11    3.00   11.00
   2  -6 -11   21.80   14.50
   6  -4  11    5.30   13.90
  -4  -2  11   24.20    9.60
  -6   5 -11   50.99   12.70
   1  -6 -11   34.90   13.10
   5   1 -11   54.09   10.20
   6  -5  11   38.90   15.00
  -6   6 -11    4.60   11.30
   0  -6 -11   -2.80   11.30
   6   0 -11    1.80    9.00
   6  -6  11  -19.60   12.60
  -1  -6 -11  319.87   31.30
  -6   7 -11  316.07   30.70
   7  -1 -11  304.07   28.60
   6  -7  11  358.26   33.60
   8  -2 -11   41.50   11.20
  -6   8 -11   42.20   12.90
  -2  -6 -11   17.60   13.20
   6  -8  11   49.80   15.60
   2   6  11   25.60   14.60
   9  -3 -11  341.47   32.40
  -6   9 -11  363.16   33.60
  -3  -6 -11  380.76   34.10
   6  -9  11  382.26   35.90
   3   6  11  356.56   34.20
  -4  -6 -11   49.40   14.30
  -6  10 -11   40.30   14.10
  10  -4 -11   57.39   14.20
   4   6  11   56.99   15.60
   6 -10  11   61.59   16.40
  -6  11 -11   60.69   15.30
  11  -5 -11   43.40   14.90
   6 -11  11   46.20   15.90
   5   6  11   68.09   16.20
  -6  12 -11  263.87   26.50
  12  -6 -11  261.67   26.60
   6   6  11  236.38   26.60
   6 -12  11  242.78   26.40
  -6  13 -11   10.30   15.70
  13  -7 -11   28.80   16.20
   7   6  11   16.80   16.00
   6 -13  11   -3.40   14.00
  -5  12 -11  214.68   24.60
  12  -7 -11  237.38   26.10
   7   5  11  239.58   26.30
   5 -12  11  251.77   25.00
  -4  11 -11   26.50   13.00
  11  -7 -11   22.60   14.80
   4 -11  11   32.00   13.40
   7   4  11   17.70   15.00
   7   4  11   26.50   19.60
  -7  -3 -11   83.29   15.50
  10  -7 -11   63.89   15.50
  -3  10 -11   82.79   13.80
   3 -10  11   46.50   13.10
   7   3  11   47.10   15.60
   7   3  11   85.09   21.00
  -2   9 -11   31.90   11.40
  -7  -2 -11   -1.00   12.90
   9  -7 -11   43.10   14.10
   7   2  11   43.90   18.70
   2  -9  11   37.10   11.70
   7   2  11   49.30   14.10
   8  -7 -11  306.47   27.10
  -1   8 -11  269.17   25.80
  -7  -1 -11  269.07   26.60
   7   1  11  294.27   31.40
   1  -8  11  279.77   26.10
   7  -7 -11  301.97   26.00
  -7   0 -11  318.37   28.80
   0   7 -11  245.58   24.30
   7   0  11  221.68   28.20
   0  -7  11  256.47   24.10
   6  -7 -11  299.67   30.10
   1   6 -11  355.06   27.50
  -7   1 -11  289.17   28.40
   7  -1  11  300.47   31.70
  -1  -6  11  336.67   27.20
   5  -7 -11    7.60   11.60
  -7   2 -11   12.30   12.20
   2   5 -11   17.20    8.80
   7  -2  11    1.50   15.10
  -2  -5  11   12.80    9.20
   4  -7 -11  156.68   18.00
   3   4 -11  133.99   14.50
  -7   3 -11  150.48   18.20
  -3  -4  11  139.29   16.70
   7  -3  11  118.79   20.90
   3  -7 -11  142.69   17.50
  -7   4 -11  113.89   17.30
   4   3 -11  124.19   14.10
   3  -7 -11  117.09   20.00
   7  -4  11  154.08   20.70
  -4  -3  11  140.19   18.60
   5   2 -11    9.50    8.80
   2  -7 -11   27.40   13.10
   2  -7 -11   18.00   14.30
  -7   5 -11   28.70   12.50
  -5  -2  11   16.70   10.20
   7  -5  11    5.70   14.00
   6   1 -11  348.17   27.20
  -7   6 -11  330.87   31.20
   1  -7 -11  281.47   28.00
   7  -6  11  299.37   32.40
  -7   7 -11  261.77   25.10
   7   0 -11  247.98   24.20
   0  -7 -11  294.57   27.50
   7  -7  11  239.88   27.30
  -1  -7 -11  242.38   26.00
   8  -1 -11  294.57   26.30
  -7   8 -11  295.77   26.80
   7  -8  11  292.57   29.00
  -7   9 -11   54.19   14.20
   9  -2 -11   45.60   11.90
  -2  -7 -11   39.70   13.90
   7  -9  11   33.60   16.30
   2   7  11   40.50   14.40
  -3  -7 -11   42.80   14.20
  10  -3 -11   57.49   13.70
  -7  10 -11   61.59   15.30
   3   7  11   82.09   16.40
   7 -10  11   78.49   17.50
  11  -4 -11   30.30   13.80
  -7  11 -11   22.90   14.60
   7 -11  11   13.10   16.10
   4   7  11    8.40   15.30
  12  -5 -11  232.58   25.10
  -7  12 -11  291.67   27.10
   5   7  11  197.08   25.20
   7 -12  11  232.48   26.70
  -7  13 -11   18.00   16.80
  13  -6 -11  -15.10   14.70
   7 -13  11   22.50   16.20
   6   7  11   19.40   15.60
  14  -7 -11  261.37   28.90
  -7  14 -11  240.38   29.50
   7 -14  11  255.67   27.50
   7   7  11  277.27   28.80
  14  -8 -11   58.09   19.40
  -6  14 -11   63.19   19.50
   6 -14  11   78.59   16.50
   8   6  11   87.39   19.60
  -5  13 -11   14.20   15.30
  13  -8 -11   15.20   16.20
   8   5  11    5.10   15.80
   5 -13  11    3.00   13.00
   8   5  11   -2.60   20.00
  -4  12 -11   77.89   16.10
  12  -8 -11  100.09   19.00
   8   4  11  107.89   22.60
   4 -12  11   78.79   15.90
   8   4  11   80.49   18.30
  11  -8 -11  171.28   20.50
  -3  11 -11  141.69   17.60
   8   3  11   93.69   23.20
   8   3  11  112.29   19.80
  10  -8 -11  667.03   56.29
  -2  10 -11  691.33   53.89
  -8  -2 -11  726.03   56.29
   8   2  11  751.52   60.19
   8   2  11  760.22   56.79
   9  -8 -11  386.76   34.90
  -8  -1 -11  373.06   34.60
  -1   9 -11  380.66   31.10
   8   1  11  325.57   35.00
   8   1  11  332.67   34.20
  -8   0 -11  232.48   23.50
   0   8 -11  207.78   19.40
   8  -8 -11  213.98   22.80
   8   0  11  189.08   26.40
   1   7 -11  276.27   24.30
   7  -8 -11  261.97   25.70
  -8   1 -11  251.67   26.30
   8  -1  11  283.27   30.00
   2   6 -11   44.00    9.80
  -8   2 -11   44.30   14.20
   6  -8 -11   37.10   13.90
   8  -2  11    6.70   16.40
   3   5 -11  748.53   53.39
   5  -8 -11  689.33   56.19
  -8   3 -11  813.42   57.49
   8  -3  11  688.63   58.79
  -8   4 -11  755.82   55.99
   4   4 -11  705.93   52.19
   4  -8 -11  710.43   55.39
   4  -8 -11  734.93   57.79
   8  -4  11  681.63   57.79
   3  -8 -11  791.42   57.19
   3  -8 -11  641.34   54.49
  -8   5 -11  738.23   55.29
   5   3 -11  738.23   51.59
   8  -5  11  615.94   56.09
  -8   6 -11   30.60   13.40
   6   2 -11   19.90    8.80
   2  -8 -11   46.20   16.80
   2  -8 -11   46.90   13.90
   8  -6  11   18.30   15.50
  -8   7 -11  298.97   27.70
   7   1 -11  275.57   25.30
   1  -8 -11  301.87   30.90
   1  -8 -11  338.17   30.00
   8  -7  11  254.57   29.10
  -8   8 -11  228.18   22.40
   8   0 -11  198.08   18.70
   0  -8 -11  166.78   21.00
   8  -8  11  168.38   23.60
  -1  -8 -11  307.17   30.60
  -8   9 -11  360.36   34.40
   9  -1 -11  355.16   30.50
   1   8  11  338.47   31.70
   8  -9  11  413.26   37.60
  -2  -8 -11  662.73   52.89
  -8  10 -11  738.03   54.39
  10  -2 -11  687.93   51.59
   2   8  11  688.93   54.39
   8 -10  11  611.24   54.59
  -8  11 -11  124.09   20.30
  11  -3 -11  160.48   18.60
   3   8  11  131.89   20.30
   8 -11  11  133.89   22.20
  -8  12 -11  117.09   19.60
  12  -4 -11   97.59   17.10
   8 -12  11   76.09   19.30
   4   8  11   66.19   18.30
  13  -5 -11  -23.50   14.30
  -8  13 -11   32.90   17.90
   5   8  11   15.10   16.20
   8 -13  11   -0.50   16.60
  14  -6 -11   50.99   17.80
  -8  14 -11   64.09   21.10
   8 -14  11   76.99   18.90
   6   8  11   40.60   18.60
  14  -9 -11   83.09   20.00
  -5  14 -11   82.29   19.70
   9   5  11  104.49   20.70
  -4  13 -11    9.10   15.10
  13  -9 -11   25.60   16.90
   9   4  11   13.10   16.20
   9   4  11   24.50   20.00
  -3  12 -11    0.70   12.80
  12  -9 -11  -23.90   14.70
   9   3  11   12.20   19.30
   9   3  11   24.70   15.90
  11  -9 -11   97.69   18.00
  -2  11 -11   88.09   14.20
   9   2  11   65.09   20.80
   9   2  11   55.99   16.70
  -9  -1 -11   -5.40   21.80
  -1  10 -11    6.70   10.50
  10  -9 -11    0.30   13.90
   9   1  11   13.80   13.90
   9   1  11    9.40   17.50
   0   9 -11  -16.10    9.20
   9  -9 -11   -3.70   13.50
  -9   0 -11  -22.20   12.50
   9   0  11   -4.60   16.60
   9   0  11   -3.70   15.50
   1   8 -11  367.66   29.60
  -9   1 -11  353.06   35.00
   8  -9 -11  322.27   31.70
   9  -1  11  407.96   38.60
   2   7 -11   52.59   10.20
  -9   2 -11   49.90   14.60
   7  -9 -11   38.30   14.80
   9  -2  11   34.20   17.00
   6  -9 -11  390.56   35.20
   3   6 -11  367.16   29.80
  -9   3 -11  353.36   35.40
   9  -3  11  377.56   38.20
   5  -9 -11   -9.50   12.30
  -9   4 -11   17.80   13.80
   4   5 -11  -10.70    7.80
   9  -4  11    3.90   15.90
   4  -9 -11   -2.50   15.40
   4  -9 -11    0.60   12.50
   5   4 -11   13.80    8.40
  -9   5 -11    2.70   13.20
   9  -5  11   -9.60   15.70
   3  -9 -11  393.36   35.30
  -9   6 -11  369.76   33.30
   6   3 -11  362.66   29.90
   3  -9 -11  344.97   37.30
   9  -6  11  398.86   38.00
   7   2 -11   47.20    9.70
   2  -9 -11   22.00   13.80
   2  -9 -11   29.10   17.60
  -9   7 -11   45.40   14.80
   9  -7  11   67.39   17.70
  -9   8 -11  401.46   36.50
   1  -9 -11  377.16   35.00
   8   1 -11  380.16   31.20
   1  -9 -11  368.56   38.50
   9  -8  11  373.66   39.30
   0  -9 -11   -6.30   12.90
  -9   9 -11   13.90   14.30
   9   0 -11    4.70    9.50
   0   9  11    6.60   18.50
   9  -9  11   -6.50   16.50
  -9  10 -11   -2.50   14.20
  -1  -9 -11    1.00   19.80
  10  -1 -11   12.70   10.60
   1   9  11  -28.90   14.70
   9 -10  11   21.00   16.70
  -9  11 -11   40.20   17.60
  11  -2 -11   62.99   14.30
   2   9  11   96.29   18.20
   9 -11  11   52.49   19.30
  12  -3 -11  -10.40   12.80
  -9  12 -11   19.30   17.20
   9 -12  11   -7.50   16.50
   3   9  11   23.40   16.30
  13  -4 -11  -10.80   14.60
  -9  13 -11   27.60   18.60
   4   9  11   28.30   16.80
   9 -13  11    9.20   17.20
  14  -5 -11   99.09   19.10
  -9  14 -11  111.99   23.30
   5   9  11   79.19   20.30
   9 -14  11   79.39   20.80
  -3  13 -11   32.10   15.00
  13 -10 -11   40.20   17.90
  10   3  11   67.59   22.20
  10   3  11   27.50   16.90
  12 -10 -11    3.90   15.60
  -2  12 -11   -9.00   11.80
  10   2  11   32.20   16.40
  10   2  11  -23.60   18.40
  -1  11 -11   -6.50   10.50
  11 -10 -11   -8.10   14.60
  10   1  11   25.00   18.40
  10   1  11  -17.20   14.30
   0  10 -11   -1.30    9.90
  10 -10 -11    9.60   14.60
  10   0  11   17.50   14.10
  10   0  11   -6.90   17.70
   9 -10 -11    2.70   14.00
 -10   1 -11   10.20   14.20
   1   9 -11    4.30    9.30
  10  -1  11   27.70   18.20
 -10   2 -11  614.94   53.69
   2   8 -11  692.83   49.30
   8 -10 -11  637.04   53.09
  10  -2  11  739.63   57.29
   7 -10 -11   62.19   15.80
 -10   3 -11   59.49   16.00
  10  -3  11   68.79   19.70
 -10   4 -11   53.69   16.20
   6 -10 -11   46.50   15.10
  10  -4  11   54.59   18.40
   5 -10 -11  627.64   50.99
   5 -10 -11  652.53   53.69
 -10   5 -11  638.74   52.29
  10  -5  11  633.94   54.09
   4 -10 -11   57.09   18.90
   4 -10 -11   48.90   15.00
 -10   6 -11   56.29   15.70
  10  -6  11   79.59   19.50
   3 -10 -11   81.49   16.60
   3 -10 -11  100.79   20.80
 -10   7 -11   76.19   17.30
  10  -7  11   50.69   18.90
 -10   8 -11  667.53   56.49
   8   2 -11  721.23   51.59
   2 -10 -11  650.13   58.39
   2 -10 -11  717.53   55.39
  10  -8  11  754.32   58.59
   9   1 -11    3.40    9.40
   1 -10 -11   20.00   17.90
 -10   9 -11  -10.30   15.10
   1 -10 -11   -2.90   12.40
  10  -9  11   16.00   18.20
 -10  10 -11   18.40   16.30
  10   0 -11    2.50   10.40
   0  10  11   31.90   15.80
  10 -10  11    9.30   17.90
 -10  11 -11   16.90   16.90
  11  -1 -11   25.40   11.70
   1  10  11    6.60   16.00
  10 -11  11  -16.70   17.30
 -10  12 -11    3.50   17.20
  12  -2 -11  -10.90   12.40
  10 -12  11   -8.30   17.70
   2  10  11   -8.30   16.10
 -10  13 -11   16.40   19.10
  13  -3 -11   36.90   15.20
  10 -13  11   30.00   18.90
   3  10  11   26.80   17.40
  13 -11 -11   98.39   20.70
  -2  13 -11  130.99   18.20
  11   2  11   95.79   23.70
  11   2  11  102.39   19.80
  -1  12 -11  321.27   31.10
  12 -11 -11  317.67   32.50
  11   1  11  314.27   31.30
  11   1  11  356.36   36.00
  11 -11 -11  230.08   24.20
   0  11 -11  172.18   24.10
  11   0  11  158.68   26.40
  11   0  11  145.79   22.00
  10 -11 -11   -5.20   15.30
  11  -1  11   -5.00   18.80
  11  -1  11    7.70   23.20
   9 -11 -11   65.79   17.40
 -11   2 -11   59.89   16.70
  11  -2  11   99.49   21.50
   8 -11 -11  118.59   19.10
 -11   3 -11  123.59   19.50
  11  -3  11  113.39   21.70
 -11   4 -11   24.10   15.70
   7 -11 -11   13.60   14.20
  11  -4  11   16.90   18.30
 -11   5 -11   44.90   16.30
   6 -11 -11   34.70   18.80
   6 -11 -11   71.39   15.50
  11  -5  11   43.50   18.80
   5 -11 -11   70.29   16.10
   5 -11 -11   49.10   18.60
 -11   6 -11   60.29   16.90
  11  -6  11   58.99   19.80
   4 -11 -11   10.70   18.00
 -11   7 -11   15.10   15.20
   4 -11 -11   16.20   13.80
  11  -7  11   15.90   17.60
   3 -11 -11  198.58   21.20
 -11   8 -11  131.79   21.60
   3 -11 -11  141.89   24.60
  11  -8  11  119.29   23.80
   2 -11 -11  116.79   22.40
   2 -11 -11  106.29   17.00
 -11   9 -11   66.29   18.50
  11  -9  11   59.89   20.50
   1 -11 -11    7.70   17.80
 -11  10 -11   -5.50   16.90
  11 -10  11   19.90   19.20
 -11  11 -11  163.08   24.40
   0  11  11  156.48   23.10
  11 -11  11  171.28   25.80
  12  -1 -11  362.66   32.80
 -11  12 -11  404.56   37.20
  11 -12  11  336.87   36.90
   1  11  11  343.27   34.50
  13  -2 -11  127.29   17.90
 -11  13 -11  137.19   24.60
  11 -13  11  105.59   23.10
   2  11  11   64.39   20.30
  12 -12 -11   11.80   16.40
  12   0  11   -9.10   15.20
  12   0  11   -5.60   19.60
  11 -12 -11  378.76   34.60
  12  -1  11  343.87   37.40
  12  -1  11  330.97   32.90
  10 -12 -11   -6.50   15.70
  12  -2  11   -3.40   18.90
 -12   3 -11   42.60   19.90
   9 -12 -11   -5.40   14.50
  12  -3  11   16.60   18.10
 -12   4 -11   76.39   18.00
   8 -12 -11  105.99   18.50
  12  -4  11   58.89   20.20
 -12   5 -11  244.68   27.10
   7 -12 -11  246.08   25.90
  12  -5  11  223.78   29.80
 -12   6 -11  212.58   26.50
   6 -12 -11  273.67   30.30
   6 -12 -11  216.98   25.30
  12  -6  11  286.97   31.20
   5 -12 -11  207.28   24.90
   5 -12 -11  275.47   30.60
 -12   7 -11  255.47   27.50
  12  -7  11  218.78   29.00
   4 -12 -11   73.09   16.80
   4 -12 -11   53.89   20.90
 -12   8 -11   80.09   18.80
  12  -8  11   63.19   21.60
 -12   9 -11  -13.30   16.70
   3 -12 -11   14.20   16.40
   3 -12 -11   20.90   18.50
  12  -9  11   10.10   18.70
   2 -12 -11   30.60   19.30
 -12  10 -11   41.50   18.80
  12 -10  11   34.20   19.90
 -12  11 -11  255.57   34.00
   1 -12 -11  344.87   36.30
  12 -11  11  344.47   36.60
  -1  12  11  394.66   36.70
 -12  12 -11   21.20   19.40
  12 -12  11   11.20   20.50
   0  12  11   11.20   18.00
  11 -13 -11  141.79   21.90
  13  -2  11  106.69   24.40
  10 -13 -11   53.09   17.80
  13  -3  11   51.69   20.60
   9 -13 -11   30.00   16.40
  13  -4  11   -5.90   19.50
 -13   5 -11    4.30   16.50
   8 -13 -11   25.20   15.80
  13  -5  11   20.20   20.40
   7 -13 -11    4.80   19.60
   7 -13 -11    6.20   14.90
 -13   6 -11  -21.60   16.90
  13  -6  11   17.40   19.10
   6 -13 -11    1.90   18.20
   6 -13 -11    8.60   14.90
 -13   7 -11    3.00   17.30
  13  -7  11   13.80   19.10
   5 -13 -11    2.40   14.40
   5 -13 -11   -0.10   18.80
 -13   8 -11   16.80   18.10
  13  -8  11   13.40   19.80
 -13   9 -11   -2.10   18.40
   4 -13 -11   22.80   19.50
  13  -9  11   -8.40   19.70
   3 -13 -11   38.50   20.30
 -13  10 -11   43.70   19.90
  13 -10  11   45.70   21.80
   2 -13 -11   93.89   23.90
 -13  11 -11  120.49   24.00
  13 -11  11  108.89   25.10
   9 -14 -11  104.89   18.50
  14  -5  11   42.20   21.90
   8 -14 -11   86.19   29.00
   8 -14 -11   52.09   16.90
  14  -6  11   70.59   22.90
 -14   7 -11  223.48   29.60
   7 -14 -11  258.17   32.30
   7 -14 -11  268.97   26.90
  14  -7  11  248.98   32.60
   6 -14 -11   52.29   22.60
 -14   8 -11   70.69   21.80
   6 -14 -11  115.79   22.00
  14  -8  11   60.29   23.50
 -14   9 -11  127.19   24.80
   5 -14 -11  131.59   25.50
  14  -9  11  129.59   25.50
   0   0 -12   47.10   12.30
   1  -1 -12   14.60   11.40
  -1   0 -12    2.80   10.80
   0   1 -12   17.50   11.30
   0  -1  12   -8.80   12.90
   1   0 -12  -17.40   10.50
   0  -1 -12   -3.10   10.70
  -1   1 -12    0.60   11.10
   1  -1  12    2.60   12.80
  -1  -1 -12   -2.00   11.70
  -1   2 -12   26.10   11.60
   2  -1 -12   21.80   11.70
   1  -2  12   31.00   13.50
   3  -2 -12  273.97   25.10
  -1   3 -12  217.88   21.90
  -2  -1 -12  252.97   23.70
   1  -3  12  200.38   23.30
   2  -2 -12  273.97   25.40
   0   2 -12  275.47   27.10
  -2   0 -12  247.18   25.10
   0  -2  12  302.27   28.50
   1  -2 -12   38.10   12.30
   1   1 -12   24.20   11.30
  -2   1 -12   27.00   11.80
   2  -1  12   41.20   15.00
  -2   2 -12  245.38   23.40
   2   0 -12  227.88   22.90
   0  -2 -12  226.58   23.50
   2  -2  12  293.47   26.70
  -1  -2 -12  193.28   22.80
  -2   3 -12  223.88   22.50
   3  -1 -12  252.37   22.40
   2  -3  12  267.27   25.00
   4  -2 -12 1290.17  103.49
  -2   4 -12 1553.44  103.99
  -2  -2 -12 1613.14  104.99
   2  -4  12 1431.16  104.69
   5  -3 -12  584.94   44.60
  -2   5 -12  464.35   43.90
  -3  -2 -12  600.94   45.30
   2  -5  12  596.54   45.60
  -3  -1 -12  338.17   31.20
   4  -3 -12  319.87   30.20
  -1   4 -12  319.57   28.90
   1  -4  12  284.27   29.70
  -3   0 -12   61.89   14.30
   3  -3 -12   86.99   14.40
   0   3 -12   82.59   13.60
   3   0  12   86.79   18.10
   0  -3  12   76.29   14.60
   2  -3 -12  222.08   22.40
  -3   1 -12  194.08   22.10
   1   2 -12  227.28   21.60
  -1  -2  12  237.68   23.10
   3  -1  12  259.47   26.30
   2   1 -12  248.98   22.70
  -3   2 -12  224.28   23.30
   1  -3 -12  256.67   23.70
   3  -2  12  235.78   25.60
   0  -3 -12   49.60   14.10
   3   0 -12   62.49   12.80
  -3   3 -12   77.79   13.90
   3  -3  12   87.09   16.70
  -3   4 -12  317.57   28.60
  -1  -3 -12  251.47   26.40
   4  -1 -12  276.77   25.50
   3  -4  12  320.47   30.90
   5  -2 -12  593.64   46.00
  -3   5 -12  539.15   46.10
  -2  -3 -12  602.24   47.10
   3  -5  12  623.84   47.80
  -3  -3 -12   61.79   14.60
   6  -3 -12   30.50   12.70
  -3   6 -12   60.49   13.10
   3  -6  12   69.99   15.10
   7  -4 -12   91.69   15.40
  -3   7 -12   79.79   14.40
  -4  -3 -12  116.29   16.90
   3  -7  12   93.19   16.10
  -4  -2 -12  121.19   17.50
  -2   6 -12  127.99   15.70
   6  -4 -12  130.59   16.80
   2  -6  12   96.19   16.70
  -1   5 -12   27.10   11.10
  -4  -1 -12    6.40   12.30
   5  -4 -12   10.60   11.40
   1  -5  12   14.10   12.00
  -4   0 -12  160.28   20.10
   4  -4 -12  206.88   20.30
   0   4 -12  180.88   18.70
   4   0  12  157.78   23.40
   0  -4  12  179.98   19.60
   1   3 -12  267.17   25.20
  -4   1 -12  267.67   26.20
   3  -4 -12  279.57   26.40
  -1  -3  12  304.27   27.70
   4  -1  12  318.87   30.40
   2   2 -12 1568.24  107.29
  -4   2 -12 1289.57  107.79
   2  -4 -12 1718.83  108.69
   4  -2  12 1544.15  110.09
  -2  -2  12 1506.95  107.59
   1  -4 -12  302.67   28.90
   3   1 -12  295.07   27.50
  -4   3 -12  293.37   27.00
   4  -3  12  280.17   29.00
   4   0 -12  150.18   16.90
   0  -4 -12  142.59   18.50
  -4   4 -12  175.98   18.60
   4  -4  12  132.59   20.30
  -4   5 -12   -4.40   11.50
   5  -1 -12   16.40   10.80
  -1  -4 -12   25.40   13.10
   4  -5  12   20.20   14.30
   6  -2 -12  110.19   14.70
  -2  -4 -12   83.09   16.20
  -4   6 -12   69.09   14.70
   4  -6  12  112.59   17.60
  -3  -4 -12   80.79   15.80
  -4   7 -12   86.49   15.00
   7  -3 -12   73.99   14.20
   4  -7  12   77.29   16.60
   8  -4 -12  637.04   51.69
  -4   8 -12  669.93   51.69
  -4  -4 -12  669.93   52.49
   4  -8  12  662.93   52.39
  -4   9 -12   74.19   15.10
  -5  -4 -12   95.39   16.50
   9  -5 -12   79.49   16.30
   4  -9  12   95.99   17.00
   8  -5 -12  270.57   26.20
  -3   8 -12  251.77   24.90
  -5  -3 -12  264.97   26.20
   3  -8  12  292.17   29.50
  -5  -2 -12   17.80   13.20
   7  -5 -12    6.40   12.90
  -2   7 -12   22.10   11.20
   2  -7  12   31.80   13.20
  -1   6 -12  234.98   21.00
   6  -5 -12  218.58   21.80
  -5  -1 -12  222.88   22.90
   5   1  12  183.48   25.10
   1  -6  12  177.48   21.00
  -5   0 -12    4.80   12.30
   0   5 -12   -0.40   10.20
   5  -5 -12   16.10   12.20
   5   0  12   28.60   17.30
   0  -5  12    0.90   10.80
   1   4 -12   -6.20   10.10
  -5   1 -12   14.70   12.60
   4  -5 -12   27.60   12.90
   5  -1  12   -9.80   15.80
  -1  -4  12    5.00   11.00
   2   3 -12  609.14   44.60
  -5   2 -12  659.73   47.00
   3  -5 -12  572.54   46.50
   5  -2  12  504.05   48.30
  -2  -3  12  549.25   44.60
   2  -5 -12  539.65   45.10
  -5   3 -12  472.85   44.50
   3   2 -12  531.05   42.70
  -3  -2  12  614.54   43.20
   5  -3  12  571.94   47.80
  -5   4 -12   26.00   12.60
   1  -5 -12   10.60   12.70
   4   1 -12   12.10   10.10
   5  -4  12    2.50   15.10
  -4  -1  12   13.40   11.20
   0  -5 -12   23.50   13.30
   5   0 -12   21.30   10.60
  -5   5 -12   32.10   12.80
   5  -5  12    0.00   14.60
  -5   6 -12  138.59   19.50
   6  -1 -12  211.18   19.10
  -1  -5 -12  127.99   19.90
   5  -6  12  239.68   23.90
   7  -2 -12    4.50   11.20
  -5   7 -12   23.20   13.00
  -2  -5 -12    8.90   13.20
   5  -7  12   20.30   14.90
   8  -3 -12  278.57   25.40
  -3  -5 -12  267.97   26.30
  -5   8 -12  277.17   26.00
   5  -8  12  251.17   27.60
  -4  -5 -12  103.99   16.70
  -5   9 -12   51.09   14.90
   9  -4 -12   74.99   15.60
   5  -9  12   91.99   17.90
  10  -5 -12    6.00   14.10
  -5  -5 -12    7.80   13.90
  -5  10 -12   24.40   14.00
   5 -10  12   13.00   15.20
  -5  11 -12   32.90   14.60
  11  -6 -12    9.00   15.00
   5 -11  12   36.00   14.90
  -4  10 -12   17.50   12.60
  -6  -4 -12    0.70   14.00
  10  -6 -12   20.80   14.80
   4 -10  12  -10.00   13.30
   9  -6 -12  177.68   20.50
  -3   9 -12  160.28   18.30
  -6  -3 -12  123.59   19.10
   6   3  12  106.49   23.80
   3  -9  12  148.89   19.00
  -6  -2 -12  105.49   17.70
  -2   8 -12  117.79   15.70
   8  -6 -12  127.09   18.20
   6   2  12  129.09   23.20
   2  -8  12  116.19   16.70
  -1   7 -12   13.90   10.90
  -6  -1 -12   16.70   13.40
   7  -6 -12   11.10   13.60
   6   1  12   28.20   17.80
   1  -7  12   39.70   12.10
   6  -6 -12   39.50   13.20
  -6   0 -12    9.70   13.40
   0   6 -12   31.00   11.20
   0  -6  12   39.60   11.90
   6   0  12   45.70   17.40
  -6   1 -12  160.88   21.20
   5  -6 -12  158.28   20.60
   1   5 -12  185.38   19.20
   6  -1  12  235.48   25.70
  -1  -5  12  211.58   19.40
   4  -6 -12   87.59   16.80
  -6   2 -12  115.79   17.30
   2   4 -12  106.99   14.40
   6  -2  12  113.09   20.60
  -2  -4  12  124.49   14.50
   3   3 -12   56.39   11.80
   3  -6 -12   51.29   14.30
  -6   3 -12   88.59   15.20
   6  -3  12   48.60   17.60
  -3  -3  12   61.99   11.90
  -6   4 -12  109.89   17.00
   4   2 -12   99.39   14.20
   2  -6 -12  136.29   17.70
   6  -4  12   77.79   18.70
  -4  -2  12  117.89   14.30
   1  -6 -12  216.48   23.00
  -6   5 -12  228.88   22.90
   5   1 -12  239.18   20.70
  -5  -1  12  192.68   20.30
   6  -5  12  187.98   24.80
   6   0 -12   41.10   11.20
  -6   6 -12   42.60   14.00
   0  -6 -12   51.79   14.30
   6  -6  12   42.30   16.70
  -6   7 -12   32.00   13.40
  -1  -6 -12   15.80   13.40
   7  -1 -12   30.00   11.50
   6  -7  12   34.20   16.10
  -6   8 -12  107.49   17.50
  -2  -6 -12  109.19   17.80
   8  -2 -12  105.99   15.60
   6  -8  12  143.09   20.40
   9  -3 -12  127.69   17.90
  -6   9 -12  153.38   19.60
  -3  -6 -12  129.79   18.90
   6  -9  12  137.49   21.30
  10  -4 -12    9.80   13.60
  -6  10 -12   18.20   14.40
  -4  -6 -12   15.60   14.00
   6 -10  12   12.50   15.60
  11  -5 -12   26.10   15.10
  -6  11 -12   53.99   15.90
   6 -11  12   11.20   15.50
  -6  12 -12   44.20   17.20
  12  -6 -12   81.09   18.30
   6   6  12   64.29   24.30
   6 -12  12   80.79   18.00
  12  -7 -12   57.79   17.90
  -5  12 -12   49.00   16.50
   5 -12  12   41.20   15.10
   7   5  12    8.30   21.20
  -4  11 -12   14.30   13.70
  11  -7 -12   27.60   16.20
   7   4  12  -20.00   19.30
   4 -11  12   13.70   13.30
  10  -7 -12  183.78   22.30
  -7  -3 -12  161.88   22.40
  -3  10 -12  134.39   19.00
   7   3  12  167.38   26.50
   3 -10  12  185.28   19.70
  -2   9 -12  191.38   19.50
  -7  -2 -12  170.88   21.50
   9  -7 -12  150.58   21.50
   7   2  12  170.08   26.20
   2  -9  12  170.18   20.20
  -7  -1 -12   13.10   14.30
  -1   8 -12   25.20   11.10
   8  -7 -12   44.00   14.50
   7   1  12   13.30   18.70
   7  -7 -12   56.29   15.30
   0   7 -12   72.79   12.40
  -7   0 -12   53.89   15.40
   7   0  12   65.69   18.60
   6  -7 -12   22.80   13.60
  -7   1 -12   24.40   14.30
   1   6 -12   38.40   10.70
   7  -1  12   24.60   17.50
   2   5 -12   14.50   10.20
  -7   2 -12   47.00   14.40
   5  -7 -12   11.00   12.90
   7  -2  12   15.60   16.70
   4  -7 -12   78.29   15.80
  -7   3 -12   58.89   15.50
   3   4 -12   80.69   12.70
   7  -3  12  129.69   20.80
   3  -7 -12   51.49   16.10
  -7   4 -12   94.49   16.70
   4   3 -12  112.59   13.80
   7  -4  12   88.39   19.90
  -7   5 -12   13.90   13.30
   2  -7 -12   12.30   13.60
   5   2 -12    9.40    9.90
   7  -5  12   29.30   16.20
   1  -7 -12   11.00   13.40
   6   1 -12   26.70   10.50
  -7   6 -12   11.70   13.90
   7  -6  12   33.90   16.10
   7   0 -12   52.29   11.90
   0  -7 -12   66.49   15.30
  -7   7 -12   53.29   14.70
   7  -7  12   35.50   17.30
   8  -1 -12   42.50   12.10
  -7   8 -12   44.70   14.60
  -1  -7 -12   31.10   14.40
   7  -8  12   34.80   16.80
  -7   9 -12  151.18   21.80
  -2  -7 -12  186.58   21.70
   9  -2 -12  212.58   20.70
   7  -9  12  159.18   23.60
  10  -3 -12  204.98   21.20
  -7  10 -12  154.68   21.70
  -3  -7 -12  173.68   22.50
   7 -10  12  156.58   23.40
  11  -4 -12   12.50   14.20
  -7  11 -12    3.70   15.20
   7 -11  12    9.50   16.10
  12  -5 -12   42.10   16.40
  -7  12 -12   24.40   16.60
   7 -12  12   70.49   18.10
  -4  12 -12  -17.30   13.90
  12  -8 -12   21.60   16.50
   8   4  12  -20.10   20.40
  11  -8 -12   59.49   18.00
  -3  11 -12   62.29   14.70
   8   3  12   28.50   21.20
  10  -8 -12  374.36   33.90
  -2  10 -12  353.56   32.70
   8   2  12  346.87   36.50
   9  -8 -12  189.78   21.70
  -8  -1 -12  125.49   20.20
  -1   9 -12  132.19   17.00
   8   1  12  131.89   24.30
   8  -8 -12   42.60   15.40
   0   8 -12   47.50   11.60
  -8   0 -12   23.30   15.40
   8   0  12   66.69   19.60
   7  -8 -12   28.80   14.60
   1   7 -12   40.20   10.60
  -8   1 -12   22.80   14.60
   8  -1  12   24.20   18.50
   6  -8 -12  112.69   18.10
   2   6 -12  113.69   14.30
  -8   2 -12  105.59   18.40
   8  -2  12  149.19   23.00
  -8   3 -12  285.17   28.50
   3   5 -12  309.97   26.60
   5  -8 -12  307.47   28.30
   8  -3  12  258.77   31.20
  -8   4 -12  627.04   52.49
   4   4 -12  619.04   48.40
   4  -8 -12  697.63   52.39
   8  -4  12  671.43   55.99
   5   3 -12  276.57   25.20
   3  -8 -12  321.77   27.70
  -8   5 -12  267.87   27.00
   8  -5  12  217.18   28.80
   6   2 -12  116.59   14.60
  -8   6 -12  138.89   18.70
   2  -8 -12  137.09   18.80
   8  -6  12   79.69   20.50
   1  -8 -12   26.10   14.30
  -8   7 -12   27.50   14.80
   7   1 -12   26.80   10.80
   8  -7  12   35.90   17.40
   0  -8 -12   71.69   15.70
  -8   8 -12   60.89   16.20
   8   0 -12   63.29   12.50
   8  -8  12   61.99   18.80
   9  -1 -12  169.58   18.50
  -1  -8 -12  161.08   20.50
  -8   9 -12  157.18   21.40
   8  -9  12  139.49   22.90
  10  -2 -12  316.37   31.90
  -8  10 -12  339.27   31.80
   8 -10  12  336.87   33.90
  11  -3 -12   47.90   14.60
  -8  11 -12   45.40   17.20
   8 -11  12   45.90   18.90
  12  -4 -12  -16.60   13.90
  -8  12 -12    7.70   17.10
   8 -12  12   -8.20   17.00
  -3  12 -12    6.30   14.00
  12  -9 -12   28.20   17.40
   9   3  12   33.10   21.70
  -2  11 -12   10.40   12.50
  11  -9 -12   22.80   17.20
   9   2  12  -18.30   19.70
  10  -9 -12  129.99   20.60
  -1  10 -12   98.59   15.90
   9   1  12  163.88   25.40
   0   9 -12  285.57   25.30
  -9   0 -12  265.47   28.30
   9  -9 -12  281.77   28.40
   9   0  12  284.37   32.90
   1   8 -12  134.19   14.90
   8  -9 -12   92.69   19.00
  -9   1 -12  103.99   19.00
   9  -1  12  134.69   24.00
   7  -9 -12  158.18   21.70
  -9   2 -12  192.28   22.60
   2   7 -12  204.98   18.10
   9  -2  12  118.79   24.90
  -9   3 -12  147.89   20.50
   6  -9 -12  148.49   20.10
   3   6 -12  155.88   16.20
   9  -3  12  130.19   24.20
   4   5 -12   83.39   12.10
  -9   4 -12   79.69   17.10
   5  -9 -12   63.69   16.40
   9  -4  12   67.59   19.90
  -9   5 -12   85.89   17.80
   4  -9 -12   57.49   16.30
   5   4 -12  120.29   13.00
   9  -5  12   66.79   19.60
   6   3 -12  152.88   16.00
   3  -9 -12  116.29   22.90
  -9   6 -12  147.19   20.90
   3  -9 -12  167.68   21.00
   9  -6  12  154.18   23.70
  -9   7 -12  144.59   21.60
   2  -9 -12  168.68   21.00
   7   2 -12  170.88   17.00
   9  -7  12  157.58   24.50
   8   1 -12  136.39   16.20
   1  -9 -12  163.58   20.50
  -9   8 -12  160.38   21.60
   9  -8  12  131.89   22.80
   9   0 -12  278.07   26.30
   0  -9 -12  233.78   26.30
  -9   9 -12  318.27   28.90
   9  -9  12  232.78   29.80
  10  -1 -12  137.79   16.80
  -9  10 -12  123.19   21.00
   9 -10  12  105.09   21.90
  11  -2 -12    6.30   13.00
  -9  11 -12   -1.90   17.10
   9 -11  12   24.60   19.00
  -9  12 -12   17.60   18.40
  12  -3 -12   22.50   14.50
   9 -12  12   42.60   18.60
  -1  11 -12   16.50   12.60
  11 -10 -12   32.00   17.10
  10   1  12   47.70   21.40
   0  10 -12  -16.30   10.50
  10 -10 -12   -8.10   15.40
  10   0  12   -8.50   19.10
   9 -10 -12  167.98   21.50
 -10   1 -12  116.99   20.30
   1   9 -12  138.49   16.10
  10  -1  12   95.09   24.00
   8 -10 -12  346.27   31.80
   2   8 -12  327.87   29.80
 -10   2 -12  315.67   31.60
  10  -2  12  327.67   35.70
   7 -10 -12  204.68   23.00
 -10   3 -12  184.28   23.20
  10  -3  12  161.48   26.40
   6 -10 -12   11.90   14.50
 -10   4 -12   28.80   15.60
  10  -4  12   20.80   18.50
   5 -10 -12   32.00   15.30
 -10   5 -12   32.80   16.20
  10  -5  12   30.40   18.90
 -10   6 -12    7.40   15.20
   4 -10 -12   -1.40   14.40
   4 -10 -12   17.80   30.00
  10  -6  12   -0.60   17.50
 -10   7 -12  158.38   22.20
   3 -10 -12  126.59   24.40
   3 -10 -12  171.38   21.60
  10  -7  12  182.78   25.70
   2 -10 -12  396.06   36.90
 -10   8 -12  379.36   35.10
  10  -8  12  339.17   37.10
   9   1 -12  127.99   15.50
   1 -10 -12  141.49   19.50
 -10   9 -12  117.39   21.20
  10  -9  12  104.69   22.70
  10   0 -12    2.00   11.20
 -10  10 -12    0.20   17.00
  10 -10  12   -0.10   19.30
 -10  11 -12   56.29   19.10
  11  -1 -12   35.50   13.10
  10 -11  12   20.30   19.90
  11 -11 -12  196.78   25.60
  11   0  12  195.98   29.50
  10 -11 -12   43.70   17.30
  11  -1  12   40.20   21.30
 -11   2 -12   -7.50   15.40
   9 -11 -12   20.90   16.60
  11  -2  12  -27.50   19.00
 -11   3 -12   49.80   16.80
   8 -11 -12   26.10   16.30
  11  -3  12   40.20   20.30
 -11   4 -12    1.30   15.80
   7 -11 -12   41.60   16.20
  11  -4  12   26.70   19.50
   6 -11 -12   29.20   15.60
 -11   5 -12   41.70   17.00
  11  -5  12   15.40   19.50
 -11   6 -12   13.90   16.10
   5 -11 -12    9.60   14.80
  11  -6  12   32.00   20.20
   4 -11 -12   32.10   15.80
 -11   7 -12   12.60   16.80
   4 -11 -12   12.90   19.60
  11  -7  12    7.10   18.50
   3 -11 -12   54.69   20.60
   3 -11 -12   69.09   17.00
 -11   8 -12   37.40   18.00
  11  -8  12   36.50   20.60
 -11   9 -12    0.20   17.30
   2 -11 -12   -1.90   13.90
  11  -9  12  -18.00   19.10
 -11  10 -12   50.99   19.50
  11 -10  12   33.40   21.20
 -11  11 -12  168.68   26.10
  11 -11  12  211.78   28.60
   9 -12 -12    1.80   15.90
  12  -3  12   25.50   20.00
 -12   4 -12    2.10   16.20
   8 -12 -12    3.70   15.40
  12  -4  12    2.10   20.60
 -12   5 -12   51.99   18.30
   7 -12 -12   36.20   16.70
  12  -5  12   58.99   21.50
   6 -12 -12   72.59   17.90
 -12   6 -12   69.99   19.60
  12  -6  12   60.09   21.30
   5 -12 -12   52.79   22.00
 -12   7 -12   37.50   18.70
   5 -12 -12   34.10   16.80
  12  -7  12   15.90   19.90
 -12   8 -12  -18.50   16.90
   4 -12 -12    2.10   15.60
   4 -12 -12    5.40   19.70
  12  -8  12    9.80   20.90
 -12   9 -12   12.60   18.20
   3 -12 -12   -5.90   19.20
  12  -9  12    7.30   20.90
   0   0 -13    0.10   12.50
   0   1 -13   29.80   12.90
   1  -1 -13   20.60   12.80
  -1   0 -13   14.00   13.20
   0  -1  13   25.40   15.20
   1   0  13   34.50   16.20
  -1   1 -13    0.60   12.80
   0  -1 -13    1.60   12.50
   1   0 -13   19.30   12.30
   1  -1  13    4.80   14.60
  -1  -1 -13   33.60   14.10
   2  -1 -13   18.10   12.80
  -1   2 -13   28.30   12.90
   1  -2  13   20.00   14.50
  -2  -1 -13  147.79   19.20
  -1   3 -13  145.99   18.20
   3  -2 -13  142.49   18.40
   1  -3  13  123.19   19.50
   2  -2 -13   61.69   14.30
   0   2 -13   40.70   13.60
  -2   0 -13   54.49   14.60
   2   0  13   35.30   17.20
   0  -2  13   40.70   14.80
   1  -2 -13   25.50   13.10
  -2   1 -13   17.70   12.80
   1   1 -13   24.80   12.50
  -1  -1  13   20.10   14.40
   2  -1  13   16.50   15.90
  -2   2 -13   31.80   14.10
   2   0 -13   61.59   13.90
   0  -2 -13   47.50   14.80
   2  -2  13   40.50   16.00
  -2   3 -13  143.09   17.50
  -1  -2 -13  122.69   18.30
   3  -1 -13   84.99   16.40
   2  -3  13  138.89   19.80
   4  -2 -13  570.54   43.10
  -2  -2 -13  491.25   44.20
  -2   4 -13  530.75   43.10
   2  -4  13  499.65   44.60
  -2   5 -13  333.77   32.50
   5  -3 -13  333.17   33.60
  -3  -2 -13  373.76   34.90
   2  -5  13  365.16   34.60
   4  -3 -13   65.29   14.70
  -1   4 -13   93.19   14.90
  -3  -1 -13   72.39   16.10
   3   1  13   46.70   18.90
   1  -4  13   62.89   15.60
  -3   0 -13   13.80   13.80
   3  -3 -13    4.60   12.80
   0   3 -13    5.80   12.00
   3   0  13   14.50   16.60
   0  -3  13   18.20   13.70
  -3   1 -13  158.48   19.10
   2  -3 -13  124.09   18.20
   1   2 -13  118.19   16.90
   3  -1  13  101.69   20.80
  -1  -2  13  140.39   18.40
  -3   2 -13  165.78   18.90
   1  -3 -13  130.69   18.60
   2   1 -13  149.39   17.50
  -2  -1  13  117.79   18.50
   3  -2  13  117.79   21.10
   0  -3 -13   15.30   13.50
   3   0 -13   -3.30   11.80
  -3   3 -13   -2.70   12.40
   3  -3  13   16.80   15.80
  -3   4 -13   67.79   14.60
   4  -1 -13   57.69   13.80
  -1  -3 -13   32.90   14.90
   3  -4  13   89.09   17.60
   5  -2 -13  360.86   34.00
  -2  -3 -13  359.56   35.90
  -3   5 -13  411.96   34.60
   3  -5  13  350.96   35.70
  -3   6 -13  338.27   31.90
   6  -3 -13  329.77   29.10
  -3  -3 -13  300.27   29.90
   3  -6  13  308.97   30.60
   7  -4 -13   44.40   14.20
  -4  -3 -13    4.10   13.80
  -3   7 -13   39.70   13.60
   3  -7  13   11.20   14.10
  -4  -2 -13   20.40   14.20
   6  -4 -13   25.80   13.50
  -2   6 -13   28.80   12.70
   2  -6  13   31.60   14.00
   5  -4 -13   33.00   13.90
  -1   5 -13   29.30   12.50
  -4  -1 -13   10.20   14.40
   4   1  13    3.60   18.00
   1  -5  13   31.40   13.70
   0   4 -13   20.30   12.00
   4  -4 -13   18.80   12.90
  -4   0 -13   -3.80   13.60
   0  -4  13    0.00   12.70
   4   0  13    8.90   16.60
  -4   1 -13   54.99   15.50
   1   3 -13   53.19   13.70
   3  -4 -13   83.89   16.00
  -1  -3  13   65.29   14.60
   4  -1  13   80.59   19.20
   2   2 -13  509.85   42.60
   2  -4 -13  596.04   44.80
  -4   2 -13  525.35   44.40
   4  -2  13  484.15   45.80
  -2  -2  13  522.85   43.30
   1  -4 -13   74.79   15.90
  -4   3 -13   69.39   15.10
   3   1 -13   72.99   13.90
   4  -3  13   62.69   17.90
  -3  -1  13   55.39   14.80
  -4   4 -13   -3.80   13.00
   0  -4 -13   -2.30   13.30
   4   0 -13  -12.40   11.40
   4  -4  13    1.00   15.60
  -1  -4 -13   23.00   14.70
   5  -1 -13   13.50   11.90
  -4   5 -13   15.70   12.80
   4  -5  13    1.10   14.70
  -2  -4 -13   32.00   14.30
   6  -2 -13   12.60   12.50
  -4   6 -13   23.80   13.40
   4  -6  13   12.80   15.20
  -4   7 -13   14.50   13.50
   7  -3 -13   10.10   12.90
  -3  -4 -13   28.00   14.70
   4  -7  13   49.60   15.80
   8  -4 -13  195.78   22.50
  -4  -4 -13  233.98   23.90
  -4   8 -13  164.78   21.80
   4  -8  13  201.58   23.90
   9  -5 -13   79.09   17.40
  -4   9 -13   87.79   16.60
  -5  -4 -13   79.89   17.60
   4  -9  13   87.59   17.50
  -5  -3 -13  193.08   22.40
  -3   8 -13  194.28   21.00
   8  -5 -13  162.58   21.70
   5   3  13  181.48   27.80
   3  -8  13  171.88   22.00
  -2   7 -13  158.48   19.70
  -5  -2 -13  162.68   21.90
   7  -5 -13  185.38   21.60
   2  -7  13  191.68   21.60
   5   2  13  221.58   28.10
   6  -5 -13  342.07   32.80
  -1   6 -13  366.26   31.10
  -5  -1 -13  324.87   30.70
   1  -6  13  303.87   31.70
   5   1  13  298.67   33.90
   0   5 -13   11.60   11.90
   5  -5 -13   17.90   13.50
  -5   0 -13   -4.20   13.90
   5   0  13   18.10   17.70
   0  -5  13    1.30   12.40
   1   4 -13   19.00   11.80
   4  -5 -13   28.30   13.80
  -5   1 -13   18.90   14.10
   5  -1  13   -4.00   16.60
  -1  -4  13   16.50   12.20
   2   3 -13  394.76   32.20
  -5   2 -13  269.37   30.60
   3  -5 -13  392.66   34.60
   5  -2  13  367.16   36.60
  -2  -3  13  344.97   31.80
   2  -5 -13  353.86   35.20
   3   2 -13  378.76   32.40
  -5   3 -13  350.46   32.20
  -3  -2  13  346.27   31.70
   5  -3  13  372.56   38.30
  -5   4 -13   23.70   13.80
   1  -5 -13  -14.00   13.50
   4   1 -13   17.60   11.80
   5  -4  13    9.20   17.30
  -4  -1  13   21.00   12.60
   5   0 -13   18.80   12.20
   0  -5 -13   20.20   14.50
  -5   5 -13   18.30   13.80
   5  -5  13   30.60   16.30
  -1  -5 -13  303.77   29.60
  -5   6 -13  284.27   28.70
   6  -1 -13  330.77   30.30
   5  -6  13  311.27   31.10
  -5   7 -13  196.48   21.90
   7  -2 -13  184.68   20.10
  -2  -5 -13  178.68   22.00
   5  -7  13  140.09   22.90
   8  -3 -13  194.68   21.00
  -5   8 -13  183.38   21.70
  -3  -5 -13  141.59   21.40
   5  -8  13  185.88   23.70
   9  -4 -13   54.09   15.70
  -5   9 -13   74.09   16.30
  -4  -5 -13   55.59   16.30
   5  -9  13   75.29   18.10
  10  -5 -13   14.30   15.10
  -5  10 -13    0.30   14.30
   5 -10  13   -8.30   15.30
  10  -6 -13   15.10   16.10
  -4  10 -13   10.90   14.20
   6   4  13   11.90   21.30
   4 -10  13   16.20   14.70
   9  -6 -13   52.19   16.60
  -6  -3 -13   28.30   15.90
  -3   9 -13   32.80   14.00
   3  -9  13   43.60   15.10
   6   3  13   62.99   22.10
   8  -6 -13   76.79   17.10
  -2   8 -13   74.99   15.30
  -6  -2 -13   65.59   17.20
   6   2  13  114.99   23.90
   2  -8  13   80.89   15.80
   7  -6 -13   49.99   15.50
  -1   7 -13   61.19   13.20
  -6  -1 -13   48.70   15.70
   1  -7  13   24.00   13.10
   6   1  13   29.80   19.50
   6  -6 -13    7.90   14.30
  -6   0 -13   -3.60   14.70
   0   6 -13   13.80   11.60
   6   0  13   22.30   18.70
   0  -6  13    5.20   11.80
   5  -6 -13  264.77   28.30
   1   5 -13  304.77   29.30
  -6   1 -13  244.68   28.10
  -1  -5  13  320.37   28.20
   6  -1  13  374.46   36.20
  -6   2 -13   17.70   14.30
   2   4 -13   14.10   11.80
   4  -6 -13   12.40   14.10
   6  -2  13   24.90   17.70
  -2  -4  13   24.00   11.50
   3  -6 -13  298.27   29.40
  -6   3 -13  276.47   29.30
   3   3 -13  317.57   29.40
  -3  -3  13  311.67   28.60
   6  -3  13  343.77   33.30
   2  -6 -13  -12.80   13.80
   4   2 -13   12.70   11.40
  -6   4 -13    8.70   14.30
  -4  -2  13   44.90   12.00
   6  -4  13   12.90   17.10
   1  -6 -13  272.67   29.10
  -6   5 -13  353.86   30.20
   5   1 -13  322.87   29.60
  -5  -1  13  321.87   28.70
   6  -5  13  277.67   31.30
   0  -6 -13   14.50   14.40
   6   0 -13   -0.60   11.40
  -6   6 -13   -0.90   14.50
   6  -6  13   -9.30   16.30
  -1  -6 -13   22.50   15.00
  -6   7 -13   29.50   15.10
   7  -1 -13   27.00   12.40
   6  -7  13   57.79   18.00
  -2  -6 -13  102.39   17.90
  -6   8 -13  114.89   18.50
   8  -2 -13  112.99   16.30
   6  -8  13   52.59   19.10
  -3  -6 -13   30.30   15.50
   9  -3 -13   46.00   14.70
  -6   9 -13   22.60   15.50
   6  -9  13   65.39   18.20
  10  -4 -13   54.89   16.00
  -6  10 -13   49.70   16.60
   6 -10  13   38.20   17.90
  10  -7 -13   54.89   17.70
  -3  10 -13   49.00   15.10
   7   3  13   49.70   22.40
  -7  -2 -13  175.08   22.80
   9  -7 -13  152.98   22.30
  -2   9 -13  170.58   20.10
   7   2  13  181.38   27.60
   8  -7 -13  360.16   34.10
  -7  -1 -13  410.16   38.20
  -1   8 -13  397.76   34.00
   7   1  13  344.47   38.00
   7  -7 -13   17.80   14.60
   0   7 -13   20.90   11.60
  -7   0 -13   33.10   15.70
   7   0  13   26.20   19.40
   1   6 -13   36.30   12.00
   6  -7 -13   30.40   15.30
  -7   1 -13   29.30   15.90
   7  -1  13   60.99   20.50
  -7   2 -13  190.78   22.40
   2   5 -13  156.88   18.70
   5  -7 -13  204.08   22.20
   7  -2  13  176.28   26.10
   3   4 -13   28.70   11.70
   4  -7 -13   19.30   15.10
  -7   3 -13   20.90   15.10
   7  -3  13   55.09   19.40
   3  -7 -13   41.60   15.70
   4   3 -13   34.50   11.90
  -7   4 -13   57.39   16.10
   7  -4  13    8.50   17.90
   2  -7 -13  169.68   22.10
  -7   5 -13  181.48   22.40
   5   2 -13  181.38   19.30
   7  -5  13  167.78   24.40
   6   1 -13   39.30   12.40
  -7   6 -13   57.99   16.60
   1  -7 -13   79.69   16.50
   7  -6  13   27.40   18.00
   7   0 -13   23.60   11.90
  -7   7 -13   28.70   15.40
   0  -7 -13   17.50   15.40
   7  -7  13   -0.10   16.70
  -1  -7 -13  377.86   36.00
  -7   8 -13  315.07   32.20
   8  -1 -13  376.36   32.70
   7  -8  13  334.27   34.80
  -2  -7 -13  167.48   22.00
   9  -2 -13  164.78   20.30
  -7   9 -13  171.58   22.70
   7  -9  13  193.68   25.20
  10  -3 -13   77.89   16.20
  -7  10 -13   58.49   17.80
   7 -10  13   49.70   19.30
  -2  10 -13   15.40   13.20
  10  -8 -13   24.70   16.70
   8   2  13   12.30   20.50
  -8  -1 -13  164.78   22.30
   9  -8 -13  155.48   22.20
  -1   9 -13  136.09   18.30
   8   1  13  147.79   26.80
   0   8 -13    5.80   11.40
  -8   0 -13    0.70   15.80
   8  -8 -13  -20.50   14.50
   8   0  13  -12.10   18.40
   1   7 -13  359.66   32.40
  -8   1 -13  359.06   34.30
   7  -8 -13  362.26   33.90
   8  -1  13  393.86   38.50
  -8   2 -13   92.29   19.10
   2   6 -13   99.19   15.00
   6  -8 -13   81.69   18.00
   8  -2  13   92.09   22.60
   5  -8 -13  157.48   22.40
  -8   3 -13  160.08   22.70
   3   5 -13  206.38   19.30
   8  -3  13  175.08   27.40
   4  -8 -13  199.48   23.90
  -8   4 -13  223.98   24.40
   4   4 -13  186.98   19.80
   8  -4  13  167.68   25.70
  -8   5 -13  218.88   24.10
   3  -8 -13  155.88   22.80
   5   3 -13  220.88   20.10
   8  -5  13  167.38   25.90
  -8   6 -13   78.69   17.70
   2  -8 -13   88.69   17.80
   6   2 -13   74.59   13.80
   8  -6  13  103.29   21.30
   7   1 -13  359.26   31.40
  -8   7 -13  325.17   32.20
   1  -8 -13  345.37   32.40
   8  -7  13  329.57   35.50
   8   0 -13   19.10   11.90
  -8   8 -13   -1.50   15.60
   0  -8 -13    4.10   15.30
   8  -8  13  -11.00   17.30
   9  -1 -13  174.78   19.20
  -1  -8 -13  131.19   20.90
  -8   9 -13  129.19   21.60
   8  -9  13  163.78   24.80
  10  -2 -13   24.60   13.60
  -8  10 -13   -6.80   16.00
   8 -10  13  -11.40   17.50
  -9   0 -13  -10.60   15.90
   9  -9 -13   11.80   16.70
   0   9 -13   -9.10   11.80
   9   0  13   21.60   20.00
   8  -9 -13  142.59   21.80
   1   8 -13  174.18   18.50
  -9   1 -13  133.59   21.90
   9  -1  13  191.28   27.90
   7  -9 -13  133.69   22.10
  -9   2 -13  122.89   21.70
   2   7 -13  187.08   18.20
   9  -2  13  181.18   26.90
   3   6 -13   42.90   12.10
  -9   3 -13   50.89   17.20
   6  -9 -13   46.90   17.10
   9  -3  13   67.09   21.80
  -9   4 -13   45.50   17.70
   4   5 -13   78.59   13.10
   5  -9 -13   47.40   16.80
   9  -4  13   58.89   20.60
  -9   5 -13   61.59   17.80
   4  -9 -13   77.69   17.90
   5   4 -13   80.89   13.00
   9  -5  13   30.60   20.40
   3  -9 -13   56.59   16.60
   6   3 -13   41.70   12.10
  -9   6 -13   35.00   17.50
   9  -6  13   36.30   20.20
  -9   7 -13  165.78   23.00
   7   2 -13  167.38   18.10
   2  -9 -13  159.18   21.90
   9  -7  13  160.08   25.30
   1  -9 -13  154.48   22.00
  -9   8 -13  158.88   23.00
   8   1 -13  166.38   18.20
   9  -8  13  147.69   25.10
   9   0 -13    2.70   11.80
  -9   9 -13   26.00   17.00
   0  -9 -13   21.90   15.80
   9  -9  13    6.70   19.60
   8 -10 -13   15.70   16.00
 -10   2 -13    1.60   16.90
  10  -2  13   26.50   22.20
 -10   3 -13   70.79   19.10
   7 -10 -13   92.39   18.20
  10  -3  13   37.50   21.90
   6 -10 -13   41.90   16.60
 -10   4 -13   31.50   17.30
  10  -4  13   32.30   20.50
 -10   5 -13   17.60   16.80
   5 -10 -13    2.20   15.50
  10  -5  13  -16.80   19.10
   4 -10 -13    9.90   15.90
 -10   6 -13   32.80   17.10
  10  -6  13   38.50   21.10
 -10   7 -13   57.89   18.50
   3 -10 -13   51.49   17.20
  10  -7  13   93.49   22.70
   2 -10 -13  -11.00   14.90
 -10   8 -13    9.40   17.30
  10  -8  13   16.50   20.00
   0   0 -14  146.59   20.50
   0   0  14  154.58   22.90
  -1   0 -14   17.10   14.60
   1  -1 -14    7.00   14.50
   0   1 -14    5.50   13.50
   0  -1  14   -1.80   15.40
   1   0  14    4.70   17.20
  -1   1 -14    2.10   14.20
   1   0 -14    8.90   14.10
   0  -1 -14   -4.90   14.40
  -1   0  14   -1.80   15.50
   1  -1  14   -5.80   16.10
  -1   2 -14  103.89   17.20
  -1  -1 -14   59.89   16.60
   2  -1 -14   72.59   16.50
   1  -2  14   79.39   18.30
   1   1  14   81.09   20.40
  -1   3 -14  317.77   28.70
  -2  -1 -14  279.07   28.80
   3  -2 -14  262.77   28.00
   2   1  14  324.47   32.80
   1  -3  14  293.87   29.90
  -2   0 -14  307.97   29.90
   0   2 -14  352.66   32.70
   2  -2 -14  319.37   29.40
   2   0  14  265.57   32.20
   0  -2  14  300.07   30.10
  -2   1 -14   60.19   17.10
   1  -2 -14   82.99   17.10
   1   1 -14  105.69   16.90
   2  -1  14   67.89   19.50
  -1  -1  14   86.59   17.80
  -2   2 -14  309.07   28.80
   2   0 -14  283.47   27.80
   0  -2 -14  284.77   28.80
  -2   0  14  324.37   30.30
   2  -2  14  254.47   30.10
  -2   3 -14  257.97   27.00
  -1  -2 -14  244.08   27.40
   3  -1 -14  327.77   27.60
   2  -3  14  260.87   28.90
  -2   4 -14  272.77   26.50
   4  -2 -14  259.67   26.60
  -2  -2 -14  255.27   27.10
   2  -4  14  250.57   27.60
  -2   5 -14  -18.20   13.30
   5  -3 -14   12.80   14.30
  -3  -2 -14    7.90   14.80
   3   2  14  -12.70   19.40
   2  -5  14   -1.20   14.70
   4  -3 -14   44.90   15.60
  -3  -1 -14   58.99   16.80
  -1   4 -14   63.69   15.20
   1  -4  14   52.19   16.50
   3   1  14   56.49   20.10
   0   3 -14  129.09   18.10
   3  -3 -14  116.99   18.70
  -3   0 -14  123.59   19.30
   0  -3  14   89.79   18.80
   3   0  14  132.69   22.30
  -3   1 -14  262.47   27.30
   1   2 -14  275.27   26.20
   2  -3 -14  239.88   26.50
   3  -1  14  286.07   30.80
  -1  -2  14  262.47   27.30
   1  -3 -14  287.67   29.70
   2   1 -14  289.07   28.60
  -3   2 -14  360.96   30.70
  -2  -1  14  290.27   29.70
   3  -2  14  331.47   32.70
   0  -3 -14  107.29   19.70
  -3   3 -14  145.69   20.10
   3   0 -14  146.59   19.00
  -3   0  14  161.38   20.80
   3  -3  14  117.29   21.20
  -1  -3 -14   65.89   17.00
  -3   4 -14   19.40   14.90
   4  -1 -14   48.60   15.10
   3  -4  14   53.49   17.70
  -2  -3 -14    5.40   15.10
  -3   5 -14    2.40   13.80
   5  -2 -14    8.60   13.90
   3  -5  14   -5.00   15.40
  -3  -3 -14   42.80   16.40
  -3   6 -14   62.69   15.70
   6  -3 -14   31.50   15.10
   3  -6  14   32.70   16.60
  -3   7 -14   55.19   16.00
   7  -4 -14   68.39   16.90
  -4  -3 -14   41.90   16.70
   4   3  14   55.29   22.00
   3  -7  14   76.99   17.80
  -2   6 -14  115.69   17.40
  -4  -2 -14   63.79   18.60
   6  -4 -14   90.49   17.90
   4   2  14  124.99   24.30
   2  -6  14  128.09   19.30
  -1   5 -14  181.68   20.90
   5  -4 -14  182.38   22.30
  -4  -1 -14  165.88   22.60
   4   1  14  182.88   26.90
   1  -5  14  177.68   22.20
   0   4 -14  396.06   36.70
   4  -4 -14  404.66   38.10
  -4   0 -14  386.16   35.70
   0  -4  14  385.26   36.20
   4   0  14  416.86   41.20
   3  -4 -14   31.90   15.90
  -4   1 -14   45.00   16.30
   1   3 -14   66.79   15.10
  -1  -3  14   66.79   15.80
   4  -1  14   29.80   19.40
   2   2 -14  259.97   25.20
  -4   2 -14  220.48   25.80
   2  -4 -14  259.27   26.50
  -2  -2  14  249.08   25.50
   4  -2  14  256.67   29.60
   1  -4 -14   68.29   16.90
  -4   3 -14   45.40   16.60
   3   1 -14   62.89   14.90
   4  -3  14   34.50   18.40
  -3  -1  14   67.49   15.50
  -4   4 -14  354.46   32.80
   0  -4 -14  340.17   33.10
   4   0 -14  358.36   34.20
  -4   0  14  402.16   35.50
   4  -4  14  345.57   35.20
  -1  -4 -14  194.08   23.80
   5  -1 -14  227.78   22.60
  -4   5 -14  163.38   22.20
   4  -5  14  186.28   24.80
  -4   6 -14  104.99   18.70
   6  -2 -14  117.89   17.70
  -2  -4 -14  101.79   19.20
   4  -6  14  107.79   20.40
  -4   7 -14   35.30   16.10
  -3  -4 -14   81.59   17.50
   7  -3 -14   68.59   16.30
   4  -7  14   58.39   18.00
   7  -5 -14   18.10   15.60
  -5  -2 -14    2.00   15.70
  -2   7 -14    3.90   13.70
   2  -7  14   21.50   14.70
   5   2  14   26.30   21.90
   6  -5 -14   86.39   17.90
  -5  -1 -14  117.59   19.20
  -1   6 -14   58.69   15.50
   5   1  14   89.69   23.20
   1  -6  14   77.99   16.50
  -5   0 -14   30.20   16.40
   5  -5 -14   54.99   16.00
   0   5 -14   68.99   14.80
   5   0  14   13.60   19.70
   0  -5  14   56.49   15.10
   4  -5 -14  166.28   22.40
  -5   1 -14  147.99   22.20
   1   4 -14  181.18   20.60
   5  -1  14  171.98   25.60
  -1  -4  14  187.08   20.80
   2   3 -14   -1.80   12.50
   3  -5 -14  -14.50   14.50
  -5   2 -14  -11.90   14.40
   5  -2  14   14.70   18.00
  -2  -3  14  -17.90   12.60
   3   2 -14   -1.30   12.50
  -5   3 -14    3.70   14.50
   2  -5 -14   -9.60   14.40
   5  -3  14   13.30   18.60
  -3  -2  14    4.90   13.00
  -5   4 -14  160.48   22.60
   1  -5 -14  149.49   22.40
   4   1 -14  196.38   20.80
  -4  -1  14  181.58   20.70
   5  -4  14  185.68   25.30
   5   0 -14   51.99   14.80
  -5   5 -14   50.49   16.50
   0  -5 -14   81.49   17.70
   5  -5  14   51.39   18.80
  -5   0  14   57.59   15.40
   6  -1 -14   63.39   15.50
  -5   6 -14   98.09   17.90
  -1  -5 -14   90.99   18.30
   5  -6  14   37.20   18.60
  -5   7 -14   -0.50   15.20
  -2  -5 -14   16.40   15.60
   7  -2 -14   19.30   14.00
   5  -7  14   29.50   17.30
  -1   7 -14   14.90   13.00
  -6  -1 -14   17.80   15.80
   7  -6 -14   -3.50   15.50
   6   1  14   -1.60   20.90
   6  -6 -14    3.00   15.00
   0   6 -14    6.00   12.50
  -6   0 -14   -5.00   15.20
   6   0  14   15.50   20.10
   5  -6 -14   44.30   17.60
  -6   1 -14   93.29   18.60
   1   5 -14   70.49   14.90
   6  -1  14   84.29   22.60
   2   4 -14  117.09   17.20
  -6   2 -14  108.69   19.70
   4  -6 -14  132.79   20.80
   6  -2  14  125.29   24.20
   3   3 -14   48.80   14.00
  -6   3 -14   56.29   17.60
   3  -6 -14   45.30   17.00
   6  -3  14   52.99   20.50
   2  -6 -14   88.69   18.10
   4   2 -14  100.99   15.90
  -6   4 -14   38.20   17.60
   6  -4  14  100.99   21.20
  -6   5 -14   68.49   18.10
   5   1 -14   66.89   14.80
   1  -6 -14   65.59   17.90
   6  -5  14   94.49   20.20
   6   0 -14   20.60   13.00
  -6   6 -14    1.60   15.70
   0  -6 -14   34.50   16.20
   6  -6  14    5.60   18.00
   7  -1 -14   -0.90   13.10
  -1  -6 -14    3.30   15.10
  -6   7 -14   -0.70   15.10
   6  -7  14    9.40   17.40
  -7   1 -14   24.50   16.40
   1   6 -14   12.70   12.20
   6  -7 -14    8.90   15.70
   7  -1  14   26.10   21.50
   5  -7 -14    2.40   16.10
  -7   2 -14   10.50   16.20
   2   5 -14   18.80   12.70
   7  -2  14   21.60   20.30
   3   4 -14   77.29   14.60
  -7   3 -14   54.19   17.90
   4  -7 -14   68.29   18.50
   7  -3  14   55.49   21.50
   3  -7 -14   93.39   19.10
  -7   4 -14   92.09   19.30
   4   3 -14   66.29   14.60
   7  -4  14   64.89   21.00
  -7   5 -14   -5.80   16.00
   2  -7 -14    8.10   15.60
   5   2 -14    4.30   12.20
   7  -5  14    7.90   18.00
  -7   6 -14   10.50   16.40
   1  -7 -14  -12.50   15.30
   6   1 -14    7.10   12.60
   7  -6  14   -4.60   17.90
   0   0 -15   -8.10   14.80
   0   0  15    8.60   17.70
   1  -1 -15  192.08   22.40
  -1   0 -15  159.38   21.90
   0   1 -15  148.59   21.30
   0  -1  15  128.29   22.80
  -1   1  15  171.48   24.70
   1   0  15  152.08   24.90
   0  -1 -15  158.28   21.90
   1   0 -15  150.98   21.20
  -1   1 -15  151.48   21.20
   0   1  15  148.39   24.80
  -1   0  15  136.79   23.10
   1  -1  15  126.79   22.80
  -1  -1 -15  107.59   19.80
  -1   2 -15   94.89   18.70
   2  -1 -15   98.99   18.90
   1   1  15  108.49   23.60
   1  -2  15  113.79   21.20
  -2   1  15  128.79   21.90
   2  -2 -15   68.39   17.20
  -2   0 -15   43.50   17.40
   0   2 -15   33.50   16.10
   0  -2  15   63.49   18.40
   2   0  15   50.69   20.20
   1  -2 -15   96.29   19.70
  -2   1 -15  127.69   20.40
   1   1 -15   89.09   18.50
   2  -1  15   99.29   21.80
  -1  -1  15  107.29   20.40
   2   0 -15   26.60   15.70
   0  -2 -15   52.09   17.30
  -2   2 -15   46.70   16.90
  -2   0  15   66.39   18.50
   2  -2  15   58.19   19.40

_computing_structure_solution     'SHELXT 2014/4 (Sheldrick, 2014)'
;
_shelx_hkl_checksum              21483
_olex2_submission_special_instructions 'No special instructions were received'
loop_
_space_group_symop_operation_xyz
'x, y, z'
'-y, x-y, z'
'-x+y, -x, z'
'-x, -y, z+1/2'
'y, -x+y, z+1/2'
'x-y, x, z+1/2'
'y, x, -z'
'x-y, -y, -z'
'-x, -x+y, -z'
'-y, -x, -z+1/2'
'-x+y, y, -z+1/2'
'x, x-y, -z+1/2'
loop_
_atom_site_label
_atom_site_type_symbol
_atom_site_fract_x
_atom_site_fract_y
_atom_site_fract_z
_atom_site_U_iso_or_equiv
_atom_site_adp_type
_atom_site_occupancy
_atom_site_site_symmetry_order
_atom_site_calc_flag
_atom_site_refinement_flags_posn
_atom_site_refinement_flags_adp
_atom_site_refinement_flags_occupancy
_atom_site_disorder_assembly
_atom_site_disorder_group
Sn1 Sn 0.52857(3) 0.000000 0.000000 0.01673(9) Uani 1 2 d S T P . .
Se1 Se 0.16710(3) 0.49694(3) 0.04714(4) 0.01563(9) Uani 1 1 d . . . . .
Se2 Se 0.39593(3) 0.06772(3) 0.31093(4) 0.01830(9) Uani 1 1 d . . . . .
Sn2 Sn 0.333333 0.666667 0.250000 0.02011(14) Uani 1 6 d S T P . .
B1 B 0.5914(3) 0.2572(3) 0.1119(4) 0.0101(6) Uani 1 1 d . . . . .
B2 B 0.5435(3) 0.2106(3) 0.2819(4) 0.0115(7) Uani 1 1 d . . . . .
Se3 Se 0.0506(19) 0.1601(15) 0.120(3) 0.129(5) Uiso 0.145(4) 1 d . . . . .
Se4 Se 0.162(8) 0.000000 0.000000 0.129(4) Uiso 0.046(17) 2 d S . . . .
Se5 Se 0.083(2) 0.051(3) 0.073(3) 0.129(4) Uiso 0.065(3) 1 d . . . . .
Se6 Se 0.0699(16) 0.1612(19) 0.206(3) 0.129(4) Uiso 0.130(7) 1 d . . . . .
Se7 Se 0.092(3) 0.006(4) 0.161(4) 0.129(4) Uiso 0.058(4) 1 d . . . . .
Se8 Se 0.093(4) 0.075(4) 0.202(5) 0.129(4) Uiso 0.043(4) 1 d . . . . .
Se9 Se 0.069(5) 0.162(4) 0.009(6) 0.129(4) Uiso 0.045(5) 1 d . . . . .
Se10 Se 0.054(5) 0.108(9) 0.250000 0.129(4) Uiso 0.048(11) 2 d S . . . .
Se11 Se 0.012(4) 0.145(2) 0.060(6) 0.129(4) Uiso 0.096(9) 1 d . . . . .
Se12 Se 0.000000 0.000000 0.000000 0.129(4) Uiso 0.021(8) 6 d S . . . .
loop_
_atom_site_aniso_label
_atom_site_aniso_U_11
_atom_site_aniso_U_22
_atom_site_aniso_U_33
_atom_site_aniso_U_23
_atom_site_aniso_U_13
_atom_site_aniso_U_12
Sn1 0.02029(14) 0.01226(16) 0.01497(16) -0.00379(16) -0.00190(8) 0.00613(8)
Se1 0.01520(18) 0.0184(2) 0.01145(16) 0.00467(14) 0.00239(13) 0.00699(14)
Se2 0.01376(19) 0.0155(2) 0.01896(17) 0.00428(15) -0.00140(15) 0.00227(14)
Sn2 0.0237(2) 0.0237(2) 0.0129(3) 0.000 0.000 0.01184(10)
B1 0.0116(18) 0.0111(18) 0.0069(15) 0.0007(13) -0.0003(13) 0.0052(14)
B2 0.0120(19) 0.0102(17) 0.0130(18) 0.0004(14) 0.0000(14) 0.0060(14)
loop_
_atom_type_symbol
_atom_type_description
_atom_type_scat_dispersion_real
_atom_type_scat_dispersion_imag
_atom_type_scat_source
B B 0.0013 0.0007 'International Tables Vol C Tables 4.2.6.8 and 6.1.1.4'
Se Se -0.0929 2.2259 'International Tables Vol C Tables 4.2.6.8 and 6.1.1.4'
Sn Sn -0.6537 1.4246 'International Tables Vol C Tables 4.2.6.8 and 6.1.1.4'
loop_
_geom_angle_atom_site_label_1
_geom_angle_atom_site_label_2
_geom_angle_atom_site_label_3
_geom_angle
_geom_angle_site_symmetry_1
_geom_angle_site_symmetry_3
_geom_angle_publ_flag
Se1 Sn1 Se1 104.46(2) 3 7 ?
Se2 Sn1 Se1 104.620(12) 11_655 7 ?
Se2 Sn1 Se1 118.268(13) 11_655 3 ?
Se2 Sn1 Se1 104.620(12) 4_654 3 ?
Se2 Sn1 Se1 118.268(13) 4_654 7 ?
Se2 Sn1 Se2 107.30(2) 11_655 4_654 ?
Sn1 Se1 Sn2 112.206(16) 2 . ?
B1 Se1 Sn1 93.49(12) 7 2 ?
B1 Se1 Sn2 92.29(11) 7 . ?
B2 Se2 Sn1 93.78(12) . 4_655 ?
Se1 Sn2 Se1 178.444(17) 3_565 11 ?
Se1 Sn2 Se1 81.492(11) . 2_665 ?
Se1 Sn2 Se1 81.493(11) 3_565 2_665 ?
Se1 Sn2 Se1 97.492(16) . 11 ?
Se1 Sn2 Se1 178.444(17) 12_565 2_665 ?
Se1 Sn2 Se1 99.547(15) 12_565 . ?
Se1 Sn2 Se1 97.492(15) 10_665 2_665 ?
Se1 Sn2 Se1 81.493(11) 3_565 . ?
Se1 Sn2 Se1 81.493(11) 12_565 11 ?
Se1 Sn2 Se1 178.443(17) 10_665 . ?
Se1 Sn2 Se1 81.493(11) 10_665 11 ?
Se1 Sn2 Se1 97.492(16) 12_565 3_565 ?
Se1 Sn2 Se1 99.546(15) 2_665 11 ?
Se1 Sn2 Se1 81.493(11) 12_565 10_665 ?
Se1 Sn2 Se1 99.546(15) 3_565 10_665 ?
B1 B1 Se1 123.92(18) 2_655 7 ?
B1 B1 Se1 121.7(2) 3_665 7 ?
B1 B1 B1 59.999(1) 3_665 2_655 ?
B1 B1 B2 60.6(3) 2_655 11_655 ?
B1 B1 B2 59.9(3) 3_665 12 ?
B1 B1 B2 108.3(2) 3_665 11_655 ?
B1 B1 B2 107.8(2) 3_665 . ?
B1 B1 B2 108.5(2) 2_655 . ?
B1 B1 B2 107.8(2) 2_655 12 ?
B2 B1 Se1 123.0(3) 11_655 7 ?
B2 B1 Se1 119.8(3) 12 7 ?
B2 B1 Se1 120.1(2) . 7 ?
B2 B1 B2 60.1(3) 11_655 . ?
B2 B1 B2 107.5(3) 11_655 12 ?
B2 B1 B2 59.4(3) . 12 ?
B1 B2 Se2 124.5(3) 11_655 . ?
B1 B2 Se2 119.3(2) . . ?
B1 B2 Se2 123.0(2) 12 . ?
B1 B2 B1 59.6(3) 11_655 12 ?
B1 B2 B1 108.0(3) 11_655 . ?
B1 B2 B1 108.2(3) . 12 ?
B1 B2 B2 59.9(3) 11_655 11_655 ?
B1 B2 B2 59.9(2) . 11_655 ?
B2 B2 Se2 119.38(13) 12 . ?
B2 B2 Se2 122.42(13) 11_655 . ?
B2 B2 B1 60.0(3) 12 12 ?
B2 B2 B1 60.6(3) 12 . ?
B2 B2 B1 108.0(2) 12 11_655 ?
B2 B2 B1 107.5(2) 11_655 12 ?
B2 B2 B2 108.4(2) 12 11_655 ?
Se4 Se3 Se5 67(4) 2 2 ?
Se4 Se3 Se5 97(5) 2 . ?
Se4 Se3 Se6 167(2) 2 11 ?
Se4 Se3 Se8 139(5) 2 . ?
Se4 Se3 Se9 28(3) 2 9 ?
Se4 Se3 Se10 153(5) 2 . ?
Se4 Se3 Se11 15(4) 2 9 ?
Se5 Se3 Se5 59.0(19) 2 . ?
Se5 Se3 Se6 111.4(18) 2 11 ?
Se5 Se3 Se8 79(2) 2 . ?
Se5 Se3 Se9 86.5(19) . 9 ?
Se5 Se3 Se9 40.9(19) 2 9 ?
Se5 Se3 Se11 82.7(18) . 9 ?
Se5 Se3 Se11 58.8(19) 2 9 ?
Se6 Se3 Se4 166(3) . 2 ?
Se6 Se3 Se5 92.6(16) 11 . ?
Se6 Se3 Se5 112(3) . 2 ?
Se6 Se3 Se5 94(2) . . ?
Se6 Se3 Se6 1.1(19) . 11 ?
Se6 Se3 Se7 73(3) . 2 ?
Se6 Se3 Se8 51(3) . . ?
Se6 Se3 Se9 146(2) 11 9 ?
Se6 Se3 Se9 151(4) . . ?
Se6 Se3 Se9 145(3) . 9 ?
Se6 Se3 Se10 25(3) . . ?
Se6 Se3 Se11 170(3) . 9 ?
Se6 Se3 Se11 170.1(18) 11 9 ?
Se7 Se3 Se4 103(4) 2 2 ?
Se7 Se3 Se5 70(2) 2 . ?
Se7 Se3 Se5 40(3) 2 2 ?
Se7 Se3 Se6 73(3) 2 11 ?
Se7 Se3 Se8 59(3) 2 . ?
Se7 Se3 Se9 75(4) 2 9 ?
Se7 Se3 Se9 118(4) 2 . ?
Se7 Se3 Se10 50(4) 2 . ?
Se7 Se3 Se11 98(4) 2 9 ?
Se8 Se3 Se5 43(2) . . ?
Se8 Se3 Se6 50(2) . 11 ?
Se8 Se3 Se9 119(3) . 9 ?
Se8 Se3 Se11 124(2) . 9 ?
Se9 Se3 Se4 43(4) . 2 ?
Se9 Se3 Se5 79(3) . 2 ?
Se9 Se3 Se5 68(2) . . ?
Se9 Se3 Se6 150(4) . 11 ?
Se9 Se3 Se8 109(3) . . ?
Se9 Se3 Se9 59(5) . 9 ?
Se9 Se3 Se10 143(4) . . ?
Se9 Se3 Se11 35(4) . 9 ?
Se9 Se3 Se11 25.8(17) 9 9 ?
Se10 Se3 Se5 75(3) . . ?
Se10 Se3 Se5 87(4) . 2 ?
Se10 Se3 Se6 25(4) . 11 ?
Se10 Se3 Se8 34(2) . . ?
Se10 Se3 Se9 125(4) . 9 ?
Se10 Se3 Se11 145(5) . 9 ?
Se11 Se3 Se4 16(4) . 2 ?
Se11 Se3 Se5 89(3) . . ?
Se11 Se3 Se5 52(3) . 2 ?
Se11 Se3 Se6 158(5) . . ?
Se11 Se3 Se6 158(4) . 11 ?
Se11 Se3 Se7 88(4) . 2 ?
Se11 Se3 Se8 127(4) . . ?
Se11 Se3 Se9 50(4) . . ?
Se11 Se3 Se9 13(4) . 9 ?
Se11 Se3 Se10 137(5) . . ?
Se11 Se3 Se11 15(4) . 9 ?
Se3 Se4 Se3 149(9) 7 3 ?
Se3 Se4 Se5 64(3) 3 . ?
Se3 Se4 Se5 89(5) 7 . ?
Se3 Se4 Se5 89(5) 3 8 ?
Se3 Se4 Se5 64(3) 7 8 ?
Se3 Se4 Se6 5.5(12) 7 7 ?
Se3 Se4 Se6 152(7) 3 7 ?
Se3 Se4 Se7 125(6) 7 . ?
Se3 Se4 Se7 31(2) 3 . ?
Se3 Se4 Se7 31(2) 7 8 ?
Se3 Se4 Se7 125(6) 3 8 ?
Se3 Se4 Se12 75(4) 7 . ?
Se3 Se4 Se12 75(4) 3 . ?
Se5 Se4 Se5 67(4) 8 . ?
Se5 Se4 Se6 64.2(19) 8 7 ?
Se5 Se4 Se6 94(4) . 7 ?
Se5 Se4 Se7 35.4(18) . . ?
Se5 Se4 Se7 86(5) . 8 ?
Se5 Se4 Se7 86(5) 8 . ?
Se5 Se4 Se7 35.4(18) 8 8 ?
Se5 Se4 Se12 34(2) . . ?
Se5 Se4 Se12 34(2) 8 . ?
Se7 Se4 Se6 130(5) . 7 ?
Se7 Se4 Se6 29.8(15) 8 7 ?
Se7 Se4 Se7 116(6) . 8 ?
Se7 Se4 Se12 58(3) 8 . ?
Se7 Se4 Se12 58(3) . . ?
Se9 Se4 Se3 109(6) 7 3 ?
Se9 Se4 Se3 54(4) 3 3 ?
Se9 Se4 Se3 109(6) 3 7 ?
Se9 Se4 Se3 54(4) 7 7 ?
Se9 Se4 Se5 47(5) 3 8 ?
Se9 Se4 Se5 47(5) 7 . ?
Se9 Se4 Se5 82(7) 7 8 ?
Se9 Se4 Se5 82(7) 3 . ?
Se9 Se4 Se6 60(4) 7 7 ?
Se9 Se4 Se6 107(5) 3 7 ?
Se9 Se4 Se7 77(5) 7 . ?
Se9 Se4 Se7 77(5) 3 8 ?
Se9 Se4 Se7 72(5) 7 8 ?
Se9 Se4 Se7 72(5) 3 . ?
Se9 Se4 Se9 121(10) 3 7 ?
Se9 Se4 Se12 60(6) 3 . ?
Se9 Se4 Se12 60(6) 7 . ?
Se11 Se4 Se3 17(4) 3 3 ?
Se11 Se4 Se3 17(4) 7 7 ?
Se11 Se4 Se3 135(10) 7 3 ?
Se11 Se4 Se3 135(10) 3 7 ?
Se11 Se4 Se5 47(7) 7 8 ?
Se11 Se4 Se5 85(10) 7 . ?
Se11 Se4 Se5 47(7) 3 . ?
Se11 Se4 Se5 85(10) 3 8 ?
Se11 Se4 Se6 17(6) 7 7 ?
Se11 Se4 Se6 139(10) 3 7 ?
Se11 Se4 Se7 15(5) 7 8 ?
Se11 Se4 Se7 118(10) 7 . ?
Se11 Se4 Se7 118(10) 3 8 ?
Se11 Se4 Se7 15(5) 3 . ?
Se11 Se4 Se9 61(5) 3 3 ?
Se11 Se4 Se9 92(9) 3 7 ?
Se11 Se4 Se9 92(9) 7 3 ?
Se11 Se4 Se9 61(5) 7 7 ?
Se11 Se4 Se11 125(10) 7 3 ?
Se11 Se4 Se12 62(9) 7 . ?
Se11 Se4 Se12 62(9) 3 . ?
Se12 Se4 Se6 78(3) . 7 ?
Se3 Se5 Se4 48.4(17) 3 . ?
Se3 Se5 Se5 123(2) 3 2 ?
Se3 Se5 Se5 65(2) 3 3 ?
Se3 Se5 Se7 124(3) 3 2 ?
Se3 Se5 Se9 173(3) 3 . ?
Se4 Se5 Se5 142(3) . 2 ?
Se4 Se5 Se5 90(3) . 3 ?
Se4 Se5 Se7 172(3) . 2 ?
Se4 Se5 Se9 124(3) . . ?
Se5 Se5 Se3 132(3) 7 3 ?
Se5 Se5 Se4 93(3) 7 . ?
Se5 Se5 Se5 93.4(7) 7 3 ?
Se5 Se5 Se5 68(2) 7 2 ?
Se5 Se5 Se5 60.001(2) 2 3 ?
Se5 Se5 Se7 37.0(16) 2 2 ?
Se5 Se5 Se7 84(2) 3 2 ?
Se5 Se5 Se7 92(2) 7 2 ?
Se5 Se5 Se9 64(3) 2 . ?
Se5 Se5 Se9 44(2) 7 . ?
Se5 Se5 Se9 119(3) 3 . ?
Se7 Se5 Se3 36(3) . 3 ?
Se7 Se5 Se4 81(3) . . ?
Se7 Se5 Se5 165(4) . 7 ?
Se7 Se5 Se5 109(3) . 2 ?
Se7 Se5 Se5 73(3) . 3 ?
Se7 Se5 Se7 93(4) . 2 ?
Se7 Se5 Se8 50(3) . . ?
Se7 Se5 Se9 107(4) . 7 ?
Se7 Se5 Se9 150(4) . . ?
Se7 Se5 Se11 59(3) . 3 ?
Se7 Se5 Se12 119(4) . . ?
Se8 Se5 Se3 85(3) . 3 ?
Se8 Se5 Se4 121(4) . . ?
Se8 Se5 Se5 101(2) . 3 ?
Se8 Se5 Se5 143(4) . 7 ?
Se8 Se5 Se5 90(3) . 2 ?
Se8 Se5 Se7 56(3) . 2 ?
Se8 Se5 Se9 100(4) . . ?
Se8 Se5 Se11 104(4) . 3 ?
Se9 Se5 Se3 80(3) 7 3 ?
Se9 Se5 Se4 33(3) 7 . ?
Se9 Se5 Se5 72(3) 7 7 ?
Se9 Se5 Se5 140(3) 7 2 ?
Se9 Se5 Se5 117(4) 7 3 ?
Se9 Se5 Se7 154(4) 7 2 ?
Se9 Se5 Se7 63(3) . 2 ?
Se9 Se5 Se8 127(4) 7 . ?
Se9 Se5 Se9 92(5) 7 . ?
Se9 Se5 Se11 54(4) 7 3 ?
Se11 Se5 Se3 26(2) 3 3 ?
Se11 Se5 Se4 22(3) 3 . ?
Se11 Se5 Se5 138(3) 3 2 ?
Se11 Se5 Se5 79(3) 3 3 ?
Se11 Se5 Se5 112(4) 3 7 ?
Se11 Se5 Se7 151(4) 3 2 ?
Se11 Se5 Se9 146(4) 3 . ?
Se12 Se5 Se3 103(2) . 3 ?
Se12 Se5 Se4 97(3) . . ?
Se12 Se5 Se5 45.6(10) . 2 ?
Se12 Se5 Se5 45.6(10) . 3 ?
Se12 Se5 Se5 48.1(14) . 7 ?
Se12 Se5 Se7 82.7(19) . 2 ?
Se12 Se5 Se8 132(3) . . ?
Se12 Se5 Se9 79(2) . . ?
Se12 Se5 Se9 101(3) . 7 ?
Se12 Se5 Se11 101(3) . 3 ?
Se3 Se6 Se3 178(3) . 11 ?
Se3 Se6 Se5 117.3(17) 11 . ?
Se3 Se6 Se5 61.2(18) . . ?
Se3 Se6 Se6 178(4) . 11 ?
Se3 Se6 Se7 58(2) . 2 ?
Se3 Se6 Se7 146(3) . 12 ?
Se3 Se6 Se8 100(2) 11 2 ?
Se3 Se6 Se8 80(2) . 2 ?
Se3 Se6 Se8 117(3) . 11 ?
Se3 Se6 Se8 99(3) . . ?
Se3 Se6 Se9 163(2) 11 . ?
Se3 Se6 Se9 16(2) . . ?
Se3 Se6 Se11 10(2) . . ?
Se6 Se6 Se3 1.0(18) 11 11 ?
Se6 Se6 Se5 117(2) 11 . ?
Se6 Se6 Se7 122(3) 11 2 ?
Se6 Se6 Se7 32.5(18) 11 12 ?
Se6 Se6 Se8 79(3) 11 . ?
Se6 Se6 Se8 100(2) 11 2 ?
Se6 Se6 Se8 64(2) 11 11 ?
Se6 Se6 Se9 162(3) 11 . ?
Se6 Se6 Se11 171(2) 11 . ?
Se7 Se6 Se3 32.5(16) 12 11 ?
Se7 Se6 Se3 121(3) 2 11 ?
Se7 Se6 Se5 87(2) 12 . ?
Se7 Se6 Se5 57(2) 2 . ?
Se7 Se6 Se7 96(4) 2 12 ?
Se7 Se6 Se8 73(3) 2 . ?
Se7 Se6 Se8 80(2) 12 2 ?
Se7 Se6 Se8 61(3) 2 11 ?
Se7 Se6 Se8 22(3) 2 2 ?
Se7 Se6 Se9 138(2) 12 . ?
Se7 Se6 Se9 67(3) 2 . ?
Se7 Se6 Se11 50(2) 2 . ?
Se8 Se6 Se3 63(2) 11 11 ?
Se8 Se6 Se3 80(3) . 11 ?
Se8 Se6 Se5 71.0(16) 2 . ?
Se8 Se6 Se5 98(2) 11 . ?
Se8 Se6 Se5 38(2) . . ?
Se8 Se6 Se7 53(2) 11 12 ?
Se8 Se6 Se7 49(3) . 12 ?
Se8 Se6 Se8 38(3) 11 2 ?
Se8 Se6 Se8 77(4) . 11 ?
Se8 Se6 Se8 72(3) . 2 ?
Se8 Se6 Se9 89(3) . . ?
Se8 Se6 Se9 127(2) 11 . ?
Se8 Se6 Se11 99(3) . . ?
Se8 Se6 Se11 107(2) 11 . ?
Se9 Se6 Se5 51.3(16) . . ?
Se9 Se6 Se8 89(2) . 2 ?
Se10 Se6 Se3 54(6) . 11 ?
Se10 Se6 Se3 125(4) . . ?
Se10 Se6 Se5 76(4) . . ?
Se10 Se6 Se6 54(5) . 11 ?
Se10 Se6 Se7 71(4) . 2 ?
Se10 Se6 Se7 26(5) . 12 ?
Se10 Se6 Se8 44(2) . . ?
Se10 Se6 Se8 36(2) . 11 ?
Se10 Se6 Se8 54(3) . 2 ?
Se10 Se6 Se9 124(5) . . ?
Se10 Se6 Se11 119(5) . . ?
Se11 Se6 Se3 170(2) . 11 ?
Se11 Se6 Se5 62.9(14) . . ?
Se11 Se6 Se7 142(2) . 12 ?
Se11 Se6 Se8 70(2) . 2 ?
Se11 Se6 Se9 25.6(18) . . ?
Se3 Se7 Se4 46(3) 3 . ?
Se3 Se7 Se5 78(3) 3 3 ?
Se3 Se7 Se5 104(5) 3 . ?
Se3 Se7 Se6 75(4) 3 12 ?
Se3 Se7 Se6 49(3) 3 3 ?
Se3 Se7 Se8 167(5) 3 . ?
Se3 Se7 Se8 86(4) 3 3 ?
Se3 Se7 Se8 120(5) 3 12 ?
Se3 Se7 Se9 33(3) 3 3 ?
Se3 Se7 Se10 88(6) 3 3 ?
Se3 Se7 Se11 38(3) 3 3 ?
Se5 Se7 Se4 64(4) . . ?
Se5 Se7 Se4 84(3) 3 . ?
Se5 Se7 Se5 70(3) . 3 ?
Se5 Se7 Se6 151(5) . 3 ?
Se5 Se7 Se6 96(2) 3 12 ?
Se5 Se7 Se6 165(4) . 12 ?
Se5 Se7 Se8 135(6) . 12 ?
Se5 Se7 Se8 112(4) . 3 ?
Se5 Se7 Se9 72(3) . 3 ?
Se5 Se7 Se9 58(2) 3 3 ?
Se5 Se7 Se10 151(6) . 3 ?
Se5 Se7 Se11 70(3) . 3 ?
Se6 Se7 Se4 94(4) 3 . ?
Se6 Se7 Se4 119(3) 12 . ?
Se6 Se7 Se5 90(3) 3 3 ?
Se6 Se7 Se6 25.9(19) 3 12 ?
Se6 Se7 Se8 73(4) 3 12 ?
Se6 Se7 Se8 61(4) 3 3 ?
Se6 Se7 Se9 79(4) 3 3 ?
Se6 Se7 Se9 103(3) 12 3 ?
Se6 Se7 Se10 40(5) 3 3 ?
Se6 Se7 Se11 86(4) 3 3 ?
Se8 Se7 Se4 127(5) . . ?
Se8 Se7 Se4 151(4) 12 . ?
Se8 Se7 Se4 120(4) 3 . ?
Se8 Se7 Se5 113(5) . 3 ?
Se8 Se7 Se5 47(2) 3 3 ?
Se8 Se7 Se5 76(4) . . ?
Se8 Se7 Se5 122(3) 12 3 ?
Se8 Se7 Se6 109(4) . 12 ?
Se8 Se7 Se6 133(5) . 3 ?
Se8 Se7 Se6 49(3) 12 12 ?
Se8 Se7 Se6 53(3) 3 12 ?
Se8 Se7 Se8 60(5) . 12 ?
Se8 Se7 Se8 77(4) 12 3 ?
Se8 Se7 Se8 106(6) . 3 ?
Se8 Se7 Se9 90(3) 3 3 ?
Se8 Se7 Se9 152(5) 12 3 ?
Se8 Se7 Se9 148(5) . 3 ?
Se8 Se7 Se10 99(6) . 3 ?
Se8 Se7 Se11 135(6) . 3 ?
Se9 Se7 Se4 30(2) 3 . ?
Se10 Se7 Se4 133(6) 3 . ?
Se10 Se7 Se5 87(3) 3 3 ?
Se10 Se7 Se6 17(5) 3 12 ?
Se10 Se7 Se8 41(4) 3 3 ?
Se10 Se7 Se8 45(3) 3 12 ?
Se10 Se7 Se9 111(5) 3 3 ?
Se10 Se7 Se11 125(7) 3 3 ?
Se11 Se7 Se4 8(3) 3 . ?
Se11 Se7 Se5 80(3) 3 3 ?
Se11 Se7 Se6 112(4) 3 12 ?
Se11 Se7 Se8 113(4) 3 3 ?
Se11 Se7 Se8 149(5) 3 12 ?
Se11 Se7 Se9 24(2) 3 3 ?
Se3 Se8 Se6 147(3) . 3 ?
Se3 Se8 Se8 71(3) . 11 ?
Se5 Se8 Se3 72(2) . . ?
Se5 Se8 Se6 79(3) . 3 ?
Se5 Se8 Se6 139(4) . 11 ?
Se5 Se8 Se6 102(3) . . ?
Se5 Se8 Se7 172(5) . 12 ?
Se5 Se8 Se7 77(3) . 2 ?
Se5 Se8 Se8 122(4) . 11 ?
Se5 Se8 Se10 94(4) . 3 ?
Se6 Se8 Se3 67(3) 11 . ?
Se6 Se8 Se3 30.4(12) . . ?
Se6 Se8 Se6 142(3) 11 3 ?
Se6 Se8 Se6 167(4) . 3 ?
Se6 Se8 Se6 37(3) . 11 ?
Se6 Se8 Se7 46(3) . 2 ?
Se6 Se8 Se8 55(2) . 11 ?
Se6 Se8 Se8 48(2) 11 11 ?
Se6 Se8 Se10 123(4) 11 3 ?
Se6 Se8 Se10 146(6) . 3 ?
Se7 Se8 Se3 35(3) 2 . ?
Se7 Se8 Se3 125(5) . . ?
Se7 Se8 Se3 112(5) 12 . ?
Se7 Se8 Se5 55(4) . . ?
Se7 Se8 Se6 46(4) 12 11 ?
Se7 Se8 Se6 95(4) 12 3 ?
Se7 Se8 Se6 24(3) . 3 ?
Se7 Se8 Se6 73(4) 2 11 ?
Se7 Se8 Se6 155(5) . . ?
Se7 Se8 Se6 166(5) . 11 ?
Se7 Se8 Se6 82(5) 12 . ?
Se7 Se8 Se6 123(4) 2 3 ?
Se7 Se8 Se7 113(6) . 2 ?
Se7 Se8 Se7 102(5) 12 2 ?
Se7 Se8 Se7 120(5) . 12 ?
Se7 Se8 Se8 73(6) . 12 ?
Se7 Se8 Se8 48(2) 2 11 ?
Se7 Se8 Se8 126(4) . 11 ?
Se7 Se8 Se8 55(4) 12 11 ?
Se7 Se8 Se10 111(5) 2 3 ?
Se7 Se8 Se10 43(3) . 3 ?
Se7 Se8 Se10 79(3) 12 3 ?
Se8 Se8 Se3 153(6) 12 . ?
Se8 Se8 Se5 128(8) 12 . ?
Se8 Se8 Se6 93(6) 12 11 ?
Se8 Se8 Se6 49(5) 12 3 ?
Se8 Se8 Se6 127(7) 12 . ?
Se8 Se8 Se6 114(2) 11 3 ?
Se8 Se8 Se7 46(4) 12 12 ?
Se8 Se8 Se7 124(3) 12 2 ?
Se8 Se8 Se8 82(5) 12 11 ?
Se8 Se8 Se10 36(4) 12 3 ?
Se10 Se8 Se3 145(4) 3 . ?
Se10 Se8 Se3 58(3) . . ?
Se10 Se8 Se5 126(4) . . ?
Se10 Se8 Se6 136(8) . 3 ?
Se10 Se8 Se6 23(2) 3 3 ?
Se10 Se8 Se6 28(5) . 11 ?
Se10 Se8 Se6 34(5) . . ?
Se10 Se8 Se7 149(10) . . ?
Se10 Se8 Se7 50(3) . 2 ?
Se10 Se8 Se7 55(4) . 12 ?
Se10 Se8 Se8 23(7) . 11 ?
Se10 Se8 Se8 96(7) . 12 ?
Se10 Se8 Se8 92(4) 3 11 ?
Se10 Se8 Se10 113(10) . 3 ?
Se3 Se9 Se3 120(5) . 9 ?
Se3 Se9 Se5 63(3) . 2 ?
Se3 Se9 Se5 75(3) . . ?
Se3 Se9 Se5 131(4) . 7 ?
Se3 Se9 Se7 30.4(17) 9 7 ?
Se3 Se9 Se7 29(2) . 2 ?
Se3 Se9 Se7 144(5) . 7 ?
Se3 Se9 Se9 85(5) . 9 ?
Se3 Se9 Se11 113(7) . 9 ?
Se3 Se9 Se12 92(3) . . ?
Se3 Se9 Se12 72.6(18) 9 . ?
Se4 Se9 Se3 83(5) 2 . ?
Se4 Se9 Se3 43(4) 2 9 ?
Se4 Se9 Se5 99(7) 2 7 ?
Se4 Se9 Se5 67(6) 2 2 ?
Se4 Se9 Se5 125(7) 2 . ?
Se4 Se9 Se7 73(4) 2 7 ?
Se4 Se9 Se7 78(5) 2 2 ?
Se4 Se9 Se9 30(6) 2 9 ?
Se4 Se9 Se11 35(4) 2 9 ?
Se4 Se9 Se12 94(7) 2 . ?
Se5 Se9 Se3 111(3) . 9 ?
Se5 Se9 Se3 59(3) 7 9 ?
Se5 Se9 Se3 71(2) 2 9 ?
Se5 Se9 Se5 57(2) . 2 ?
Se5 Se9 Se5 64(3) 7 . ?
Se5 Se9 Se5 72(3) 7 2 ?
Se5 Se9 Se7 103(4) 7 2 ?
Se5 Se9 Se7 58.6(19) . 2 ?
Se5 Se9 Se7 96(3) . 7 ?
Se5 Se9 Se7 82(2) 2 7 ?
Se5 Se9 Se7 35.1(18) 2 2 ?
Se5 Se9 Se7 33(2) 7 7 ?
Se5 Se9 Se9 76(3) 7 9 ?
Se5 Se9 Se12 38.1(13) 2 . ?
Se5 Se9 Se12 38.7(13) . . ?
Se5 Se9 Se12 38.8(19) 7 . ?
Se7 Se9 Se3 102(3) 2 9 ?
Se7 Se9 Se7 117(3) 2 7 ?
Se7 Se9 Se12 63.0(19) 7 . ?
Se7 Se9 Se12 65(2) 2 . ?
Se9 Se9 Se3 36(3) 9 9 ?
Se9 Se9 Se5 42(3) 9 2 ?
Se9 Se9 Se5 98(3) 9 . ?
Se9 Se9 Se7 66(4) 9 2 ?
Se9 Se9 Se7 61(4) 9 7 ?
Se9 Se9 Se12 64.6(18) 9 . ?
Se11 Se9 Se3 42(5) . . ?
Se11 Se9 Se3 8(3) 9 9 ?
Se11 Se9 Se3 78(6) . 9 ?
Se11 Se9 Se4 44(5) . 2 ?
Se11 Se9 Se5 112(6) . 7 ?
Se11 Se9 Se5 91(5) . . ?
Se11 Se9 Se5 66(3) 9 7 ?
Se11 Se9 Se5 114(4) 9 . ?
Se11 Se9 Se5 68(4) 9 2 ?
Se11 Se9 Se5 43(3) . 2 ?
Se11 Se9 Se7 105(7) . 7 ?
Se11 Se9 Se7 35(5) . 2 ?
Se11 Se9 Se7 38(3) 9 7 ?
Se11 Se9 Se7 96(5) 9 2 ?
Se11 Se9 Se9 30(3) 9 9 ?
Se11 Se9 Se9 44(5) . 9 ?
Se11 Se9 Se11 71(8) . 9 ?
Se11 Se9 Se12 75(3) 9 . ?
Se11 Se9 Se12 81(4) . . ?
Se3 Se10 Se3 131(8) 11 . ?
Se3 Se10 Se7 119(2) 11 . ?
Se3 Se10 Se7 119(2) . 11 ?
Se3 Se10 Se7 92.3(18) 11 11 ?
Se3 Se10 Se7 92.3(18) . . ?
Se3 Se10 Se8 80(2) 11 12 ?
Se3 Se10 Se8 80(2) . 2 ?
Se3 Se10 Se8 135(3) 11 2 ?
Se3 Se10 Se8 135(3) . 12 ?
Se6 Se10 Se3 29.4(15) . . ?
Se6 Se10 Se3 29.4(15) 11 11 ?
Se6 Se10 Se3 101(9) 11 . ?
Se6 Se10 Se3 101(9) . 11 ?
Se6 Se10 Se6 72(10) 11 . ?
Se6 Se10 Se7 129.9(17) 11 . ?
Se6 Se10 Se7 112(2) 11 11 ?
Se6 Se10 Se7 137(10) . 12 ?
Se6 Se10 Se7 112(2) . . ?
Se6 Se10 Se7 129.9(17) . 11 ?
Se6 Se10 Se7 69(3) . 2 ?
Se6 Se10 Se7 69(3) 11 12 ?
Se6 Se10 Se7 137(10) 11 2 ?
Se6 Se10 Se8 101(4) 11 11 ?
Se6 Se10 Se8 101(4) . . ?
Se6 Se10 Se8 145(3) . 12 ?
Se6 Se10 Se8 116(6) . 11 ?
Se6 Se10 Se8 104(2) 11 12 ?
Se6 Se10 Se8 145(3) 11 2 ?
Se6 Se10 Se8 104(2) . 2 ?
Se6 Se10 Se8 116(6) 11 . ?
Se7 Se10 Se3 43(3) 12 11 ?
Se7 Se10 Se3 43(3) 2 . ?
Se7 Se10 Se3 158(5) 2 11 ?
Se7 Se10 Se3 158(5) 12 . ?
Se7 Se10 Se7 81(5) 12 . ?
Se7 Se10 Se7 102(6) . 11 ?
Se7 Se10 Se7 154(10) 12 2 ?
Se7 Se10 Se7 83(5) 12 11 ?
Se7 Se10 Se7 81(5) 2 11 ?
Se7 Se10 Se7 83(5) 2 . ?
Se7 Se10 Se8 119(9) 12 2 ?
Se7 Se10 Se8 38(3) 2 2 ?
Se7 Se10 Se8 38(3) 12 12 ?
Se7 Se10 Se8 119(9) 2 12 ?
Se8 Se10 Se3 88(3) . . ?
Se8 Se10 Se3 88(3) 11 11 ?
Se8 Se10 Se3 112(3) . 11 ?
Se8 Se10 Se3 112(3) 11 . ?
Se8 Se10 Se7 90(5) . 2 ?
Se8 Se10 Se7 118(10) 11 . ?
Se8 Se10 Se7 16(5) 11 11 ?
Se8 Se10 Se7 90(5) 11 12 ?
Se8 Se10 Se7 84(5) 2 . ?
Se8 Se10 Se7 118(10) . 11 ?
Se8 Se10 Se7 80(4) 11 2 ?
Se8 Se10 Se7 84(5) 12 11 ?
Se8 Se10 Se7 44(3) 2 11 ?
Se8 Se10 Se7 16(5) . . ?
Se8 Se10 Se7 44(3) 12 . ?
Se8 Se10 Se7 80(4) . 12 ?
Se8 Se10 Se8 48(5) 11 2 ?
Se8 Se10 Se8 99(9) . 2 ?
Se8 Se10 Se8 133(10) . 11 ?
Se8 Se10 Se8 48(5) . 12 ?
Se8 Se10 Se8 99(9) 11 12 ?
Se8 Se10 Se8 99(8) 12 2 ?
Se3 Se11 Se3 165(4) . 9 ?
Se3 Se11 Se5 101.8(19) 9 . ?
Se3 Se11 Se5 102(5) . 2 ?
Se3 Se11 Se5 68(3) . . ?
Se3 Se11 Se5 113(4) . 7 ?
Se3 Se11 Se6 12(3) . . ?
Se3 Se11 Se7 55(4) . 2 ?
Se3 Se11 Se9 89(7) . . ?
Se3 Se11 Se9 159(7) . 9 ?
Se3 Se11 Se11 156(6) . 9 ?
Se3 Se11 Se12 103(4) . . ?
Se3 Se11 Se12 70.9(17) 9 . ?
Se4 Se11 Se3 147(8) 2 . ?
Se4 Se11 Se3 30(9) 2 9 ?
Se4 Se11 Se5 111(10) 2 2 ?
Se4 Se11 Se5 125(9) 2 . ?
Se4 Se11 Se5 73(10) 2 7 ?
Se4 Se11 Se6 156(9) 2 . ?
Se4 Se11 Se7 157(7) 2 2 ?
Se4 Se11 Se9 53(7) 2 9 ?
Se4 Se11 Se9 75(7) 2 . ?
Se4 Se11 Se11 28(9) 2 9 ?
Se4 Se11 Se12 100(10) 2 . ?
Se5 Se11 Se3 53(2) 7 9 ?
Se5 Se11 Se3 82(3) 2 9 ?
Se5 Se11 Se5 51.9(19) 7 . ?
Se5 Se11 Se5 73(2) 2 7 ?
Se5 Se11 Se5 59(2) 2 . ?
Se5 Se11 Se6 93(3) 2 . ?
Se5 Se11 Se12 37.6(10) 7 . ?
Se5 Se11 Se12 36.3(10) . . ?
Se5 Se11 Se12 37.3(14) 2 . ?
Se6 Se11 Se3 172.2(19) . 9 ?
Se6 Se11 Se5 70(2) . . ?
Se6 Se11 Se5 120(3) . 7 ?
Se6 Se11 Se12 102(2) . . ?
Se7 Se11 Se3 132(3) 2 9 ?
Se7 Se11 Se5 108(3) 2 7 ?
Se7 Se11 Se5 51(2) 2 2 ?
Se7 Se11 Se5 62(2) 2 . ?
Se7 Se11 Se6 44(3) 2 . ?
Se7 Se11 Se12 73(2) 2 . ?
Se9 Se11 Se3 76(6) . 9 ?
Se9 Se11 Se3 33(4) 9 9 ?
Se9 Se11 Se5 63(4) . . ?
Se9 Se11 Se5 73(4) 9 7 ?
Se9 Se11 Se5 42(4) . 7 ?
Se9 Se11 Se5 106(3) 9 . ?
Se9 Se11 Se5 111(4) . 2 ?
Se9 Se11 Se5 60(4) 9 2 ?
Se9 Se11 Se6 147(5) 9 . ?
Se9 Se11 Se6 100(7) . . ?
Se9 Se11 Se7 105(5) 9 2 ?
Se9 Se11 Se7 121(7) . 2 ?
Se9 Se11 Se9 106(7) . 9 ?
Se9 Se11 Se11 42(4) 9 9 ?
Se9 Se11 Se11 67(6) . 9 ?
Se9 Se11 Se12 73(3) . . ?
Se9 Se11 Se12 70(3) 9 . ?
Se11 Se11 Se3 9(3) 9 9 ?
Se11 Se11 Se5 100(2) 9 . ?
Se11 Se11 Se5 88(4) 9 2 ?
Se11 Se11 Se5 49(2) 9 7 ?
Se11 Se11 Se6 167(4) 9 . ?
Se11 Se11 Se7 139(4) 9 2 ?
Se11 Se11 Se12 72.2(18) 9 . ?
Se5 Se12 Se5 100(3) . 8 ?
Se5 Se12 Se5 168(3) . 9 ?
Se5 Se12 Se5 88.7(19) 9 7 ?
Se5 Se12 Se5 100(3) 9 3 ?
Se5 Se12 Se5 84(3) . 7 ?
Se5 Se12 Se5 88.7(19) 2 3 ?
Se5 Se12 Se5 88.7(19) 8 7 ?
Se5 Se12 Se5 100(3) 2 7 ?
Se5 Se12 Se5 168(3) 8 2 ?
Se5 Se12 Se5 84(3) 8 3 ?
Se5 Se12 Se5 88.7(19) 9 8 ?
Se5 Se12 Se5 168(3) 7 3 ?
Se5 Se12 Se5 88.7(19) . 2 ?
Se5 Se12 Se5 84(3) 9 2 ?
Se5 Se12 Se5 88.7(19) . 3 ?
Se5 Se12 Se9 66(3) 9 8 ?
Se5 Se12 Se9 66(3) 2 . ?
Se5 Se12 Se9 124(3) 9 3 ?
Se5 Se12 Se9 141(2) 3 . ?
Se5 Se12 Se9 40(2) 2 9 ?
Se5 Se12 Se9 106(2) 2 8 ?
Se5 Se12 Se9 63(2) 3 3 ?
Se5 Se12 Se9 141(2) 7 8 ?
Se5 Se12 Se9 63(2) 9 9 ?
Se5 Se12 Se9 40(2) 3 8 ?
Se5 Se12 Se9 124(3) 3 9 ?
Se5 Se12 Se9 141(2) . 2 ?
Se5 Se12 Se9 141(2) 2 3 ?
Se5 Se12 Se9 40(2) 9 2 ?
Se5 Se12 Se9 106(2) 9 . ?
Se5 Se12 Se9 106(2) 8 2 ?
Se5 Se12 Se9 124(3) . 8 ?
Se5 Se12 Se9 63(2) 2 2 ?
Se5 Se12 Se9 141(2) 8 9 ?
Se5 Se12 Se9 124(3) 7 2 ?
Se5 Se12 Se9 66(3) 7 9 ?
Se5 Se12 Se9 66(3) 3 2 ?
Se5 Se12 Se9 66(3) . 3 ?
Se5 Se12 Se9 40(2) . 7 ?
Se5 Se12 Se9 40(2) 8 3 ?
Se5 Se12 Se9 141(2) 9 7 ?
Se5 Se12 Se9 106(2) 7 3 ?
Se5 Se12 Se9 66(3) 8 7 ?
Se5 Se12 Se9 63(2) . . ?
Se5 Se12 Se9 124(3) 2 7 ?
Se5 Se12 Se9 124(3) 8 . ?
Se5 Se12 Se9 63(2) 7 7 ?
Se5 Se12 Se9 40(2) 7 . ?
Se5 Se12 Se9 106(2) 3 7 ?
Se5 Se12 Se9 106(2) . 9 ?
Se5 Se12 Se9 63(2) 8 8 ?
Se9 Se12 Se9 70(4) 8 3 ?
Se9 Se12 Se9 51(4) 8 2 ?
Se9 Se12 Se9 70(4) 7 . ?
Se9 Se12 Se9 119.8(3) 2 3 ?
Se9 Se12 Se9 171(4) 8 . ?
Se9 Se12 Se9 51(4) 7 3 ?
Se9 Se12 Se9 70(4) 2 9 ?
Se9 Se12 Se9 171(4) 9 3 ?
Se9 Se12 Se9 119.8(3) 8 9 ?
Se9 Se12 Se9 119.8(3) 7 9 ?
Se9 Se12 Se9 119.8(3) 2 . ?
Se9 Se12 Se9 119.8(3) 8 7 ?
Se9 Se12 Se9 51(4) 9 . ?
Se9 Se12 Se9 171(4) 2 7 ?
Se9 Se12 Se9 119.8(3) 3 . ?
loop_
_geom_bond_atom_site_label_1
_geom_bond_atom_site_label_2
_geom_bond_distance
_geom_bond_site_symmetry_2
_geom_bond_publ_flag
Sn1 Se1 2.5563(5) 7 ?
Sn1 Se1 2.5563(5) 3 ?
Sn1 Se2 2.5080(5) 4_654 ?
Sn1 Se2 2.5080(5) 11_655 ?
Se1 Sn2 3.0300(4) . ?
Se1 B1 2.004(4) 7 ?
Se2 B2 1.996(4) . ?
B1 B1 1.782(6) 3_665 ?
B1 B1 1.782(6) 2_655 ?
B1 B2 1.788(5) . ?
B1 B2 1.800(6) 12 ?
B1 B2 1.788(6) 11_655 ?
B2 B2 1.777(9) 12 ?
B2 B2 1.792(9) 11_655 ?
Se3 Se4 1.37(4) 2 ?
Se3 Se5 1.81(3) . ?
Se3 Se5 1.65(4) 2 ?
Se3 Se6 0.88(3) . ?
Se3 Se6 1.79(6) 11 ?
Se3 Se7 1.00(5) 2 ?
Se3 Se8 1.72(5) . ?
Se3 Se9 1.90(6) 9 ?
Se3 Se9 1.12(7) . ?
Se3 Se10 1.47(5) . ?
Se3 Se11 0.75(5) . ?
Se3 Se11 1.92(9) 9 ?
Se4 Se5 1.69(10) 8 ?
Se4 Se5 1.69(10) . ?
Se4 Se6 2.24(3) 7 ?
Se4 Se7 1.87(6) 8 ?
Se4 Se7 1.87(6) . ?
Se4 Se9 0.94(7) 7 ?
Se4 Se9 0.94(7) 3 ?
Se4 Se11 0.68(5) 3 ?
Se4 Se11 0.68(5) 7 ?
Se4 Se12 2.20(11) . ?
Se5 Se5 1.63(6) 7 ?
Se5 Se5 1.71(5) 2 ?
Se5 Se5 1.71(5) 3 ?
Se5 Se7 1.10(4) . ?
Se5 Se7 1.74(5) 2 ?
Se5 Se8 1.30(6) . ?
Se5 Se9 1.74(5) . ?
Se5 Se9 1.26(5) 7 ?
Se5 Se11 1.33(4) 3 ?
Se5 Se12 1.22(3) . ?
Se6 Se6 0.91(5) 11 ?
Se6 Se7 1.77(5) 12 ?
Se6 Se7 1.12(5) 2 ?
Se6 Se8 1.48(7) 11 ?
Se6 Se8 1.96(5) 2 ?
Se6 Se8 1.35(6) . ?
Se6 Se9 1.94(7) . ?
Se6 Se10 0.77(7) . ?
Se6 Se11 1.60(6) . ?
Se7 Se8 1.48(5) 3 ?
Se7 Se8 1.02(5) . ?
Se7 Se8 1.35(7) 12 ?
Se7 Se9 1.82(8) 3 ?
Se7 Se10 1.13(4) 3 ?
Se7 Se11 1.22(6) 3 ?
Se8 Se8 1.22(8) 12 ?
Se8 Se8 1.77(12) 11 ?
Se8 Se10 1.63(8) 3 ?
Se8 Se10 0.97(7) . ?
Se9 Se9 1.64(12) 9 ?
Se9 Se11 1.18(7) 9 ?
Se9 Se11 0.85(6) . ?
Se9 Se12 1.92(4) . ?
Se11 Se11 1.21(12) 9 ?
Se11 Se12 1.98(2) . ?
loop_
_geom_torsion_atom_site_label_1
_geom_torsion_atom_site_label_2
_geom_torsion_atom_site_label_3
_geom_torsion_atom_site_label_4
_geom_torsion
_geom_torsion_site_symmetry_1
_geom_torsion_site_symmetry_2
_geom_torsion_site_symmetry_3
_geom_torsion_site_symmetry_4
_geom_torsion_publ_flag
Se1 B1 B2 Se2 0.4(4) 7 . . . ?
Se1 B1 B2 B1 -146.8(3) 7 . . 12 ?
Se1 B1 B2 B1 150.2(3) 7 . . 11_655 ?
Se1 B1 B2 B2 -108.9(3) 7 . . 12 ?
Se1 B1 B2 B2 113.1(3) 7 . . 11_655 ?
B1 B1 B2 Se2 -150.6(3) 2_655 . . . ?
B1 B1 B2 Se2 146.0(3) 3_665 . . . ?
B1 B1 B2 B1 -0.8(4) 2_655 . . 11_655 ?
B1 B1 B2 B1 -1.2(4) 3_665 . . 12 ?
B1 B1 B2 B1 -64.2(4) 3_665 . . 11_655 ?
B1 B1 B2 B1 62.3(4) 2_655 . . 12 ?
B1 B1 B2 B2 36.7(3) 3_665 . . 12 ?
B1 B1 B2 B2 -37.9(3) 2_655 . . 11_655 ?
B1 B1 B2 B2 -101.4(3) 3_665 . . 11_655 ?
B1 B1 B2 B2 100.2(3) 2_655 . . 12 ?
B2 B1 B2 Se2 -112.7(2) 11_655 . . . ?
B2 B1 B2 Se2 109.3(2) 12 . . . ?
B2 B1 B2 B1 -37.9(3) 12 . . 12 ?
B2 B1 B2 B1 37.1(3) 11_655 . . 11_655 ?
B2 B1 B2 B1 -100.9(3) 12 . . 11_655 ?
B2 B1 B2 B1 100.1(3) 11_655 . . 12 ?
B2 B1 B2 B2 -138.0(2) 12 . . 11_655 ?
B2 B1 B2 B2 138.0(2) 11_655 . . 12 ?
Se3 Se4 Se5 Se3 163(4) 7 . . 3 ?
Se3 Se4 Se5 Se5 -56(2) 3 . . 3 ?
Se3 Se4 Se5 Se5 -149.3(18) 3 . . 7 ?
Se3 Se4 Se5 Se5 107(2) 7 . . 3 ?
Se3 Se4 Se5 Se5 71(4) 7 . . 2 ?
Se3 Se4 Se5 Se5 -92(4) 3 . . 2 ?
Se3 Se4 Se5 Se5 14(2) 7 . . 7 ?
Se3 Se4 Se5 Se7 -180(4) 7 . . . ?
Se3 Se4 Se5 Se7 17(3) 3 . . . ?
Se3 Se4 Se5 Se8 47(3) 3 . . . ?
Se3 Se4 Se5 Se8 -149(4) 7 . . . ?
Se3 Se4 Se5 Se9 159(7) 3 . . 7 ?
Se3 Se4 Se5 Se9 -38(5) 7 . . 7 ?
Se3 Se4 Se5 Se9 178(3) 3 . . . ?
Se3 Se4 Se5 Se9 -19(4) 7 . . . ?
Se3 Se4 Se5 Se11 166(8) 7 . . 3 ?
Se3 Se4 Se5 Se11 3(5) 3 . . 3 ?
Se3 Se4 Se5 Se12 62(3) 7 . . . ?
Se3 Se4 Se5 Se12 -101(3) 3 . . . ?
Se3 Se4 Se7 Se3 150(6) 7 . . 3 ?
Se3 Se4 Se7 Se5 71(5) 7 . . 3 ?
Se3 Se4 Se7 Se5 -79(3) 3 . . 3 ?
Se3 Se4 Se7 Se5 0(5) 7 . . . ?
Se3 Se4 Se7 Se5 -150(5) 3 . . . ?
Se3 Se4 Se7 Se6 160(4) 7 . . 3 ?
Se3 Se4 Se7 Se6 14(4) 3 . . 12 ?
Se3 Se4 Se7 Se6 164(3) 7 . . 12 ?
Se3 Se4 Se7 Se6 10(3) 3 . . 3 ?
Se3 Se4 Se7 Se8 -44(8) 7 . . . ?
Se3 Se4 Se7 Se8 -48(6) 3 . . 3 ?
Se3 Se4 Se7 Se8 166(7) 3 . . . ?
Se3 Se4 Se7 Se8 102(5) 7 . . 3 ?
Se3 Se4 Se7 Se8 -138(11) 7 . . 12 ?
Se3 Se4 Se7 Se8 72(10) 3 . . 12 ?
Se3 Se4 Se7 Se9 -49(4) 3 . . 3 ?
Se3 Se4 Se7 Se9 101(9) 7 . . 3 ?
Se3 Se4 Se7 Se10 150(4) 7 . . 3 ?
Se3 Se4 Se7 Se10 0(6) 3 . . 3 ?
Se3 Se4 Se7 Se11 -12(22) 3 . . 3 ?
Se3 Se4 Se7 Se11 138(28) 7 . . 3 ?
Se3 Se5 Se7 Se4 22(3) 3 . . . ?
Se3 Se5 Se7 Se5 -71(3) 3 . . 3 ?
Se3 Se5 Se7 Se6 -84(19) 3 . . 12 ?
Se3 Se5 Se7 Se6 -22(7) 3 . . 3 ?
Se3 Se5 Se7 Se8 167(6) 3 . . . ?
Se3 Se5 Se7 Se8 174(9) 3 . . 12 ?
Se3 Se5 Se7 Se8 -91(5) 3 . . 3 ?
Se3 Se5 Se7 Se9 -9(3) 3 . . 3 ?
Se3 Se5 Se7 Se10 -111(14) 3 . . 3 ?
Se3 Se5 Se7 Se11 16(3) 3 . . 3 ?
Se3 Se5 Se8 Se3 -174.4(18) 3 . . . ?
Se3 Se5 Se8 Se6 177(6) 3 . . 11 ?
Se3 Se5 Se8 Se6 -10.1(14) 3 . . 3 ?
Se3 Se5 Se8 Se6 -177(3) 3 . . . ?
Se3 Se5 Se8 Se7 -8(3) 3 . . . ?
Se3 Se5 Se8 Se7 -138(3) 3 . . 2 ?
Se3 Se5 Se8 Se8 -14(3) 3 . . 12 ?
Se3 Se5 Se8 Se8 -122(2) 3 . . 11 ?
Se3 Se5 Se8 Se10 -27(4) 3 . . 3 ?
Se3 Se5 Se8 Se10 -150(10) 3 . . . ?
Se3 Se5 Se12 Se5 173.4(19) 3 . . 9 ?
Se3 Se5 Se12 Se5 -136(3) 3 . . 7 ?
Se3 Se5 Se12 Se5 35(3) 3 . . 3 ?
Se3 Se5 Se12 Se5 -48.7(17) 3 . . 8 ?
Se3 Se5 Se12 Se5 123.6(14) 3 . . 2 ?
Se3 Se5 Se12 Se9 -82(4) 3 . . 7 ?
Se3 Se5 Se12 Se9 83(4) 3 . . 2 ?
Se3 Se5 Se12 Se9 15(3) 3 . . 8 ?
Se3 Se5 Se12 Se9 -26(2) 3 . . 3 ?
Se3 Se5 Se12 Se9 -172(3) 3 . . . ?
Se3 Se5 Se12 Se9 160(3) 3 . . 9 ?
Se3 Se6 Se8 Se3 180(3) 11 . . . ?
Se3 Se6 Se8 Se5 6(4) . . . . ?
Se3 Se6 Se8 Se5 -174(3) 11 . . . ?
Se3 Se6 Se8 Se6 179(3) . . . 11 ?
Se3 Se6 Se8 Se6 -89(19) . . . 3 ?
Se3 Se6 Se8 Se6 91(18) 11 . . 3 ?
Se3 Se6 Se8 Se6 -1.0(16) 11 . . 11 ?
Se3 Se6 Se8 Se7 127(3) 11 . . 2 ?
Se3 Se6 Se8 Se7 -168(3) . . . 12 ?
Se3 Se6 Se8 Se7 165(13) 11 . . . ?
Se3 Se6 Se8 Se7 12(2) 11 . . 12 ?
Se3 Se6 Se8 Se7 -15(14) . . . . ?
Se3 Se6 Se8 Se7 -53(3) . . . 2 ?
Se3 Se6 Se8 Se8 -116(3) . . . 11 ?
Se3 Se6 Se8 Se8 -157(3) . . . 12 ?
Se3 Se6 Se8 Se8 64(2) 11 . . 11 ?
Se3 Se6 Se8 Se8 23(3) 11 . . 12 ?
Se3 Se6 Se8 Se10 -132(7) . . . . ?
Se3 Se6 Se8 Se10 48(7) 11 . . . ?
Se3 Se6 Se8 Se10 69(6) 11 . . 3 ?
Se3 Se6 Se8 Se10 -111(6) . . . 3 ?
Se3 Se6 Se10 Se3 -179(2) 11 . . . ?
Se3 Se6 Se10 Se3 179(2) . . . 11 ?
Se3 Se6 Se10 Se6 -1(2) 11 . . 11 ?
Se3 Se6 Se10 Se6 178(5) . . . 11 ?
Se3 Se6 Se10 Se7 51(5) . . . . ?
Se3 Se6 Se10 Se7 -78(8) . . . 11 ?
Se3 Se6 Se10 Se7 151(6) . . . 12 ?
Se3 Se6 Se10 Se7 -28(6) 11 . . 12 ?
Se3 Se6 Se10 Se7 -128(4) 11 . . . ?
Se3 Se6 Se10 Se7 -22(3) . . . 2 ?
Se3 Se6 Se10 Se7 103(7) 11 . . 11 ?
Se3 Se6 Se10 Se7 159(2) 11 . . 2 ?
Se3 Se6 Se10 Se8 -89(13) 11 . . 12 ?
Se3 Se6 Se10 Se8 93(8) 11 . . 11 ?
Se3 Se6 Se10 Se8 -115(6) 11 . . . ?
Se3 Se6 Se10 Se8 -38(4) . . . 2 ?
Se3 Se6 Se10 Se8 63(7) . . . . ?
Se3 Se6 Se10 Se8 143(3) 11 . . 2 ?
Se3 Se6 Se10 Se8 -88(8) . . . 11 ?
Se3 Se6 Se10 Se8 90(13) . . . 12 ?
Se3 Se6 Se11 Se3 -171(14) 11 . . . ?
Se3 Se6 Se11 Se4 -55(15) . . . 2 ?
Se3 Se6 Se11 Se4 134(14) 11 . . 2 ?
Se3 Se6 Se11 Se5 -38(9) 11 . . 2 ?
Se3 Se6 Se11 Se5 61(10) . . . 7 ?
Se3 Se6 Se11 Se5 -111(9) 11 . . 7 ?
Se3 Se6 Se11 Se5 77(10) . . . . ?
Se3 Se6 Se11 Se5 -94(9) 11 . . . ?
Se3 Se6 Se11 Se5 133(11) . . . 2 ?
Se3 Se6 Se11 Se7 -25(9) 11 . . 2 ?
Se3 Se6 Se11 Se7 146(11) . . . 2 ?
Se3 Se6 Se11 Se9 21(9) . . . . ?
Se3 Se6 Se11 Se9 -5(13) 11 . . 9 ?
Se3 Se6 Se11 Se9 -150(9) 11 . . . ?
Se3 Se6 Se11 Se9 166(13) . . . 9 ?
Se3 Se6 Se11 Se11 37(15) . . . 9 ?
Se3 Se6 Se11 Se11 -134(13) 11 . . 9 ?
Se3 Se6 Se11 Se12 96(10) . . . . ?
Se3 Se6 Se11 Se12 -75(9) 11 . . . ?
Se3 Se7 Se8 Se3 106(26) 3 . . . ?
Se3 Se7 Se8 Se5 90(27) 3 . . . ?
Se3 Se7 Se8 Se6 -101(31) 3 . . 11 ?
Se3 Se7 Se8 Se6 115(27) 3 . . . ?
Se3 Se7 Se8 Se6 -95(27) 3 . . 3 ?
Se3 Se7 Se8 Se7 144(25) 3 . . 2 ?
Se3 Se7 Se8 Se7 -96(27) 3 . . 12 ?
Se3 Se7 Se8 Se8 -95(27) 3 . . 12 ?
Se3 Se7 Se8 Se8 -162(23) 3 . . 11 ?
Se3 Se7 Se8 Se10 -119(27) 3 . . 3 ?
Se3 Se7 Se8 Se10 -168(20) 3 . . . ?
Se3 Se8 Se10 Se3 -133(11) . . . 11 ?
Se3 Se8 Se10 Se6 -26(3) . . . . ?
Se3 Se8 Se10 Se6 -101(11) . . . 11 ?
Se3 Se8 Se10 Se7 -162(8) . . . 12 ?
Se3 Se8 Se10 Se7 43(3) . . . 2 ?
Se3 Se8 Se10 Se7 107(11) . . . . ?
Se3 Se8 Se10 Se7 122(5) . . . 11 ?
Se3 Se8 Se10 Se8 80(2) . . . 2 ?
Se3 Se8 Se10 Se8 174(4) . . . 12 ?
Se3 Se8 Se10 Se8 118(4) . . . 11 ?
Se3 Se9 Se11 Se3 -177(3) . . . 9 ?
Se3 Se9 Se11 Se3 177(3) 9 . . . ?
Se3 Se9 Se11 Se4 -31(9) 9 . . 2 ?
Se3 Se9 Se11 Se4 151(9) . . . 2 ?
Se3 Se9 Se11 Se5 111(2) 9 . . . ?
Se3 Se9 Se11 Se5 -66(3) . . . . ?
Se3 Se9 Se11 Se5 -128(5) . . . 7 ?
Se3 Se9 Se11 Se5 49(4) 9 . . 7 ?
Se3 Se9 Se11 Se5 75(5) 9 . . 2 ?
Se3 Se9 Se11 Se5 -102(6) . . . 2 ?
Se3 Se9 Se11 Se6 173.0(19) 9 . . . ?
Se3 Se9 Se11 Se6 -4(2) . . . . ?
Se3 Se9 Se11 Se7 -46(6) . . . 2 ?
Se3 Se9 Se11 Se7 131(6) 9 . . 2 ?
Se3 Se9 Se11 Se9 -166(6) . . . 9 ?
Se3 Se9 Se11 Se9 12(4) 9 . . 9 ?
Se3 Se9 Se11 Se11 179(3) . . . 9 ?
Se3 Se9 Se11 Se11 -3.2(15) 9 . . 9 ?
Se3 Se9 Se11 Se12 73.9(12) 9 . . . ?
Se3 Se9 Se11 Se12 -104(3) . . . . ?
Se4 Se3 Se6 Se5 141(20) 2 . . . ?
Se4 Se3 Se6 Se7 120(18) 2 . . 12 ?
Se4 Se3 Se6 Se7 74(19) 2 . . 2 ?
Se4 Se3 Se6 Se8 137(19) 2 . . . ?
Se4 Se3 Se6 Se8 57(20) 2 . . 11 ?
Se4 Se3 Se6 Se8 67(20) 2 . . 2 ?
Se4 Se3 Se6 Se9 -170(24) 2 . . . ?
Se4 Se3 Se6 Se10 98(19) 2 . . . ?
Se4 Se3 Se6 Se11 44(19) 2 . . . ?
Se4 Se3 Se8 Se5 20(4) 2 . . . ?
Se4 Se3 Se8 Se6 -9(8) 2 . . 3 ?
Se4 Se3 Se8 Se6 -166(2) 2 . . 11 ?
Se4 Se3 Se8 Se6 -166(4) 2 . . . ?
Se4 Se3 Se8 Se7 -73(4) 2 . . 2 ?
Se4 Se3 Se8 Se7 -152(3) 2 . . 12 ?
Se4 Se3 Se8 Se7 7(7) 2 . . . ?
Se4 Se3 Se8 Se8 -115(3) 2 . . 11 ?
Se4 Se3 Se8 Se8 -123(11) 2 . . 12 ?
Se4 Se3 Se8 Se10 -50(9) 2 . . 3 ?
Se4 Se3 Se8 Se10 -136(7) 2 . . . ?
Se4 Se3 Se9 Se3 -23(6) 2 . . 9 ?
Se4 Se3 Se9 Se5 -129(7) 2 . . . ?
Se4 Se3 Se9 Se5 -96(10) 2 . . 7 ?
Se4 Se3 Se9 Se5 -68(6) 2 . . 2 ?
Se4 Se3 Se9 Se7 -49(8) 2 . . 7 ?
Se4 Se3 Se9 Se7 -79(7) 2 . . 2 ?
Se4 Se3 Se9 Se9 -30(6) 2 . . 9 ?
Se4 Se3 Se9 Se11 -20(6) 2 . . . ?
Se4 Se3 Se9 Se11 -19(6) 2 . . 9 ?
Se4 Se3 Se9 Se12 -94(7) 2 . . . ?
Se4 Se3 Se10 Se3 -150(9) 2 . . 11 ?
Se4 Se3 Se10 Se6 -151(9) 2 . . 11 ?
Se4 Se3 Se10 Se6 -148(10) 2 . . . ?
Se4 Se3 Se10 Se7 78(8) 2 . . . ?
Se4 Se3 Se10 Se7 1(10) 2 . . 2 ?
Se4 Se3 Se10 Se7 -28(12) 2 . . 11 ?
Se4 Se3 Se10 Se7 148(20) 2 . . 12 ?
Se4 Se3 Se10 Se8 -43(16) 2 . . 11 ?
Se4 Se3 Se10 Se8 -6(10) 2 . . 2 ?
Se4 Se3 Se10 Se8 93(8) 2 . . . ?
Se4 Se3 Se10 Se8 86(9) 2 . . 12 ?
Se4 Se3 Se11 Se3 69(22) 2 . . 9 ?
Se4 Se3 Se11 Se5 94(17) 2 . . 7 ?
Se4 Se3 Se11 Se5 170(17) 2 . . 2 ?
Se4 Se3 Se11 Se5 120(16) 2 . . . ?
Se4 Se3 Se11 Se6 -142(15) 2 . . . ?
Se4 Se3 Se11 Se7 -170(16) 2 . . 2 ?
Se4 Se3 Se11 Se9 59(16) 2 . . . ?
Se4 Se3 Se11 Se9 -163(26) 2 . . 9 ?
Se4 Se3 Se11 Se11 58(17) 2 . . 9 ?
Se4 Se3 Se11 Se12 132(17) 2 . . . ?
Se4 Se5 Se7 Se3 -22(3) . . . 3 ?
Se4 Se5 Se7 Se5 -93(3) . . . 3 ?
Se4 Se5 Se7 Se6 -106(19) . . . 12 ?
Se4 Se5 Se7 Se6 -43(9) . . . 3 ?
Se4 Se5 Se7 Se8 152(6) . . . 12 ?
Se4 Se5 Se7 Se8 -113(5) . . . 3 ?
Se4 Se5 Se7 Se8 145(4) . . . . ?
Se4 Se5 Se7 Se9 -31(2) . . . 3 ?
Se4 Se5 Se7 Se10 -133(13) . . . 3 ?
Se4 Se5 Se7 Se11 -6(3) . . . 3 ?
Se4 Se5 Se8 Se3 152(3) . . . . ?
Se4 Se5 Se8 Se6 143(5) . . . 11 ?
Se4 Se5 Se8 Se6 149(3) . . . . ?
Se4 Se5 Se8 Se6 -44(3) . . . 3 ?
Se4 Se5 Se8 Se7 -172(4) . . . 2 ?
Se4 Se5 Se8 Se7 -41(4) . . . . ?
Se4 Se5 Se8 Se8 -155(2) . . . 11 ?
Se4 Se5 Se8 Se8 -48(4) . . . 12 ?
Se4 Se5 Se8 Se10 -61(5) . . . 3 ?
Se4 Se5 Se8 Se10 177(9) . . . . ?
Se4 Se5 Se9 Se3 87(5) . . . 9 ?
Se4 Se5 Se9 Se3 -156(4) . . . . ?
Se4 Se5 Se9 Se4 134(7) . . . 2 ?
Se4 Se5 Se9 Se5 136(3) . . . 2 ?
Se4 Se5 Se9 Se5 51(5) . . . 7 ?
Se4 Se5 Se9 Se7 60(4) . . . 7 ?
Se4 Se5 Se9 Se7 178(4) . . . 2 ?
Se4 Se5 Se9 Se9 121(5) . . . 9 ?
Se4 Se5 Se9 Se11 165(5) . . . . ?
Se4 Se5 Se9 Se11 95(7) . . . 9 ?
Se4 Se5 Se9 Se12 90(3) . . . . ?
Se4 Se5 Se12 Se5 -87.6(19) . . . 7 ?
Se4 Se5 Se12 Se5 0.000(1) . . . 8 ?
Se4 Se5 Se12 Se5 172(2) . . . 2 ?
Se4 Se5 Se12 Se5 -137.9(13) . . . 9 ?
Se4 Se5 Se12 Se5 84(3) . . . 3 ?
Se4 Se5 Se12 Se9 132(3) . . . 2 ?
Se4 Se5 Se12 Se9 -124(3) . . . . ?
Se4 Se5 Se12 Se9 -151(2) . . . 9 ?
Se4 Se5 Se12 Se9 22.9(19) . . . 3 ?
Se4 Se5 Se12 Se9 64(3) . . . 8 ?
Se4 Se5 Se12 Se9 -34(3) . . . 7 ?
Se4 Se7 Se8 Se3 55(8) . . . . ?
Se4 Se7 Se8 Se5 40(5) . . . . ?
Se4 Se7 Se8 Se6 65(15) . . . . ?
Se4 Se7 Se8 Se6 -146(9) . . . 3 ?
Se4 Se7 Se8 Se6 -152(19) . . . 11 ?
Se4 Se7 Se8 Se7 93(6) . . . 2 ?
Se4 Se7 Se8 Se7 -147(5) . . . 12 ?
Se4 Se7 Se8 Se8 147(5) . . . 11 ?
Se4 Se7 Se8 Se8 -146(6) . . . 12 ?
Se4 Se7 Se8 Se10 142(8) . . . . ?
Se4 Se7 Se8 Se10 -170(7) . . . 3 ?
Se4 Se9 Se11 Se3 -151(9) 2 . . . ?
Se4 Se9 Se11 Se3 31(9) 2 . . 9 ?
Se4 Se9 Se11 Se5 107(13) 2 . . 2 ?
Se4 Se9 Se11 Se5 81(10) 2 . . 7 ?
Se4 Se9 Se11 Se5 143(9) 2 . . . ?
Se4 Se9 Se11 Se6 -156(9) 2 . . . ?
Se4 Se9 Se11 Se7 162(13) 2 . . 2 ?
Se4 Se9 Se11 Se9 43(10) 2 . . 9 ?
Se4 Se9 Se11 Se11 28(9) 2 . . 9 ?
Se4 Se9 Se11 Se12 105(10) 2 . . . ?
Se5 Se3 Se6 Se5 58(2) 2 . . . ?
Se5 Se3 Se6 Se7 -21(5) . . . 12 ?
Se5 Se3 Se6 Se7 37(5) 2 . . 12 ?
Se5 Se3 Se6 Se7 -10(3) 2 . . 2 ?
Se5 Se3 Se6 Se7 -67(2) . . . 2 ?
Se5 Se3 Se6 Se8 -16(2) 2 . . 2 ?
Se5 Se3 Se6 Se8 -84(3) . . . 11 ?
Se5 Se3 Se6 Se8 -4(3) . . . . ?
Se5 Se3 Se6 Se8 -73.9(17) . . . 2 ?
Se5 Se3 Se6 Se8 54(3) 2 . . . ?
Se5 Se3 Se6 Se8 -26(3) 2 . . 11 ?
Se5 Se3 Se6 Se9 107(7) 2 . . . ?
Se5 Se3 Se6 Se9 49(7) . . . . ?
Se5 Se3 Se6 Se10 -43(3) . . . . ?
Se5 Se3 Se6 Se10 15(4) 2 . . . ?
Se5 Se3 Se6 Se11 -97(10) . . . . ?
Se5 Se3 Se6 Se11 -39(9) 2 . . . ?
Se5 Se3 Se8 Se5 56(3) 2 . . . ?
Se5 Se3 Se8 Se6 -130(3) 2 . . . ?
Se5 Se3 Se8 Se6 26(6) 2 . . 3 ?
Se5 Se3 Se8 Se6 174(3) . . . 11 ?
Se5 Se3 Se8 Se6 -131(2) 2 . . 11 ?
Se5 Se3 Se8 Se6 174(4) . . . . ?
Se5 Se3 Se8 Se6 -29(5) . . . 3 ?
Se5 Se3 Se8 Se7 42(5) 2 . . . ?
Se5 Se3 Se8 Se7 -93(4) . . . 2 ?
Se5 Se3 Se8 Se7 -37(3) 2 . . 2 ?
Se5 Se3 Se8 Se7 -13(5) . . . . ?
Se5 Se3 Se8 Se7 -173(5) . . . 12 ?
Se5 Se3 Se8 Se7 -117(4) 2 . . 12 ?
Se5 Se3 Se8 Se8 -143(11) . . . 12 ?
Se5 Se3 Se8 Se8 -87(11) 2 . . 12 ?
Se5 Se3 Se8 Se8 -135(3) . . . 11 ?
Se5 Se3 Se8 Se8 -79.1(18) 2 . . 11 ?
Se5 Se3 Se8 Se10 -14(8) 2 . . 3 ?
Se5 Se3 Se8 Se10 -101(8) 2 . . . ?
Se5 Se3 Se8 Se10 -70(7) . . . 3 ?
Se5 Se3 Se8 Se10 -157(9) . . . . ?
Se5 Se3 Se9 Se3 106(3) . . . 9 ?
Se5 Se3 Se9 Se3 46(3) 2 . . 9 ?
Se5 Se3 Se9 Se4 68(6) 2 . . 2 ?
Se5 Se3 Se9 Se4 129(7) . . . 2 ?
Se5 Se3 Se9 Se5 61(2) . . . 2 ?
Se5 Se3 Se9 Se5 -61(2) 2 . . . ?
Se5 Se3 Se9 Se5 -28(7) 2 . . 7 ?
Se5 Se3 Se9 Se5 33(6) . . . 7 ?
Se5 Se3 Se9 Se7 -10(4) 2 . . 2 ?
Se5 Se3 Se9 Se7 80(6) . . . 7 ?
Se5 Se3 Se9 Se7 19(6) 2 . . 7 ?
Se5 Se3 Se9 Se7 50(4) . . . 2 ?
Se5 Se3 Se9 Se9 38.6(13) 2 . . 9 ?
Se5 Se3 Se9 Se9 99.3(16) . . . 9 ?
Se5 Se3 Se9 Se11 49(4) 2 . . . ?
Se5 Se3 Se9 Se11 109(4) . . . . ?
Se5 Se3 Se9 Se11 110(4) . . . 9 ?
Se5 Se3 Se9 Se11 49(4) 2 . . 9 ?
Se5 Se3 Se9 Se12 -25.6(18) 2 . . . ?
Se5 Se3 Se9 Se12 35.1(14) . . . . ?
Se5 Se3 Se10 Se3 133.5(13) . . . 11 ?
Se5 Se3 Se10 Se3 -167.8(11) 2 . . 11 ?
Se5 Se3 Se10 Se6 -168.6(17) 2 . . 11 ?
Se5 Se3 Se10 Se6 132.7(17) . . . 11 ?
Se5 Se3 Se10 Se6 -166(4) 2 . . . ?
Se5 Se3 Se10 Se6 135(4) . . . . ?
Se5 Se3 Se10 Se7 -76(3) . . . 2 ?
Se5 Se3 Se10 Se7 -45(5) 2 . . 11 ?
Se5 Se3 Se10 Se7 1(2) . . . . ?
Se5 Se3 Se10 Se7 -104(6) . . . 11 ?
Se5 Se3 Se10 Se7 60(3) 2 . . . ?
Se5 Se3 Se10 Se7 130(23) 2 . . 12 ?
Se5 Se3 Se10 Se7 71(22) . . . 12 ?
Se5 Se3 Se10 Se7 -17(3) 2 . . 2 ?
Se5 Se3 Se10 Se8 10(9) . . . 12 ?
Se5 Se3 Se10 Se8 75(7) 2 . . . ?
Se5 Se3 Se10 Se8 16(6) . . . . ?
Se5 Se3 Se10 Se8 -24(3) 2 . . 2 ?
Se5 Se3 Se10 Se8 68(9) 2 . . 12 ?
Se5 Se3 Se10 Se8 -83(3) . . . 2 ?
Se5 Se3 Se10 Se8 -61(9) 2 . . 11 ?
Se5 Se3 Se10 Se8 -120(10) . . . 11 ?
Se5 Se3 Se11 Se3 -102(14) 2 . . 9 ?
Se5 Se3 Se11 Se3 -52(14) . . . 9 ?
Se5 Se3 Se11 Se4 -120(16) . . . 2 ?
Se5 Se3 Se11 Se4 -170(17) 2 . . 2 ?
Se5 Se3 Se11 Se5 50(3) . . . 2 ?
Se5 Se3 Se11 Se5 -26(3) . . . 7 ?
Se5 Se3 Se11 Se5 -76(3) 2 . . 7 ?
Se5 Se3 Se11 Se5 -50(3) 2 . . . ?
Se5 Se3 Se11 Se6 48(11) 2 . . . ?
Se5 Se3 Se11 Se6 98(10) . . . . ?
Se5 Se3 Se11 Se7 20(3) 2 . . 2 ?
Se5 Se3 Se11 Se7 70(2) . . . 2 ?
Se5 Se3 Se11 Se9 77(13) . . . 9 ?
Se5 Se3 Se11 Se9 -61(3) . . . . ?
Se5 Se3 Se11 Se9 27(12) 2 . . 9 ?
Se5 Se3 Se11 Se9 -111(4) 2 . . . ?
Se5 Se3 Se11 Se11 -112(7) 2 . . 9 ?
Se5 Se3 Se11 Se11 -63(7) . . . 9 ?
Se5 Se3 Se11 Se12 -38.2(16) 2 . . . ?
Se5 Se3 Se11 Se12 12(2) . . . . ?
Se5 Se4 Se5 Se3 101(3) 8 . . 3 ?
Se5 Se4 Se5 Se5 45.3(12) 8 . . 3 ?
Se5 Se4 Se5 Se5 -48.1(15) 8 . . 7 ?
Se5 Se4 Se5 Se5 9(2) 8 . . 2 ?
Se5 Se4 Se5 Se7 118(4) 8 . . . ?
Se5 Se4 Se5 Se8 149(4) 8 . . . ?
Se5 Se4 Se5 Se9 -100(6) 8 . . 7 ?
Se5 Se4 Se5 Se9 -81(3) 8 . . . ?
Se5 Se4 Se5 Se11 104(7) 8 . . 3 ?
Se5 Se4 Se5 Se12 0.000(2) 8 . . . ?
Se5 Se4 Se7 Se3 95(3) 8 . . 3 ?
Se5 Se4 Se7 Se3 150(5) . . . 3 ?
Se5 Se4 Se7 Se5 -55(4) 8 . . . ?
Se5 Se4 Se7 Se5 71(3) . . . 3 ?
Se5 Se4 Se7 Se5 16.3(15) 8 . . 3 ?
Se5 Se4 Se7 Se6 106(2) 8 . . 3 ?
Se5 Se4 Se7 Se6 164(5) . . . 12 ?
Se5 Se4 Se7 Se6 160(5) . . . 3 ?
Se5 Se4 Se7 Se6 109(3) 8 . . 12 ?
Se5 Se4 Se7 Se8 167(11) 8 . . 12 ?
Se5 Se4 Se7 Se8 -44(5) . . . . ?
Se5 Se4 Se7 Se8 -138(12) . . . 12 ?
Se5 Se4 Se7 Se8 -98(6) 8 . . . ?
Se5 Se4 Se7 Se8 47(5) 8 . . 3 ?
Se5 Se4 Se7 Se8 102(5) . . . 3 ?
Se5 Se4 Se7 Se9 46(5) 8 . . 3 ?
Se5 Se4 Se7 Se9 101(7) . . . 3 ?
Se5 Se4 Se7 Se10 150(7) . . . 3 ?
Se5 Se4 Se7 Se10 96(6) 8 . . 3 ?
Se5 Se4 Se7 Se11 138(26) . . . 3 ?
Se5 Se4 Se7 Se11 83(24) 8 . . 3 ?
Se5 Se5 Se7 Se3 44(17) 7 . . 3 ?
Se5 Se5 Se7 Se3 71(3) 3 . . 3 ?
Se5 Se5 Se7 Se3 120(3) 2 . . 3 ?
Se5 Se5 Se7 Se4 93(3) 3 . . . ?
Se5 Se5 Se7 Se4 66(15) 7 . . . ?
Se5 Se5 Se7 Se4 142(3) 2 . . . ?
Se5 Se5 Se7 Se5 -27(15) 7 . . 3 ?
Se5 Se5 Se7 Se5 48.9(19) 2 . . 3 ?
Se5 Se5 Se7 Se6 -13(18) 3 . . 12 ?
Se5 Se5 Se7 Se6 23(22) 7 . . 3 ?
Se5 Se5 Se7 Se6 98(9) 2 . . 3 ?
Se5 Se5 Se7 Se6 35(20) 2 . . 12 ?
Se5 Se5 Se7 Se6 -40(31) 7 . . 12 ?
Se5 Se5 Se7 Se6 49(8) 3 . . 3 ?
Se5 Se5 Se7 Se8 -142(14) 7 . . 12 ?
Se5 Se5 Se7 Se8 -149(15) 7 . . . ?
Se5 Se5 Se7 Se8 -73(4) 2 . . . ?
Se5 Se5 Se7 Se8 28(6) 2 . . 3 ?
Se5 Se5 Se7 Se8 -66(7) 2 . . 12 ?
Se5 Se5 Se7 Se8 -20(4) 3 . . 3 ?
Se5 Se5 Se7 Se8 -122(4) 3 . . . ?
Se5 Se5 Se7 Se8 -115(6) 3 . . 12 ?
Se5 Se5 Se7 Se8 -47(18) 7 . . 3 ?
Se5 Se5 Se7 Se9 35(16) 7 . . 3 ?
Se5 Se5 Se7 Se9 62(2) 3 . . 3 ?
Se5 Se5 Se7 Se9 111(3) 2 . . 3 ?
Se5 Se5 Se7 Se10 -40(13) 3 . . 3 ?
Se5 Se5 Se7 Se10 9(15) 2 . . 3 ?
Se5 Se5 Se7 Se10 -67(24) 7 . . 3 ?
Se5 Se5 Se7 Se11 136(3) 2 . . 3 ?
Se5 Se5 Se7 Se11 60(16) 7 . . 3 ?
Se5 Se5 Se7 Se11 87(3) 3 . . 3 ?
Se5 Se5 Se8 Se3 0(4) 7 . . . ?
Se5 Se5 Se8 Se3 -52(2) 2 . . . ?
Se5 Se5 Se8 Se3 -111(2) 3 . . . ?
Se5 Se5 Se8 Se6 -114(3) 3 . . . ?
Se5 Se5 Se8 Se6 165(3) 7 . . 3 ?
Se5 Se5 Se8 Se6 -3(6) 7 . . . ?
Se5 Se5 Se8 Se6 -9(9) 7 . . 11 ?
Se5 Se5 Se8 Se6 -55(3) 2 . . . ?
Se5 Se5 Se8 Se6 -61(6) 2 . . 11 ?
Se5 Se5 Se8 Se6 113(2) 2 . . 3 ?
Se5 Se5 Se8 Se6 -120(6) 3 . . 11 ?
Se5 Se5 Se8 Se6 53(3) 3 . . 3 ?
Se5 Se5 Se8 Se7 36(5) 7 . . 2 ?
Se5 Se5 Se8 Se7 56(4) 3 . . . ?
Se5 Se5 Se8 Se7 115(4) 2 . . . ?
Se5 Se5 Se8 Se7 167(4) 7 . . . ?
Se5 Se5 Se8 Se7 -15(3) 2 . . 2 ?
Se5 Se5 Se8 Se7 -75(4) 3 . . 2 ?
Se5 Se5 Se8 Se8 49(4) 3 . . 12 ?
Se5 Se5 Se8 Se8 1(3) 2 . . 11 ?
Se5 Se5 Se8 Se8 160(2) 7 . . 12 ?
Se5 Se5 Se8 Se8 -58(4) 3 . . 11 ?
Se5 Se5 Se8 Se8 108(3) 2 . . 12 ?
Se5 Se5 Se8 Se8 53(4) 7 . . 11 ?
Se5 Se5 Se8 Se10 25(13) 7 . . . ?
Se5 Se5 Se8 Se10 96(5) 2 . . 3 ?
Se5 Se5 Se8 Se10 147(3) 7 . . 3 ?
Se5 Se5 Se8 Se10 -27(10) 2 . . . ?
Se5 Se5 Se8 Se10 -86(10) 3 . . . ?
Se5 Se5 Se8 Se10 36(5) 3 . . 3 ?
Se5 Se5 Se9 Se3 36(3) 7 . . 9 ?
Se5 Se5 Se9 Se3 91(3) 3 . . . ?
Se5 Se5 Se9 Se3 68(3) 2 . . . ?
Se5 Se5 Se9 Se3 -25(5) 3 . . 9 ?
Se5 Se5 Se9 Se3 153(5) 7 . . . ?
Se5 Se5 Se9 Se3 -49(3) 2 . . 9 ?
Se5 Se5 Se9 Se4 -2(6) 2 . . 2 ?
Se5 Se5 Se9 Se4 83(7) 7 . . 2 ?
Se5 Se5 Se9 Se4 22(8) 3 . . 2 ?
Se5 Se5 Se9 Se5 -85(3) 2 . . 7 ?
Se5 Se5 Se9 Se5 24(2) 3 . . 2 ?
Se5 Se5 Se9 Se5 -61(3) 3 . . 7 ?
Se5 Se5 Se9 Se5 85(3) 7 . . 2 ?
Se5 Se5 Se9 Se7 127(4) 7 . . 2 ?
Se5 Se5 Se9 Se7 -76(2) 2 . . 7 ?
Se5 Se5 Se9 Se7 9(2) 7 . . 7 ?
Se5 Se5 Se9 Se7 41.6(19) 2 . . 2 ?
Se5 Se5 Se9 Se7 66(3) 3 . . 2 ?
Se5 Se5 Se9 Se7 -53(4) 3 . . 7 ?
Se5 Se5 Se9 Se9 70(4) 7 . . 9 ?
Se5 Se5 Se9 Se9 9(6) 3 . . 9 ?
Se5 Se5 Se9 Se9 -15(3) 2 . . 9 ?
Se5 Se5 Se9 Se11 29(5) 2 . . . ?
Se5 Se5 Se9 Se11 53(7) 3 . . . ?
Se5 Se5 Se9 Se11 -41(5) 2 . . 9 ?
Se5 Se5 Se9 Se11 114(7) 7 . . . ?
Se5 Se5 Se9 Se11 44(4) 7 . . 9 ?
Se5 Se5 Se9 Se11 -17(7) 3 . . 9 ?
Se5 Se5 Se9 Se12 -45.9(18) 2 . . . ?
Se5 Se5 Se9 Se12 39(2) 7 . . . ?
Se5 Se5 Se9 Se12 -22.0(17) 3 . . . ?
Se5 Se5 Se12 Se5 -50.2(16) 7 . . 9 ?
Se5 Se5 Se12 Se5 -171(3) 3 . . 7 ?
Se5 Se5 Se12 Se5 -100(3) 7 . . 2 ?
Se5 Se5 Se12 Se5 49.9(16) 2 . . 9 ?
Se5 Se5 Se12 Se5 -88.8(18) 2 . . 3 ?
Se5 Se5 Se12 Se5 138.6(14) 3 . . 9 ?
Se5 Se5 Se12 Se5 100(3) 2 . . 7 ?
Se5 Se5 Se12 Se5 87.6(19) 7 . . 8 ?
Se5 Se5 Se12 Se5 171(3) 7 . . 3 ?
Se5 Se5 Se12 Se5 -172(2) 2 . . 8 ?
Se5 Se5 Se12 Se5 -84(3) 3 . . 8 ?
Se5 Se5 Se12 Se5 88.8(18) 3 . . 2 ?
Se5 Se5 Se12 Se9 64(3) 2 . . . ?
Se5 Se5 Se12 Se9 -61(3) 3 . . 3 ?
Se5 Se5 Se12 Se9 37(2) 2 . . 9 ?
Se5 Se5 Se12 Se9 153(3) 3 . . . ?
Se5 Se5 Se12 Se9 -117(4) 3 . . 7 ?
Se5 Se5 Se12 Se9 -36(3) 7 . . . ?
Se5 Se5 Se12 Se9 111(3) 7 . . 3 ?
Se5 Se5 Se12 Se9 -109(3) 2 . . 8 ?
Se5 Se5 Se12 Se9 154(4) 2 . . 7 ?
Se5 Se5 Se12 Se9 -20(3) 3 . . 8 ?
Se5 Se5 Se12 Se9 -63(3) 7 . . 9 ?
Se5 Se5 Se12 Se9 -141(3) 7 . . 2 ?
Se5 Se5 Se12 Se9 126(3) 3 . . 9 ?
Se5 Se5 Se12 Se9 -41(4) 2 . . 2 ?
Se5 Se5 Se12 Se9 -149(2) 2 . . 3 ?
Se5 Se5 Se12 Se9 48(4) 3 . . 2 ?
Se5 Se5 Se12 Se9 54(3) 7 . . 7 ?
Se5 Se5 Se12 Se9 151(2) 7 . . 8 ?
Se5 Se6 Se8 Se3 -6(4) . . . . ?
Se5 Se6 Se8 Se6 -95(18) . . . 3 ?
Se5 Se6 Se8 Se6 173(3) . . . 11 ?
Se5 Se6 Se8 Se7 -58(4) . . . 2 ?
Se5 Se6 Se8 Se7 -173(5) . . . 12 ?
Se5 Se6 Se8 Se7 -20(11) . . . . ?
Se5 Se6 Se8 Se8 -163(5) . . . 12 ?
Se5 Se6 Se8 Se8 -121(4) . . . 11 ?
Se5 Se6 Se8 Se10 -138(9) . . . . ?
Se5 Se6 Se8 Se10 -116(7) . . . 3 ?
Se5 Se6 Se10 Se3 140.6(14) . . . 11 ?
Se5 Se6 Se10 Se3 -38(3) . . . . ?
Se5 Se6 Se10 Se6 139(2) . . . 11 ?
Se5 Se6 Se10 Se7 -117(8) . . . 11 ?
Se5 Se6 Se10 Se7 13(3) . . . . ?
Se5 Se6 Se10 Se7 113(6) . . . 12 ?
Se5 Se6 Se10 Se7 -60(2) . . . 2 ?
Se5 Se6 Se10 Se8 51(12) . . . 12 ?
Se5 Se6 Se10 Se8 25(5) . . . . ?
Se5 Se6 Se10 Se8 -77(4) . . . 2 ?
Se5 Se6 Se10 Se8 -126(8) . . . 11 ?
Se5 Se6 Se11 Se3 -77(10) . . . . ?
Se5 Se6 Se11 Se4 -132(14) . . . 2 ?
Se5 Se6 Se11 Se5 -16.7(17) . . . 7 ?
Se5 Se6 Se11 Se5 56(2) . . . 2 ?
Se5 Se6 Se11 Se7 69(3) . . . 2 ?
Se5 Se6 Se11 Se9 -56(3) . . . . ?
Se5 Se6 Se11 Se9 89(6) . . . 9 ?
Se5 Se6 Se11 Se11 -40(11) . . . 9 ?
Se5 Se6 Se11 Se12 18.8(12) . . . . ?
Se5 Se7 Se8 Se3 -45(6) 3 . . . ?
Se5 Se7 Se8 Se3 16(5) . . . . ?
Se5 Se7 Se8 Se5 -60(3) 3 . . . ?
Se5 Se7 Se8 Se6 108(21) 3 . . 11 ?
Se5 Se7 Se8 Se6 25(13) . . . . ?
Se5 Se7 Se8 Se6 168(21) . . . 11 ?
Se5 Se7 Se8 Se6 114(7) 3 . . 3 ?
Se5 Se7 Se8 Se6 174(7) . . . 3 ?
Se5 Se7 Se8 Se6 -36(15) 3 . . . ?
Se5 Se7 Se8 Se7 54(5) . . . 2 ?
Se5 Se7 Se8 Se7 173(5) . . . 12 ?
Se5 Se7 Se8 Se7 -7(6) 3 . . 2 ?
Se5 Se7 Se8 Se7 113(5) 3 . . 12 ?
Se5 Se7 Se8 Se8 47(7) 3 . . 11 ?
Se5 Se7 Se8 Se8 107(6) . . . 11 ?
Se5 Se7 Se8 Se8 174(3) . . . 12 ?
Se5 Se7 Se8 Se8 114(3) 3 . . 12 ?
Se5 Se7 Se8 Se10 102(10) . . . . ?
Se5 Se7 Se8 Se10 42(12) 3 . . . ?
Se5 Se7 Se8 Se10 151(5) . . . 3 ?
Se5 Se7 Se8 Se10 90(5) 3 . . 3 ?
Se5 Se8 Se10 Se3 -161(4) . . . 11 ?
Se5 Se8 Se10 Se3 -28(10) . . . . ?
Se5 Se8 Se10 Se6 -54(12) . . . . ?
Se5 Se8 Se10 Se6 -129(4) . . . 11 ?
Se5 Se8 Se10 Se7 170(6) . . . 12 ?
Se5 Se8 Se10 Se7 94(7) . . . 11 ?
Se5 Se8 Se10 Se7 15(12) . . . 2 ?
Se5 Se8 Se10 Se7 79(12) . . . . ?
Se5 Se8 Se10 Se8 52(11) . . . 2 ?
Se5 Se8 Se10 Se8 91(7) . . . 11 ?
Se5 Se8 Se10 Se8 146(9) . . . 12 ?
Se5 Se9 Se11 Se3 102(6) 2 . . . ?
Se5 Se9 Se11 Se3 66(3) . . . . ?
Se5 Se9 Se11 Se3 -49(4) 7 . . 9 ?
Se5 Se9 Se11 Se3 -111(2) . . . 9 ?
Se5 Se9 Se11 Se3 -75(5) 2 . . 9 ?
Se5 Se9 Se11 Se3 128(5) 7 . . . ?
Se5 Se9 Se11 Se4 -107(13) 2 . . 2 ?
Se5 Se9 Se11 Se4 -81(10) 7 . . 2 ?
Se5 Se9 Se11 Se4 -143(9) . . . 2 ?
Se5 Se9 Se11 Se5 26(9) 7 . . 2 ?
Se5 Se9 Se11 Se5 -26(9) 2 . . 7 ?
Se5 Se9 Se11 Se5 -62(4) . . . 7 ?
Se5 Se9 Se11 Se5 -36(6) . . . 2 ?
Se5 Se9 Se11 Se5 36(6) 2 . . . ?
Se5 Se9 Se11 Se5 62(4) 7 . . . ?
Se5 Se9 Se11 Se6 124(5) 7 . . . ?
Se5 Se9 Se11 Se6 98(5) 2 . . . ?
Se5 Se9 Se11 Se6 62(3) . . . . ?
Se5 Se9 Se11 Se7 20(7) . . . 2 ?
Se5 Se9 Se11 Se7 56(4) 2 . . 2 ?
Se5 Se9 Se11 Se7 82(9) 7 . . 2 ?
Se5 Se9 Se11 Se9 -38(7) 7 . . 9 ?
Se5 Se9 Se11 Se9 -100(4) . . . 9 ?
Se5 Se9 Se11 Se9 -63(5) 2 . . 9 ?
Se5 Se9 Se11 Se11 -115(3) . . . 9 ?
Se5 Se9 Se11 Se11 -79(6) 2 . . 9 ?
Se5 Se9 Se11 Se11 -53(4) 7 . . 9 ?
Se5 Se9 Se11 Se12 25(4) 7 . . . ?
Se5 Se9 Se11 Se12 -37.6(17) . . . . ?
Se5 Se9 Se11 Se12 -1(5) 2 . . . ?
Se6 Se3 Se6 Se5 -23(84) 11 . . . ?
Se6 Se3 Se6 Se7 -90(83) 11 . . 2 ?
Se6 Se3 Se6 Se7 -43(80) 11 . . 12 ?
Se6 Se3 Se6 Se8 -27(82) 11 . . . ?
Se6 Se3 Se6 Se8 -97(83) 11 . . 2 ?
Se6 Se3 Se6 Se8 -107(83) 11 . . 11 ?
Se6 Se3 Se6 Se9 26(88) 11 . . . ?
Se6 Se3 Se6 Se10 -66(81) 11 . . . ?
Se6 Se3 Se6 Se11 -120(80) 11 . . . ?
Se6 Se3 Se8 Se5 -174(3) 11 . . . ?
Se6 Se3 Se8 Se5 -174(4) . . . . ?
Se6 Se3 Se8 Se6 1(2) 11 . . . ?
Se6 Se3 Se8 Se6 156(8) . . . 3 ?
Se6 Se3 Se8 Se6 -1(2) . . . 11 ?
Se6 Se3 Se8 Se6 157(7) 11 . . 3 ?
Se6 Se3 Se8 Se7 92(4) . . . 2 ?
Se6 Se3 Se8 Se7 13(3) . . . 12 ?
Se6 Se3 Se8 Se7 172(7) . . . . ?
Se6 Se3 Se8 Se7 14(3) 11 . . 12 ?
Se6 Se3 Se8 Se7 173(7) 11 . . . ?
Se6 Se3 Se8 Se7 93(4) 11 . . 2 ?
Se6 Se3 Se8 Se8 51(2) 11 . . 11 ?
Se6 Se3 Se8 Se8 44(11) 11 . . 12 ?
Se6 Se3 Se8 Se8 51(3) . . . 11 ?
Se6 Se3 Se8 Se8 43(12) . . . 12 ?
Se6 Se3 Se8 Se10 116(9) 11 . . 3 ?
Se6 Se3 Se8 Se10 116(10) . . . 3 ?
Se6 Se3 Se8 Se10 29(6) . . . . ?
Se6 Se3 Se8 Se10 30(6) 11 . . . ?
Se6 Se3 Se9 Se3 161(5) . . . 9 ?
Se6 Se3 Se9 Se3 160(3) 11 . . 9 ?
Se6 Se3 Se9 Se4 -177(7) 11 . . 2 ?
Se6 Se3 Se9 Se4 -176(8) . . . 2 ?
Se6 Se3 Se9 Se5 114(5) 11 . . 2 ?
Se6 Se3 Se9 Se5 88(11) . . . 7 ?
Se6 Se3 Se9 Se5 115(7) . . . 2 ?
Se6 Se3 Se9 Se5 87(9) 11 . . 7 ?
Se6 Se3 Se9 Se5 55(7) . . . . ?
Se6 Se3 Se9 Se5 54(6) 11 . . . ?
Se6 Se3 Se9 Se7 135(8) . . . 7 ?
Se6 Se3 Se9 Se7 105(8) . . . 2 ?
Se6 Se3 Se9 Se7 104(6) 11 . . 2 ?
Se6 Se3 Se9 Se7 134(7) 11 . . 7 ?
Se6 Se3 Se9 Se9 154(7) . . . 9 ?
Se6 Se3 Se9 Se9 153(5) 11 . . 9 ?
Se6 Se3 Se9 Se11 163(6) 11 . . . ?
Se6 Se3 Se9 Se11 164(8) . . . . ?
Se6 Se3 Se9 Se11 164(4) 11 . . 9 ?
Se6 Se3 Se9 Se11 164(6) . . . 9 ?
Se6 Se3 Se9 Se12 90(7) . . . . ?
Se6 Se3 Se9 Se12 89(6) 11 . . . ?
Se6 Se3 Se10 Se3 0.8(15) 11 . . 11 ?
Se6 Se3 Se10 Se3 -2(3) . . . 11 ?
Se6 Se3 Se10 Se6 2(5) 11 . . . ?
Se6 Se3 Se10 Se6 -2(5) . . . 11 ?
Se6 Se3 Se10 Se7 151(3) 11 . . 2 ?
Se6 Se3 Se10 Se7 123(6) 11 . . 11 ?
Se6 Se3 Se10 Se7 149(4) . . . 2 ?
Se6 Se3 Se10 Se7 -134(4) . . . . ?
Se6 Se3 Se10 Se7 -64(23) . . . 12 ?
Se6 Se3 Se10 Se7 -132(3) 11 . . . ?
Se6 Se3 Se10 Se7 121(6) . . . 11 ?
Se6 Se3 Se10 Se7 -61(23) 11 . . 12 ?
Se6 Se3 Se10 Se8 144(3) 11 . . 2 ?
Se6 Se3 Se10 Se8 107(9) 11 . . 11 ?
Se6 Se3 Se10 Se8 -123(9) 11 . . 12 ?
Se6 Se3 Se10 Se8 -119(7) . . . . ?
Se6 Se3 Se10 Se8 -125(10) . . . 12 ?
Se6 Se3 Se10 Se8 -116(7) 11 . . . ?
Se6 Se3 Se10 Se8 142(4) . . . 2 ?
Se6 Se3 Se10 Se8 105(10) . . . 11 ?
Se6 Se3 Se11 Se3 -147(10) 11 . . 9 ?
Se6 Se3 Se11 Se3 -150(10) . . . 9 ?
Se6 Se3 Se11 Se4 144(15) 11 . . 2 ?
Se6 Se3 Se11 Se4 142(15) . . . 2 ?
Se6 Se3 Se11 Se5 -48(11) . . . 2 ?
Se6 Se3 Se11 Se5 -98(10) . . . . ?
Se6 Se3 Se11 Se5 -46(9) 11 . . 2 ?
Se6 Se3 Se11 Se5 -124(9) . . . 7 ?
Se6 Se3 Se11 Se5 -122(7) 11 . . 7 ?
Se6 Se3 Se11 Se5 -96(8) 11 . . . ?
Se6 Se3 Se11 Se6 2(4) 11 . . . ?
Se6 Se3 Se11 Se7 -26(7) 11 . . 2 ?
Se6 Se3 Se11 Se7 -28(9) . . . 2 ?
Se6 Se3 Se11 Se9 -21(21) . . . 9 ?
Se6 Se3 Se11 Se9 -19(19) 11 . . 9 ?
Se6 Se3 Se11 Se9 -159(9) . . . . ?
Se6 Se3 Se11 Se9 -157(7) 11 . . . ?
Se6 Se3 Se11 Se11 -161(7) . . . 9 ?
Se6 Se3 Se11 Se11 -158(5) 11 . . 9 ?
Se6 Se3 Se11 Se12 -86(10) . . . . ?
Se6 Se3 Se11 Se12 -84(8) 11 . . . ?
Se6 Se4 Se5 Se3 161(3) 7 . . 3 ?
Se6 Se4 Se5 Se5 11.5(16) 7 . . 7 ?
Se6 Se4 Se5 Se5 104.8(16) 7 . . 3 ?
Se6 Se4 Se5 Se5 68(3) 7 . . 2 ?
Se6 Se4 Se5 Se7 178(3) 7 . . . ?
Se6 Se4 Se5 Se8 -152(3) 7 . . . ?
Se6 Se4 Se5 Se9 -40(5) 7 . . 7 ?
Se6 Se4 Se5 Se9 -21(4) 7 . . . ?
Se6 Se4 Se5 Se11 164(8) 7 . . 3 ?
Se6 Se4 Se5 Se12 60(2) 7 . . . ?
Se6 Se4 Se7 Se3 147(5) 7 . . 3 ?
Se6 Se4 Se7 Se5 -3(4) 7 . . . ?
Se6 Se4 Se7 Se5 68(4) 7 . . 3 ?
Se6 Se4 Se7 Se6 161(2) 7 . . 12 ?
Se6 Se4 Se7 Se6 157(3) 7 . . 3 ?
Se6 Se4 Se7 Se8 -47(8) 7 . . . ?
Se6 Se4 Se7 Se8 -141(10) 7 . . 12 ?
Se6 Se4 Se7 Se8 99(5) 7 . . 3 ?
Se6 Se4 Se7 Se9 98(8) 7 . . 3 ?
Se6 Se4 Se7 Se10 147(4) 7 . . 3 ?
Se6 Se4 Se7 Se11 135(27) 7 . . 3 ?
Se6 Se6 Se8 Se3 -179(3) 11 . . . ?
Se6 Se6 Se8 Se5 -173(3) 11 . . . ?
Se6 Se6 Se8 Se6 92(18) 11 . . 3 ?
Se6 Se6 Se8 Se7 13(3) 11 . . 12 ?
Se6 Se6 Se8 Se7 128(3) 11 . . 2 ?
Se6 Se6 Se8 Se7 166(13) 11 . . . ?
Se6 Se6 Se8 Se8 65(2) 11 . . 11 ?
Se6 Se6 Se8 Se8 24(3) 11 . . 12 ?
Se6 Se6 Se8 Se10 49(7) 11 . . . ?
Se6 Se6 Se8 Se10 70(6) 11 . . 3 ?
Se6 Se6 Se10 Se3 1(2) 11 . . 11 ?
Se6 Se6 Se10 Se3 -178(5) 11 . . . ?
Se6 Se6 Se10 Se7 -127(4) 11 . . . ?
Se6 Se6 Se10 Se7 -27(7) 11 . . 12 ?
Se6 Se6 Se10 Se7 161(3) 11 . . 2 ?
Se6 Se6 Se10 Se7 104(7) 11 . . 11 ?
Se6 Se6 Se10 Se8 -114(6) 11 . . . ?
Se6 Se6 Se10 Se8 94(8) 11 . . 11 ?
Se6 Se6 Se10 Se8 -88(13) 11 . . 12 ?
Se6 Se6 Se10 Se8 144(3) 11 . . 2 ?
Se6 Se7 Se8 Se3 -150(3) 12 . . . ?
Se6 Se7 Se8 Se3 -159(4) 3 . . . ?
Se6 Se7 Se8 Se5 -165(4) 12 . . . ?
Se6 Se7 Se8 Se5 -174(7) 3 . . . ?
Se6 Se7 Se8 Se6 3(24) 12 . . 11 ?
Se6 Se7 Se8 Se6 -6(26) 3 . . 11 ?
Se6 Se7 Se8 Se6 -150(10) 3 . . . ?
Se6 Se7 Se8 Se6 9(4) 12 . . 3 ?
Se6 Se7 Se8 Se6 -141(12) 12 . . . ?
Se6 Se7 Se8 Se7 -112(4) 12 . . 2 ?
Se6 Se7 Se8 Se7 8(7) 12 . . 12 ?
Se6 Se7 Se8 Se7 -121(6) 3 . . 2 ?
Se6 Se7 Se8 Se7 -1(11) 3 . . 12 ?
Se6 Se7 Se8 Se8 -58(7) 12 . . 11 ?
Se6 Se7 Se8 Se8 8.9(14) 12 . . 12 ?
Se6 Se7 Se8 Se8 -67(9) 3 . . 11 ?
Se6 Se7 Se8 Se8 0(5) 3 . . 12 ?
Se6 Se7 Se8 Se10 -15(3) 12 . . 3 ?
Se6 Se7 Se8 Se10 -64(11) 12 . . . ?
Se6 Se7 Se8 Se10 -72(13) 3 . . . ?
Se6 Se7 Se8 Se10 -24(5) 3 . . 3 ?
Se6 Se8 Se10 Se3 -142(5) 3 . . . ?
Se6 Se8 Se10 Se3 -107(13) . . . 11 ?
Se6 Se8 Se10 Se3 26(2) . . . . ?
Se6 Se8 Se10 Se3 -31.9(18) 11 . . 11 ?
Se6 Se8 Se10 Se3 85(11) 3 . . 11 ?
Se6 Se8 Se10 Se3 101(11) 11 . . . ?
Se6 Se8 Se10 Se6 -168(5) 3 . . . ?
Se6 Se8 Se10 Se6 117(12) 3 . . 11 ?
Se6 Se8 Se10 Se6 -75(13) . . . 11 ?
Se6 Se8 Se10 Se6 75(13) 11 . . . ?
Se6 Se8 Se10 Se7 148(7) . . . 11 ?
Se6 Se8 Se10 Se7 57(8) 3 . . 12 ?
Se6 Se8 Se10 Se7 144(13) 11 . . 2 ?
Se6 Se8 Se10 Se7 -137(8) 11 . . 11 ?
Se6 Se8 Se10 Se7 69(3) . . . 2 ?
Se6 Se8 Se10 Se7 -151(11) 11 . . . ?
Se6 Se8 Se10 Se7 133(12) . . . . ?
Se6 Se8 Se10 Se7 -99(6) 3 . . 2 ?
Se6 Se8 Se10 Se7 -34(9) 3 . . . ?
Se6 Se8 Se10 Se7 -20(7) 3 . . 11 ?
Se6 Se8 Se10 Se7 -136(10) . . . 12 ?
Se6 Se8 Se10 Se7 -60(5) 11 . . 12 ?
Se6 Se8 Se10 Se8 144(6) . . . 11 ?
Se6 Se8 Se10 Se8 -160(6) . . . 12 ?
Se6 Se8 Se10 Se8 -62(6) 3 . . 2 ?
Se6 Se8 Se10 Se8 -140(8) 11 . . 11 ?
Se6 Se8 Se10 Se8 106(3) . . . 2 ?
Se6 Se8 Se10 Se8 -23(5) 3 . . 11 ?
Se6 Se8 Se10 Se8 32(5) 3 . . 12 ?
Se6 Se8 Se10 Se8 -85(9) 11 . . 12 ?
Se6 Se8 Se10 Se8 -179(12) 11 . . 2 ?
Se7 Se3 Se6 Se5 67(2) 2 . . . ?
Se7 Se3 Se6 Se7 47(6) 2 . . 12 ?
Se7 Se3 Se6 Se8 -17(4) 2 . . 11 ?
Se7 Se3 Se6 Se8 -6(3) 2 . . 2 ?
Se7 Se3 Se6 Se8 64(3) 2 . . . ?
Se7 Se3 Se6 Se9 117(8) 2 . . . ?
Se7 Se3 Se6 Se10 24(3) 2 . . . ?
Se7 Se3 Se6 Se11 -30(10) 2 . . . ?
Se7 Se3 Se8 Se5 93(4) 2 . . . ?
Se7 Se3 Se8 Se6 64(7) 2 . . 3 ?
Se7 Se3 Se8 Se6 -92(4) 2 . . . ?
Se7 Se3 Se8 Se6 -93(4) 2 . . 11 ?
Se7 Se3 Se8 Se7 80(6) 2 . . . ?
Se7 Se3 Se8 Se7 -79(4) 2 . . 12 ?
Se7 Se3 Se8 Se8 -49(10) 2 . . 12 ?
Se7 Se3 Se8 Se8 -42(3) 2 . . 11 ?
Se7 Se3 Se8 Se10 -63(7) 2 . . . ?
Se7 Se3 Se8 Se10 23(8) 2 . . 3 ?
Se7 Se3 Se9 Se3 56(5) 2 . . 9 ?
Se7 Se3 Se9 Se4 79(7) 2 . . 2 ?
Se7 Se3 Se9 Se5 -17(9) 2 . . 7 ?
Se7 Se3 Se9 Se5 10(4) 2 . . 2 ?
Se7 Se3 Se9 Se5 -50(4) 2 . . . ?
Se7 Se3 Se9 Se7 30(9) 2 . . 7 ?
Se7 Se3 Se9 Se9 49(3) 2 . . 9 ?
Se7 Se3 Se9 Se11 60(5) 2 . . 9 ?
Se7 Se3 Se9 Se11 59(5) 2 . . . ?
Se7 Se3 Se9 Se12 -15(5) 2 . . . ?
Se7 Se3 Se10 Se3 -151(3) 2 . . 11 ?
Se7 Se3 Se10 Se6 -151(3) 2 . . 11 ?
Se7 Se3 Se10 Se6 -149(4) 2 . . . ?
Se7 Se3 Se10 Se7 147(24) 2 . . 12 ?
Se7 Se3 Se10 Se7 -28(5) 2 . . 11 ?
Se7 Se3 Se10 Se7 77(5) 2 . . . ?
Se7 Se3 Se10 Se8 86(11) 2 . . 12 ?
Se7 Se3 Se10 Se8 -44(8) 2 . . 11 ?
Se7 Se3 Se10 Se8 -7(4) 2 . . 2 ?
Se7 Se3 Se10 Se8 92(8) 2 . . . ?
Se7 Se3 Se11 Se3 -122(14) 2 . . 9 ?
Se7 Se3 Se11 Se4 170(16) 2 . . 2 ?
Se7 Se3 Se11 Se5 -70(2) 2 . . . ?
Se7 Se3 Se11 Se5 -96(3) 2 . . 7 ?
Se7 Se3 Se11 Se5 -20(3) 2 . . 2 ?
Se7 Se3 Se11 Se6 28(9) 2 . . . ?
Se7 Se3 Se11 Se9 -131(4) 2 . . . ?
Se7 Se3 Se11 Se9 7(14) 2 . . 9 ?
Se7 Se3 Se11 Se11 -132(6) 2 . . 9 ?
Se7 Se3 Se11 Se12 -58(3) 2 . . . ?
Se7 Se4 Se5 Se3 132(3) 8 . . 3 ?
Se7 Se4 Se5 Se3 -17(3) . . . 3 ?
Se7 Se4 Se5 Se5 -73(3) . . . 3 ?
Se7 Se4 Se5 Se5 -166(3) . . . 7 ?
Se7 Se4 Se5 Se5 76.1(17) 8 . . 3 ?
Se7 Se4 Se5 Se5 -17.2(18) 8 . . 7 ?
Se7 Se4 Se5 Se5 -109(5) . . . 2 ?
Se7 Se4 Se5 Se5 40(3) 8 . . 2 ?
Se7 Se4 Se5 Se7 149(3) 8 . . . ?
Se7 Se4 Se5 Se8 31(3) . . . . ?
Se7 Se4 Se5 Se8 179(3) 8 . . . ?
Se7 Se4 Se5 Se9 -50(4) 8 . . . ?
Se7 Se4 Se5 Se9 161(5) . . . . ?
Se7 Se4 Se5 Se9 -69(5) 8 . . 7 ?
Se7 Se4 Se5 Se9 142(7) . . . 7 ?
Se7 Se4 Se5 Se11 -14(7) . . . 3 ?
Se7 Se4 Se5 Se11 135(7) 8 . . 3 ?
Se7 Se4 Se5 Se12 31(2) 8 . . . ?
Se7 Se4 Se5 Se12 -118(4) . . . . ?
Se7 Se4 Se7 Se3 115(4) 8 . . 3 ?
Se7 Se4 Se7 Se5 35.8(13) 8 . . 3 ?
Se7 Se4 Se7 Se5 -35(2) 8 . . . ?
Se7 Se4 Se7 Se6 129(3) 8 . . 12 ?
Se7 Se4 Se7 Se6 125(3) 8 . . 3 ?
Se7 Se4 Se7 Se8 -79(5) 8 . . . ?
Se7 Se4 Se7 Se8 67(4) 8 . . 3 ?
Se7 Se4 Se7 Se8 -173(11) 8 . . 12 ?
Se7 Se4 Se7 Se9 66(5) 8 . . 3 ?
Se7 Se4 Se7 Se10 115(6) 8 . . 3 ?
Se7 Se4 Se7 Se11 103(25) 8 . . 3 ?
Se7 Se5 Se7 Se3 154(4) 2 . . 3 ?
Se7 Se5 Se7 Se4 176(3) 2 . . . ?
Se7 Se5 Se7 Se5 82.9(13) 2 . . 3 ?
Se7 Se5 Se7 Se6 70(18) 2 . . 12 ?
Se7 Se5 Se7 Se6 132(8) 2 . . 3 ?
Se7 Se5 Se7 Se8 63(4) 2 . . 3 ?
Se7 Se5 Se7 Se8 -39(4) 2 . . . ?
Se7 Se5 Se7 Se8 -32(7) 2 . . 12 ?
Se7 Se5 Se7 Se9 145(3) 2 . . 3 ?
Se7 Se5 Se7 Se10 43(13) 2 . . 3 ?
Se7 Se5 Se7 Se11 170(3) 2 . . 3 ?
Se7 Se5 Se8 Se3 -36(3) 2 . . . ?
Se7 Se5 Se8 Se3 -167(4) . . . . ?
Se7 Se5 Se8 Se6 -45(6) 2 . . 11 ?
Se7 Se5 Se8 Se6 -2(3) . . . 3 ?
Se7 Se5 Se8 Se6 -170(6) . . . . ?
Se7 Se5 Se8 Se6 -176(8) . . . 11 ?
Se7 Se5 Se8 Se6 128(3) 2 . . 3 ?
Se7 Se5 Se8 Se6 -39(3) 2 . . . ?
Se7 Se5 Se8 Se7 131(5) 2 . . . ?
Se7 Se5 Se8 Se7 -131(5) . . . 2 ?
Se7 Se5 Se8 Se8 17(3) 2 . . 11 ?
Se7 Se5 Se8 Se8 -7(4) . . . 12 ?
Se7 Se5 Se8 Se8 -114(4) . . . 11 ?
Se7 Se5 Se8 Se8 124(3) 2 . . 12 ?
Se7 Se5 Se8 Se10 -20(4) . . . 3 ?
Se7 Se5 Se8 Se10 -11(9) 2 . . . ?
Se7 Se5 Se8 Se10 111(5) 2 . . 3 ?
Se7 Se5 Se8 Se10 -142(12) . . . . ?
Se7 Se5 Se9 Se3 26(3) 2 . . . ?
Se7 Se5 Se9 Se3 -132(6) . . . 9 ?
Se7 Se5 Se9 Se3 -91(4) 2 . . 9 ?
Se7 Se5 Se9 Se3 -15(9) . . . . ?
Se7 Se5 Se9 Se4 -85(9) . . . 2 ?
Se7 Se5 Se9 Se4 -44(6) 2 . . 2 ?
Se7 Se5 Se9 Se5 -168(7) . . . 7 ?
Se7 Se5 Se9 Se5 -82(8) . . . 2 ?
Se7 Se5 Se9 Se5 -127(4) 2 . . 7 ?
Se7 Se5 Se9 Se5 -41.6(19) 2 . . 2 ?
Se7 Se5 Se9 Se7 -118(3) 2 . . 7 ?
Se7 Se5 Se9 Se7 -159(7) . . . 7 ?
Se7 Se5 Se9 Se7 -41(8) . . . 2 ?
Se7 Se5 Se9 Se9 -97(7) . . . 9 ?
Se7 Se5 Se9 Se9 -56(4) 2 . . 9 ?
Se7 Se5 Se9 Se11 -123(7) . . . 9 ?
Se7 Se5 Se9 Se11 -54(10) . . . . ?
Se7 Se5 Se9 Se11 -13(5) 2 . . . ?
Se7 Se5 Se9 Se11 -83(6) 2 . . 9 ?
Se7 Se5 Se9 Se12 -88(3) 2 . . . ?
Se7 Se5 Se9 Se12 -128(8) . . . . ?
Se7 Se5 Se12 Se5 139(4) . . . 9 ?
Se7 Se5 Se12 Se5 -88.9(16) 2 . . 3 ?
Se7 Se5 Se12 Se5 100(3) 2 . . 7 ?
Se7 Se5 Se12 Se5 49.7(18) 2 . . 9 ?
Se7 Se5 Se12 Se5 -171(5) . . . 7 ?
Se7 Se5 Se12 Se5 -172(3) 2 . . 8 ?
Se7 Se5 Se12 Se5 0(4) . . . 3 ?
Se7 Se5 Se12 Se5 89(3) . . . 2 ?
Se7 Se5 Se12 Se5 0(2) 2 . . 2 ?
Se7 Se5 Se12 Se5 -83(4) . . . 8 ?
Se7 Se5 Se12 Se9 64(3) 2 . . . ?
Se7 Se5 Se12 Se9 126(4) . . . 9 ?
Se7 Se5 Se12 Se9 -117(6) . . . 7 ?
Se7 Se5 Se12 Se9 153(5) . . . . ?
Se7 Se5 Se12 Se9 -60(4) . . . 3 ?
Se7 Se5 Se12 Se9 -20(5) . . . 8 ?
Se7 Se5 Se12 Se9 154(4) 2 . . 7 ?
Se7 Se5 Se12 Se9 -109(3) 2 . . 8 ?
Se7 Se5 Se12 Se9 37(3) 2 . . 9 ?
Se7 Se5 Se12 Se9 49(6) . . . 2 ?
Se7 Se5 Se12 Se9 -150(3) 2 . . 3 ?
Se7 Se5 Se12 Se9 -41(4) 2 . . 2 ?
Se7 Se6 Se8 Se3 168(3) 12 . . . ?
Se7 Se6 Se8 Se3 53(3) 2 . . . ?
Se7 Se6 Se8 Se5 58(4) 2 . . . ?
Se7 Se6 Se8 Se5 173(5) 12 . . . ?
Se7 Se6 Se8 Se6 -128(3) 2 . . 11 ?
Se7 Se6 Se8 Se6 -13(3) 12 . . 11 ?
Se7 Se6 Se8 Se6 78(18) 12 . . 3 ?
Se7 Se6 Se8 Se6 -36(18) 2 . . 3 ?
Se7 Se6 Se8 Se7 38(13) 2 . . . ?
Se7 Se6 Se8 Se7 153(15) 12 . . . ?
Se7 Se6 Se8 Se7 -115(4) 2 . . 12 ?
Se7 Se6 Se8 Se7 115(4) 12 . . 2 ?
Se7 Se6 Se8 Se8 -104(4) 2 . . 12 ?
Se7 Se6 Se8 Se8 10(3) 12 . . 12 ?
Se7 Se6 Se8 Se8 -63(3) 2 . . 11 ?
Se7 Se6 Se8 Se8 52(3) 12 . . 11 ?
Se7 Se6 Se8 Se10 -79(7) 2 . . . ?
Se7 Se6 Se8 Se10 -58(6) 2 . . 3 ?
Se7 Se6 Se8 Se10 57(5) 12 . . 3 ?
Se7 Se6 Se8 Se10 35(7) 12 . . . ?
Se7 Se6 Se10 Se3 28(6) 12 . . 11 ?
Se7 Se6 Se10 Se3 -151(6) 12 . . . ?
Se7 Se6 Se10 Se3 -159(2) 2 . . 11 ?
Se7 Se6 Se10 Se3 22(3) 2 . . . ?
Se7 Se6 Se10 Se6 -161(3) 2 . . 11 ?
Se7 Se6 Se10 Se6 27(7) 12 . . 11 ?
Se7 Se6 Se10 Se7 -57(7) 2 . . 11 ?
Se7 Se6 Se10 Se7 -173(6) 12 . . 2 ?
Se7 Se6 Se10 Se7 173(6) 2 . . 12 ?
Se7 Se6 Se10 Se7 131(12) 12 . . 11 ?
Se7 Se6 Se10 Se7 73(5) 2 . . . ?
Se7 Se6 Se10 Se7 -100(5) 12 . . . ?
Se7 Se6 Se10 Se8 111(13) 2 . . 12 ?
Se7 Se6 Se10 Se8 85(6) 2 . . . ?
Se7 Se6 Se10 Se8 -87(5) 12 . . . ?
Se7 Se6 Se10 Se8 -61(9) 12 . . 12 ?
Se7 Se6 Se10 Se8 171(8) 12 . . 2 ?
Se7 Se6 Se10 Se8 -17(4) 2 . . 2 ?
Se7 Se6 Se10 Se8 -66(8) 2 . . 11 ?
Se7 Se6 Se10 Se8 121(13) 12 . . 11 ?
Se7 Se6 Se11 Se3 -117(10) 12 . . . ?
Se7 Se6 Se11 Se3 -146(11) 2 . . . ?
Se7 Se6 Se11 Se4 159(15) 2 . . 2 ?
Se7 Se6 Se11 Se4 -172(13) 12 . . 2 ?
Se7 Se6 Se11 Se5 -69(3) 2 . . . ?
Se7 Se6 Se11 Se5 16(4) 12 . . 2 ?
Se7 Se6 Se11 Se5 -13(3) 2 . . 2 ?
Se7 Se6 Se11 Se5 -40(4) 12 . . . ?
Se7 Se6 Se11 Se5 -86(3) 2 . . 7 ?
Se7 Se6 Se11 Se5 -56(5) 12 . . 7 ?
Se7 Se6 Se11 Se7 29(5) 12 . . 2 ?
Se7 Se6 Se11 Se9 -125(5) 2 . . . ?
Se7 Se6 Se11 Se9 49(8) 12 . . 9 ?
Se7 Se6 Se11 Se9 -96(5) 12 . . . ?
Se7 Se6 Se11 Se9 20(6) 2 . . 9 ?
Se7 Se6 Se11 Se11 -80(13) 12 . . 9 ?
Se7 Se6 Se11 Se11 -109(11) 2 . . 9 ?
Se7 Se6 Se11 Se12 -21(4) 12 . . . ?
Se7 Se6 Se11 Se12 -50(3) 2 . . . ?
Se7 Se8 Se10 Se3 119(12) . . . 11 ?
Se7 Se8 Se10 Se3 -43(3) 2 . . . ?
Se7 Se8 Se10 Se3 29(4) 12 . . 11 ?
Se7 Se8 Se10 Se3 162(8) 12 . . . ?
Se7 Se8 Se10 Se3 -107(11) . . . . ?
Se7 Se8 Se10 Se3 -176(12) 2 . . 11 ?
Se7 Se8 Se10 Se6 -69(3) 2 . . . ?
Se7 Se8 Se10 Se6 -133(12) . . . . ?
Se7 Se8 Se10 Se6 -144(13) 2 . . 11 ?
Se7 Se8 Se10 Se6 136(10) 12 . . . ?
Se7 Se8 Se10 Se6 151(11) . . . 11 ?
Se7 Se8 Se10 Se6 60(5) 12 . . 11 ?
Se7 Se8 Se10 Se7 -91(10) 12 . . . ?
Se7 Se8 Se10 Se7 91(10) . . . 12 ?
Se7 Se8 Se10 Se7 156(10) 2 . . 12 ?
Se7 Se8 Se10 Se7 -77(5) 12 . . 11 ?
Se7 Se8 Se10 Se7 14(12) . . . 11 ?
Se7 Se8 Se10 Se7 -65(12) . . . 2 ?
Se7 Se8 Se10 Se7 65(12) 2 . . . ?
Se7 Se8 Se10 Se7 -156(10) 12 . . 2 ?
Se7 Se8 Se10 Se7 79(7) 2 . . 11 ?
Se7 Se8 Se10 Se8 -24(5) 12 . . 12 ?
Se7 Se8 Se10 Se8 37(3) 2 . . 2 ?
Se7 Se8 Se10 Se8 -27(12) . . . 2 ?
Se7 Se8 Se10 Se8 -118(8) 12 . . 2 ?
Se7 Se8 Se10 Se8 131(7) 2 . . 12 ?
Se7 Se8 Se10 Se8 11(9) . . . 11 ?
Se7 Se8 Se10 Se8 67(10) . . . 12 ?
Se7 Se8 Se10 Se8 -80(5) 12 . . 11 ?
Se7 Se8 Se10 Se8 76(6) 2 . . 11 ?
Se7 Se9 Se11 Se3 -131(6) 2 . . 9 ?
Se7 Se9 Se11 Se3 162(3) 7 . . . ?
Se7 Se9 Se11 Se3 -15(2) 7 . . 9 ?
Se7 Se9 Se11 Se3 46(6) 2 . . . ?
Se7 Se9 Se11 Se4 -162(13) 2 . . 2 ?
Se7 Se9 Se11 Se4 -46(9) 7 . . 2 ?
Se7 Se9 Se11 Se5 -82(9) 2 . . 7 ?
Se7 Se9 Se11 Se5 -20(7) 2 . . . ?
Se7 Se9 Se11 Se5 34(3) 7 . . 7 ?
Se7 Se9 Se11 Se5 -56(4) 2 . . 2 ?
Se7 Se9 Se11 Se5 97(3) 7 . . . ?
Se7 Se9 Se11 Se5 60(7) 7 . . 2 ?
Se7 Se9 Se11 Se6 42(5) 2 . . . ?
Se7 Se9 Se11 Se6 158(2) 7 . . . ?
Se7 Se9 Se11 Se7 116(6) 7 . . 2 ?
Se7 Se9 Se11 Se9 -119(7) 2 . . 9 ?
Se7 Se9 Se11 Se9 -3(6) 7 . . 9 ?
Se7 Se9 Se11 Se11 -134(6) 2 . . 9 ?
Se7 Se9 Se11 Se11 -18.2(17) 7 . . 9 ?
Se7 Se9 Se11 Se12 59(3) 7 . . . ?
Se7 Se9 Se11 Se12 -57(6) 2 . . . ?
Se8 Se3 Se6 Se5 4(3) . . . . ?
Se8 Se3 Se6 Se7 -64(3) . . . 2 ?
Se8 Se3 Se6 Se7 -17(4) . . . 12 ?
Se8 Se3 Se6 Se8 -80(5) . . . 11 ?
Se8 Se3 Se6 Se8 -70(4) . . . 2 ?
Se8 Se3 Se6 Se9 53(8) . . . . ?
Se8 Se3 Se6 Se10 -39(3) . . . . ?
Se8 Se3 Se6 Se11 -93(10) . . . . ?
Se8 Se3 Se9 Se3 120(3) . . . 9 ?
Se8 Se3 Se9 Se4 143(6) . . . 2 ?
Se8 Se3 Se9 Se5 14(3) . . . . ?
Se8 Se3 Se9 Se5 47(8) . . . 7 ?
Se8 Se3 Se9 Se5 74(2) . . . 2 ?
Se8 Se3 Se9 Se7 64(3) . . . 2 ?
Se8 Se3 Se9 Se7 94(7) . . . 7 ?
Se8 Se3 Se9 Se9 113(2) . . . 9 ?
Se8 Se3 Se9 Se11 124(4) . . . 9 ?
Se8 Se3 Se9 Se11 123(4) . . . . ?
Se8 Se3 Se9 Se12 49(3) . . . . ?
Se8 Se3 Se10 Se3 117(7) . . . 11 ?
Se8 Se3 Se10 Se6 119(7) . . . . ?
Se8 Se3 Se10 Se6 116(7) . . . 11 ?
Se8 Se3 Se10 Se7 -120(12) . . . 11 ?
Se8 Se3 Se10 Se7 55(18) . . . 12 ?
Se8 Se3 Se10 Se7 -15(5) . . . . ?
Se8 Se3 Se10 Se7 -92(8) . . . 2 ?
Se8 Se3 Se10 Se8 -99(9) . . . 2 ?
Se8 Se3 Se10 Se8 -7(4) . . . 12 ?
Se8 Se3 Se10 Se8 -136(15) . . . 11 ?
Se8 Se3 Se11 Se3 -74(16) . . . 9 ?
Se8 Se3 Se11 Se4 -143(14) . . . 2 ?
Se8 Se3 Se11 Se5 -49(5) . . . 7 ?
Se8 Se3 Se11 Se5 27(5) . . . 2 ?
Se8 Se3 Se11 Se5 -23(3) . . . . ?
Se8 Se3 Se11 Se6 75(10) . . . . ?
Se8 Se3 Se11 Se7 47(4) . . . 2 ?
Se8 Se3 Se11 Se9 54(15) . . . 9 ?
Se8 Se3 Se11 Se9 -84(5) . . . . ?
Se8 Se3 Se11 Se11 -85(8) . . . 9 ?
Se8 Se3 Se11 Se12 -11(5) . . . . ?
Se8 Se5 Se7 Se3 -167(6) . . . 3 ?
Se8 Se5 Se7 Se4 -145(4) . . . . ?
Se8 Se5 Se7 Se5 122(4) . . . 3 ?
Se8 Se5 Se7 Se6 172(11) . . . 3 ?
Se8 Se5 Se7 Se6 109(19) . . . 12 ?
Se8 Se5 Se7 Se8 102(6) . . . 3 ?
Se8 Se5 Se7 Se8 7(4) . . . 12 ?
Se8 Se5 Se7 Se9 -176(4) . . . 3 ?
Se8 Se5 Se7 Se10 82(12) . . . 3 ?
Se8 Se5 Se7 Se11 -151(5) . . . 3 ?
Se8 Se5 Se9 Se3 -134(4) . . . 9 ?
Se8 Se5 Se9 Se3 -18(4) . . . . ?
Se8 Se5 Se9 Se4 -87(7) . . . 2 ?
Se8 Se5 Se9 Se5 -85(3) . . . 2 ?
Se8 Se5 Se9 Se5 -170(4) . . . 7 ?
Se8 Se5 Se9 Se7 -161(3) . . . 7 ?
Se8 Se5 Se9 Se7 -43(3) . . . 2 ?
Se8 Se5 Se9 Se9 -100(5) . . . 9 ?
Se8 Se5 Se9 Se11 -126(6) . . . 9 ?
Se8 Se5 Se9 Se11 -56(6) . . . . ?
Se8 Se5 Se9 Se12 -131(3) . . . . ?
Se8 Se5 Se12 Se5 129(5) . . . 7 ?
Se8 Se5 Se12 Se5 79(4) . . . 9 ?
Se8 Se5 Se12 Se5 29(4) . . . 2 ?
Se8 Se5 Se12 Se5 -60(4) . . . 3 ?
Se8 Se5 Se12 Se5 -143(5) . . . 8 ?
Se8 Se5 Se12 Se9 66(5) . . . 9 ?
Se8 Se5 Se12 Se9 -177(7) . . . 7 ?
Se8 Se5 Se12 Se9 93(5) . . . . ?
Se8 Se5 Se12 Se9 -11(7) . . . 2 ?
Se8 Se5 Se12 Se9 -120(5) . . . 3 ?
Se8 Se5 Se12 Se9 -80(5) . . . 8 ?
Se8 Se6 Se8 Se3 116(3) 11 . . . ?
Se8 Se6 Se8 Se3 76(2) 2 . . . ?
Se8 Se6 Se8 Se5 82(3) 2 . . . ?
Se8 Se6 Se8 Se5 121(4) 11 . . . ?
Se8 Se6 Se8 Se6 -65(2) 11 . . 11 ?
Se8 Se6 Se8 Se6 -105(2) 2 . . 11 ?
Se8 Se6 Se8 Se6 27(17) 11 . . 3 ?
Se8 Se6 Se8 Se6 -13(19) 2 . . 3 ?
Se8 Se6 Se8 Se7 101(13) 11 . . . ?
Se8 Se6 Se8 Se7 61(14) 2 . . . ?
Se8 Se6 Se8 Se7 23(3) 2 . . 2 ?
Se8 Se6 Se8 Se7 -91(3) 2 . . 12 ?
Se8 Se6 Se8 Se7 63(3) 11 . . 2 ?
Se8 Se6 Se8 Se7 -52(3) 11 . . 12 ?
Se8 Se6 Se8 Se8 -40(2) 2 . . 11 ?
Se8 Se6 Se8 Se8 -42(3) 11 . . 12 ?
Se8 Se6 Se8 Se8 -81(3) 2 . . 12 ?
Se8 Se6 Se8 Se10 -17(7) 11 . . . ?
Se8 Se6 Se8 Se10 -56(7) 2 . . . ?
Se8 Se6 Se8 Se10 5(5) 11 . . 3 ?
Se8 Se6 Se8 Se10 -35(7) 2 . . 3 ?
Se8 Se6 Se10 Se3 38(4) 2 . . . ?
Se8 Se6 Se10 Se3 115(6) . . . 11 ?
Se8 Se6 Se10 Se3 -93(8) 11 . . 11 ?
Se8 Se6 Se10 Se3 -63(7) . . . . ?
Se8 Se6 Se10 Se3 88(8) 11 . . . ?
Se8 Se6 Se10 Se3 -143(3) 2 . . 11 ?
Se8 Se6 Se10 Se6 -144(3) 2 . . 11 ?
Se8 Se6 Se10 Se6 -94(8) 11 . . 11 ?
Se8 Se6 Se10 Se6 114(6) . . . 11 ?
Se8 Se6 Se10 Se7 -171(8) 2 . . 12 ?
Se8 Se6 Se10 Se7 -121(13) 11 . . 12 ?
Se8 Se6 Se10 Se7 -85(6) . . . 2 ?
Se8 Se6 Se10 Se7 66(8) 11 . . 2 ?
Se8 Se6 Se10 Se7 87(5) . . . 12 ?
Se8 Se6 Se10 Se7 -40(5) 2 . . 11 ?
Se8 Se6 Se10 Se7 89(6) 2 . . . ?
Se8 Se6 Se10 Se7 139(11) 11 . . . ?
Se8 Se6 Se10 Se7 10(3) 11 . . 11 ?
Se8 Se6 Se10 Se7 -142(13) . . . 11 ?
Se8 Se6 Se10 Se7 17(4) 2 . . 2 ?
Se8 Se6 Se10 Se7 -12(4) . . . . ?
Se8 Se6 Se10 Se8 -152(13) . . . 11 ?
Se8 Se6 Se10 Se8 26(9) . . . 12 ?
Se8 Se6 Se10 Se8 152(13) 11 . . . ?
Se8 Se6 Se10 Se8 -102(9) . . . 2 ?
Se8 Se6 Se10 Se8 178(20) 11 . . 12 ?
Se8 Se6 Se10 Se8 50(6) 11 . . 2 ?
Se8 Se6 Se10 Se8 128(15) 2 . . 12 ?
Se8 Se6 Se10 Se8 -50(6) 2 . . 11 ?
Se8 Se6 Se10 Se8 102(9) 2 . . . ?
Se8 Se6 Se11 Se3 -168(11) 11 . . . ?
Se8 Se6 Se11 Se3 -156(11) 2 . . . ?
Se8 Se6 Se11 Se3 -88(10) . . . . ?
Se8 Se6 Se11 Se4 137(14) 11 . . 2 ?
Se8 Se6 Se11 Se4 -143(14) . . . 2 ?
Se8 Se6 Se11 Se4 149(14) 2 . . 2 ?
Se8 Se6 Se11 Se5 45(3) . . . 2 ?
Se8 Se6 Se11 Se5 -107(3) 11 . . 7 ?
Se8 Se6 Se11 Se5 -11(3) . . . . ?
Se8 Se6 Se11 Se5 -35(3) 11 . . 2 ?
Se8 Se6 Se11 Se5 -95(3) 2 . . 7 ?
Se8 Se6 Se11 Se5 -23(2) 2 . . 2 ?
Se8 Se6 Se11 Se5 -90(2) 11 . . . ?
Se8 Se6 Se11 Se5 -28(4) . . . 7 ?
Se8 Se6 Se11 Se5 -78.2(18) 2 . . . ?
Se8 Se6 Se11 Se7 -9(3) 2 . . 2 ?
Se8 Se6 Se11 Se7 58(3) . . . 2 ?
Se8 Se6 Se11 Se7 -21(4) 11 . . 2 ?
Se8 Se6 Se11 Se9 -2(7) 11 . . 9 ?
Se8 Se6 Se11 Se9 78(6) . . . 9 ?
Se8 Se6 Se11 Se9 -134(4) 2 . . . ?
Se8 Se6 Se11 Se9 10(6) 2 . . 9 ?
Se8 Se6 Se11 Se9 -147(4) 11 . . . ?
Se8 Se6 Se11 Se9 -67(4) . . . . ?
Se8 Se6 Se11 Se11 -51(12) . . . 9 ?
Se8 Se6 Se11 Se11 -119(11) 2 . . 9 ?
Se8 Se6 Se11 Se11 -131(11) 11 . . 9 ?
Se8 Se6 Se11 Se12 -72(3) 11 . . . ?
Se8 Se6 Se11 Se12 8(3) . . . . ?
Se8 Se6 Se11 Se12 -59.4(18) 2 . . . ?
Se8 Se7 Se8 Se3 -94(6) 3 . . . ?
Se8 Se7 Se8 Se3 -159(3) 12 . . . ?
Se8 Se7 Se8 Se5 -174(3) 12 . . . ?
Se8 Se7 Se8 Se5 -109(5) 3 . . . ?
Se8 Se7 Se8 Se6 59(23) 3 . . 11 ?
Se8 Se7 Se8 Se6 -85(14) 3 . . . ?
Se8 Se7 Se8 Se6 -150(12) 12 . . . ?
Se8 Se7 Se8 Se6 -6(23) 12 . . 11 ?
Se8 Se7 Se8 Se6 65(6) 3 . . 3 ?
Se8 Se7 Se8 Se6 0(5) 12 . . 3 ?
Se8 Se7 Se8 Se7 -121(4) 12 . . 2 ?
Se8 Se7 Se8 Se7 -1(6) 12 . . 12 ?
Se8 Se7 Se8 Se7 64(7) 3 . . 12 ?
Se8 Se7 Se8 Se7 -56(7) 3 . . 2 ?
Se8 Se7 Se8 Se8 65(4) 3 . . 12 ?
Se8 Se7 Se8 Se8 -67(6) 12 . . 11 ?
Se8 Se7 Se8 Se8 -2(9) 3 . . 11 ?
Se8 Se7 Se8 Se10 41(5) 3 . . 3 ?
Se8 Se7 Se8 Se10 -7(13) 3 . . . ?
Se8 Se7 Se8 Se10 -24(4) 12 . . 3 ?
Se8 Se7 Se8 Se10 -72(10) 12 . . . ?
Se8 Se8 Se10 Se3 53(8) 12 . . 11 ?
Se8 Se8 Se10 Se3 -174(4) 12 . . . ?
Se8 Se8 Se10 Se3 108(7) 11 . . 11 ?
Se8 Se8 Se10 Se3 -118(4) 11 . . . ?
Se8 Se8 Se10 Se6 160(6) 12 . . . ?
Se8 Se8 Se10 Se6 140(8) 11 . . 11 ?
Se8 Se8 Se10 Se6 85(9) 12 . . 11 ?
Se8 Se8 Se10 Se6 -144(6) 11 . . . ?
Se8 Se8 Se10 Se7 -67(10) 12 . . . ?
Se8 Se8 Se10 Se7 -76(6) 11 . . 2 ?
Se8 Se8 Se10 Se7 80(5) 11 . . 12 ?
Se8 Se8 Se10 Se7 24(5) 12 . . 12 ?
Se8 Se8 Se10 Se7 -11(9) 11 . . . ?
Se8 Se8 Se10 Se7 -131(7) 12 . . 2 ?
Se8 Se8 Se10 Se7 -52(4) 12 . . 11 ?
Se8 Se8 Se10 Se7 3(3) 11 . . 11 ?
Se8 Se8 Se10 Se8 56(3) 11 . . 12 ?
Se8 Se8 Se10 Se8 -56(3) 12 . . 11 ?
Se8 Se8 Se10 Se8 -94(6) 12 . . 2 ?
Se8 Se8 Se10 Se8 -38(4) 11 . . 2 ?
Se9 Se3 Se6 Se5 89(4) 9 . . . ?
Se9 Se3 Se6 Se5 -49(7) . . . . ?
Se9 Se3 Se6 Se7 -117(8) . . . 2 ?
Se9 Se3 Se6 Se7 -70(9) . . . 12 ?
Se9 Se3 Se6 Se7 68(6) 9 . . 12 ?
Se9 Se3 Se6 Se7 22(4) 9 . . 2 ?
Se9 Se3 Se6 Se8 -53(8) . . . . ?
Se9 Se3 Se6 Se8 -133(7) . . . 11 ?
Se9 Se3 Se6 Se8 85(4) 9 . . . ?
Se9 Se3 Se6 Se8 15(4) 9 . . 2 ?
Se9 Se3 Se6 Se8 -123(7) . . . 2 ?
Se9 Se3 Se6 Se8 5(6) 9 . . 11 ?
Se9 Se3 Se6 Se9 138(10) 9 . . . ?
Se9 Se3 Se6 Se10 -92(8) . . . . ?
Se9 Se3 Se6 Se10 46(6) 9 . . . ?
Se9 Se3 Se6 Se11 -8(8) 9 . . . ?
Se9 Se3 Se6 Se11 -146(15) . . . . ?
Se9 Se3 Se8 Se5 -19(4) . . . . ?
Se9 Se3 Se8 Se5 46(4) 9 . . . ?
Se9 Se3 Se8 Se6 155(4) . . . 11 ?
Se9 Se3 Se8 Se6 -140(3) 9 . . 11 ?
Se9 Se3 Se8 Se6 156(5) . . . . ?
Se9 Se3 Se8 Se6 17(8) 9 . . 3 ?
Se9 Se3 Se8 Se6 -48(7) . . . 3 ?
Se9 Se3 Se8 Se6 -140(4) 9 . . . ?
Se9 Se3 Se8 Se7 169(5) . . . 12 ?
Se9 Se3 Se8 Se7 -47(4) 9 . . 2 ?
Se9 Se3 Se8 Se7 -32(6) . . . . ?
Se9 Se3 Se8 Se7 -126(4) 9 . . 12 ?
Se9 Se3 Se8 Se7 -112(5) . . . 2 ?
Se9 Se3 Se8 Se7 33(7) 9 . . . ?
Se9 Se3 Se8 Se8 -89(3) 9 . . 11 ?
Se9 Se3 Se8 Se8 -154(4) . . . 11 ?
Se9 Se3 Se8 Se8 -161(11) . . . 12 ?
Se9 Se3 Se8 Se8 -97(12) 9 . . 12 ?
Se9 Se3 Se8 Se10 -89(8) . . . 3 ?
Se9 Se3 Se8 Se10 -110(7) 9 . . . ?
Se9 Se3 Se8 Se10 -175(8) . . . . ?
Se9 Se3 Se8 Se10 -24(9) 9 . . 3 ?
Se9 Se3 Se9 Se3 7(3) 9 . . 9 ?
Se9 Se3 Se9 Se4 30(6) 9 . . 2 ?
Se9 Se3 Se9 Se5 -99.3(16) 9 . . . ?
Se9 Se3 Se9 Se5 -38.6(13) 9 . . 2 ?
Se9 Se3 Se9 Se5 -66(7) 9 . . 7 ?
Se9 Se3 Se9 Se7 -49(3) 9 . . 2 ?
Se9 Se3 Se9 Se7 -19(7) 9 . . 7 ?
Se9 Se3 Se9 Se11 10(4) 9 . . . ?
Se9 Se3 Se9 Se11 11(4) 9 . . 9 ?
Se9 Se3 Se9 Se12 -64(2) 9 . . . ?
Se9 Se3 Se10 Se3 125(8) . . . 11 ?
Se9 Se3 Se10 Se3 -152(3) 9 . . 11 ?
Se9 Se3 Se10 Se6 124(8) . . . 11 ?
Se9 Se3 Se10 Se6 -152(3) 9 . . 11 ?
Se9 Se3 Se10 Se6 -150(4) 9 . . . ?
Se9 Se3 Se10 Se6 126(9) . . . . ?
Se9 Se3 Se10 Se7 -85(8) . . . 2 ?
Se9 Se3 Se10 Se7 -8(9) . . . . ?
Se9 Se3 Se10 Se7 -1(4) 9 . . 2 ?
Se9 Se3 Se10 Se7 -113(6) . . . 11 ?
Se9 Se3 Se10 Se7 146(21) 9 . . 12 ?
Se9 Se3 Se10 Se7 -29(7) 9 . . 11 ?
Se9 Se3 Se10 Se7 76(3) 9 . . . ?
Se9 Se3 Se10 Se7 62(28) . . . 12 ?
Se9 Se3 Se10 Se8 -92(7) . . . 2 ?
Se9 Se3 Se10 Se8 1(15) . . . 12 ?
Se9 Se3 Se10 Se8 7(13) . . . . ?
Se9 Se3 Se10 Se8 -129(7) . . . 11 ?
Se9 Se3 Se10 Se8 -45(11) 9 . . 11 ?
Se9 Se3 Se10 Se8 -8(4) 9 . . 2 ?
Se9 Se3 Se10 Se8 91(6) 9 . . . ?
Se9 Se3 Se10 Se8 85(8) 9 . . 12 ?
Se9 Se3 Se11 Se3 9(13) . . . 9 ?
Se9 Se3 Se11 Se3 -128(22) 9 . . 9 ?
Se9 Se3 Se11 Se4 -59(16) . . . 2 ?
Se9 Se3 Se11 Se4 163(26) 9 . . 2 ?
Se9 Se3 Se11 Se5 61(3) . . . . ?
Se9 Se3 Se11 Se5 -77(13) 9 . . . ?
Se9 Se3 Se11 Se5 111(4) . . . 2 ?
Se9 Se3 Se11 Se5 -103(13) 9 . . 7 ?
Se9 Se3 Se11 Se5 35(3) . . . 7 ?
Se9 Se3 Se11 Se5 -27(12) 9 . . 2 ?
Se9 Se3 Se11 Se6 21(21) 9 . . . ?
Se9 Se3 Se11 Se6 159(9) . . . . ?
Se9 Se3 Se11 Se7 -7(14) 9 . . 2 ?
Se9 Se3 Se11 Se7 131(4) . . . 2 ?
Se9 Se3 Se11 Se9 138(15) . . . 9 ?
Se9 Se3 Se11 Se9 -138(15) 9 . . . ?
Se9 Se3 Se11 Se11 -2(6) . . . 9 ?
Se9 Se3 Se11 Se11 -139(16) 9 . . 9 ?
Se9 Se3 Se11 Se12 -65(12) 9 . . . ?
Se9 Se3 Se11 Se12 73(4) . . . . ?
Se9 Se4 Se5 Se3 54(4) 3 . . 3 ?
Se9 Se4 Se5 Se3 -159(7) 7 . . 3 ?
Se9 Se4 Se5 Se5 -95(4) 3 . . 7 ?
Se9 Se4 Se5 Se5 52(5) 7 . . 7 ?
Se9 Se4 Se5 Se5 -38(5) 3 . . 2 ?
Se9 Se4 Se5 Se5 -2(4) 3 . . 3 ?
Se9 Se4 Se5 Se5 109(6) 7 . . 2 ?
Se9 Se4 Se5 Se5 145(5) 7 . . 3 ?
Se9 Se4 Se5 Se7 71(5) 3 . . . ?
Se9 Se4 Se5 Se7 -142(7) 7 . . . ?
Se9 Se4 Se5 Se8 -111(6) 7 . . . ?
Se9 Se4 Se5 Se8 101(6) 3 . . . ?
Se9 Se4 Se5 Se9 19(6) 7 . . . ?
Se9 Se4 Se5 Se9 -128(5) 3 . . . ?
Se9 Se4 Se5 Se9 -147(6) 3 . . 7 ?
Se9 Se4 Se5 Se11 57(5) 3 . . 3 ?
Se9 Se4 Se5 Se11 -156(9) 7 . . 3 ?
Se9 Se4 Se5 Se12 100(6) 7 . . . ?
Se9 Se4 Se5 Se12 -47(4) 3 . . . ?
Se9 Se4 Se7 Se3 178(8) 7 . . 3 ?
Se9 Se4 Se7 Se3 49(4) 3 . . 3 ?
Se9 Se4 Se7 Se5 98(6) 7 . . 3 ?
Se9 Se4 Se7 Se5 28(6) 7 . . . ?
Se9 Se4 Se7 Se5 -101(7) 3 . . . ?
Se9 Se4 Se7 Se5 -30(5) 3 . . 3 ?
Se9 Se4 Se7 Se6 63(7) 3 . . 12 ?
Se9 Se4 Se7 Se6 -172(5) 7 . . 3 ?
Se9 Se4 Se7 Se6 59(6) 3 . . 3 ?
Se9 Se4 Se7 Se6 -168(5) 7 . . 12 ?
Se9 Se4 Se7 Se8 1(7) 3 . . 3 ?
Se9 Se4 Se7 Se8 -145(7) 3 . . . ?
Se9 Se4 Se7 Se8 -110(11) 7 . . 12 ?
Se9 Se4 Se7 Se8 129(6) 7 . . 3 ?
Se9 Se4 Se7 Se8 121(12) 3 . . 12 ?
Se9 Se4 Se7 Se8 -16(9) 7 . . . ?
Se9 Se4 Se7 Se9 128(10) 7 . . 3 ?
Se9 Se4 Se7 Se10 50(9) 3 . . 3 ?
Se9 Se4 Se7 Se10 178(6) 7 . . 3 ?
Se9 Se4 Se7 Se11 37(21) 3 . . 3 ?
Se9 Se4 Se7 Se11 165(28) 7 . . 3 ?
Se9 Se5 Se7 Se3 -42(6) 7 . . 3 ?
Se9 Se5 Se7 Se3 -170(6) . . . 3 ?
Se9 Se5 Se7 Se4 -149(8) . . . . ?
Se9 Se5 Se7 Se4 -21(4) 7 . . . ?
Se9 Se5 Se7 Se5 119(7) . . . 3 ?
Se9 Se5 Se7 Se5 -114(4) 7 . . 3 ?
Se9 Se5 Se7 Se6 105(19) . . . 12 ?
Se9 Se5 Se7 Se6 168(6) . . . 3 ?
Se9 Se5 Se7 Se6 -64(10) 7 . . 3 ?
Se9 Se5 Se7 Se6 -127(17) 7 . . 12 ?
Se9 Se5 Se7 Se8 3(12) . . . 12 ?
Se9 Se5 Se7 Se8 -3(9) . . . . ?
Se9 Se5 Se7 Se8 98(8) . . . 3 ?
Se9 Se5 Se7 Se8 -134(5) 7 . . 3 ?
Se9 Se5 Se7 Se8 124(5) 7 . . . ?
Se9 Se5 Se7 Se8 131(6) 7 . . 12 ?
Se9 Se5 Se7 Se9 -179(7) . . . 3 ?
Se9 Se5 Se7 Se9 -51(5) 7 . . 3 ?
Se9 Se5 Se7 Se10 79(16) . . . 3 ?
Se9 Se5 Se7 Se10 -154(12) 7 . . 3 ?
Se9 Se5 Se7 Se11 -27(5) 7 . . 3 ?
Se9 Se5 Se7 Se11 -155(7) . . . 3 ?
Se9 Se5 Se8 Se3 11(2) . . . . ?
Se9 Se5 Se8 Se3 112(5) 7 . . . ?
Se9 Se5 Se8 Se6 103(8) 7 . . 11 ?
Se9 Se5 Se8 Se6 -84(5) 7 . . 3 ?
Se9 Se5 Se8 Se6 3(6) . . . 11 ?
Se9 Se5 Se8 Se6 176(3) . . . 3 ?
Se9 Se5 Se8 Se6 109(6) 7 . . . ?
Se9 Se5 Se8 Se6 9(4) . . . . ?
Se9 Se5 Se8 Se7 178(5) . . . . ?
Se9 Se5 Se8 Se7 148(5) 7 . . 2 ?
Se9 Se5 Se8 Se7 -81(6) 7 . . . ?
Se9 Se5 Se8 Se7 48(4) . . . 2 ?
Se9 Se5 Se8 Se8 64(3) . . . 11 ?
Se9 Se5 Se8 Se8 -88(5) 7 . . 12 ?
Se9 Se5 Se8 Se8 171(3) . . . 12 ?
Se9 Se5 Se8 Se8 165(4) 7 . . 11 ?
Se9 Se5 Se8 Se10 -101(6) 7 . . 3 ?
Se9 Se5 Se8 Se10 159(4) . . . 3 ?
Se9 Se5 Se8 Se10 36(11) . . . . ?
Se9 Se5 Se8 Se10 137(11) 7 . . . ?
Se9 Se5 Se9 Se3 -146(3) 7 . . . ?
Se9 Se5 Se9 Se3 97(6) 7 . . 9 ?
Se9 Se5 Se9 Se4 144(8) 7 . . 2 ?
Se9 Se5 Se9 Se5 147(4) 7 . . 2 ?
Se9 Se5 Se9 Se5 61(5) 7 . . 7 ?
Se9 Se5 Se9 Se7 -172(4) 7 . . 2 ?
Se9 Se5 Se9 Se7 70(5) 7 . . 7 ?
Se9 Se5 Se9 Se9 132(7) 7 . . 9 ?
Se9 Se5 Se9 Se11 106(8) 7 . . 9 ?
Se9 Se5 Se9 Se11 175(7) 7 . . . ?
Se9 Se5 Se9 Se12 101(4) 7 . . . ?
Se9 Se5 Se12 Se5 34(3) 7 . . 8 ?
Se9 Se5 Se12 Se5 -104(3) 7 . . 9 ?
Se9 Se5 Se12 Se5 -154(4) 7 . . 2 ?
Se9 Se5 Se12 Se5 117(4) 7 . . 3 ?
Se9 Se5 Se12 Se5 -14(2) . . . 9 ?
Se9 Se5 Se12 Se5 -54(3) 7 . . 7 ?
Se9 Se5 Se12 Se5 -64(3) . . . 2 ?
Se9 Se5 Se12 Se5 36(3) . . . 7 ?
Se9 Se5 Se12 Se5 124(3) . . . 8 ?
Se9 Se5 Se12 Se5 -153(3) . . . 3 ?
Se9 Se5 Se12 Se9 97(3) 7 . . 8 ?
Se9 Se5 Se12 Se9 147(3) . . . 3 ?
Se9 Se5 Se12 Se9 -27(5) . . . 9 ?
Se9 Se5 Se12 Se9 -173(3) . . . 8 ?
Se9 Se5 Se12 Se9 -117(3) 7 . . 9 ?
Se9 Se5 Se12 Se9 -90(5) 7 . . . ?
Se9 Se5 Se12 Se9 56(5) 7 . . 3 ?
Se9 Se5 Se12 Se9 -105(3) . . . 2 ?
Se9 Se5 Se12 Se9 90(5) . . . 7 ?
Se9 Se5 Se12 Se9 165(6) 7 . . 2 ?
Se9 Se6 Se8 Se3 -13(3) . . . . ?
Se9 Se6 Se8 Se5 -8(3) . . . . ?
Se9 Se6 Se8 Se6 -102(18) . . . 3 ?
Se9 Se6 Se8 Se6 166(3) . . . 11 ?
Se9 Se6 Se8 Se7 -28(13) . . . . ?
Se9 Se6 Se8 Se7 -66(3) . . . 2 ?
Se9 Se6 Se8 Se7 179(3) . . . 12 ?
Se9 Se6 Se8 Se8 -129(3) . . . 11 ?
Se9 Se6 Se8 Se8 -171(3) . . . 12 ?
Se9 Se6 Se8 Se10 -145(7) . . . . ?
Se9 Se6 Se8 Se10 -124(6) . . . 3 ?
Se9 Se6 Se10 Se3 -20(3) . . . . ?
Se9 Se6 Se10 Se3 159(3) . . . 11 ?
Se9 Se6 Se10 Se6 158(4) . . . 11 ?
Se9 Se6 Se10 Se7 31(5) . . . . ?
Se9 Se6 Se10 Se7 -98(7) . . . 11 ?
Se9 Se6 Se10 Se7 131(8) . . . 12 ?
Se9 Se6 Se10 Se7 -42(4) . . . 2 ?
Se9 Se6 Se10 Se8 70(14) . . . 12 ?
Se9 Se6 Se10 Se8 43(8) . . . . ?
Se9 Se6 Se10 Se8 -108(7) . . . 11 ?
Se9 Se6 Se10 Se8 -58(3) . . . 2 ?
Se9 Se6 Se11 Se3 -21(9) . . . . ?
Se9 Se6 Se11 Se4 -76(14) . . . 2 ?
Se9 Se6 Se11 Se5 56(3) . . . . ?
Se9 Se6 Se11 Se5 39(3) . . . 7 ?
Se9 Se6 Se11 Se5 112(4) . . . 2 ?
Se9 Se6 Se11 Se7 125(5) . . . 2 ?
Se9 Se6 Se11 Se9 145(9) . . . 9 ?
Se9 Se6 Se11 Se11 16(10) . . . 9 ?
Se9 Se6 Se11 Se12 75(4) . . . . ?
Se9 Se7 Se8 Se3 23(12) 3 . . . ?
Se9 Se7 Se8 Se5 7(8) 3 . . . ?
Se9 Se7 Se8 Se6 -178(14) 3 . . 3 ?
Se9 Se7 Se8 Se6 176(15) 3 . . 11 ?
Se9 Se7 Se8 Se6 32(20) 3 . . . ?
Se9 Se7 Se8 Se7 61(11) 3 . . 2 ?
Se9 Se7 Se8 Se7 -179(4) 3 . . 12 ?
Se9 Se7 Se8 Se8 -178(9) 3 . . 12 ?
Se9 Se7 Se8 Se8 115(8) 3 . . 11 ?
Se9 Se7 Se8 Se10 158(10) 3 . . 3 ?
Se9 Se7 Se8 Se10 109(12) 3 . . . ?
Se9 Se9 Se11 Se3 166(6) 9 . . . ?
Se9 Se9 Se11 Se3 -12(4) 9 . . 9 ?
Se9 Se9 Se11 Se4 -43(10) 9 . . 2 ?
Se9 Se9 Se11 Se5 63(5) 9 . . 2 ?
Se9 Se9 Se11 Se5 100(4) 9 . . . ?
Se9 Se9 Se11 Se5 38(7) 9 . . 7 ?
Se9 Se9 Se11 Se6 161(5) 9 . . . ?
Se9 Se9 Se11 Se7 119(7) 9 . . 2 ?
Se9 Se9 Se11 Se11 -15(5) 9 . . 9 ?
Se9 Se9 Se11 Se12 62(4) 9 . . . ?
Se10 Se3 Se6 Se5 43(3) . . . . ?
Se10 Se3 Se6 Se7 22(3) . . . 12 ?
Se10 Se3 Se6 Se7 -24(3) . . . 2 ?
Se10 Se3 Se6 Se8 39(3) . . . . ?
Se10 Se3 Se6 Se8 -41(3) . . . 11 ?
Se10 Se3 Se6 Se8 -31(3) . . . 2 ?
Se10 Se3 Se6 Se9 92(8) . . . . ?
Se10 Se3 Se6 Se11 -54(11) . . . . ?
Se10 Se3 Se8 Se5 157(9) . . . . ?
Se10 Se3 Se8 Se6 -29(6) . . . . ?
Se10 Se3 Se8 Se6 127(12) . . . 3 ?
Se10 Se3 Se8 Se6 -30(6) . . . 11 ?
Se10 Se3 Se8 Se7 -16(6) . . . 12 ?
Se10 Se3 Se8 Se7 143(11) . . . . ?
Se10 Se3 Se8 Se7 63(7) . . . 2 ?
Se10 Se3 Se8 Se8 14(13) . . . 12 ?
Se10 Se3 Se8 Se8 22(7) . . . 11 ?
Se10 Se3 Se8 Se10 87(14) . . . 3 ?
Se10 Se3 Se9 Se3 116(8) . . . 9 ?
Se10 Se3 Se9 Se4 138(10) . . . 2 ?
Se10 Se3 Se9 Se5 70(8) . . . 2 ?
Se10 Se3 Se9 Se5 42(13) . . . 7 ?
Se10 Se3 Se9 Se5 9(8) . . . . ?
Se10 Se3 Se9 Se7 60(7) . . . 2 ?
Se10 Se3 Se9 Se7 89(11) . . . 7 ?
Se10 Se3 Se9 Se9 109(8) . . . 9 ?
Se10 Se3 Se9 Se11 119(9) . . . . ?
Se10 Se3 Se9 Se11 119(8) . . . 9 ?
Se10 Se3 Se9 Se12 44(9) . . . . ?
Se10 Se3 Se11 Se3 -119(14) . . . 9 ?
Se10 Se3 Se11 Se4 173(14) . . . 2 ?
Se10 Se3 Se11 Se5 -67(5) . . . . ?
Se10 Se3 Se11 Se5 -17(6) . . . 2 ?
Se10 Se3 Se11 Se5 -93(6) . . . 7 ?
Se10 Se3 Se11 Se6 31(7) . . . . ?
Se10 Se3 Se11 Se7 3(5) . . . 2 ?
Se10 Se3 Se11 Se9 -128(5) . . . . ?
Se10 Se3 Se11 Se9 10(17) . . . 9 ?
Se10 Se3 Se11 Se11 -130(7) . . . 9 ?
Se10 Se3 Se11 Se12 -55(6) . . . . ?
Se10 Se6 Se8 Se3 132(7) . . . . ?
Se10 Se6 Se8 Se5 138(9) . . . . ?
Se10 Se6 Se8 Se6 -49(7) . . . 11 ?
Se10 Se6 Se8 Se6 43(20) . . . 3 ?
Se10 Se6 Se8 Se7 117(18) . . . . ?
Se10 Se6 Se8 Se7 79(7) . . . 2 ?
Se10 Se6 Se8 Se7 -35(7) . . . 12 ?
Se10 Se6 Se8 Se8 -25(7) . . . 12 ?
Se10 Se6 Se8 Se8 17(7) . . . 11 ?
Se10 Se6 Se8 Se10 22(7) . . . 3 ?
Se10 Se6 Se11 Se3 -131(10) . . . . ?
Se10 Se6 Se11 Se4 174(13) . . . 2 ?
Se10 Se6 Se11 Se5 2(3) . . . 2 ?
Se10 Se6 Se11 Se5 -70(4) . . . 7 ?
Se10 Se6 Se11 Se5 -54(2) . . . . ?
Se10 Se6 Se11 Se7 15(3) . . . 2 ?
Se10 Se6 Se11 Se9 -110(4) . . . . ?
Se10 Se6 Se11 Se9 35(7) . . . 9 ?
Se10 Se6 Se11 Se11 -94(12) . . . 9 ?
Se10 Se6 Se11 Se12 -35(3) . . . . ?
Se10 Se7 Se8 Se3 -135(6) 3 . . . ?
Se10 Se7 Se8 Se5 -151(5) 3 . . . ?
Se10 Se7 Se8 Se6 -126(14) 3 . . . ?
Se10 Se7 Se8 Se6 18(22) 3 . . 11 ?
Se10 Se7 Se8 Se6 24(5) 3 . . 3 ?
Se10 Se7 Se8 Se7 23(7) 3 . . 12 ?
Se10 Se7 Se8 Se7 -97(6) 3 . . 2 ?
Se10 Se7 Se8 Se8 24(4) 3 . . 12 ?
Se10 Se7 Se8 Se8 -43(7) 3 . . 11 ?
Se10 Se7 Se8 Se10 -49(12) 3 . . . ?
Se10 Se8 Se10 Se3 -141(3) 3 . . . ?
Se10 Se8 Se10 Se3 86(11) 3 . . 11 ?
Se10 Se8 Se10 Se6 -167(3) 3 . . . ?
Se10 Se8 Se10 Se6 117(11) 3 . . 11 ?
Se10 Se8 Se10 Se7 57(8) 3 . . 12 ?
Se10 Se8 Se10 Se7 -99(5) 3 . . 2 ?
Se10 Se8 Se10 Se7 -20(6) 3 . . 11 ?
Se10 Se8 Se10 Se7 -34(9) 3 . . . ?
Se10 Se8 Se10 Se8 -23(3) 3 . . 11 ?
Se10 Se8 Se10 Se8 33(4) 3 . . 12 ?
Se10 Se8 Se10 Se8 -61(4) 3 . . 2 ?
Se11 Se3 Se6 Se5 97(10) . . . . ?
Se11 Se3 Se6 Se7 30(10) . . . 2 ?
Se11 Se3 Se6 Se7 76(11) . . . 12 ?
Se11 Se3 Se6 Se8 93(10) . . . . ?
Se11 Se3 Se6 Se8 13(11) . . . 11 ?
Se11 Se3 Se6 Se8 23(10) . . . 2 ?
Se11 Se3 Se6 Se9 146(15) . . . . ?
Se11 Se3 Se6 Se10 54(11) . . . . ?
Se11 Se3 Se8 Se5 34(5) . . . . ?
Se11 Se3 Se8 Se5 16(3) 9 . . . ?
Se11 Se3 Se8 Se6 -13(7) 9 . . 3 ?
Se11 Se3 Se8 Se6 -152(5) . . . 11 ?
Se11 Se3 Se8 Se6 -169(3) 9 . . . ?
Se11 Se3 Se8 Se6 5(8) . . . 3 ?
Se11 Se3 Se8 Se6 -151(6) . . . . ?
Se11 Se3 Se8 Se6 -170.0(19) 9 . . 11 ?
Se11 Se3 Se8 Se7 -156(3) 9 . . 12 ?
Se11 Se3 Se8 Se7 3(7) 9 . . . ?
Se11 Se3 Se8 Se7 -138(5) . . . 12 ?
Se11 Se3 Se8 Se7 -77(4) 9 . . 2 ?
Se11 Se3 Se8 Se7 -59(5) . . . 2 ?
Se11 Se3 Se8 Se7 21(8) . . . . ?
Se11 Se3 Se8 Se8 -119(2) 9 . . 11 ?
Se11 Se3 Se8 Se8 -108(12) . . . 12 ?
Se11 Se3 Se8 Se8 -101(5) . . . 11 ?
Se11 Se3 Se8 Se8 -126(11) 9 . . 12 ?
Se11 Se3 Se8 Se10 -36(10) . . . 3 ?
Se11 Se3 Se8 Se10 -140(7) 9 . . . ?
Se11 Se3 Se8 Se10 -54(9) 9 . . 3 ?
Se11 Se3 Se8 Se10 -122(8) . . . . ?
Se11 Se3 Se9 Se3 -3(4) . . . 9 ?
Se11 Se3 Se9 Se3 -3.6(18) 9 . . 9 ?
Se11 Se3 Se9 Se4 20(6) . . . 2 ?
Se11 Se3 Se9 Se4 19(6) 9 . . 2 ?
Se11 Se3 Se9 Se5 -110(4) 9 . . . ?
Se11 Se3 Se9 Se5 -77(7) 9 . . 7 ?
Se11 Se3 Se9 Se5 -49(4) 9 . . 2 ?
Se11 Se3 Se9 Se5 -49(4) . . . 2 ?
Se11 Se3 Se9 Se5 -109(4) . . . . ?
Se11 Se3 Se9 Se5 -76(7) . . . 7 ?
Se11 Se3 Se9 Se7 -60(5) 9 . . 2 ?
Se11 Se3 Se9 Se7 -30(5) 9 . . 7 ?
Se11 Se3 Se9 Se7 -29(6) . . . 7 ?
Se11 Se3 Se9 Se7 -59(5) . . . 2 ?
Se11 Se3 Se9 Se9 -10(4) . . . 9 ?
Se11 Se3 Se9 Se9 -11(4) 9 . . 9 ?
Se11 Se3 Se9 Se11 1(3) . . . 9 ?
Se11 Se3 Se9 Se11 -1(3) 9 . . . ?
Se11 Se3 Se9 Se12 -75(4) 9 . . . ?
Se11 Se3 Se9 Se12 -74(4) . . . . ?
Se11 Se3 Se10 Se3 -154(5) . . . 11 ?
Se11 Se3 Se10 Se3 -174(3) 9 . . 11 ?
Se11 Se3 Se10 Se6 -175(2) 9 . . 11 ?
Se11 Se3 Se10 Se6 -155(5) . . . 11 ?
Se11 Se3 Se10 Se6 -153(7) . . . . ?
Se11 Se3 Se10 Se6 -173(5) 9 . . . ?
Se11 Se3 Se10 Se7 123(22) 9 . . 12 ?
Se11 Se3 Se10 Se7 -4(6) . . . 2 ?
Se11 Se3 Se10 Se7 143(21) . . . 12 ?
Se11 Se3 Se10 Se7 73(5) . . . . ?
Se11 Se3 Se10 Se7 -24(4) 9 . . 2 ?
Se11 Se3 Se10 Se7 -32(9) . . . 11 ?
Se11 Se3 Se10 Se7 -52(6) 9 . . 11 ?
Se11 Se3 Se10 Se7 53(3) 9 . . . ?
Se11 Se3 Se10 Se8 -68(10) 9 . . 11 ?
Se11 Se3 Se10 Se8 62(9) 9 . . 12 ?
Se11 Se3 Se10 Se8 68(6) 9 . . . ?
Se11 Se3 Se10 Se8 -31(4) 9 . . 2 ?
Se11 Se3 Se10 Se8 -48(12) . . . 11 ?
Se11 Se3 Se10 Se8 -11(7) . . . 2 ?
Se11 Se3 Se10 Se8 89(6) . . . . ?
Se11 Se3 Se10 Se8 82(8) . . . 12 ?
Se11 Se3 Se11 Se3 11(8) 9 . . 9 ?
Se11 Se3 Se11 Se4 -58(17) 9 . . 2 ?
Se11 Se3 Se11 Se5 36(5) 9 . . 7 ?
Se11 Se3 Se11 Se5 112(7) 9 . . 2 ?
Se11 Se3 Se11 Se5 63(7) 9 . . . ?
Se11 Se3 Se11 Se6 161(7) 9 . . . ?
Se11 Se3 Se11 Se7 132(6) 9 . . 2 ?
Se11 Se3 Se11 Se9 2(6) 9 . . . ?
Se11 Se3 Se11 Se9 139(16) 9 . . 9 ?
Se11 Se3 Se11 Se12 74(6) 9 . . . ?
Se11 Se4 Se5 Se3 147(7) 7 . . 3 ?
Se11 Se4 Se5 Se3 -3(5) 3 . . 3 ?
Se11 Se4 Se5 Se5 91(5) 7 . . 3 ?
Se11 Se4 Se5 Se5 -2(5) 7 . . 7 ?
Se11 Se4 Se5 Se5 -153(6) 3 . . 7 ?
Se11 Se4 Se5 Se5 -96(8) 3 . . 2 ?
Se11 Se4 Se5 Se5 54(5) 7 . . 2 ?
Se11 Se4 Se5 Se5 -59(7) 3 . . 3 ?
Se11 Se4 Se5 Se7 164(6) 7 . . . ?
Se11 Se4 Se5 Se7 14(7) 3 . . . ?
Se11 Se4 Se5 Se8 44(7) 3 . . . ?
Se11 Se4 Se5 Se8 -166(6) 7 . . . ?
Se11 Se4 Se5 Se9 156(9) 3 . . 7 ?
Se11 Se4 Se5 Se9 175(6) 3 . . . ?
Se11 Se4 Se5 Se9 -35(7) 7 . . . ?
Se11 Se4 Se5 Se9 -54(4) 7 . . 7 ?
Se11 Se4 Se5 Se11 150(10) 7 . . 3 ?
Se11 Se4 Se5 Se12 -104(7) 3 . . . ?
Se11 Se4 Se5 Se12 46(5) 7 . . . ?
Se11 Se4 Se7 Se3 131(7) 7 . . 3 ?
Se11 Se4 Se7 Se3 12(22) 3 . . 3 ?
Se11 Se4 Se7 Se5 -67(24) 3 . . 3 ?
Se11 Se4 Se7 Se5 -19(6) 7 . . . ?
Se11 Se4 Se7 Se5 52(6) 7 . . 3 ?
Se11 Se4 Se7 Se5 -138(26) 3 . . . ?
Se11 Se4 Se7 Se6 145(4) 7 . . 12 ?
Se11 Se4 Se7 Se6 26(26) 3 . . 12 ?
Se11 Se4 Se7 Se6 22(24) 3 . . 3 ?
Se11 Se4 Se7 Se6 142(5) 7 . . 3 ?
Se11 Se4 Se7 Se8 -62(9) 7 . . . ?
Se11 Se4 Se7 Se8 -36(26) 3 . . 3 ?
Se11 Se4 Se7 Se8 83(7) 7 . . 3 ?
Se11 Se4 Se7 Se8 84(26) 3 . . 12 ?
Se11 Se4 Se7 Se8 178(24) 3 . . . ?
Se11 Se4 Se7 Se8 -157(11) 7 . . 12 ?
Se11 Se4 Se7 Se9 -37(21) 3 . . 3 ?
Se11 Se4 Se7 Se9 82(9) 7 . . 3 ?
Se11 Se4 Se7 Se10 13(27) 3 . . 3 ?
Se11 Se4 Se7 Se10 132(5) 7 . . 3 ?
Se11 Se4 Se7 Se11 119(28) 7 . . 3 ?
Se11 Se5 Se7 Se3 -16(3) 3 . . 3 ?
Se11 Se5 Se7 Se4 6(3) 3 . . . ?
Se11 Se5 Se7 Se5 -87(3) 3 . . 3 ?
Se11 Se5 Se7 Se6 -37(8) 3 . . 3 ?
Se11 Se5 Se7 Se6 -100(19) 3 . . 12 ?
Se11 Se5 Se7 Se8 151(5) 3 . . . ?
Se11 Se5 Se7 Se8 -107(5) 3 . . 3 ?
Se11 Se5 Se7 Se8 158(7) 3 . . 12 ?
Se11 Se5 Se7 Se9 -25(2) 3 . . 3 ?
Se11 Se5 Se7 Se10 -127(14) 3 . . 3 ?
Se11 Se5 Se8 Se3 168(3) 3 . . . ?
Se11 Se5 Se8 Se6 165(3) 3 . . . ?
Se11 Se5 Se8 Se6 -28(3) 3 . . 3 ?
Se11 Se5 Se8 Se6 159(6) 3 . . 11 ?
Se11 Se5 Se8 Se7 -156(4) 3 . . 2 ?
Se11 Se5 Se8 Se7 -25(4) 3 . . . ?
Se11 Se5 Se8 Se8 -32(4) 3 . . 12 ?
Se11 Se5 Se8 Se8 -139(3) 3 . . 11 ?
Se11 Se5 Se8 Se10 -45(5) 3 . . 3 ?
Se11 Se5 Se8 Se10 -168(10) 3 . . . ?
Se11 Se5 Se9 Se3 90(5) 3 . . 9 ?
Se11 Se5 Se9 Se3 -153(5) 3 . . . ?
Se11 Se5 Se9 Se4 137(5) 3 . . 2 ?
Se11 Se5 Se9 Se5 54(6) 3 . . 7 ?
Se11 Se5 Se9 Se5 139(4) 3 . . 2 ?
Se11 Se5 Se9 Se7 -179(5) 3 . . 2 ?
Se11 Se5 Se9 Se7 63(5) 3 . . 7 ?
Se11 Se5 Se9 Se9 125(5) 3 . . 9 ?
Se11 Se5 Se9 Se11 168(6) 3 . . . ?
Se11 Se5 Se9 Se11 99(6) 3 . . 9 ?
Se11 Se5 Se9 Se12 94(5) 3 . . . ?
Se11 Se5 Se12 Se5 150(3) 3 . . 2 ?
Se11 Se5 Se12 Se5 -110(4) 3 . . 7 ?
Se11 Se5 Se12 Se5 62(4) 3 . . 3 ?
Se11 Se5 Se12 Se5 -160(3) 3 . . 9 ?
Se11 Se5 Se12 Se5 -22(3) 3 . . 8 ?
Se11 Se5 Se12 Se9 -173(4) 3 . . 9 ?
Se11 Se5 Se12 Se9 -146(4) 3 . . . ?
Se11 Se5 Se12 Se9 110(5) 3 . . 2 ?
Se11 Se5 Se12 Se9 42(4) 3 . . 8 ?
Se11 Se5 Se12 Se9 -55(4) 3 . . 7 ?
Se11 Se5 Se12 Se9 1(4) 3 . . 3 ?
Se11 Se6 Se8 Se3 10(2) . . . . ?
Se11 Se6 Se8 Se5 16(4) . . . . ?
Se11 Se6 Se8 Se6 -79(18) . . . 3 ?
Se11 Se6 Se8 Se6 -171(3) . . . 11 ?
Se11 Se6 Se8 Se7 -157(3) . . . 12 ?
Se11 Se6 Se8 Se7 -43(3) . . . 2 ?
Se11 Se6 Se8 Se7 -5(14) . . . . ?
Se11 Se6 Se8 Se8 -147(3) . . . 12 ?
Se11 Se6 Se8 Se8 -105(2) . . . 11 ?
Se11 Se6 Se8 Se10 -122(7) . . . . ?
Se11 Se6 Se8 Se10 -100(6) . . . 3 ?
Se11 Se6 Se10 Se3 9(2) . . . . ?
Se11 Se6 Se10 Se3 -171.7(19) . . . 11 ?
Se11 Se6 Se10 Se6 -173(4) . . . 11 ?
Se11 Se6 Se10 Se7 60(4) . . . . ?
Se11 Se6 Se10 Se7 -69(8) . . . 11 ?
Se11 Se6 Se10 Se7 160(6) . . . 12 ?
Se11 Se6 Se10 Se7 -12(3) . . . 2 ?
Se11 Se6 Se10 Se8 -79(9) . . . 11 ?
Se11 Se6 Se10 Se8 99(13) . . . 12 ?
Se11 Se6 Se10 Se8 -29(4) . . . 2 ?
Se11 Se6 Se10 Se8 73(6) . . . . ?
Se11 Se7 Se8 Se3 56(9) 3 . . . ?
Se11 Se7 Se8 Se5 40(5) 3 . . . ?
Se11 Se7 Se8 Se6 -152(18) 3 . . 11 ?
Se11 Se7 Se8 Se6 -146(11) 3 . . 3 ?
Se11 Se7 Se8 Se6 65(16) 3 . . . ?
Se11 Se7 Se8 Se7 94(7) 3 . . 2 ?
Se11 Se7 Se8 Se7 -147(4) 3 . . 12 ?
Se11 Se7 Se8 Se8 148(5) 3 . . 11 ?
Se11 Se7 Se8 Se8 -145(7) 3 . . 12 ?
Se11 Se7 Se8 Se10 142(8) 3 . . . ?
Se11 Se7 Se8 Se10 -169(8) 3 . . 3 ?
Se11 Se9 Se11 Se3 -179(3) 9 . . . ?
Se11 Se9 Se11 Se3 3.2(15) 9 . . 9 ?
Se11 Se9 Se11 Se4 -28(9) 9 . . 2 ?
Se11 Se9 Se11 Se5 115(3) 9 . . . ?
Se11 Se9 Se11 Se5 79(6) 9 . . 2 ?
Se11 Se9 Se11 Se5 53(4) 9 . . 7 ?
Se11 Se9 Se11 Se6 176.3(14) 9 . . . ?
Se11 Se9 Se11 Se7 134(6) 9 . . 2 ?
Se11 Se9 Se11 Se9 15(5) 9 . . 9 ?
Se11 Se9 Se11 Se12 77.2(19) 9 . . . ?
Se12 Se4 Se5 Se3 101(3) . . . 3 ?
Se12 Se4 Se5 Se5 9(2) . . . 2 ?
Se12 Se4 Se5 Se5 45.3(12) . . . 3 ?
Se12 Se4 Se5 Se5 -48.1(15) . . . 7 ?
Se12 Se4 Se5 Se7 118(4) . . . . ?
Se12 Se4 Se5 Se8 149(4) . . . . ?
Se12 Se4 Se5 Se9 -100(6) . . . 7 ?
Se12 Se4 Se5 Se9 -81(3) . . . . ?
Se12 Se4 Se5 Se11 104(7) . . . 3 ?
Se12 Se4 Se7 Se3 115(4) . . . 3 ?
Se12 Se4 Se7 Se5 35.8(13) . . . 3 ?
Se12 Se4 Se7 Se5 -35(2) . . . . ?
Se12 Se4 Se7 Se6 125(3) . . . 3 ?
Se12 Se4 Se7 Se6 129(3) . . . 12 ?
Se12 Se4 Se7 Se8 67(4) . . . 3 ?
Se12 Se4 Se7 Se8 -173(11) . . . 12 ?
Se12 Se4 Se7 Se8 -79(5) . . . . ?
Se12 Se4 Se7 Se9 66(5) . . . 3 ?
Se12 Se4 Se7 Se10 115(6) . . . 3 ?
Se12 Se4 Se7 Se11 103(25) . . . 3 ?
Se12 Se5 Se7 Se3 71(4) . . . 3 ?
Se12 Se5 Se7 Se4 93(3) . . . . ?
Se12 Se5 Se7 Se5 0(3) . . . 3 ?
Se12 Se5 Se7 Se6 -14(21) . . . 12 ?
Se12 Se5 Se7 Se6 49(10) . . . 3 ?
Se12 Se5 Se7 Se8 -115(6) . . . 12 ?
Se12 Se5 Se7 Se8 -122(4) . . . . ?
Se12 Se5 Se7 Se8 -21(6) . . . 3 ?
Se12 Se5 Se7 Se9 62(4) . . . 3 ?
Se12 Se5 Se7 Se10 -40(15) . . . 3 ?
Se12 Se5 Se7 Se11 87(4) . . . 3 ?
Se12 Se5 Se8 Se3 -72(4) . . . . ?
Se12 Se5 Se8 Se6 92(4) . . . 3 ?
Se12 Se5 Se8 Se6 -75(5) . . . . ?
Se12 Se5 Se8 Se6 -81(7) . . . 11 ?
Se12 Se5 Se8 Se7 -36(5) . . . 2 ?
Se12 Se5 Se8 Se7 95(5) . . . . ?
Se12 Se5 Se8 Se8 88(5) . . . 12 ?
Se12 Se5 Se8 Se8 -19(5) . . . 11 ?
Se12 Se5 Se8 Se10 75(6) . . . 3 ?
Se12 Se5 Se8 Se10 -47(11) . . . . ?
Se12 Se5 Se9 Se3 113(4) . . . . ?
Se12 Se5 Se9 Se3 -3(3) . . . 9 ?
Se12 Se5 Se9 Se4 44(6) . . . 2 ?
Se12 Se5 Se9 Se5 -39(2) . . . 7 ?
Se12 Se5 Se9 Se5 45.9(18) . . . 2 ?
Se12 Se5 Se9 Se7 88(3) . . . 2 ?
Se12 Se5 Se9 Se7 -31(3) . . . 7 ?
Se12 Se5 Se9 Se9 31(4) . . . 9 ?
Se12 Se5 Se9 Se11 5(6) . . . 9 ?
Se12 Se5 Se9 Se11 75(6) . . . . ?
Se12 Se9 Se11 Se3 104(3) . . . . ?
Se12 Se9 Se11 Se3 -73.9(12) . . . 9 ?
Se12 Se9 Se11 Se4 -105(10) . . . 2 ?
Se12 Se9 Se11 Se5 37.6(17) . . . . ?
Se12 Se9 Se11 Se5 -25(4) . . . 7 ?
Se12 Se9 Se11 Se5 1(5) . . . 2 ?
Se12 Se9 Se11 Se6 99(2) . . . . ?
Se12 Se9 Se11 Se7 57(6) . . . 2 ?
Se12 Se9 Se11 Se9 -62(4) . . . 9 ?
Se12 Se9 Se11 Se11 -77.2(19) . . . 9 ?
loop_
_twin_individual_id
_twin_individual_mass_fraction_refined
1 0.979(14)
2 0.021(14)
