#------------------------------------------------------------------------------
#$Date: 2020-11-19 01:20:52 +0200 (Thu, 19 Nov 2020) $
#$Revision: 259174 $
#$URL: file:///home/coder/svn-repositories/cod/cif/4/00/37/4003707.cif $
#------------------------------------------------------------------------------
#
# This file is available in the Crystallography Open Database (COD),
# http://www.crystallography.net/
#
# All data on this site have been placed in the public domain by the
# contributors.
#
data_4003707
loop_
_publ_author_name
'Hodges, James M.'
'Xia, Yi'
'Malliakas, Christos D.'
'Slade, Tyler J.'
'Wolverton, Chris'
'Kanatzidis, Mercouri G.'
_publ_section_title
;
 Mixed-Valent Copper Chalcogenides: Tuning Structures and Electronic
 Properties Using Multiple Anions
;
_journal_name_full               'Chemistry of Materials'
_journal_paper_doi               10.1021/acs.chemmater.0c03620
_journal_year                    2020
_chemical_formula_moiety         '2(Cu2.11 K0.5 S Te0.5)'
_chemical_formula_sum            'Cu4.22 K S2 Te'
_chemical_formula_weight         498.96
_space_group_crystal_system      tetragonal
_space_group_IT_number           123
_space_group_name_Hall           '-P 4 2'
_space_group_name_H-M_alt        'P 4/m m m'
_audit_creation_date             2019-06-09
_audit_creation_method
;
Olex2 1.2
(compiled 2018.05.29 svn.r3508 for OlexSys, GUI svn.r5506)
;
_cell_angle_alpha                90
_cell_angle_beta                 90
_cell_angle_gamma                90
_cell_formula_units_Z            1
_cell_length_a                   3.889(3)
_cell_length_b                   3.889(3)
_cell_length_c                   10.269(8)
_cell_measurement_reflns_used    2198
_cell_measurement_temperature    300
_cell_measurement_theta_max      41.562
_cell_measurement_theta_min      3.969
_cell_volume                     155.3(2)
_computing_cell_refinement       'SAINT V8.38A (?, 2016)'
_computing_data_collection       'APEX2 V2017.3 (Bruker, 2017)'
_computing_data_reduction        'SAINT V8.38A (?, 2016)'
_computing_molecular_graphics    'Olex2 (Dolomanov et al., 2009)'
_computing_publication_material  'Olex2 (Dolomanov et al., 2009)'
_computing_structure_refinement  'XL (Sheldrick, 2008)'
_computing_structure_solution    'XT (Sheldrick, 2015)'
_diffrn_ambient_temperature      300
_diffrn_detector_area_resol_mean 8
_diffrn_measured_fraction_theta_full 1.000
_diffrn_measured_fraction_theta_max 0.958
_diffrn_measurement_device_type  'Bruker APEX-II CCD'
_diffrn_measurement_method       '\f and \w scans'
_diffrn_radiation_monochromator  Triumph
_diffrn_radiation_type           MoK\a
_diffrn_radiation_wavelength     0.71073
_diffrn_reflns_av_R_equivalents  0.0248
_diffrn_reflns_av_unetI/netI     0.0126
_diffrn_reflns_Laue_measured_fraction_full 1.000
_diffrn_reflns_Laue_measured_fraction_max 0.958
_diffrn_reflns_limit_h_max       5
_diffrn_reflns_limit_h_min       -7
_diffrn_reflns_limit_k_max       7
_diffrn_reflns_limit_k_min       -7
_diffrn_reflns_limit_l_max       19
_diffrn_reflns_limit_l_min       -17
_diffrn_reflns_number            5011
_diffrn_reflns_point_group_measured_fraction_full 1.000
_diffrn_reflns_point_group_measured_fraction_max 0.958
_diffrn_reflns_theta_full        25.242
_diffrn_reflns_theta_max         42.492
_diffrn_reflns_theta_min         1.983
_diffrn_source                   'sealed tube'
_diffrn_standards_number         0
_exptl_absorpt_coefficient_mu    20.042
_exptl_absorpt_correction_T_max  0.7483
_exptl_absorpt_correction_T_min  0.3901
_exptl_absorpt_correction_type   multi-scan
_exptl_absorpt_process_details
'SADABS-2016/2 (Bruker,2016/2) was used for absorption correction. wR2(int) was 0.1215 before and 0.0382 after correction. The Ratio of minimum to maximum transmission is 0.5213. The \l/2 correction factor is Not present.'
_exptl_crystal_colour            black
_exptl_crystal_colour_primary    black
_exptl_crystal_density_diffrn    5.334
_exptl_crystal_description       plate
_exptl_crystal_F_000             225
_exptl_crystal_size_max          0.066
_exptl_crystal_size_mid          0.026
_exptl_crystal_size_min          0.008
_refine_diff_density_max         1.121
_refine_diff_density_min         -1.351
_refine_diff_density_rms         0.164
_refine_ls_extinction_coef       0.0137(11)
_refine_ls_extinction_expression Fc^*^=kFc[1+0.001xFc^2^\l^3^/sin(2\q)]^-1/4^
_refine_ls_extinction_method     'SHELXL-2014/7 (Sheldrick 2014'
_refine_ls_goodness_of_fit_ref   1.146
_refine_ls_hydrogen_treatment    undef
_refine_ls_matrix_type           full
_refine_ls_number_parameters     16
_refine_ls_number_reflns         386
_refine_ls_number_restraints     0
_refine_ls_restrained_S_all      1.146
_refine_ls_R_factor_all          0.0195
_refine_ls_R_factor_gt           0.0169
_refine_ls_shift/su_max          0.001
_refine_ls_shift/su_mean         0.000
_refine_ls_structure_factor_coef Fsqd
_refine_ls_weighting_details
'w=1/[\s^2^(Fo^2^)+(0.0046P)^2^+0.2304P] where P=(Fo^2^+2Fc^2^)/3'
_refine_ls_weighting_scheme      calc
_refine_ls_wR_factor_gt          0.0300
_refine_ls_wR_factor_ref         0.0306
_reflns_Friedel_coverage         0.000
_reflns_number_gt                363
_reflns_number_total             386
_reflns_threshold_expression     'I > 2\s(I)'
_cod_data_source_file            cm0c03620_si_005.cif
_cod_data_source_block           kcu4tes2_p4mmm
_cod_original_cell_volume        155.3(3)
_cod_database_code               4003707
_shelx_shelxl_version_number     2014/7
_shelx_space_group_comment
;
The symmetry employed for this shelxl refinement is uniquely defined
by the following loop, which should always be used as a source of
symmetry information in preference to the above space-group names.
They are only intended as comments.
;
_olex2_refinement_description
;
;
_shelx_res_file
;
    kcu4tes2_p4mmm.res created by SHELXL-2014/7

TITL kcu4tes2_p4mmm_a.res in P4/mmm
REM Old TITL KCu4TeS2_P4mmm in P4/mmm #123
REM SHELXT solution in P4/mmm
REM R1 0.109, Rweak 0.010, Alpha 0.056, Orientation as input
REM Formula found by SHELXT: Cu4 S4 Te
CELL 0.71073 3.8894 3.8894 10.2691 90 90 90
ZERR 1 0.0028 0.0028 0.0077 0 0 0
LATT 1
SYMM -X,-Y,+Z
SYMM -Y,+X,+Z
SYMM +Y,-X,+Z
SYMM -X,+Y,-Z
SYMM +X,-Y,-Z
SYMM +Y,+X,-Z
SYMM -Y,-X,-Z
SFAC Cu K S Te
UNIT 4.22 1 2 1

L.S. 4
PLAN  20
TEMP 26.85
list 4
fmap 2
acta
REM <olex2.extras>
REM <HklSrc "%.\\KCu4TeS2_0m.hkl">
REM </olex2.extras>

WGHT    0.004600    0.230400
EXTI    0.013659
FVAR       0.72037
TE1   4    0.000000    0.000000    0.000000    10.06250    0.01647    0.01647 =
         0.00911    0.00000    0.00000    0.00000
CU2   1    0.000000    0.500000    0.808908    10.25000    0.01236    0.02285 =
         0.02482    0.00000    0.00000    0.00000
K1    2    0.000000    0.000000    0.500000    10.06250    0.02051    0.02051 =
         0.01919    0.00000    0.00000    0.00000
S1    3    0.500000    0.500000    0.687496    10.12500    0.01196    0.01196 =
         0.01251    0.00000    0.00000    0.00000
CU1   1    0.500000    0.500000    0.000000     0.01391    0.02298    0.02298 =
         0.01991    0.00000    0.00000    0.00000
HKLF 4

REM  kcu4tes2_p4mmm_a.res in P4/mmm
REM R1 =  0.0169 for     363 Fo > 4sig(Fo)  and  0.0195 for all     386 data
REM     16 parameters refined using      0 restraints

END

WGHT      0.0046      0.2304

REM Highest difference peak  1.121,  deepest hole -1.351,  1-sigma level  0.164
Q1    1   0.0000  0.6133  0.7824  10.50000  0.05    1.12
Q2    1   0.0000  0.5000  0.7399  10.25000  0.05    0.83
Q3    1  -0.0569  0.5000  0.8284  10.50000  0.05    0.69
Q4    1   0.1265  0.1265  0.0000  10.25000  0.05    0.62
Q5    1   0.0000  0.0000  0.2975  10.12500  0.05    0.54
Q6    1   0.0000  0.6281  0.8820  10.50000  0.05    0.45
Q7    1  -0.2638  0.7362  0.7996  10.50000  0.05    0.43
Q8    1   0.6321  0.7039  0.7548  11.00000  0.05    0.42
Q9    1   0.0000  0.0000  0.0997  10.12500  0.05    0.41
Q10   1   0.0000  0.0886  0.4107  10.50000  0.05    0.40
Q11   1   0.4140  0.5000  0.5000  10.25000  0.05    0.39
Q12   1   0.2011  0.6802  0.8834  11.00000  0.05    0.38
Q13   1   0.0000  0.0818  0.3521  10.50000  0.05    0.38
Q14   1   0.3128  0.3128  0.5000  10.25000  0.05    0.37
Q15   1   0.7041  0.7041  0.6224  10.50000  0.05    0.35
Q16   1   0.0878  0.7593  0.8961  11.00000  0.05    0.35
Q17   1   0.1227  0.2670  0.0385  11.00000  0.05    0.34
Q18   1   0.5000  0.5804  0.7178  10.50000  0.05    0.31
Q19   1   0.2591  0.5000  0.7959  10.50000  0.05    0.31
Q20   1   0.3749  0.3749  0.0962  10.50000  0.05    0.30
;
_shelx_res_checksum              76399
_shelx_hkl_file
;
   0  -1   0 437.822 9.93982   2
   0  -1   0 428.340 9.88560   1
  -1   0   0 421.200 10.3953   6
  -1   0   0 425.532 9.73527   5
  -1   0   0 414.508 9.69347   4
  -1  -1   0 68.3132 2.33189   2
  -1  -1   0 68.4158 2.14961   1
  -1  -1   0 68.8313 2.20372   5
  -1  -1   0 68.3475 2.29224   4
  -1   1   0 72.5813 3.53764   6
  -1   1   0 65.4668 2.18295   8
   1  -1   0 69.7294 2.38807   1
   1  -1   0 73.2551 2.13874   2
   1  -1   0 68.7176 2.34092   3
  -1   1   0 68.3010 1.98159   5
  -1   1   0 68.6268 1.89442   4
  -1  -1   0 67.6402 2.75159   7
  -2   0   0 9541.46 217.673   6
  -2   0   0 9778.99 211.633   5
  -2   0   0 9811.51 211.412   8
   0  -2   0 9877.10 213.415   1
   0  -2   0 9792.46 213.822   2
   0  -2   0 9999.99 212.928   3
  -2   0   0 9507.57 211.461   4
  -2   0   0 8907.82 214.832   7
  -2   1   0 202.196 7.13848   6
  -2   1   0 204.312 5.49203   5
   2  -1   0 197.309 5.35626   1
   1  -2   0 210.713 5.86751   3
  -2  -1   0 198.907 5.69013   5
  -2  -1   0 193.888 7.06884   7
   2  -1   0 208.400 4.86205   2
   2  -1   0 199.648 5.46686   3
   1  -2   0 201.043 5.76417   2
  -1  -2   0 195.824 5.75990   1
  -1  -2   0 191.997 5.95018   2
  -2  -1   0 201.802 5.77565   4
  -1  -2   0 203.526 5.18554   5
  -2   1   0 195.682 5.63107   8
  -1  -2   0 200.766 5.98778   3
   1  -2   0 194.985 5.95624   1
  -2  -1   0 205.080 5.18946   2
  -2   1   0 206.500 5.35573   4
  -1   2   0 204.919 8.53945   6
  -2  -1   0 202.129 5.28887   8
  -2   1   0 197.749 6.15438   7
  -2   2   0 6366.03 136.864   8
  -2  -2   0 6247.64 140.184   2
  -2  -2   0 6345.23 135.944   8
  -2   2   0 6351.71 135.318   4
   2  -2   0 6490.37 136.010   3
  -2   2   0 5888.52 139.008   6
  -2  -2   0 6243.65 137.868   7
   2  -2   0 6416.61 136.653   2
  -2  -2   0 6263.26 136.904   1
  -2   2   0 6398.35 135.308   5
   2  -2   0 6481.45 136.272   1
  -2  -2   0 6236.14 137.999   5
  -2  -2   0 6173.55 140.725   3
   0  -3   0 219.221 6.95742   2
   0  -3   0 205.172 6.70948   3
  -3   0   0 198.056 6.13966   8
   0  -3   0 214.302 6.93561   1
  -3   0   0 201.308 6.34607   4
  -3   0   0 205.477 6.42985   5
  -3   0   0 211.567 7.27657   7
  -1  -3   0 13.9915 1.10848   5
  -1  -3   0 12.7142 1.96178   3
  -3  -1   0 16.7115 1.61605   8
  -1   3   0 15.6055 4.20343   6
  -3   1   0 14.2128 1.62309   4
  -3   1   0 13.8841 1.61192   5
  -3  -1   0 12.0918 1.60244   5
   3  -1   0 18.6141 1.79166   3
  -1  -3   0 12.1458 1.78115   2
   1  -3   0 15.5531 2.08891   3
  -3   1   0 12.9385 2.05834   7
  -3   1   0 11.4050 1.61435   8
  -1  -3   0 14.3402 1.94254   1
  -3   1   0 13.2711 2.64822   6
   3  -1   0 18.8854 1.58036   1
  -3  -1   0 16.1327 2.89518   7
  -3  -1   0 16.9964 1.94794   4
   1  -3   0 11.9629 1.99349   1
   1  -3   0 16.6266 1.97736   2
  -2   3   0 110.749 7.50756   6
   2  -3   0 113.283 4.96373   1
  -2  -3   0 112.960 3.95847   5
  -3  -2   0 111.302 3.97438   2
  -2  -3   0 100.982 5.56176   7
  -3  -2   0 115.100 4.50573   5
  -3  -2   0 113.447 6.62256   7
  -3  -2   0 108.770 3.72333   8
  -3   2   0 107.771 4.48638   8
   3  -2   0 108.526 4.35555   1
   3  -2   0 108.950 4.14593   3
   2  -3   0 107.974 4.58090   3
  -2  -3   0 113.624 4.93217   3
  -3   2   0 106.194 6.33903   6
  -3   2   0 111.576 3.70990   4
   2  -3   0 112.280 4.49626   2
  -2  -3   0 107.970 4.71804   2
  -3   2   0 106.047 3.99190   5
  -2  -3   0 109.527 4.45180   1
  -3  -3   0 2.24060 2.16526   7
  -3  -3   0 -0.1585 0.97196   2
  -3  -3   0 0.15665 0.93644   5
   3  -3   0 1.48312 1.55208   1
  -3  -3   0 5.91635 1.75982   3
  -3   3   0 1.98961 2.66817   6
   3  -3   0 -0.6268 1.25657   3
  -4   0   0 2915.09 64.3983   4
   0  -4   0 2815.73 65.1371   1
   0  -4   0 2885.92 64.9641   3
   0  -4   0 2842.00 65.2768   2
  -4   0   0 2892.57 64.5430   5
  -4   0   0 2852.75 65.7336   7
  -4   0   0 2941.70 64.2491   8
  -4   1   0 31.5217 4.33068   6
  -4  -1   0 27.5452 3.74056   7
  -4  -1   0 21.0035 2.39541   5
  -4   1   0 24.9861 2.63662   8
   1  -4   0 24.8300 2.89653   3
  -4   1   0 28.2698 3.20722   7
  -1  -4   0 19.9680 2.71107   2
  -1  -4   0 22.6984 2.93255   1
  -4   1   0 28.3601 2.62030   4
  -4  -1   0 19.6328 2.13480   8
   1  -4   0 21.0754 2.91708   1
  -4   1   0 25.9881 2.57459   5
   1  -4   0 23.1288 2.77053   2
  -1  -4   0 25.3795 3.03793   3
  -1   4   0 21.9678 5.72706   6
  -2  -4   0 2034.31 49.5059   7
  -2   4   0 2030.10 53.7676   6
  -2  -4   0 1988.91 47.5880   3
  -4   2   0 1990.27 50.0896   6
  -2  -4   0 2019.56 46.8701   1
   2  -4   0 2064.79 47.1536   2
  -2  -4   0 2081.85 47.7757   2
  -4   2   0 2088.36 46.3249   5
  -4   2   0 2052.32 46.8789   8
  -4  -2   0 2027.30 46.9362   5
  -4  -2   0 2058.38 45.6227   8
   2  -4   0 2029.76 47.6010   1
   2  -4   0 2021.71 46.8076   3
  -4  -2   0 1926.85 50.9007   7
  -3  -4   0 25.8389 4.67347   7
  -4   3   0 26.6008 4.96540   6
   3  -4   0 19.7500 2.74776   3
   3  -4   0 15.5915 2.96895   1
  -3  -4   0 24.5755 3.40450   3
  -3  -4   0 20.7028 2.95387   2
  -4  -3   0 26.6608 2.96620   5
  -4  -3   0 19.3906 4.62364   7
  -3   4   0 18.1442 4.68804   6
  -4   4   0 773.038 25.4015   6
  -4  -4   0 762.715 26.2463   7
   4  -4   0 690.070 22.3691   1
  -4  -4   0 775.127 19.9952   5
   0  -5   0 70.9352 5.16201   1
  -5   0   0 70.7001 4.30761   8
  -5   0   0 68.7365 4.40533   5
   0  -5   0 72.3157 5.05506   2
   0  -5   0 69.5919 5.02498   3
  -5   0   0 64.8064 4.89270   7
  -1  -5   0 2.49740 2.16414   1
  -5  -1   0 2.78327 2.06755   7
  -5   1   0 2.43629 1.88329   7
  -5  -1   0 2.00662 1.39382   8
  -1   5   0 -2.6097 4.11579   6
   1  -5   0 1.85199 2.05811   3
  -5   1   0 2.21664 1.52170   5
   1  -5   0 1.85486 2.12664   1
  -5   1   0 3.52353 1.75992   8
  -1  -5   0 -0.6320 1.95353   3
  -1  -5   0 -0.1616 1.74029   2
   1  -5   0 0.51666 1.77033   2
  -5  -1   0 1.56339 1.56402   5
  -5   2   0 47.2464 6.11987   6
   2  -5   0 47.4665 4.87641   1
  -2  -5   0 50.0348 4.98769   3
  -2  -5   0 45.7524 5.95042   7
  -5  -2   0 52.8993 6.19988   7
  -2  -5   0 40.1940 4.42636   2
   2  -5   0 46.2465 4.43687   3
   2  -5   0 52.3639 4.92097   2
  -2  -5   0 43.5702 4.47004   1
  -5  -2   0 48.6532 4.37821   5
  -2   5   0 56.3369 8.55184   6
  -5   2   0 48.2077 4.04838   5
  -5  -2   0 43.5451 3.70034   8
   3  -5   0 2.78893 2.31897   1
  -3  -5   0 3.85324 3.46057   7
  -3   5   0 4.27043 4.15687   6
   3  -5   0 2.60889 2.13012   3
  -3  -5   0 0.86988 1.86431   2
  -5  -3   0 1.28706 1.65460   5
  -5   3   0 5.75397 3.55643   6
  -5  -3   0 1.59347 3.12427   7
  -3  -5   0 3.15848 2.31793   3
  -5  -4   0 11.6661 2.63427   5
  -5   4   0 8.73629 4.27973   6
  -4   5   0 16.1305 5.19662   6
  -4  -5   0 9.17839 4.52526   7
   0   6   0 612.490 28.1132   6
   0  -6   0 629.259 19.5495   1
   0  -6   0 659.781 19.3098   3
  -6   0   0 616.422 17.9194   8
  -6   0   0 643.292 18.7523   5
   0  -6   0 600.679 19.4789   2
   1  -6   0 2.98343 2.47877   1
  -1  -6   0 1.44031 2.32556   3
   1  -6   0 3.81401 2.51606   3
  -6   1   0 -2.6440 1.26358   5
  -1   6   0 5.73427 5.51048   6
  -1  -6   0 0.11968 2.21129   2
  -6  -1   0 2.91970 1.77837   5
   1  -6   0 -0.0499 2.13051   2
  -1  -6   0 2.41303 2.40589   1
  -6  -1   0 -0.6654 1.51706   8
  -2  -6   0 475.941 19.2707   7
   2  -6   0 521.208 15.9117   3
   2  -6   0 504.224 20.7745   1
  -2  -6   0 488.971 16.7521   3
  -2   6   0 459.270 22.3424   6
  -6  -2   0 492.701 15.8820   5
  -2  -6   0 464.426 16.5218   2
  -3  -6   0 3.02525 4.06619   7
  -3   6   0 -3.2521 3.93342   6
  -6  -3   0 2.77556 2.01778   5
  -4  -6   0 194.674 14.9380   7
  -1  -7   0 -5.4719 3.72653   7
   0   0  -1 2109.73 46.6966   2
  -1   0  -1 563.793 13.6508   7
   0  -1  -1 597.218 13.0071   2
  -1   0   1 563.508 12.7797   5
   1   0  -1 569.801 12.4611   1
  -1   0   1 579.176 12.7596   8
   1   0  -1 559.714 13.0726   2
   0  -1  -1 561.868 12.8100   3
   0  -1   1 554.207 12.3185   4
   0  -1  -1 567.521 12.9679   1
   0  -1   1 565.084 12.9500   3
  -1   0   1 567.293 12.8100   4
   0  -1   1 562.154 12.9669   2
  -1   0  -1 550.147 13.5847   6
  -1   0   1 564.820 12.3754   2
  -1   0  -1 560.260 12.7516   5
  -1  -1   1 56.9818 2.08033   4
  -1   1   1 55.7789 1.80027   5
  -1   1   1 58.8177 2.92340   6
  -1  -1  -1 60.4578 2.11999   1
  -1  -1  -1 64.2021 2.76010   7
  -1  -1   1 57.9066 2.13934   3
  -1   1   1 58.5180 1.93462   4
   1  -1   1 60.5084 2.36752   3
   1  -1  -1 58.4053 2.23363   1
  -1  -1   1 58.3608 2.05187   5
  -1  -1   1 59.1970 1.94749   1
  -1  -1  -1 58.3794 2.17405   2
  -1  -1  -1 56.0083 2.31067   3
  -1  -1  -1 60.3998 2.02021   5
  -1  -1   1 68.3455 2.21488   8
   1  -1  -1 60.1821 1.96458   3
  -1   1   1 63.4906 2.05827   8
   1  -1  -1 61.0232 2.03078   2
  -1   1  -1 60.4968 1.91881   5
  -1   1  -1 69.1926 3.75452   6
   1  -1   1 60.0984 1.98650   2
  -1  -1   1 64.4434 2.23915   2
  -2   0  -1 1209.18 28.5475   6
   0  -2   1 1213.71 25.8690   5
   0  -2   1 1209.94 27.2066   3
   2   0  -1 1244.56 26.6622   2
   0  -2  -1 1198.26 27.3260   2
  -2   0   1 1197.43 26.9345   5
   0  -2  -1 1203.40 27.2909   1
  -2   0   1 1198.49 27.2718   7
  -2   0   1 1184.46 26.7686   8
   0  -2  -1 1162.36 27.0324   3
   0  -2   1 1213.15 27.2309   1
  -2   0   1 1195.25 26.9130   4
  -2   0  -1 1206.51 26.7431   8
   0  -2   1 1150.60 27.2051   2
  -2   0  -1 1194.90 26.8230   4
  -2   0  -1 1171.13 28.1839   7
  -2   0  -1 1198.34 26.9246   5
   1  -2   1 303.682 7.97425   2
  -1  -2  -1 299.912 8.01145   1
   2  -1  -1 303.790 7.34700   3
   1  -2   1 310.359 8.23652   3
  -2   1  -1 305.872 7.70528   5
  -2  -1   1 296.063 7.93768   5
  -2   1  -1 305.718 7.90442   8
  -2  -1   1 305.464 7.46780   2
  -2  -1   1 300.875 7.81212   3
  -1   2   1 307.695 10.4822   6
  -2   1  -1 291.293 9.77221   6
  -2   1  -1 295.529 8.67149   7
  -2  -1   1 303.795 8.03926   4
  -1   2   1 307.162 7.51571   8
   1  -2   1 300.673 8.24976   1
   2  -1  -1 308.282 7.26977   2
  -1   2   1 296.213 7.19275   4
  -2   1  -1 289.660 7.42239   4
  -2  -1   1 310.520 7.65924   8
  -1  -2  -1 295.468 8.21572   2
  -2  -1   1 289.542 9.14206   7
  -1  -2  -1 303.469 7.40353   5
   2  -1  -1 311.268 7.60278   1
   2  -1   1 307.740 7.69432   1
  -1  -2   1 307.894 8.22569   3
   1  -2  -1 307.055 8.32740   1
  -2  -1  -1 298.672 7.42715   2
  -2   1   1 294.581 9.07815   6
  -1   2  -1 270.397 10.8697   6
  -1  -2   1 302.904 8.28828   2
  -2   1   1 305.803 7.64432   4
   2  -1   1 321.495 7.08913   2
   1  -2  -1 318.713 8.12083   2
  -2  -1  -1 308.075 7.95902   5
  -2   1   1 305.782 8.19223   7
  -1  -2   1 295.619 7.57518   4
  -2   1   1 300.541 7.88436   8
  -2  -1  -1 310.540 7.72362   1
  -1  -2   1 298.926 7.43116   5
  -1  -2   1 301.174 7.92337   1
  -2  -1  -1 307.769 7.44696   8
  -2   1   1 301.746 7.68251   5
  -2  -1  -1 293.444 9.58386   7
   1  -2  -1 307.384 7.90495   3
   2  -1   1 307.442 8.06508   3
  -2   2   1 760.510 17.0593   5
  -2  -2  -1 725.122 18.2390   3
   2  -2  -1 764.253 18.0289   1
  -2  -2   1 745.000 18.0719   3
  -2  -2   1 746.560 17.3155   1
  -2  -2   1 755.797 17.1032   8
  -2   2   1 764.283 17.7292   8
  -2  -2   1 749.611 17.6860   5
  -2  -2  -1 750.157 16.7077   8
  -2  -2   1 753.249 17.8792   4
   2  -2   1 749.921 17.9862   1
   2  -2  -1 747.939 17.4420   3
  -2  -2  -1 760.818 19.5741   7
  -2   2   1 731.932 20.0348   6
   2  -2  -1 763.535 17.5354   2
  -2  -2   1 764.703 17.9932   2
  -2  -2  -1 744.806 17.5640   1
  -2  -2  -1 728.929 17.8476   2
  -2   2   1 738.393 16.9218   4
  -2  -2   1 754.163 19.3436   7
  -2   2  -1 723.171 21.0844   6
  -2  -2  -1 734.331 17.6147   5
   2  -2   1 730.384 17.8925   3
   2  -2   1 754.089 17.4187   2
  -3   0   1 242.533 7.29651   4
  -3   0  -1 247.336 7.13661   8
   3   0  -1 250.969 6.45556   2
   0  -3  -1 242.243 7.78950   1
   0  -3   1 240.847 7.74156   3
  -3   0   1 257.172 7.21972   8
  -3   0  -1 253.461 8.74666   7
   0  -3   1 245.728 7.73542   1
   0  -3  -1 247.405 7.59743   3
   0  -3  -1 247.728 7.83216   2
   0  -3   1 268.336 7.97236   2
  -3   0   1 246.035 7.36461   5
  -3   0   1 255.097 7.82015   7
  -3   0  -1 246.894 7.37987   5
  -3  -1   1 7.32953 1.27105   8
  -1   3   1 11.3122 3.83007   6
   3  -1  -1 8.14654 1.14708   3
   1  -3   1 5.22586 1.63785   1
  -1  -3  -1 8.41303 1.64424   3
  -3   1  -1 6.15732 1.21568   5
  -1  -3  -1 9.19954 1.73192   2
  -3   1  -1 8.45539 1.90079   7
  -3   1  -1 7.97900 1.41462   8
   1  -3   1 9.83650 1.92475   3
   1  -3   1 9.08043 1.58632   2
  -3  -1   1 9.27481 1.58841   4
   3  -1  -1 9.95664 1.21974   1
  -3  -1   1 18.4612 2.78923   7
  -1  -3  -1 6.91819 1.63290   1
  -3   1  -1 9.64314 2.55673   6
  -3  -1   1 8.52997 1.48614   5
   1  -3  -1 9.34711 1.67209   3
  -3   1   1 9.22294 1.39865   4
  -1  -3   1 6.50067 1.46603   2
  -3   1   1 13.9487 2.51848   6
   1  -3  -1 9.25998 1.61522   2
  -3  -1  -1 3.98118 2.15201   7
  -1  -3   1 13.8631 2.02316   3
  -1  -3   1 9.22982 0.95716   5
   3  -1   1 10.4317 1.73034   3
  -3  -1  -1 8.85068 1.44030   5
  -3   1   1 9.77981 1.42495   5
  -3   1   1 11.2012 1.59333   8
  -3   1   1 8.99247 1.61537   7
   1  -3  -1 7.67769 1.72732   1
   3  -1   1 11.3826 1.35365   1
  -1  -3   1 10.0673 1.71703   1
  -3  -1  -1 7.01161 1.15471   8
  -1   3  -1 10.0744 4.02917   6
  -2   3   1 174.154 8.49162   6
  -3  -2   1 172.452 5.91909   5
   2  -3   1 165.942 6.26830   1
   2  -3   1 176.479 6.18388   3
  -2  -3  -1 177.010 7.37461   7
  -2  -3  -1 184.157 6.57022   3
  -2  -3  -1 167.353 5.30569   5
  -3  -2   1 167.375 5.18517   8
  -2  -3  -1 170.171 5.90689   1
   2  -3   1 166.245 5.79796   2
  -3   2  -1 170.386 5.47184   5
  -3  -2   1 171.631 5.39352   2
   3  -2  -1 175.342 5.72643   1
  -3  -2   1 166.370 8.01325   7
   3  -2  -1 171.701 5.24010   3
  -2  -3  -1 179.579 6.28696   2
  -3  -2   1 170.155 6.07811   4
  -3   2  -1 174.767 8.50915   6
  -2  -3   1 162.364 6.21586   3
  -3  -2  -1 169.072 5.34971   2
  -3  -2  -1 170.194 5.00525   8
   3  -2   1 171.945 5.81984   3
  -3  -2  -1 172.141 5.89664   5
  -3  -2  -1 165.480 8.20252   7
   2  -3  -1 172.993 5.83505   3
  -2  -3   1 170.990 6.25949   2
  -2  -3   1 170.892 5.78408   1
  -2  -3   1 160.458 7.18949   7
   3  -2   1 181.783 5.85639   1
  -2   3  -1 160.965 9.48409   6
  -3   2   1 173.474 5.41561   5
  -3   2   1 170.125 5.17920   4
  -2  -3   1 166.260 5.33046   5
  -3   2   1 164.978 5.89922   8
  -3   2   1 167.127 7.56136   6
   2  -3  -1 175.132 6.41160   1
   2  -3  -1 165.639 5.87660   2
  -3  -3   1 7.33807 1.85590   3
  -3  -3   1 3.26511 2.37712   7
  -3  -3   1 4.80967 1.48569   2
   3  -3  -1 3.49983 1.67322   1
  -3   3  -1 0.19281 2.60230   6
   3  -3  -1 3.93641 1.37791   3
  -3  -3  -1 3.65416 1.22323   5
   3  -3   1 3.91937 1.63493   3
  -3  -3  -1 2.77363 2.36793   7
  -3  -3   1 1.78253 1.09103   5
  -3   3   1 3.63110 2.36714   6
  -3  -3  -1 0.02452 1.19098   2
   3  -3   1 2.61070 1.72425   1
  -4   0  -1 334.632 9.51284   8
   0  -4  -1 311.703 10.3079   1
  -4   0  -1 337.516 11.4073   7
   0  -4   1 306.667 10.2377   1
  -4   0   1 312.555 10.0753   7
  -4   0   1 323.500 9.72043   4
   0  -4   1 318.572 10.3967   2
   0  -4   1 309.466 10.1456   3
  -4   0   1 315.365 9.73119   5
  -4   0   1 322.548 9.48834   8
  -4   0  -1 319.972 9.74854   5
   0  -4  -1 316.489 10.0186   3
   0  -4  -1 335.316 10.5055   2
  -4  -1   1 104.100 4.83649   4
  -4   1  -1 99.3241 4.53866   5
  -1  -4  -1 89.9343 4.86438   3
  -4  -1   1 100.922 4.78880   5
  -1  -4  -1 100.342 5.20999   2
  -1  -4  -1 107.015 5.18151   1
  -4   1  -1 104.763 4.71892   8
   1  -4   1 98.8537 5.02751   2
   1  -4   1 101.984 5.11024   3
  -4   1  -1 108.585 6.82661   6
  -4   1  -1 99.8848 5.53606   7
  -1   4   1 119.281 9.30911   6
  -4  -1   1 107.177 5.61772   7
  -4  -1   1 101.581 4.33733   8
   1  -4   1 100.300 5.33796   1
  -4   1   1 101.900 4.45892   4
  -4   1   1 96.0425 4.63724   8
  -4   1   1 99.7527 4.51256   5
   1  -4  -1 102.343 4.97335   3
   1  -4  -1 106.175 5.34937   1
  -4  -1  -1 100.479 4.76669   5
  -4  -1  -1 101.614 4.20465   8
   4  -1   1 101.113 4.48052   3
   1  -4  -1 94.2096 4.95387   2
  -4   1   1 99.0431 4.93508   7
  -4  -1  -1 101.500 6.57991   7
  -4   1   1 103.517 6.23537   6
  -1   4  -1 97.6674 10.0525   6
  -1  -4   1 100.348 5.09766   1
  -1  -4   1 103.950 5.29772   2
  -1  -4   1 96.4681 5.11226   3
   2  -4   1 219.846 8.46149   1
  -2  -4  -1 241.277 9.78657   7
  -4   2  -1 228.558 10.5540   6
  -2  -4  -1 218.665 7.87882   1
  -4   2  -1 223.052 7.37951   5
  -4  -2   1 229.970 6.96865   8
  -4  -2   1 223.209 7.85633   5
  -4  -2   1 222.680 10.2443   7
  -2   4   1 233.892 11.8374   6
   2  -4   1 222.269 8.02248   3
   2  -4   1 211.451 7.89667   2
  -2  -4  -1 222.628 8.35280   3
  -2  -4  -1 201.883 8.10998   2
  -2  -4   1 217.811 7.76928   1
  -4   2   1 223.078 7.23930   5
   2  -4  -1 216.898 7.96348   2
   2  -4  -1 220.974 7.66898   3
  -2  -4   1 203.263 8.13114   3
   4  -2   1 207.842 7.09523   3
  -4  -2  -1 216.053 6.66242   8
  -4  -2  -1 219.726 7.75175   5
  -4  -2  -1 190.341 10.4931   7
   2  -4  -1 215.339 8.34799   1
  -4   2   1 205.633 6.77112   4
  -4   2   1 218.279 7.81890   8
  -4   2   1 213.619 9.66722   6
  -2   4  -1 197.236 12.4639   6
  -2  -4   1 209.106 8.19626   2
  -4  -3   1 68.7269 7.59635   7
  -3  -4  -1 63.8871 4.78735   3
   3  -4   1 69.4482 4.92021   1
  -3  -4  -1 69.4821 4.48202   2
  -3  -4  -1 64.5944 6.73743   7
  -4   3  -1 65.8990 7.39349   6
   3  -4   1 62.6377 4.34041   3
  -4  -3   1 59.8315 3.98026   5
  -3   4   1 60.4345 6.89202   6
  -3  -4   1 66.2052 4.39963   2
  -3  -4   1 68.9638 6.23218   5
  -4   3   1 67.2827 6.83590   6
   4  -3   1 63.6594 6.37908   1
  -3  -4   1 63.0604 6.73656   7
  -4  -3  -1 78.1100 8.26248   7
  -3  -4   1 66.8655 4.82353   3
  -3   4  -1 65.4749 8.19180   6
   3  -4  -1 58.6747 4.53694   1
  -4  -3  -1 59.7557 3.99510   5
   3  -4  -1 65.8997 4.00483   3
  -4  -4   1 85.5332 4.81816   5
   4  -4   1 85.7183 5.67635   1
  -4  -4  -1 83.7254 9.10257   7
  -4  -4   1 66.8078 8.25060   7
  -4  -4  -1 77.4300 4.63865   5
  -4   4   1 83.9412 8.24255   6
  -4   4  -1 93.5594 9.63234   6
  -5   0  -1 86.7127 4.69892   8
   0  -5  -1 84.0969 5.21987   3
   0  -5   1 87.8138 5.62941   1
   0  -5  -1 80.6561 5.41271   1
  -5   0   1 91.4935 4.91709   8
   0  -5   1 91.3476 5.62792   2
  -5   0  -1 83.4942 4.87631   5
   0  -5  -1 83.3352 5.46345   2
   0  -5   1 96.8132 5.76216   3
  -5   0   1 87.9728 5.21208   7
  -5   0  -1 83.8482 5.90168   7
  -5   0   1 87.9707 5.02173   5
  -1   5   1 1.93475 4.27491   6
  -5   1  -1 -0.0457 1.31741   5
   1  -5   1 2.24101 2.13864   1
   1  -5   1 2.55118 1.91082   2
  -1  -5  -1 3.36826 2.10393   2
  -5  -1   1 2.74065 2.33081   7
  -1  -5  -1 1.48688 2.05183   3
  -5  -1   1 -1.4161 1.32429   5
  -1  -5  -1 -0.8748 1.77356   1
  -5  -1   1 0.11745 1.38554   8
   1  -5   1 2.00151 2.21602   3
  -5   1  -1 -1.2097 1.73041   7
   1  -5  -1 -0.1879 1.76948   2
  -1  -5   1 2.19915 2.01530   3
   1  -5  -1 1.36278 1.99712   1
  -5   1   1 1.34186 1.67634   7
   1  -5  -1 3.08963 1.95058   3
  -5   1   1 3.72834 1.65923   5
  -5  -1  -1 2.13065 1.38367   8
  -1  -5   1 3.41044 1.97335   2
  -5  -1  -1 6.23289 2.65374   7
  -5  -1  -1 2.89029 1.60235   5
  -5   1   1 0.19239 1.47742   8
  -1  -5   1 4.03933 2.16588   1
  -1   5  -1 6.61305 5.01338   6
  -2  -5  -1 65.0481 5.03534   2
  -5   2  -1 70.9167 7.40172   6
   2  -5   1 68.3330 5.06265   3
  -5  -2   1 66.6815 3.92103   8
  -5  -2   1 71.6320 4.77233   5
  -2   5   1 55.5565 8.02420   6
  -5   2  -1 68.7728 4.28631   5
   2  -5   1 58.7763 5.49145   1
  -2  -5  -1 68.6133 4.96519   1
   2  -5   1 64.2881 4.93087   2
  -2  -5  -1 71.6546 5.35434   3
  -2  -5  -1 64.6211 6.70898   7
  -2  -5   1 65.5685 4.81082   1
  -5   2   1 64.4255 4.17340   5
  -2  -5   1 66.8795 7.18311   7
  -5  -2  -1 54.4309 6.61393   7
   2  -5  -1 62.1435 4.88841   2
   2  -5  -1 57.6483 5.35395   1
  -2  -5   1 67.6525 5.76292   3
  -2   5  -1 53.9049 8.63504   6
  -5   2   1 65.4050 6.76373   6
  -5   2   1 65.8221 4.55717   8
   2  -5  -1 66.6990 4.63057   3
  -2  -5   1 66.0294 5.13260   2
  -5  -2  -1 67.2764 4.64044   5
  -3   5   1 -2.7488 3.08329   6
   3  -5   1 -0.3006 2.11505   1
  -5  -3   1 1.98908 1.70681   5
   3  -5   1 -0.4704 1.97873   3
  -3  -5  -1 -0.5240 3.04924   7
  -3  -5  -1 -4.9271 1.42150   3
  -3  -5  -1 -1.5127 1.70078   2
  -5   3  -1 2.37881 3.51081   6
  -3  -5   1 0.23490 1.93673   3
  -3  -5   1 2.46581 3.47581   7
   3  -5  -1 -1.0793 2.03765   1
  -5  -3  -1 -1.7109 2.87105   7
  -5   3   1 0.96771 2.88978   6
  -5  -3  -1 -1.6742 1.24446   5
  -3  -5   1 0.95868 1.88593   2
  -3   5  -1 3.09229 4.48169   6
  -4  -5  -1 38.9131 7.01806   7
  -4   5   1 40.2831 6.58183   6
  -5   4  -1 34.7298 6.61332   6
  -5  -4   1 27.3390 3.47075   5
  -5   4   1 24.3934 5.20110   6
  -4  -5   1 34.2463 6.86357   7
  -5  -4  -1 24.2755 6.29901   7
  -4   5  -1 20.7849 6.48571   6
  -5  -5  -1 2.02208 6.66609   7
   0  -6  -1 77.1653 6.41665   3
   0  -6  -1 69.6475 6.40756   2
  -6   0  -1 57.4864 5.31280   5
  -6   0   1 63.5812 5.32164   8
   0   6   1 59.6838 10.5832   6
   0  -6   1 70.7675 6.60760   2
   0  -6   1 72.5672 6.52258   1
   0  -6  -1 72.8768 6.60849   1
  -6   0  -1 61.6565 6.21862   7
   0  -6   1 64.1650 5.80441   3
  -6   0   1 69.5431 5.71874   5
   0   6  -1 69.0981 11.1343   6
  -6  -1   1 25.4637 3.72063   5
  -1   6   1 19.0530 6.29907   6
   1  -6   1 26.6128 4.18258   3
  -1  -6  -1 25.1557 4.19808   3
   1  -6   1 20.0692 3.70486   2
  -6   1  -1 22.0331 4.11041   7
  -1  -6  -1 26.4639 4.35271   1
  -6  -1   1 22.9716 3.27984   8
   1  -6   1 25.2927 4.13606   1
  -1  -6  -1 25.9386 4.43729   2
  -6   1  -1 24.8572 3.54153   5
  -6   1   1 25.0511 3.75943   8
   1  -6  -1 26.8282 3.81930   3
  -1  -6   1 31.3077 4.48266   1
  -6  -1  -1 21.5908 3.33375   5
  -1  -6   1 26.2907 4.38747   2
   1  -6  -1 22.6887 4.00568   2
  -1  -6   1 27.6649 4.22306   3
  -6   1   1 26.4752 3.49867   5
   1  -6  -1 24.9770 4.13557   1
  -1   6  -1 22.4848 7.07448   6
  -2  -6  -1 51.6589 5.78869   2
   2  -6   1 58.9332 5.59455   3
  -2   6   1 53.9843 8.25679   6
  -2  -6  -1 54.9679 7.25433   7
  -6  -2   1 64.5202 5.91146   5
  -2  -6  -1 57.1123 5.99720   3
  -2  -6   1 51.6145 5.89520   2
  -6  -2  -1 50.2153 5.18227   5
  -2   6  -1 46.8472 9.04660   6
   2  -6  -1 63.8632 5.37111   3
  -2  -6   1 59.5879 8.06054   7
  -2  -6   1 60.2306 6.19735   3
  -6  -3   1 22.2703 3.66854   5
  -3  -6  -1 33.2481 6.43014   7
  -6   3  -1 24.2675 5.76976   6
  -3   6   1 20.3911 6.02244   6
  -3  -6   1 19.3479 5.68229   7
  -3   6  -1 20.7228 6.83620   6
  -6  -3  -1 22.2698 3.57516   5
  -4  -6  -1 21.9845 7.79813   7
   0   7   1 18.0545 8.20238   6
  -1  -7  -1 -6.6270 3.19538   7
   0   0  -2 464.639 11.3310   2
  -1   0   2 2398.80 51.4198   8
  -1   0   2 2387.78 51.4732   5
   0  -1   2 2345.24 51.2545   4
   0  -1   2 2415.27 53.1387   2
  -1   0  -2 2473.07 51.3924   2
   0  -1  -2 2332.52 51.8563   3
   0  -1  -2 2418.19 51.6530   1
   0  -1  -2 2443.62 52.3969   2
   1   0  -2 2357.83 51.6252   1
  -1   0   2 2323.63 52.2257   2
  -1   0  -2 2245.67 52.3896   7
  -1   0  -2 2327.78 52.4299   6
   1   0  -2 2380.37 52.2409   2
   0  -1   2 2342.02 52.3720   3
  -1  -1  -2 5619.30 120.075   5
  -1   1   2 5565.91 118.996   8
  -1  -1  -2 5371.90 120.596   1
  -1   1  -2 5213.82 121.765   7
  -1  -1  -2 5448.92 120.748   7
   1  -1   2 5470.35 119.189   3
   1  -1  -2 5439.22 119.353   2
  -1   1   2 5418.70 119.360   4
   1  -1  -2 5606.90 117.971   3
   1  -1   2 5594.50 119.009   2
  -1  -1   2 5525.88 121.172   2
  -1   1   2 5347.92 121.552   6
  -1   1  -2 4783.64 119.152   6
   1  -1  -2 5608.37 119.728   1
  -1  -1   2 5362.62 120.583   4
  -1  -1  -2 5437.08 120.587   2
  -1  -1   2 5467.05 120.007   3
  -1   1   2 5687.46 118.826   5
  -1  -1   2 5561.20 121.375   5
   0  -2  -2 221.863 6.35130   1
  -2   0   2 210.519 5.96763   4
   0  -2   2 209.157 5.02266   4
   0  -2  -2 207.907 5.96064   3
  -2   0   2 208.536 5.87259   8
   2   0  -2 211.486 6.26278   2
   0  -2  -2 220.306 6.35187   2
  -2   0  -2 216.183 7.51227   6
  -2   0  -2 201.089 7.18117   7
   0  -2   2 214.405 6.27254   3
  -2   0   2 205.994 5.74091   7
  -2   0   2 208.448 5.93984   5
  -2   0  -2 208.058 5.89352   5
   0  -2   2 213.081 6.27122   2
  -2   0  -2 222.357 5.73529   8
  -2  -1   2 1284.26 29.2531   5
   1  -2   2 1327.13 29.6335   1
  -2  -1   2 1305.39 28.7975   2
   1  -2   2 1298.34 29.5512   3
  -1   2   2 1284.24 31.2065   6
  -2  -1   2 1270.78 30.1774   7
  -2  -1   2 1316.49 29.0288   8
   2  -1  -2 1297.90 28.7598   2
  -1  -2  -2 1321.75 29.6014   2
   1  -2   2 1315.72 29.3176   2
  -2   1  -2 1259.83 28.9368   5
  -2  -1   2 1273.26 29.2709   4
  -2   1  -2 1294.00 30.4707   7
  -1  -2  -2 1249.33 29.4621   3
  -1   2   2 1296.79 28.9599   4
  -1   2   2 1309.74 28.5800   8
  -1  -2  -2 1261.83 29.3183   1
  -1   2   2 1312.58 28.0612   5
  -2  -1   2 1259.17 28.7539   3
  -2   1  -2 1274.99 31.8102   6
   2  -1  -2 1320.43 28.8433   1
   2  -1  -2 1296.77 28.1253   3
  -1  -2   2 1286.83 29.1657   1
  -1  -2   2 1333.51 29.6460   2
  -1   2  -2 1215.39 33.0637   6
  -1  -2   2 1298.31 29.4111   3
  -2   1   2 1302.90 30.2087   6
  -2  -1  -2 1296.86 28.5275   8
   1  -2  -2 1236.98 29.2894   2
  -2   1   2 1290.67 29.1079   8
  -2  -1  -2 1257.20 31.1798   7
  -2   1   2 1299.01 29.0073   4
  -2   1   2 1281.49 28.9024   5
   1  -2  -2 1307.44 28.9551   3
  -1  -2   2 1300.78 28.7173   5
  -2  -1  -2 1281.98 29.1681   5
  -1  -2   2 1302.32 28.7926   4
   2  -1   2 1345.29 28.4134   2
   1  -2  -2 1282.82 29.5296   1
  -2  -1  -2 1326.26 29.5753   1
   2  -1   2 1301.98 29.6830   3
  -2  -2   2 126.216 3.97327   8
  -2  -2  -2 113.650 4.05952   5
  -2   2   2 119.046 3.63624   5
  -2   2  -2 117.042 6.97835   6
  -2   2   2 117.490 4.11788   8
  -2   2   2 116.648 5.44502   6
  -2  -2  -2 114.907 5.53207   7
   2  -2   2 119.659 4.55921   1
  -2  -2  -2 126.761 4.43849   2
  -2  -2   2 116.429 5.22738   7
  -2  -2   2 116.099 4.34143   3
  -2  -2   2 120.649 4.32034   4
   2  -2  -2 119.830 4.46270   1
  -2  -2  -2 118.009 4.76356   3
  -2  -2  -2 117.466 4.26260   1
   2  -2   2 124.571 4.01664   2
   2  -2  -2 124.652 4.17448   2
   2  -2  -2 121.313 3.88556   3
  -2  -2   2 123.100 4.19285   5
  -2  -2   2 119.779 3.85338   1
   2  -2   2 117.581 4.65509   3
  -2   2   2 117.214 3.77889   4
  -2  -2   2 111.928 4.33268   2
   0  -3   2 682.453 17.3409   3
  -3   0  -2 688.383 18.9548   7
   0  -3  -2 656.074 17.4039   2
   0  -3   2 697.315 15.1500   5
   0  -3   2 695.703 17.3218   1
  -3   0  -2 698.643 16.5967   8
  -3   0  -2 660.329 19.2901   6
  -3   0  -2 687.945 16.9288   5
  -3   0   2 674.576 16.7954   7
  -3   0   2 686.445 16.8828   4
   3   0  -2 682.143 16.3308   2
   0  -3  -2 685.963 17.0287   3
   0  -3   2 698.188 17.4641   2
  -3   0   2 682.046 16.9125   5
   0  -3  -2 702.021 17.4743   1
  -3   0   2 694.087 16.7550   8
  -1  -3  -2 1981.52 45.0575   3
  -3  -1   2 2012.60 44.3337   8
  -3   1  -2 2009.44 48.0999   6
  -3  -1   2 1954.25 45.5561   7
  -3   1  -2 1958.12 46.3126   7
   1  -3   2 1999.27 45.2292   1
   1  -3   2 2051.88 45.0315   2
   3  -1  -2 1954.01 42.9453   3
  -3  -1   2 2009.76 44.8296   5
  -1  -3  -2 1972.79 44.9666   1
  -3  -1   2 1967.20 42.8512   2
   3  -1  -2 1994.38 43.5866   1
  -1   3   2 1933.89 43.5803   4
  -3   1  -2 1958.78 44.4133   5
   1  -3   2 1997.94 45.1245   3
  -1   3   2 1976.00 48.7979   6
  -3  -1   2 2009.76 44.8708   4
  -1  -3  -2 2069.12 45.3718   2
   3  -1   2 1975.24 44.9878   3
  -3  -1  -2 1909.79 47.8113   7
  -1  -3   2 1988.70 44.7959   1
  -3   1   2 1977.13 44.3425   4
   1  -3  -2 1979.01 45.2306   1
   1  -3  -2 1926.81 45.0213   2
  -3   1   2 1963.42 46.0373   6
  -3   1   2 1983.71 44.5631   8
  -3  -1  -2 1960.25 43.9161   8
  -1   3  -2 1875.08 50.4542   6
   1  -3  -2 1990.13 44.5038   3
  -3  -1  -2 2000.07 44.7589   5
  -3   1   2 1925.55 44.3448   5
  -1  -3   2 1985.61 45.1465   3
  -1  -3   2 1979.27 43.4329   5
  -1  -3   2 2035.76 45.4322   2
   3  -1   2 2063.64 43.8610   1
  -2   3   2 527.750 16.2954   6
  -3  -2   2 535.786 14.1131   4
  -2  -3  -2 504.644 15.4544   7
  -2  -3  -2 525.839 14.2300   2
  -2   3   2 518.751 13.2303   8
  -3  -2   2 543.685 13.2231   8
  -3  -2   2 518.473 16.1114   7
  -2  -3  -2 509.326 14.3517   3
  -3  -2   2 543.329 13.9475   5
  -3   2  -2 527.165 17.6443   6
  -2  -3  -2 525.062 13.1496   5
  -2  -3  -2 520.244 13.8864   1
   2  -3   2 516.912 14.2487   1
   3  -2  -2 510.762 12.5297   3
  -3  -2   2 533.775 13.2666   2
  -3  -2   2 522.792 13.8495   3
   2  -3   2 538.013 13.8058   2
   3  -2  -2 537.393 13.5130   1
   2  -3   2 527.688 14.2617   3
  -3   2   2 513.012 13.0442   4
  -2  -3   2 537.007 14.3294   2
  -2  -3   2 524.367 13.1944   5
  -2  -3   2 535.195 13.6625   1
  -3  -2  -2 530.601 13.8073   5
  -3  -2  -2 523.401 13.2069   2
  -2   3  -2 489.023 18.6593   6
  -3   2   2 518.494 13.7641   8
  -3   2   2 554.880 15.8034   6
  -3  -2  -2 532.909 16.7886   7
   3  -2   2 540.073 13.6838   1
  -3  -2  -2 510.463 12.5428   8
   2  -3  -2 533.238 13.3984   3
  -2  -3   2 531.078 12.7302   8
   3  -2   2 521.170 13.9395   3
  -2  -3   2 526.598 14.1724   3
   2  -3  -2 535.530 13.9256   2
  -3   2   2 541.546 13.2273   5
   2  -3  -2 533.341 14.2518   1
   3  -3   2 841.081 21.7497   1
  -3  -3   2 884.690 22.1399   3
  -3   3   2 851.776 24.0208   6
   3  -3  -2 873.016 20.6566   3
  -3  -3  -2 849.319 21.1274   5
  -3  -3   2 823.966 24.5450   7
  -3  -3   2 853.350 21.2306   5
  -3  -3  -2 883.090 21.5887   2
  -3   3   2 856.220 21.3351   8
   3  -3  -2 882.476 21.7240   1
  -3  -3   2 839.446 21.4443   2
  -3  -3  -2 877.159 24.7594   7
   3  -3   2 866.980 21.7086   3
  -3   3  -2 865.582 27.1724   6
  -4   0   2 48.1852 3.24678   5
  -4   0   2 45.5015 3.09610   8
  -4   0  -2 50.8924 3.13622   8
  -4   0  -2 45.9104 4.85523   7
   0  -4  -2 48.8549 4.20624   1
   0  -4   2 48.1382 3.76828   1
   0  -4  -2 53.8933 3.62423   3
  -4   0   2 46.2877 3.25813   4
   0  -4   2 48.8818 3.71245   3
   0  -4  -2 51.4130 3.74743   2
  -4   0  -2 47.8417 3.26260   5
  -4   0   2 49.4086 3.23314   7
   0  -4   2 46.5942 3.62613   2
  -1  -4  -2 473.507 14.0628   1
  -4  -1   2 485.949 14.0607   7
  -4  -1   2 500.634 13.8865   5
  -4   1  -2 487.893 16.9749   6
  -1  -4  -2 499.105 14.2111   3
  -1   4   2 500.101 18.7280   6
   1  -4   2 480.700 14.3106   1
  -1  -4  -2 469.985 14.3698   2
   1  -4   2 494.378 14.3005   3
  -4   1  -2 522.302 15.6858   7
   1  -4   2 528.490 14.4116   2
  -4   1  -2 498.185 13.6006   5
  -4  -1   2 476.788 13.8603   4
  -4  -1   2 503.250 13.3659   8
  -1  -4   2 495.505 14.3844   3
  -4   1   2 480.670 13.5793   8
   1  -4  -2 522.937 14.4300   2
  -1  -4   2 498.263 14.5271   2
   1  -4  -2 483.031 14.3638   1
  -4   1   2 494.987 13.5708   5
   1  -4  -2 503.751 13.7229   3
  -4  -1  -2 505.967 13.9287   5
  -4  -1  -2 474.060 16.6124   7
  -4   1   2 500.100 13.4760   4
   4  -1   2 507.506 13.8596   3
  -4  -1  -2 515.738 13.0580   8
  -1  -4   2 498.806 14.2006   1
  -2  -4  -2 35.0512 4.32026   7
  -4  -2   2 35.4150 2.89067   8
  -2   4   2 35.8439 5.23924   6
  -2  -4  -2 32.0136 3.52356   2
  -4  -2   2 38.5889 4.55141   7
  -2  -4  -2 32.6881 3.41077   1
   2  -4   2 29.7344 3.24825   2
   2  -4   2 29.7363 3.40558   3
  -4   2  -2 34.1617 5.32532   6
  -4  -2   2 30.7127 3.17772   4
  -2  -4  -2 29.1562 3.45833   3
  -4  -2   2 28.9026 2.95737   5
   2  -4   2 32.2327 3.61659   1
  -2  -4   2 30.9497 3.35989   2
  -2  -4   2 30.6260 3.10332   1
   2  -4  -2 31.2198 3.08612   3
   2  -4  -2 31.3681 3.27736   2
  -4   2   2 36.1453 2.62816   4
  -4   2   2 35.0037 3.42883   8
  -2   4  -2 35.0342 6.85085   6
  -4  -2  -2 27.5827 2.87924   5
  -2  -4   2 28.7951 3.35618   3
   4  -2   2 35.1652 3.19162   3
  -4   2   2 30.6450 2.75384   5
  -4  -2  -2 33.6411 5.34554   7
   2  -4  -2 30.7144 3.56964   1
  -4   2   2 39.1115 4.61717   6
  -3   4   2 243.561 11.2827   6
  -3  -4  -2 258.103 9.25928   2
  -4   3  -2 252.845 13.3200   6
  -4  -3   2 247.704 8.78559   5
  -3  -4  -2 242.026 11.4994   7
   3  -4   2 245.855 9.52091   1
   3  -4   2 258.093 9.14892   3
  -4  -3   2 237.556 11.6387   7
  -3  -4   2 245.184 11.8883   7
   4  -3   2 249.612 8.71064   3
  -4   3   2 248.620 8.89683   8
   3  -4  -2 250.367 9.33268   1
  -3  -4   2 252.547 9.28520   2
  -4  -3  -2 251.575 8.77746   5
  -3   4  -2 242.071 14.1129   6
  -4  -3  -2 276.544 13.0279   7
   4  -3   2 257.800 9.09340   1
  -3  -4   2 255.934 9.65655   3
  -3  -4   2 257.779 8.60555   5
  -4   3   2 248.845 10.8815   6
   4  -4   2 9.18742 2.75809   1
  -4   4  -2 10.8528 5.03361   6
  -4  -4  -2 16.9844 4.68004   7
  -4   4   2 8.06593 3.39600   6
  -4  -4   2 17.0581 2.65223   5
  -4  -4   2 13.9725 4.76598   7
   0  -5   2 153.315 7.43153   3
   0  -5  -2 160.371 7.67819   2
  -5   0  -2 165.047 8.68484   7
  -5   0   2 155.249 6.68831   8
   0  -5  -2 161.931 7.29334   3
  -5   0  -2 169.190 7.04893   5
   0  -5   2 155.273 7.66866   1
  -5   0   2 166.417 6.99596   4
   0  -5  -2 161.182 7.59701   1
  -5   0   2 162.469 7.03676   5
   0  -5   2 163.873 7.76167   2
  -5  -1   2 441.775 13.5628   4
  -1  -5  -2 439.698 13.9732   1
  -5   1  -2 421.731 14.8432   7
   1  -5   2 429.302 13.9959   2
  -5  -1   2 423.910 13.4393   5
  -1  -5  -2 416.951 14.0162   2
  -5   1  -2 441.900 13.1809   5
   1  -5   2 417.545 14.2189   1
  -1   5   2 439.011 18.9386   6
   1  -5   2 421.797 13.8029   3
  -5  -1   2 447.924 12.8473   8
  -1  -5  -2 438.979 13.8628   3
  -1  -5   2 430.378 14.1339   3
  -1   5  -2 413.956 20.3905   6
  -1  -5   2 425.413 13.8482   1
   1  -5  -2 443.670 14.1651   2
  -1  -5   2 419.777 14.1585   2
  -5   1   2 442.882 13.3710   8
  -5   1   2 442.727 12.9331   4
  -5  -1  -2 424.160 13.3130   5
  -5   1   2 421.288 13.0169   5
  -5  -1  -2 432.434 16.2911   7
   1  -5  -2 424.654 13.1588   3
   1  -5  -2 427.243 14.0530   1
  -5  -2   2 127.443 5.64045   8
  -5   2  -2 133.654 9.48387   6
  -2  -5  -2 140.779 6.91990   1
  -2  -5  -2 140.677 7.24944   3
  -2   5   2 138.604 9.91982   6
  -5  -2   2 126.673 6.40898   5
   2  -5   2 126.660 6.85552   3
  -2  -5  -2 128.423 7.02413   2
   2  -5   2 119.759 7.05878   1
  -2  -5  -2 134.915 8.51257   7
   2  -5   2 138.363 6.94080   2
  -2  -5   2 143.303 7.39798   3
   2  -5  -2 133.113 7.16975   1
  -2   5  -2 139.625 13.8370   6
  -2  -5   2 135.666 6.77026   1
   2  -5  -2 134.676 6.34351   3
  -5  -2  -2 118.631 9.06020   7
  -2  -5   2 133.080 7.04707   2
  -5   2   2 131.067 5.95271   5
  -5  -2  -2 139.799 6.60804   5
  -5   2   2 129.128 6.47748   8
   2  -5  -2 134.623 6.91504   2
  -3  -5  -2 244.348 12.6335   7
  -5   3  -2 246.981 13.6773   6
  -5  -3   2 228.517 9.24232   5
  -3  -5  -2 240.576 9.94457   2
  -3   5   2 234.274 12.3886   6
   3  -5   2 254.594 10.3910   1
   3  -5   2 231.351 9.46075   3
  -5   3   2 233.699 11.2375   6
  -3   5  -2 219.982 15.3492   6
  -3  -5   2 231.206 12.9718   7
  -3  -5   2 227.722 10.2111   3
  -5  -3  -2 227.523 9.13600   5
  -5  -3  -2 241.796 13.4976   7
  -3  -5   2 241.333 9.85318   2
   3  -5  -2 244.061 10.0841   1
   4  -5   2 62.7326 7.75520   1
  -5   4  -2 81.8059 10.0049   6
  -5  -4   2 69.4726 5.06297   5
  -4  -5  -2 71.1851 8.82014   7
  -5  -4  -2 77.1278 10.2869   7
  -5   4   2 74.1427 8.32571   6
  -4   5  -2 84.7884 10.6796   6
  -5  -5  -2 86.2344 10.8018   7
   0   6  -2 -0.8236 5.15402   6
   0  -6   2 6.39835 2.83759   1
  -6   0  -2 10.6140 2.59505   5
   0  -6   2 16.4844 3.69141   3
  -6   0  -2 6.76427 3.15525   7
   0  -6   2 8.77855 3.18357   2
   0  -6  -2 8.41385 2.90273   3
  -6   0   2 7.53271 2.45391   8
   0   6   2 11.2810 6.31084   6
   0  -6  -2 8.55962 2.96661   1
   0  -6  -2 11.7360 3.40497   2
  -6   0   2 8.22140 2.43720   5
  -1   6   2 154.743 12.3532   6
  -1  -6  -2 154.892 8.46580   2
   1  -6   2 168.619 8.45641   3
  -1  -6  -2 160.361 8.29959   1
   1  -6   2 158.139 8.38692   2
  -1  -6  -2 152.445 8.20179   3
   1  -6   2 143.808 8.32413   1
  -6   1  -2 153.552 8.80128   7
  -6  -1   2 151.584 7.69051   5
  -6  -1   2 154.843 7.23241   8
  -1  -6   2 162.540 8.48318   3
   1  -6  -2 146.901 7.64414   3
   1  -6  -2 156.351 8.48096   2
  -1   6  -2 136.899 14.0929   6
  -6  -1  -2 151.436 7.62913   5
  -6  -1  -2 140.728 9.35913   7
  -6   1   2 152.718 7.66400   8
  -1  -6   2 167.741 8.45244   1
  -6   1   2 151.654 7.39495   5
   1  -6  -2 146.610 8.25468   1
  -1  -6   2 146.558 8.46411   2
  -2  -6  -2 4.57065 3.68987   7
   2  -6   2 12.0571 3.06903   3
  -2   6   2 5.21897 4.35650   6
  -2  -6  -2 4.34245 2.59055   3
  -2  -6  -2 5.25367 2.77314   2
  -6  -2   2 5.38117 2.28107   5
  -2  -6   2 8.15890 3.03322   2
  -2  -6   2 8.17505 3.04946   3
  -2  -6   2 5.49310 4.25130   7
  -6  -2  -2 10.4339 2.74069   5
  -6  -2  -2 -3.0124 2.82351   7
   2  -6  -2 7.94445 2.59009   3
  -2   6  -2 1.10744 4.91199   6
  -6   2   2 5.14516 2.50852   8
  -6  -3   2 81.9786 5.87986   5
  -6   3  -2 86.9102 10.1649   6
   3  -6   2 65.3515 7.57953   3
  -3  -6  -2 104.766 10.8237   7
  -3   6  -2 91.0225 12.2119   6
  -3  -6   2 96.5475 10.4166   7
  -7   0   2 28.1076 4.15298   8
  -1  -7  -2 96.9471 9.85641   7
  -7  -1   2 97.2447 6.24524   8
   0   0  -3 477.076 12.1879   2
   0  -1   3 3.12847 0.86906   3
   0  -1  -3 1.27540 0.67791   2
   0  -1  -3 2.50863 0.88491   1
  -1   0   3 1.28110 0.64004   8
   0  -1  -3 1.15378 0.62352   3
   0  -1   3 1.37048 0.71587   2
  -1   0   3 2.32132 0.84735   2
  -1   0  -3 2.28826 1.09069   7
  -1   0   3 1.11137 0.75472   4
  -1   0   3 3.15460 0.40309   3
   0  -1   3 3.58961 0.82447   4
  -1   0  -3 3.43756 1.12399   6
   1   0  -3 5.00971 1.28352   2
  -1  -1   3 6990.85 154.628   3
  -1   1  -3 6836.16 154.715   7
  -1   1   3 6760.73 153.268   6
  -1  -1   3 7120.34 158.081   2
  -1  -1  -3 7108.28 156.185   7
  -1  -1  -3 7323.17 156.042   2
   1  -1   3 7094.73 155.517   2
   1  -1  -3 7192.27 151.854   3
  -1   1   3 7138.55 153.825   8
   1  -1  -3 7077.23 154.555   1
  -1   1   3 6803.07 155.807   4
  -1  -1   3 7022.30 155.296   4
  -1   1  -3 6898.45 156.225   6
   1   1  -3 6995.71 155.609   2
   1  -1   3 7113.85 154.488   3
  -1  -1  -3 7008.95 155.101   1
   1  -1  -3 7247.31 155.038   2
  -2   0  -3 235.850 8.26528   6
   0  -2  -3 218.850 6.84286   2
   0  -2   3 241.160 6.99499   3
   0  -2  -3 234.127 6.54832   3
  -2   0   3 238.463 6.65583   5
  -2   0   3 236.727 5.89830   7
  -2   0   3 225.887 6.50869   8
  -2   0   3 234.513 6.70681   4
   0  -2   3 229.911 6.91917   2
   2   0  -3 235.300 7.33586   2
   0  -2   3 236.799 5.66624   4
  -2   0  -3 233.825 6.50671   5
   0  -2  -3 235.017 6.94634   1
  -2  -1   3 10.2561 1.32645   5
  -2  -1   3 10.7007 1.41728   8
   2  -1  -3 11.7556 1.42618   1
  -2  -1   3 10.0593 1.17534   2
  -1   2   3 10.0865 1.95970   6
  -2   1  -3 9.52081 1.81937   7
  -1  -2  -3 11.3348 1.85837   7
   1  -2   3 10.3950 1.41992   2
   2  -1  -3 9.40111 1.26126   2
  -2  -1   3 9.95000 1.43325   4
  -1  -2  -3 11.7750 1.59163   3
  -1   2   3 8.83189 1.01811   8
  -1  -2  -3 7.83316 1.39276   1
  -1  -2  -3 8.17976 1.33674   2
  -1   2   3 10.1348 0.92510   5
  -2   1  -3 14.1679 2.68236   6
   1  -2   3 6.36588 1.53934   3
  -2  -1   3 12.5865 1.72209   7
  -1   2   3 10.6552 1.80354   4
  -2  -1   3 9.81433 1.07561   3
   1  -2  -3 10.4374 1.21550   3
  -1  -2   3 10.0731 1.16229   4
  -2   1   3 11.2973 1.24187   5
  -2   1   3 8.60421 1.26595   4
  -1   2  -3 7.63272 2.58222   6
  -2  -1  -3 9.30894 1.30736   2
  -2   1   3 7.95516 1.14396   2
  -2   1   3 9.16951 1.22343   8
  -1  -2   3 8.56901 1.42915   3
  -1  -2   3 12.3992 1.24192   5
   1  -2  -3 9.59802 1.58086   1
  -2  -1  -3 9.30844 2.00406   7
  -2  -1  -3 7.62859 1.13650   5
  -1  -2   3 8.40029 1.40212   2
  -2   1   3 8.65480 1.47732   6
  -2  -1  -3 11.6934 1.92244   1
   2  -1   3 9.83423 1.17033   2
   1  -2  -3 8.45498 1.32934   2
  -2  -2   3 110.783 4.11555   5
  -2  -2  -3 114.146 4.36207   2
  -2  -2  -3 108.935 4.38247   1
  -2  -2   3 114.722 5.09592   7
  -2  -2   3 104.118 4.26193   2
  -2  -2  -3 114.442 5.53087   7
   2  -2  -3 112.090 4.38428   1
  -2  -2   3 109.657 4.21876   4
  -2  -2  -3 108.935 3.97425   5
  -2   2   3 109.059 3.55717   5
   2  -2  -3 110.831 3.53824   3
   2  -2   3 110.773 4.76116   3
  -2  -2   3 109.766 4.00930   8
   2  -2  -3 110.344 4.20270   2
   2  -2   3 111.413 4.01150   2
  -2  -2   3 112.100 3.82727   1
  -2   2   3 111.540 4.93274   6
  -2  -2   3 100.241 4.08167   3
  -2   2   3 112.506 4.03595   8
  -2   2   3 107.775 3.89462   4
  -2   2  -3 106.881 7.02260   6
  -3   0  -3 1.45383 2.06597   6
  -3   0   3 1.68601 0.83794   7
   0  -3   3 1.83971 0.60226   5
  -3   0  -3 3.05906 1.98747   7
  -3   0   3 1.10064 1.10199   4
  -3   0  -3 -0.5421 0.80154   5
   3   0  -3 2.90354 1.20871   2
  -3   0   3 -0.3169 0.78666   5
  -3   0   3 0.24624 0.93487   8
   0  -3   3 0.65904 1.47657   3
   0  -3  -3 0.27974 1.08911   3
   0  -3  -3 0.30759 1.05454   2
   0  -3   3 0.85819 1.33851   1
   0  -3   3 0.03152 1.13326   2
   0  -3  -3 2.58015 1.47368   1
   3  -1  -3 2904.34 62.7015   1
  -3   1  -3 2823.32 67.5162   6
  -1   3   3 2808.78 63.3212   4
  -3  -1   3 2792.97 63.5835   7
  -3  -1   3 2814.97 63.7354   5
  -1   3   3 2770.03 62.2240   8
  -3  -1   3 2878.43 63.3845   8
   1  -3   3 2982.04 64.1043   2
  -3  -1   3 2911.58 63.8478   4
  -1  -3  -3 2884.32 64.2833   2
  -1   3   3 2828.82 66.5633   6
   3  -1  -3 2809.08 64.1151   2
   1  -3   3 2850.25 64.1802   3
  -3   1  -3 2826.18 65.6516   7
   1  -3   3 2892.81 64.2398   1
  -1  -3  -3 2829.66 63.9259   3
  -1  -3  -3 2872.08 64.0031   1
  -3  -1   3 2940.79 62.1661   2
  -3  -1  -3 2870.57 63.6357   5
  -1  -3   3 2918.64 63.8407   1
  -3   1   3 2896.37 63.5669   8
  -1  -3   3 2918.69 62.5100   5
  -3   1   3 2877.25 64.6073   6
  -3  -1  -3 2829.72 66.8662   7
  -1  -3   3 2858.63 62.5626   4
   1  -3  -3 2919.32 64.0556   2
  -1  -3   3 2739.47 64.1769   2
  -1   3  -3 2918.44 69.8019   6
  -1  -3   3 2872.52 64.0973   3
   1  -3  -3 2874.84 64.2078   1
   1  -3  -3 2915.12 63.2959   3
  -3   1   3 2816.05 63.3620   4
  -3   1   3 2850.31 63.3751   5
  -2  -3  -3 1.62499 1.66350   7
  -3  -2   3 1.02190 0.89931   2
  -3   2  -3 1.90654 1.80017   7
  -3  -2   3 1.14488 0.99607   3
  -3  -2   3 1.87080 1.78241   7
  -2  -3  -3 0.82115 1.26307   3
  -3  -2   3 2.42455 1.11438   5
  -3  -2   3 0.43485 0.86981   8
  -2  -3  -3 2.19455 1.32908   1
  -3  -2   3 0.02188 1.08247   4
   3  -2  -3 1.53721 1.26591   1
  -2   3   3 0.57199 0.92086   8
   2  -3   3 0.34726 1.03620   2
   2  -3   3 -0.5729 1.31381   1
   2  -3   3 -0.5268 1.40739   3
  -2   3   3 4.51759 1.95497   6
  -3   2  -3 1.52895 2.47892   6
  -2  -3  -3 -1.1808 0.93393   2
  -3  -2  -3 2.68827 2.26289   1
  -3   2   3 0.19601 0.88229   4
   2  -3  -3 0.32227 1.07988   2
   2  -3  -3 0.39805 1.00395   3
  -2  -3   3 -0.3603 1.10173   2
  -2  -3   3 2.19581 0.95136   8
   3  -2   3 -0.2899 1.40664   3
  -2  -3   3 -0.2043 0.92354   4
  -3   2   3 3.20855 1.72731   6
  -2  -3   3 3.15047 1.46172   3
  -3  -2  -3 -0.6548 0.84546   5
   3  -2   3 0.54157 1.28822   1
  -2  -3   3 -0.6510 1.00127   1
  -2  -3   3 0.57853 0.80244   5
  -3   2   3 1.64318 1.15771   8
  -3  -2  -3 0.21868 1.84184   7
  -3  -2  -3 1.30540 1.07958   2
  -2   3  -3 0.10269 2.94874   6
  -3   2   3 1.40648 0.85880   5
   2  -3  -3 0.12373 1.36499   1
  -3  -3   3 1337.86 35.1779   7
  -3   3   3 1318.66 33.9144   6
   3  -3   3 1339.46 32.4692   3
  -3   3  -3 1270.74 38.2357   6
  -3  -3   3 1377.46 31.9186   5
  -3  -3  -3 1396.76 35.4998   7
   3  -3  -3 1328.52 32.1864   1
  -3  -3   3 1339.24 32.1646   2
  -3  -3  -3 1370.56 32.1828   2
  -3   3   3 1343.06 31.8390   8
  -3  -3   3 1356.28 32.4388   3
   3  -3   3 1338.42 32.3943   1
  -3  -3   3 1373.56 31.0030   8
  -3  -3   3 1373.79 32.1751   4
   0  -4  -3 31.9294 3.17551   3
   0  -4   3 25.3567 3.07637   2
  -4   0  -3 24.6021 4.03663   7
   0  -4   3 26.7567 3.28284   3
   0  -4  -3 29.2889 3.17985   2
   0  -4   3 32.2553 3.53219   1
   0  -4  -3 25.0142 3.27708   1
  -4   0   3 27.8554 2.87753   5
  -4   0   3 34.1460 3.23675   4
  -4   0   3 28.9613 2.83814   8
  -4   0  -3 30.6911 2.98219   5
  -4   1  -3 12.5828 2.91945   7
  -4  -1   3 8.96837 1.76582   8
  -1   4   3 16.6057 4.07218   6
  -4  -1   3 8.71928 1.74983   5
  -4   1  -3 8.07282 3.21579   6
  -1  -4  -3 11.4145 2.36524   1
   1  -4   3 9.93173 2.34037   3
  -1  -4  -3 9.94620 2.26259   2
  -1  -4  -3 12.5167 2.36883   3
   1  -4   3 12.3180 2.49149   1
   1  -4   3 10.6347 2.24699   2
  -4  -1   3 10.1410 2.08188   4
  -1  -4   3 12.0306 2.33460   1
  -1  -4   3 10.0653 2.23130   3
  -4  -1  -3 9.18836 1.88464   5
  -4   1   3 8.51170 1.91431   8
  -4   1   3 12.7374 2.08038   4
  -4   1   3 8.43587 1.72833   5
   1  -4  -3 8.14029 2.10732   2
   1  -4  -3 9.24695 1.92775   3
  -1   4  -3 17.5337 5.38223   6
   4  -1   3 12.5673 2.52021   3
  -4  -1  -3 11.1978 3.33882   7
   1  -4  -3 7.11395 2.14563   1
  -1  -4   3 9.09019 2.06978   2
  -4  -2   3 14.5930 2.01158   8
  -2  -4  -3 13.0369 2.45846   1
  -2  -4  -3 14.3579 3.12348   7
   2  -4   3 18.5913 3.04593   3
  -2  -4  -3 13.9963 2.60453   3
  -4   2  -3 16.4218 3.31837   7
  -4  -2   3 18.0249 2.63244   4
   2  -4   3 13.6900 2.77869   1
  -4   2  -3 14.5964 4.18929   6
  -4  -2   3 13.6242 2.21267   5
  -2   4   3 13.2529 3.40274   6
  -2  -4  -3 10.9931 2.37376   2
   2  -4   3 18.3267 2.69360   2
  -4   2   3 14.7379 2.41806   8
  -4  -2  -3 12.8370 3.68637   7
   2  -4  -3 12.6970 2.35211   2
   2  -4  -3 10.7207 2.56367   1
  -2  -4   3 13.4503 2.50125   2
   4  -2   3 13.9491 2.46393   3
  -4  -2  -3 12.1412 2.15602   5
   2  -4  -3 18.7697 2.41501   3
  -4   2   3 14.2523 2.07639   5
  -4   2   3 15.0699 2.12969   4
  -2   4  -3 21.0071 5.81932   6
  -2  -4   3 15.8276 2.92871   3
  -2  -4   3 12.8194 2.34989   1
  -4   2   3 17.2457 3.14427   6
  -3  -4  -3 3.28103 1.89582   2
   3  -4   3 -0.0876 1.84259   1
  -3  -4  -3 6.00335 3.05871   7
   3  -4   3 3.30182 2.20518   3
  -3   4   3 2.77952 2.49810   6
  -4  -3   3 2.13273 1.56503   5
  -4   3  -3 -1.5543 3.53261   6
  -4  -3  -3 6.55228 3.43244   7
   3  -4  -3 2.63697 2.06249   1
  -3  -4   3 3.68598 1.39976   5
   4  -3   3 1.40196 2.02069   3
  -3  -4   3 4.87995 3.06259   7
  -3  -4   3 3.38472 1.68677   2
  -4   3   3 5.03166 2.55451   6
   4  -3   3 1.29823 1.86654   1
  -3  -4   3 1.69428 1.89359   3
  -4   3   3 3.36674 1.85704   8
  -3   4  -3 4.13179 4.43901   6
   4  -4   3 4.49134 2.36188   3
  -4  -4  -3 6.65322 3.64260   7
   4  -4   3 6.81039 2.67754   1
  -4   4  -3 5.89035 4.72413   6
  -4   4   3 6.08437 3.10141   6
  -4  -4   3 3.57219 1.79936   5
   0  -5   3 0.91940 2.17961   3
   0  -5  -3 2.20712 1.97835   2
   0  -5  -3 4.26607 2.02796   3
  -5   0  -3 3.53885 2.79101   7
  -5   0   3 5.77161 1.96092   8
   0   5  -3 7.33157 5.01661   6
  -5   0   3 4.08238 1.95400   4
   0  -5  -3 4.43919 2.39883   1
  -5   0  -3 2.76566 1.68490   5
  -5   0   3 5.04670 2.02412   5
   0  -5   3 4.74528 2.51916   1
   0  -5   3 1.70692 1.97626   2
  -1  -5  -3 747.355 20.9892   2
  -5   1  -3 712.163 22.2736   7
  -5  -1   3 718.439 20.1235   4
   1  -5   3 723.216 20.6907   2
  -5  -1   3 710.480 19.3286   8
  -1   5   3 716.690 24.6411   6
   1  -5   3 725.536 20.8955   1
  -1  -5  -3 746.574 20.5186   3
   1  -5   3 710.862 20.6169   3
  -1  -5  -3 705.377 20.4305   1
  -5  -1   3 732.023 20.2578   5
  -5   1   3 751.294 19.6881   4
  -1   5  -3 748.202 27.8489   6
  -1  -5   3 716.278 20.9829   2
   1  -5  -3 722.558 19.6631   3
  -5  -1  -3 689.164 23.4774   7
  -1  -5   3 727.430 20.7900   3
  -1  -5   3 719.278 20.5533   1
   1  -5  -3 734.712 20.7966   2
  -5   1   3 756.318 19.9923   8
  -5  -1  -3 729.807 20.0315   5
  -5   1   3 701.423 19.6426   5
   1  -5  -3 725.737 20.7497   1
  -2  -5  -3 0.53043 1.83386   1
  -2  -5  -3 0.01803 2.02234   2
   2  -5   3 1.93246 2.37384   3
  -5  -2   3 2.28111 1.71991   5
  -2  -5  -3 2.60746 2.06664   3
  -5  -2   3 0.55723 1.48113   8
  -2  -5  -3 3.31652 2.90152   7
   2  -5   3 1.34013 2.35399   1
  -2   5   3 6.72071 3.27111   6
  -5   2  -3 1.24780 3.60516   6
   2  -5   3 2.18504 2.34447   2
  -5   2   3 1.44232 1.86996   8
   2  -5  -3 3.04181 1.86354   3
  -5  -2  -3 2.39317 1.75516   5
  -2  -5   3 2.67764 2.07977   1
   2  -5  -3 6.03151 2.45414   2
  -2  -5   3 0.72976 1.85789   2
   2  -5  -3 -2.1010 1.94617   1
  -2   5  -3 3.11253 5.05104   6
  -5   2   3 1.19029 1.39202   5
  -2  -5   3 2.54146 2.45941   3
  -5  -2  -3 -0.4958 2.66418   7
  -5  -3   3 398.400 13.3339   5
  -3  -5  -3 389.065 13.6979   2
   3  -5   3 391.098 13.5909   3
   3  -5   3 436.349 14.6436   1
  -3  -5  -3 395.378 16.5883   7
  -5   3  -3 437.394 19.1819   6
  -5  -3  -3 421.350 18.2016   7
  -5   3   3 417.776 13.4723   8
  -3  -5   3 413.295 14.1366   2
  -5   3   3 413.500 15.1829   6
  -3  -5   3 402.762 14.4641   3
   3  -5  -3 404.659 14.0138   1
  -3   5  -3 351.736 19.9796   6
  -3  -5   3 364.861 16.8295   7
   4  -5   3 0.76288 2.65558   1
  -5  -4   3 3.27681 1.83042   5
  -4  -5  -3 -0.4166 3.06255   7
  -5   4  -3 -5.3196 4.24497   6
  -4   5  -3 2.57878 5.61405   6
  -5  -4  -3 -5.4481 3.11174   7
  -5  -5  -3 168.210 12.9165   7
  -6   0  -3 1.90651 2.90315   7
   0  -6  -3 2.08909 2.38473   2
   0   6  -3 -5.2880 4.75530   6
   0  -6   3 -0.6919 2.16373   2
   0  -6  -3 1.40828 2.15568   3
   0  -6  -3 1.41969 2.29299   1
   0  -6   3 2.36586 2.47393   1
   0   6   3 -1.0763 4.67932   6
  -6   0   3 3.95741 2.10502   5
   0  -6   3 6.47169 3.03790   3
  -6   0   3 3.65781 2.22617   8
   1  -6   3 8.93759 3.21805   3
  -1  -6  -3 8.59236 2.78127   1
  -1  -6  -3 7.04268 3.09514   2
  -1  -6  -3 2.82860 3.33619   7
  -6   1  -3 8.75183 3.52318   7
  -6  -1   3 12.1465 2.78550   8
   1  -6   3 8.59876 3.08040   1
  -6  -1   3 11.8216 2.71475   5
   1  -6   3 10.6616 3.17915   2
  -1  -6  -3 6.54806 2.81760   3
  -6  -1  -3 6.11229 3.67599   7
   1  -6  -3 11.7789 3.30339   1
  -1  -6   3 11.1592 3.36244   2
  -1   6  -3 3.89743 5.33389   6
  -1  -6   3 7.43461 2.86263   1
  -1  -6   3 5.54222 2.71259   3
   1  -6  -3 6.67274 2.73640   2
  -6   1   3 6.87994 2.34012   5
  -6   1   3 5.38873 2.59540   8
   1  -6  -3 6.97384 2.60382   3
  -2  -6  -3 2.44353 3.61797   7
  -2  -6  -3 -1.3497 1.98569   3
  -2  -6  -3 -1.2287 2.20496   2
   2  -6   3 -0.4310 2.49053   3
  -6  -2   3 2.69580 2.01663   5
  -2   6  -3 -1.3523 4.60857   6
  -2  -6   3 3.78820 2.59278   3
  -2  -6   3 2.89947 2.32979   2
  -2  -6   3 -2.9413 3.58104   7
  -6  -2  -3 3.84696 3.67626   7
  -6   2   3 6.14288 2.59532   8
  -6  -3   3 1.55807 1.92815   5
  -3  -6  -3 3.26377 3.61621   7
  -6   3  -3 3.76456 5.19588   6
  -6  -3  -3 0.73711 3.65077   7
  -3   6  -3 1.03284 5.65084   6
  -7   0   3 4.43596 2.55903   8
  -7  -1   3 155.840 8.07587   8
  -7   1   3 162.527 8.67185   8
   0   0  -4 2242.29 50.4531   2
   0   0  -4 2250.01 49.0603   7
   0   0  -4 2243.20 48.8588   6
   0  -1   4 1063.30 23.8499   2
   0  -1  -4 1016.66 23.7539   2
  -1   0  -4 1000.50 23.8322   2
  -1   0   4 1004.15 22.4098   3
  -1   0   4 1034.50 23.7906   4
   0  -1   4 1019.11 23.4794   4
  -1   0  -4 928.488 23.9203   6
   0  -1  -4 1037.36 23.7629   1
  -1   0   4 1030.56 24.0468   2
   0  -1  -4 1026.91 23.1107   7
  -1   0  -4 998.552 24.0743   7
   0   1  -4 1031.16 23.7392   2
   0  -1   4 1018.14 23.4583   3
   1   0  -4 1041.11 24.6447   2
  -1  -1   4 900.026 20.9293   3
  -1   1   4 929.221 20.5526   6
  -1   1   4 904.558 20.9622   8
   1  -1  -4 923.698 21.7353   2
  -1  -1  -4 925.195 22.1307   7
  -1   1  -4 924.042 23.4555   6
   1  -1  -4 938.617 21.5802   1
   1  -1   4 924.132 21.7780   2
  -1   1  -4 930.388 22.2086   7
  -1  -1   4 897.353 21.6108   2
   1   1  -4 928.225 22.1080   2
   1  -1   4 947.788 22.2416   3
  -1  -1   4 920.820 21.3270   4
  -1  -1  -4 939.649 21.8270   2
  -1  -1  -4 916.745 22.0003   1
  -1   1   4 897.998 22.2883   4
  -2   0   4 1266.27 28.2921   2
  -2   0  -4 1240.62 30.4399   7
   0  -2  -4 1274.55 29.0978   1
   0  -2  -4 1246.35 28.5013   3
   0  -2   4 1250.45 27.6827   4
   0  -2   4 1261.91 29.1119   3
  -2   0   4 1266.10 28.6918   8
   0  -2  -4 1247.76 29.1467   2
  -2   0   4 1240.06 28.7507   5
  -2   0   4 1233.58 28.8521   4
   0  -2   4 1308.46 29.2765   2
  -2   0  -4 1233.29 30.6982   6
   2   0  -4 1210.52 29.8053   2
  -2  -1   4 593.547 14.6492   8
   1  -2   4 592.499 15.2499   3
  -1   2   4 589.804 14.9067   6
   2  -1  -4 590.922 14.9043   2
  -2   1  -4 596.368 16.2541   7
  -2  -1   4 579.861 14.6731   4
  -1   2   4 591.219 13.8166   8
  -1  -2  -4 590.102 15.3689   7
   2  -1  -4 599.294 14.5104   1
  -1  -2  -4 587.553 14.9462   1
  -2  -1   4 600.726 14.7637   5
  -2  -1   4 605.779 14.4969   2
  -2  -1   4 619.477 14.2057   7
   1  -2   4 576.419 14.7450   2
  -2  -1   4 569.615 13.6360   3
  -2   1  -4 518.909 16.8673   6
   1  -2   4 602.403 13.5115   4
  -1   2   4 576.072 15.7135   4
  -1  -2  -4 554.316 14.8505   2
  -2   1   4 579.125 14.3964   8
  -2   1   4 592.148 14.4222   5
  -2   1   4 584.156 14.7352   4
  -1  -2   4 585.667 15.0879   2
  -2   1   4 579.912 14.4588   6
   2   1  -4 617.189 15.3343   2
   1  -2  -4 581.003 13.9391   3
   1  -2  -4 584.556 14.8877   2
  -2   1   4 596.465 14.9380   2
  -1  -2   4 573.867 14.0576   4
  -1  -2   4 595.109 14.3844   5
   2  -1   4 606.260 14.5838   2
  -1  -2   4 572.698 14.6567   3
  -1   2  -4 587.978 18.0271   6
  -2  -1  -4 585.136 16.4470   7
  -2  -1  -4 596.501 14.8966   2
   1  -2  -4 595.920 14.9485   1
  -2  -1  -4 595.397 15.7545   1
  -2  -2   4 786.601 20.2120   7
  -2   2   4 799.646 18.6986   5
  -2  -2   4 786.956 19.3866   8
  -2   2   4 787.157 19.3189   4
   2  -2  -4 814.223 19.6658   2
  -2  -2   4 786.967 19.2167   3
  -2   2   4 780.882 19.8077   6
  -2  -2   4 815.484 19.4723   4
  -2  -2   4 807.974 19.4421   5
  -2  -2  -4 776.263 21.1408   7
   2  -2   4 824.445 19.3066   2
  -2   2   4 813.391 19.1666   8
  -2  -2   4 795.250 19.7578   2
   2  -2  -4 812.043 18.2330   3
   2  -2   4 806.309 20.3152   3
  -2  -2  -4 825.957 19.7905   2
   2  -2  -4 814.693 19.6427   1
  -2  -2  -4 795.461 19.9251   1
  -2   2  -4 804.483 23.7132   6
  -3   0   4 420.029 11.5072   4
   0  -3   4 389.701 9.90044   4
   0  -3  -4 414.616 11.3339   3
   0  -3  -4 408.229 11.8756   2
   0  -3   4 419.156 12.0031   3
  -3   0   4 418.046 11.3222   8
  -3   0  -4 415.818 14.0756   6
   0  -3  -4 427.594 11.9496   1
   0  -3   4 406.974 11.8358   1
  -3   0   4 423.088 11.5125   5
   3   0  -4 414.610 11.9730   2
   0  -3   4 434.864 12.0734   2
  -3   0  -4 391.297 13.4577   7
   3  -1  -4 363.870 9.96154   1
   1  -3   4 376.412 10.9219   2
  -1  -3  -4 341.408 10.8848   2
  -1   3   4 364.337 9.20726   8
  -1  -3  -4 377.862 10.9484   1
   1  -3   4 364.501 11.1647   3
  -1   3   4 364.217 11.1808   4
  -3   1  -4 364.492 12.4923   7
  -3  -1   4 369.515 10.3889   8
  -1  -3  -4 387.875 11.6489   7
   1  -3   4 375.953 11.2052   1
  -3  -1   4 378.721 10.7386   5
   3  -1  -4 362.202 10.9440   2
  -1   3   4 388.153 12.1023   6
  -3  -1   4 373.650 10.7920   4
  -3  -1   4 368.119 9.48102   2
  -1  -3  -4 369.550 10.7815   3
  -3   1  -4 355.670 13.6620   6
  -3   1   4 364.503 10.3147   5
  -1  -3   4 368.669 9.58094   4
  -1  -3   4 380.281 9.71486   5
  -1   3  -4 459.100 15.8998   6
   1  -3  -4 377.526 10.1565   3
  -1  -3   4 367.733 10.6955   1
  -3   1   4 378.690 10.5211   4
   1  -3  -4 365.052 10.8704   2
   1  -3  -4 385.038 11.1872   1
  -1  -3   4 375.341 11.2214   2
  -3   1   4 366.873 10.4229   8
  -1  -3   4 384.198 11.1108   3
  -3  -1  -4 366.642 12.9681   7
  -3  -2   4 287.279 8.94839   5
   3  -2  -4 296.973 8.73277   1
  -2  -3  -4 286.312 9.20197   1
  -2   3   4 280.624 8.07029   4
  -3   2  -4 278.421 10.6477   7
   2  -3   4 288.194 8.86017   2
   2  -3   4 286.148 9.40108   1
  -3  -2   4 274.799 8.38040   3
  -3  -2   4 291.052 8.48211   2
   2  -3   4 289.948 9.57073   3
  -3  -2   4 286.212 9.02382   4
  -2   3   4 274.994 9.66214   6
  -3  -2   4 290.430 8.55645   8
  -2   3   4 281.663 8.14898   8
  -2  -3  -4 293.098 9.26886   2
  -2  -3  -4 283.222 10.3619   7
  -3  -2   4 280.541 10.4646   7
  -3   2  -4 281.016 12.7077   6
  -2  -3   4 294.249 8.40983   5
  -3  -2  -4 286.926 8.66733   2
   3  -2   4 268.098 9.36006   3
   2  -3  -4 285.953 7.96124   3
  -2  -3   4 293.071 8.47011   4
  -3  -2  -4 279.721 11.2349   7
  -2  -3   4 281.815 9.07432   3
   2  -3  -4 280.444 9.15938   1
  -3   2   4 288.292 8.24895   5
  -3  -2  -4 275.855 9.56122   1
  -3   2   4 283.450 8.45251   4
  -2  -3   4 285.117 8.44521   8
  -3   2   4 293.219 9.47820   6
  -3   2   4 277.542 8.66938   8
   2  -3  -4 286.161 9.05707   2
  -2   3  -4 283.583 13.4005   6
  -2  -3   4 270.893 8.45835   1
  -2  -3   4 278.133 9.27047   2
   3  -3  -4 179.864 7.13186   1
  -3  -3   4 202.765 7.31989   4
  -3  -3   4 189.579 8.86470   7
  -3  -3   4 178.303 6.83767   5
  -3  -3  -4 184.930 9.27270   7
  -3  -3  -4 205.537 7.39910   2
   3  -3   4 198.100 7.73542   3
   3  -3   4 195.247 7.59283   1
  -3  -3   4 195.571 7.30878   3
  -3  -3   4 185.934 7.11719   2
  -3   3  -4 173.011 11.2991   6
  -3   3   4 186.515 6.86742   8
  -3   3   4 200.892 8.20513   6
  -3  -3   4 193.031 6.46416   8
  -4   0  -4 357.427 13.8859   7
   0  -4  -4 374.900 11.3506   3
  -4   0   4 397.513 11.4145   8
   0  -4   4 374.842 12.0622   2
   0  -4  -4 382.753 12.0746   2
   0  -4   4 390.258 11.9913   1
  -4   0   4 380.461 11.4841   4
   0  -4  -4 370.362 11.9763   1
   0  -4   4 375.599 12.1403   3
  -4   0   4 369.272 11.4070   5
  -1  -4  -4 183.570 7.32470   3
  -1   4   4 192.922 9.26692   6
  -1  -4  -4 178.558 7.51758   2
  -4  -1   4 181.630 6.78560   8
   1  -4   4 182.223 7.70855   3
   1  -4   4 181.872 7.64601   1
  -4  -1   4 191.498 7.33024   4
  -4  -1   4 182.327 7.14423   5
  -4   1  -4 192.108 9.23705   7
   1  -4   4 180.654 7.41068   2
  -1  -4  -4 185.254 7.47998   1
  -4   1  -4 175.785 9.99041   6
   1  -4  -4 169.538 7.50499   1
  -1  -4   4 183.840 7.70575   3
  -4   1   4 191.378 6.94254   5
  -1  -4   4 176.363 7.18881   1
   1  -4  -4 183.556 6.73419   3
  -4   1   4 183.264 6.97433   8
   1  -4  -4 179.723 7.38056   2
  -4   1   4 186.091 6.88312   4
  -1  -4   4 179.223 7.65464   2
   4  -1   4 175.541 7.74184   3
  -1   4  -4 197.430 11.7948   6
  -4  -1  -4 185.319 9.56996   7
   2  -4   4 275.197 10.0108   1
   2  -4   4 249.073 9.66608   3
  -4   2  -4 264.614 11.3821   7
  -4   2  -4 246.277 13.1065   6
  -2  -4  -4 261.478 9.68782   2
  -4  -2   4 278.664 9.48978   5
  -4  -2   4 268.402 9.52388   4
  -2  -4  -4 272.792 9.65403   1
  -2   4   4 277.323 10.7009   6
  -2  -4  -4 266.553 11.0397   7
  -4  -2   4 264.343 8.71390   8
  -2  -4  -4 271.410 9.92034   3
   2  -4   4 278.267 9.52358   2
  -2  -4   4 278.232 9.98497   3
  -4  -2  -4 290.099 12.7301   7
   2  -4  -4 273.133 9.63485   2
  -4   2   4 280.171 10.1971   6
   2  -4  -4 261.343 9.68979   1
  -4   2   4 277.705 8.67711   5
  -2  -4   4 277.219 9.97630   2
  -2  -4   4 276.605 9.23684   1
  -4   2   4 268.782 8.67009   4
   2  -4  -4 264.353 8.48013   3
  -4   2   4 272.315 9.21434   8
   4  -2   4 265.875 9.64221   3
  -2   4  -4 279.169 15.0460   6
  -3   4   4 100.570 8.59933   6
  -4  -3   4 110.605 5.63047   5
  -3  -4  -4 101.448 7.45789   7
   3  -4   4 106.070 6.18575   1
  -4  -3   4 100.309 5.69309   4
   3  -4   4 108.370 6.18298   3
  -4   3  -4 101.917 10.6624   6
  -3  -4  -4 111.117 5.95688   2
  -4   3   4 114.799 6.71654   6
  -3  -4   4 116.551 6.27687   3
  -4  -3  -4 105.319 9.16856   7
   3  -4  -4 109.445 6.04280   1
  -3   4  -4 107.014 11.3383   6
  -3  -4   4 103.701 5.81809   2
   4  -3   4 106.706 5.94206   3
   4  -3   4 112.984 5.78762   1
  -3  -4   4 100.956 4.89552   5
  -4   3   4 108.085 5.60461   8
  -3  -4   4 96.7820 8.71378   7
   4  -4   4 115.037 6.64073   3
  -4  -4   4 110.801 5.85812   5
  -4   4  -4 125.078 13.3224   6
  -4  -4  -4 125.176 11.0841   7
   4  -4   4 121.199 6.87420   1
  -5   0   4 125.163 6.17717   8
   0  -5   4 128.278 7.16664   3
  -5   0   4 128.284 6.36847   5
   0  -5   4 120.189 6.77967   1
   0   5   4 129.159 10.5633   6
   0  -5  -4 118.631 6.73773   1
  -5   0  -4 123.905 8.78571   7
   0  -5  -4 131.543 7.08772   2
   0   5  -4 96.3689 10.6536   6
  -5   0   4 133.492 6.41614   4
   0  -5  -4 117.883 6.23947   3
   0  -5   4 117.471 6.73466   2
  -5  -1   4 100.023 6.01359   4
  -1  -5  -4 112.989 7.33696   7
   1  -5   4 109.591 6.40861   2
  -1  -5  -4 113.164 6.28952   3
  -1   5   4 107.092 8.19140   6
   1  -5   4 98.5778 6.52771   3
  -1  -5  -4 103.395 6.29379   1
  -1  -5  -4 114.058 6.65229   2
  -5   1  -4 114.966 8.14287   7
  -5   1  -4 128.527 9.57598   6
  -5  -1   4 107.529 5.61003   8
  -5  -1   4 101.597 5.83895   5
   1  -5   4 90.6985 6.33147   1
   1  -5  -4 109.758 6.44924   2
  -1  -5   4 112.670 6.72945   3
  -5  -1  -4 95.2097 8.91433   7
  -1   5  -4 125.420 12.0609   6
  -1  -5   4 112.209 6.61517   2
  -5   1   4 102.638 5.72666   5
   1  -5  -4 112.241 5.78999   3
  -5   1   4 115.059 6.01863   8
  -1  -5   4 87.7346 6.03087   1
  -5   1   4 112.587 5.81387   4
   1  -5  -4 105.564 6.57487   1
   5  -1   4 107.434 8.19570   3
   2  -5   4 92.0083 6.36878   1
   2  -5   4 89.3769 6.28575   3
  -2  -5  -4 101.669 7.60495   7
  -2  -5  -4 92.2217 6.10527   3
  -2  -5  -4 95.6966 6.00040   1
  -5  -2   4 97.5413 5.95778   4
  -2  -5  -4 88.9379 6.06160   2
  -5  -2   4 92.1289 5.08712   8
  -5  -2   4 94.6104 5.73341   5
  -5   2  -4 86.6974 9.53090   6
  -5   2   4 90.5666 5.69828   8
  -2  -5   4 91.9612 6.20599   2
  -5   2   4 98.8957 5.23814   5
  -2   5  -4 92.5080 10.7321   6
  -5  -2  -4 84.2545 8.83720   7
   2  -5  -4 91.5205 6.11429   1
   2  -5  -4 91.2871 6.13634   2
   2  -5  -4 89.6281 5.56654   3
  -2  -5   4 112.127 8.17300   1
  -2  -5   4 99.7172 6.51101   3
  -3  -5  -4 66.3495 7.58236   7
  -5  -3   4 67.5676 5.76472   5
   3  -5   4 68.8296 6.41805   1
  -3  -5  -4 55.3948 5.42514   2
  -5   3  -4 73.9594 9.80800   6
   3  -5   4 62.2061 5.64585   3
  -3  -5   4 58.2350 5.94566   3
   3  -5  -4 68.2041 6.22430   1
  -3  -5   4 58.6207 5.71289   2
  -3   5  -4 62.4285 9.82720   6
  -5  -3  -4 63.7683 8.30118   7
  -5   3   4 54.8269 5.21563   8
  -5   4  -4 47.1721 8.93252   6
  -4  -5  -4 40.0822 6.75019   7
  -5  -4   4 54.5425 5.11328   5
  -4   5  -4 41.8871 9.07989   6
  -5  -4  -4 68.2838 9.29573   7
   0  -6   4 86.4375 6.71626   1
   0  -6  -4 98.3654 6.80419   1
   0  -6  -4 79.9365 5.92024   3
   0   6  -4 98.0461 11.6591   6
   0  -6  -4 83.6410 6.63629   2
  -6   0   4 98.1395 6.14033   5
  -6   0   4 79.3636 5.73924   8
  -6   0  -4 94.3417 9.21756   7
   0  -6   4 77.4100 6.38857   2
   0  -6   4 81.1416 6.96015   3
  -6   0   4 80.5657 5.68366   4
  -6  -1   4 30.5676 4.04166   5
   1  -6   4 47.9845 5.55870   3
   1  -6   4 49.7857 6.07649   1
   1  -6   4 48.6511 5.61361   2
  -1  -6  -4 48.3988 5.84986   1
  -6  -1   4 46.7915 4.63769   8
  -6   1  -4 34.3474 5.81670   7
  -1  -6  -4 44.8780 5.16422   3
  -1  -6  -4 41.8551 5.90093   7
  -1  -6  -4 40.2770 5.27032   2
  -6  -1  -4 43.1316 7.18364   7
  -6   1   4 45.6911 5.02651   8
  -1   6  -4 44.1221 8.41546   6
  -6   1   4 46.1361 4.73124   4
   1  -6  -4 49.4800 4.88048   3
  -6   1   4 43.2078 4.56222   5
  -1  -6   4 39.5449 5.32898   2
  -1  -6   4 34.1549 4.79543   1
   1  -6  -4 45.5726 5.67824   1
  -1  -6   4 43.0345 5.60325   3
   1  -6  -4 38.2094 5.23304   2
  -6  -2   4 81.7748 6.91354   5
  -2  -6  -4 57.1750 7.15463   7
   2  -6   4 69.0600 6.64679   3
  -2  -6  -4 67.7998 6.62514   2
  -6  -2   4 70.0946 5.54897   8
  -2   6  -4 59.7514 9.85056   6
   2  -6  -4 53.6774 9.46385   2
  -6   2   4 63.4439 5.86207   8
  -2  -6   4 66.6500 7.00574   3
  -2  -6   4 67.9758 8.42921   7
  -6  -2  -4 77.4829 8.84211   7
  -2  -6   4 63.0224 6.62542   2
  -3  -6  -4 31.3757 6.27391   7
  -6   3  -4 27.4270 7.82218   6
  -6  -3   4 30.8783 4.41880   5
  -3   6  -4 40.9773 9.23055   6
  -6  -3  -4 29.5286 6.57553   7
   0  -7  -4 26.4041 5.63906   7
  -7   0   4 30.9462 4.54733   8
  -7   0  -4 31.5675 6.00205   7
  -7  -1   4 22.2017 3.97966   8
  -7  -1  -4 20.0113 7.53887   7
  -7   1   4 25.5816 4.57212   8
   0   0  -5 3855.27 82.9626   7
   0   0  -5 3781.56 84.6318   2
   0   0  -5 3838.78 82.6408   6
  -1   0  -5 675.306 17.1234   6
   0  -1  -5 708.329 17.2628   1
  -1   0   5 676.886 17.6855   2
   0  -1  -5 682.306 17.2372   2
  -1   0  -5 706.448 17.2849   7
   1   0  -5 697.437 17.9695   2
   0  -1  -5 687.017 16.2840   7
   0  -1   5 682.232 16.8715   3
   0  -1   5 703.461 17.1175   4
  -1   0  -5 646.910 17.2240   2
  -1   0   5 669.917 15.7887   3
  -1   0   5 685.874 17.4117   4
   0  -1   5 686.542 17.3161   2
   0   1  -5 688.583 17.2618   2
  -1   1   5 1495.46 34.0362   8
  -1  -1   5 1505.06 33.9512   3
  -1   1  -5 1481.85 35.2811   7
   1  -1  -5 1575.51 35.2131   2
   1  -1   5 1524.70 35.1983   2
   1  -1  -5 1563.72 34.8762   1
  -1   1  -5 1535.55 36.3335   6
  -1   1   5 1404.19 35.6564   4
  -1  -1  -5 1532.86 35.2316   7
  -1  -1  -5 1511.64 35.1575   2
   1   1  -5 1608.34 35.7019   2
  -1  -1  -5 1472.07 35.3907   1
  -1  -1   5 1484.97 34.5304   4
  -1  -1   5 1548.79 35.0417   2
   0  -2  -5 2227.56 51.0800   2
  -2   0   5 2307.26 50.6512   8
   0  -2  -5 2268.76 51.0382   1
  -2   0  -5 2288.11 52.3456   7
  -2   0  -5 2130.97 52.3372   6
   0  -2   5 2280.91 49.6884   4
   0  -2   5 2278.35 51.1847   2
   2   0  -5 2340.92 52.1969   2
  -2   0   5 2287.87 50.6499   2
  -2   0  -5 2297.53 49.7480   2
  -2   0   5 2249.68 50.9607   4
   0   2   5 2285.81 49.1528   8
  -2   0   5 2235.18 50.7312   5
   0  -2   5 2212.61 50.9474   3
   2  -1  -5 433.523 11.4631   1
  -2  -1   5 430.807 11.4166   2
  -2  -1   5 421.220 11.5274   4
  -2   1  -5 425.391 12.9847   7
   1  -2   5 419.452 12.1580   3
  -1  -2  -5 414.429 11.8267   1
  -2  -1   5 421.303 11.5531   5
   1  -2   5 422.650 11.6408   2
  -1   2   5 416.822 10.7704   6
  -2   1  -5 425.551 13.8949   6
  -2  -1   5 423.511 11.5530   8
  -2  -1   5 414.438 10.2072   3
  -1  -2  -5 424.676 11.8237   2
   1  -2   5 423.038 10.7059   4
   2  -1  -5 435.214 12.0591   2
  -1   2   5 391.865 12.8130   4
  -1   2   5 419.548 10.4848   8
  -1  -2  -5 434.413 12.1364   7
  -1  -2   5 428.074 10.9109   4
  -1  -2   5 435.455 11.9958   2
   2   1  -5 442.255 12.4392   2
  -2   1   5 422.012 11.1225   8
  -2   1   5 427.856 11.8186   4
  -2   1   5 401.063 11.1230   5
   1  -2  -5 433.108 11.7775   2
  -1  -2   5 409.174 11.3839   3
  -1   2  -5 427.875 14.3285   6
  -2  -1  -5 412.701 12.9602   7
   1  -2  -5 421.754 11.6931   1
  -2  -1  -5 433.556 12.0296   2
  -2   1   5 409.914 12.1036   2
   2  -1   5 419.085 11.6706   2
   1  -2  -5 429.748 10.5920   3
  -2  -2   5 1425.42 33.2829   5
   2  -2  -5 1442.02 31.6747   3
   2  -2  -5 1427.77 33.4439   1
  -2   2   5 1435.97 33.5083   4
  -2  -2   5 1393.65 33.4843   7
  -2   2   5 1442.74 33.0135   6
  -2  -2  -5 1418.61 34.0480   1
  -2  -2  -5 1452.39 35.1023   7
  -2  -2   5 1412.88 33.5847   2
  -2  -2   5 1451.55 33.2055   4
   2  -2  -5 1452.85 33.6662   2
  -2   2  -5 1495.71 37.8964   6
   2  -2   5 1454.71 34.4176   3
   2  -2   5 1472.98 33.2608   2
  -2  -2   5 1410.71 32.8675   3
  -2   2   5 1411.93 32.5045   5
  -2  -2  -5 1432.93 33.7104   2
  -2   2   5 1373.50 32.6512   8
   0  -3  -5 414.462 11.1875   3
  -3   0   5 411.711 11.6259   4
   0  -3  -5 402.335 11.8352   1
   0  -3   5 411.462 12.0346   3
  -3   0   5 394.032 11.2638   8
  -3   0   5 403.924 11.4185   5
   0  -3  -5 400.205 11.9139   2
  -3   0  -5 400.957 13.5449   7
   0  -3   5 416.218 12.0700   2
  -3   0  -5 381.463 13.8039   6
   3   0  -5 369.547 12.1004   2
  -3   1  -5 561.903 17.4258   7
  -3  -1   5 545.308 15.2671   5
   1  -3   5 572.835 15.9869   3
  -3  -1   5 567.039 15.0900   8
   3  -1  -5 578.518 14.8905   1
  -1   3   5 566.027 15.7007   6
  -3  -1   5 587.007 15.4755   4
  -3   1  -5 528.904 18.4036   6
  -1  -3  -5 566.579 15.6240   1
   3  -1  -5 554.729 16.0867   2
  -1  -3  -5 580.279 16.1757   7
   1  -3   5 583.690 15.6798   2
  -1   3   5 548.876 16.4568   4
  -1  -3  -5 589.828 15.8281   2
  -3  -1   5 559.198 14.2023   2
  -1  -3  -5 572.755 15.3893   3
  -1  -3   5 568.441 15.6474   3
  -1  -3   5 570.395 14.0867   4
  -3   1   5 581.280 15.0529   5
   1  -3  -5 590.330 15.7505   2
  -1  -3   5 581.183 15.9577   2
  -3   1   5 580.988 15.2960   4
   3   1  -5 601.836 15.9009   2
  -1   3  -5 602.867 19.6094   6
  -3  -1  -5 594.588 17.8002   7
   1  -3  -5 566.794 15.6544   1
  -1  -3   5 588.609 14.4624   5
  -3   1   5 562.773 15.0210   8
   1  -3  -5 568.682 14.5112   3
  -3  -2   5 279.980 8.78555   8
  -3  -2   5 278.896 9.06458   4
  -3  -2   5 273.302 8.60428   2
  -3   2  -5 280.680 12.8469   6
  -2  -3  -5 276.988 10.4800   7
  -2   3   5 279.026 9.22549   6
   2  -3   5 275.527 9.76650   3
  -2  -3  -5 286.362 9.40625   2
  -2   3   5 275.494 8.10480   8
   3  -2  -5 285.674 8.88298   1
  -3  -2   5 286.310 9.13441   5
  -2   3   5 275.368 8.57758   4
   2  -3   5 280.548 9.05440   2
   3  -2  -5 287.835 12.2254   2
  -2  -3  -5 270.284 9.42367   1
  -3   2  -5 275.715 11.0092   7
  -2  -3   5 268.288 8.43837   4
  -2  -3   5 286.234 8.75470   1
  -2  -3   5 281.924 8.58789   5
  -3   2   5 291.019 9.11763   6
  -3   2   5 266.393 8.64181   4
   3  -2   5 267.180 9.81014   3
   2  -3  -5 281.056 7.89372   3
   2  -3  -5 273.492 9.24654   1
  -3  -2  -5 284.635 9.89501   1
  -3   2   5 266.186 8.69836   8
  -3  -2  -5 265.114 11.0651   7
  -3   2   5 282.085 8.35157   5
  -2   3  -5 313.229 13.8163   6
  -3  -2  -5 282.836 8.96455   2
  -2  -3   5 290.115 9.29613   3
  -2  -3   5 271.333 9.40606   2
   2  -3  -5 288.624 9.30444   2
  -3  -3   5 263.201 8.45983   8
  -3  -3  -5 261.837 9.12179   2
  -3  -3   5 260.898 8.76351   5
   3  -3   5 269.045 9.89902   3
  -3  -3  -5 272.613 11.4793   7
  -3   3  -5 261.308 13.7635   6
  -3  -3   5 244.981 8.86071   2
  -3   3   5 267.034 8.58086   8
  -3  -3   5 262.431 8.88639   4
   3  -3  -5 249.690 8.97530   1
  -3  -3   5 259.835 8.95019   3
   3  -3   5 252.732 9.29441   1
  -4   0  -5 590.041 19.5943   7
   0  -4   5 630.080 17.6429   3
  -4   0   5 602.834 16.7885   5
   0  -4   5 580.889 17.3163   2
   0  -4  -5 651.627 17.7882   2
  -4   0   5 595.571 16.8305   4
   0  -4  -5 603.481 16.6098   3
   0  -4   5 601.665 17.2976   1
   0  -4  -5 603.227 17.3517   1
  -4   0   5 644.377 16.7611   8
  -1  -4  -5 130.815 6.47335   2
  -1  -4  -5 121.227 6.19904   1
  -4  -1   5 125.585 6.09444   4
  -4  -1   5 126.517 5.91363   5
  -4  -1   5 134.895 5.88681   8
  -4   1  -5 133.970 8.11617   7
   1  -4   5 124.018 6.53501   1
  -4   1  -5 116.406 8.51235   6
  -1   4   5 136.395 7.18285   6
  -1  -4  -5 122.910 5.99941   3
   1  -4   5 132.942 6.36889   2
  -1  -4  -5 124.734 6.77723   7
   1  -4   5 126.961 6.58773   3
  -4   1   5 122.215 5.77652   8
  -4  -1  -5 132.038 8.23490   7
  -4   1   5 133.951 5.91425   4
   1  -4  -5 137.768 5.60980   3
  -1   4  -5 138.453 9.83251   6
   1  -4  -5 122.178 6.25530   2
   1  -4  -5 134.675 6.53306   1
  -1  -4   5 123.271 6.08975   1
  -4   1   5 133.852 5.78530   5
  -1  -4   5 133.413 6.62950   3
  -1  -4   5 131.985 6.54221   2
  -4  -2   5 424.439 12.5173   8
  -4   2  -5 375.753 17.2926   6
  -2  -4  -5 411.943 13.4908   2
   2  -4   5 434.542 13.2831   2
  -2  -4  -5 418.744 14.7943   7
   2  -4   5 419.879 13.7518   3
  -2  -4  -5 414.564 13.4161   1
  -4   2  -5 423.971 15.6966   7
   2  -4   5 412.322 13.7243   1
  -4  -2   5 425.874 13.3848   4
  -4  -2   5 453.157 13.3609   5
   2  -4  -5 420.755 12.0488   3
   2  -4  -5 425.507 13.4385   2
  -2  -4   5 446.327 12.9806   1
  -2  -4   5 392.758 13.5154   2
  -2   4  -5 457.030 19.0067   6
  -2  -4   5 411.460 13.5735   3
  -4  -2  -5 419.192 16.0491   7
   2  -4  -5 422.897 13.5002   1
  -4   2   5 421.721 12.3060   5
   4  -2   5 444.819 13.9310   3
  -4   2   5 429.138 12.9047   8
   4  -2   5 485.442 14.3635   1
  -4   2   5 429.154 12.5543   4
  -3  -4  -5 97.7497 5.80522   2
  -3  -4  -5 82.2367 7.71023   7
   3  -4   5 90.1292 6.20196   3
   3  -4   5 97.4589 6.14960   1
  -4   3  -5 92.9777 10.3039   6
  -4  -3   5 97.3877 5.48896   5
  -4  -3   5 86.3472 4.71068   8
  -4  -3   5 89.5882 5.59985   4
  -3  -4   5 86.9158 5.55692   2
  -4  -3  -5 95.7608 8.80841   7
   3  -4  -5 99.2473 5.80223   1
  -3  -4   5 102.911 4.98265   5
  -4   3   5 99.1789 5.52674   8
   4  -3   5 106.145 5.78079   1
  -3   4  -5 107.495 11.2553   6
   4  -3   5 96.4982 6.26195   3
  -3  -4   5 99.8541 6.04605   3
   4  -4   5 154.604 7.99320   1
  -4  -4  -5 170.548 10.8448   7
   4  -4   5 173.151 8.57127   3
  -4  -4   5 166.538 7.40372   5
  -4   4  -5 167.454 13.8102   6
  -4   4   5 168.706 7.44993   8
   0   5  -5 188.269 12.7312   6
  -5   0   5 166.434 7.63731   5
   0  -5   5 177.111 8.51341   2
  -5   0   5 174.057 7.80003   4
   0  -5   5 164.935 8.45253   3
   0  -5  -5 174.004 8.22801   1
   0  -5  -5 186.759 7.75065   3
   0  -5  -5 166.291 8.29317   2
   0  -5   5 162.026 8.09864   1
  -5   0   5 157.631 7.30741   8
  -5   0  -5 152.927 10.0526   7
  -1  -5  -5 139.679 7.18522   3
  -1  -5  -5 149.130 7.65443   1
  -5  -1   5 130.980 6.97895   4
  -5   1  -5 141.823 9.40380   7
  -5   1  -5 123.109 10.0077   6
  -1  -5  -5 153.503 8.35743   7
   1  -5   5 146.944 8.01721   3
  -5  -1   5 138.606 7.02590   5
  -5  -1   5 144.398 6.76889   8
   1  -5   5 147.334 7.73814   1
  -1  -5  -5 137.182 7.54644   2
   1  -5   5 139.749 7.49379   2
   1  -5  -5 129.291 7.30881   2
  -5   1   5 150.373 6.83304   5
  -1  -5   5 125.486 7.32396   2
  -1  -5   5 146.080 7.97180   3
   5  -1   5 146.823 7.88591   3
   1  -5  -5 132.021 7.43793   1
  -1   5  -5 158.176 11.8099   6
  -5   1   5 135.300 6.81237   8
  -5  -1  -5 118.420 9.11791   7
  -5   1   5 141.308 6.80506   4
  -1  -5   5 139.900 7.32598   1
   1  -5  -5 140.174 6.57707   3
  -5  -2   5 128.314 7.09691   4
  -2  -5  -5 116.251 7.04286   2
  -2  -5  -5 112.447 6.73574   1
   2  -5   5 132.339 7.62789   1
  -5  -2   5 115.561 6.49781   5
  -2  -5  -5 124.153 8.38128   7
   2  -5   5 119.684 7.26980   3
  -5  -2   5 127.898 6.23330   8
  -5   2  -5 119.296 11.5724   6
  -5  -2  -5 121.268 9.22157   7
   2  -5  -5 113.292 6.89610   2
   2  -5  -5 118.246 7.04920   1
  -2  -5   5 123.072 7.43857   3
  -2  -5   5 118.340 7.15208   2
  -5   2   5 133.780 6.21429   5
  -5   2   5 118.114 6.54941   8
  -2   5  -5 146.920 12.0490   6
   5  -2   5 109.986 8.30254   3
  -3  -5  -5 70.8416 5.74808   2
  -5   3  -5 78.5745 10.5465   6
  -5  -3   5 78.0790 5.57297   5
   3  -5   5 66.6149 6.20781   3
  -3  -5  -5 71.6673 7.91466   7
   3  -5  -5 72.1973 6.55733   1
  -5   3   5 64.8548 5.81250   8
  -3  -5   5 74.0509 5.80187   2
  -3   5  -5 89.9510 11.4555   6
  -3  -5   5 88.8852 6.54990   3
  -5  -3  -5 93.1936 9.61662   7
   4  -5   5 48.7716 5.36654   3
  -5   4  -5 37.1601 8.38188   6
  -4  -5  -5 44.5961 7.04277   7
  -5  -4   5 46.3398 4.86111   5
  -5  -4  -5 64.3320 8.82997   7
  -4   5  -5 58.4618 10.6438   6
  -6   0   5 130.742 7.23778   8
  -6   0  -5 130.841 10.0423   7
   0  -6  -5 125.551 8.38628   1
  -6   0   5 139.513 7.57881   4
   0  -6   5 129.254 8.33361   1
  -6   0   5 126.826 7.38579   5
   0   6  -5 161.897 14.9232   6
   0  -6  -5 137.339 8.35629   2
   0  -6   5 130.186 8.03181   2
   0  -6   5 126.128 8.24575   3
   0  -6  -5 131.445 7.27336   3
  -1  -6  -5 32.5913 4.77522   2
   1  -6   5 22.2183 4.43858   3
  -1  -6  -5 28.0805 4.24257   3
  -6   1  -5 36.0063 6.34018   7
  -6  -1   5 20.2918 3.52353   5
  -1  -6  -5 29.7006 5.00209   7
  -6  -1   5 30.0619 4.67120   4
  -1  -6  -5 24.0067 4.60640   1
  -6  -1   5 31.0706 4.15270   8
   1  -6   5 26.0541 4.41895   2
   1  -6  -5 22.1123 3.39563   3
  -1  -6   5 24.3902 4.49682   1
   1  -6  -5 20.8352 4.08529   2
  -6   1   5 26.5569 3.83237   4
  -1  -6   5 29.7316 4.85892   3
  -6   1   5 23.8554 3.62269   5
  -6  -1  -5 33.2302 6.51140   7
  -1   6  -5 21.1255 6.58127   6
  -1  -6   5 22.2348 4.05379   2
  -6   1   5 21.5198 3.84717   8
  -6  -2   5 104.675 6.18113   8
  -6  -2   5 105.894 6.85721   5
  -2  -6  -5 91.9140 7.45782   2
   2  -6   5 99.3182 8.24929   3
  -2  -6  -5 117.863 10.6855   7
  -6  -2  -5 108.252 10.9511   7
  -2  -6   5 99.6477 8.25625   2
  -2   6  -5 115.636 13.0598   6
  -2  -6   5 120.525 8.26019   3
  -6   2   5 103.582 6.99715   8
   2  -6  -5 109.917 9.82151   2
  -3  -6  -5 21.9908 5.68037   7
  -6  -3   5 7.58900 3.61712   5
  -6  -3  -5 19.5204 5.48166   7
  -6   3   5 22.8959 3.99989   8
  -7   0   5 67.7515 6.65033   8
  -7   0  -5 71.8555 13.1997   7
  -7  -1   5 24.4175 4.01239   8
  -7   1   5 37.1981 5.36710   8
   0   0  -6 5168.85 109.837   6
   0   0  -6 5139.65 110.271   7
   0   0  -6 4982.12 112.192   2
   0   1  -6 353.901 10.7941   2
  -1   0   6 348.393 11.1840   2
  -1   0   6 360.772 11.0845   4
   0  -1   6 367.090 11.0369   2
   0  -1   6 371.113 10.4402   3
  -1   0  -6 362.328 10.2050   6
   0  -1  -6 344.375 10.6924   2
   0  -1   6 342.486 10.5262   4
   1   0  -6 371.363 11.2790   2
  -1   0   6 336.532 9.18583   3
   0   1  -6 357.248 10.7691   6
  -1   0  -6 380.603 10.9082   2
   0  -1  -6 362.423 10.7893   1
   0  -1  -6 353.717 9.54079   7
  -1   0  -6 366.216 10.3778   7
   1  -1  -6 157.758 6.18750   2
  -1   1   6 155.549 5.25807   8
   1  -1  -6 149.683 5.90026   1
  -1  -1   6 146.167 5.67050   4
   1   1  -6 155.924 6.56409   2
  -1  -1   6 150.062 5.15862   3
  -1  -1   6 162.355 6.18492   2
  -1   1  -6 139.736 5.91273   7
  -1   1  -6 147.870 6.44630   6
   1  -1  -6 157.956 4.39002   7
  -1  -1  -6 147.989 5.82958   7
  -1  -1  -6 149.176 6.48063   1
  -1   1   6 144.498 6.90223   4
  -1  -1  -6 141.583 6.01440   2
   1  -1   6 149.688 6.20045   2
  -2   0   6 3191.09 70.8753   8
   0  -2   6 3180.85 70.0401   4
   0  -2  -6 3163.81 70.5522   7
   2   0  -6 3072.88 72.2625   2
   0  -2   6 3251.89 71.4355   3
  -2   0   6 3186.54 71.3042   2
   0   2   6 3173.29 69.3059   8
  -2   0  -6 3225.16 70.4398   2
  -2   0  -6 3177.77 72.4384   6
  -2   0  -6 3262.02 72.3828   7
   0  -2   6 3142.60 71.5249   2
  -2   0   6 3211.32 71.4676   4
   0  -2  -6 3283.67 71.4854   1
   0  -2  -6 3159.43 71.4363   2
  -1   2   6 192.935 6.01992   8
   2  -1  -6 218.398 7.37823   1
   1  -2   6 209.812 7.34616   2
  -2   1  -6 217.233 9.06605   6
  -1  -2  -6 206.031 7.55154   1
  -2  -1   6 204.209 7.17899   5
  -2  -1   6 214.393 7.42441   8
  -2   1  -6 201.528 8.22030   7
  -1  -2  -6 205.581 7.49716   7
  -1   2   6 205.559 5.62171   6
  -2  -1   6 204.057 5.79530   3
   1  -2   6 207.370 7.91804   3
  -1   2   6 210.241 8.89277   4
   1  -2   6 206.432 6.71242   4
  -2  -1   6 210.082 7.26586   4
  -2  -1   6 205.550 7.14887   2
  -1  -2  -6 205.508 7.43392   2
   2  -1  -6 211.741 7.80202   2
  -2   1   6 211.628 7.73532   4
  -1  -2   6 202.585 7.50391   2
   1  -2  -6 201.337 7.28494   1
  -2  -1  -6 225.834 8.41853   7
   2  -1   6 200.624 7.45670   2
  -2  -1  -6 211.177 7.53886   2
  -1   2  -6 208.207 9.23195   6
  -2   1   6 200.893 6.71123   8
  -1  -2   6 204.580 7.08414   3
   2   1  -6 209.943 8.13020   2
   1  -2  -6 206.554 7.42071   2
  -2   1   6 216.128 8.06830   2
  -1  -2   6 206.095 6.59187   4
  -2  -2   6 2129.50 49.0945   2
   2  -2  -6 2090.00 48.7341   1
  -2   2   6 2126.65 47.8642   5
  -2   2  -6 2075.62 50.6064   7
  -2   2   6 2106.83 49.2140   4
  -2  -2  -6 2166.27 50.4384   7
  -2  -2   6 2154.98 48.0146   3
   2  -2  -6 2158.76 49.2374   2
  -2  -2  -6 2154.40 49.7553   1
   2  -2   6 2163.65 49.9956   3
  -2  -2   6 2113.89 48.3771   4
  -2   2  -6 2231.56 53.0272   6
  -2  -2   6 2122.93 48.6815   5
  -2   2   6 2070.13 47.8429   8
   2  -2   6 2200.60 48.7431   2
  -2  -2  -6 2029.52 49.0378   2
  -3   0   6 160.244 5.38518   2
  -3   0   6 171.980 6.66139   4
   0  -3   6 159.523 6.92600   3
  -3   0  -6 160.594 8.20796   6
   0  -3  -6 158.084 6.68796   2
  -3   0  -6 177.152 8.14924   7
   0  -3  -6 162.256 6.70201   1
   0  -3  -6 163.848 6.04624   3
  -3   0   6 150.664 6.19019   5
   3   0  -6 153.977 7.18198   2
   0  -3   6 168.344 6.87278   2
  -3   0   6 166.853 6.32735   8
  -1  -3  -6 90.0584 5.18024   7
   3  -1  -6 100.819 5.66924   2
   1  -3   6 92.4732 5.46274   3
  -3  -1   6 92.6381 4.06914   2
   3  -1  -6 85.8690 4.64523   1
  -3   1  -6 101.684 7.31200   6
  -3  -1   6 94.9658 4.81164   4
  -1  -3  -6 95.6646 5.12131   1
   1  -3   6 93.0465 4.96308   2
  -1  -3  -6 89.8850 4.87765   2
  -1   3   6 82.9410 5.95143   4
  -3   1  -6 86.7216 6.12981   7
  -3  -1   6 99.3277 4.76183   8
  -3  -1   6 83.7852 4.50761   5
  -3   1   6 86.9654 4.33789   5
   1  -3  -6 92.7069 4.06676   3
   1  -3  -6 90.0400 4.91866   2
  -1  -3   6 90.5917 4.20329   5
  -1   3  -6 81.1727 6.71883   6
   1  -3  -6 98.3351 5.09368   1
  -1  -3   6 93.4864 3.79446   4
  -1  -3   6 86.0267 5.01666   3
   3   1  -6 82.6612 5.19243   2
  -1  -3   6 92.6967 5.07999   2
  -3   1   6 88.4278 4.43519   8
  -3   1   6 86.6605 4.72300   4
  -3   1   6 83.2173 3.68895   2
  -3  -1  -6 92.0015 6.14288   7
  -2  -3  -6 106.662 5.70172   1
   2  -3   6 99.2011 6.05729   3
  -3  -2   6 102.492 5.17403   4
  -3   2  -6 119.959 8.42333   6
   3  -2  -6 107.269 5.23452   1
  -3  -2   6 106.961 5.25988   5
  -2  -3  -6 106.848 5.51022   2
   3  -2  -6 110.978 5.92113   2
  -2   3   6 102.955 4.34036   8
  -2   3   6 102.163 5.11690   4
  -3  -2   6 102.108 4.84530   2
  -3  -2   6 108.617 5.24440   8
  -3   2  -6 98.4344 6.74714   7
  -2  -3  -6 112.667 6.50625   7
   2  -3   6 106.517 5.26891   2
   2  -3  -6 97.2811 5.32251   2
  -3   2   6 102.960 4.89187   8
  -3  -2  -6 108.960 5.42808   2
  -3   2   6 102.493 4.55202   5
  -2  -3   6 102.959 4.70645   4
  -2  -3   6 102.104 5.56625   2
  -2  -3   6 111.897 4.93381   5
  -2  -3   6 108.483 5.40322   3
  -2   3  -6 110.710 8.28811   6
  -3  -2  -6 115.501 6.99294   7
   2  -3  -6 101.131 5.38010   1
  -3   2   6 102.936 5.06660   4
  -2  -3   6 101.901 4.97355   1
   3  -2   6 98.4780 6.02312   3
  -3  -3   6 61.7443 4.28609   2
  -3  -3  -6 62.6385 6.34541   7
  -3  -3   6 60.7363 4.05974   8
  -3  -3   6 57.3604 4.07106   5
  -3   3   6 57.6272 3.89297   8
   3  -3  -6 58.1535 4.38729   1
   3  -3   6 55.3030 4.94506   1
  -3   3  -6 50.8075 7.24612   6
  -3  -3  -6 57.2426 4.43501   2
  -3  -3   6 60.7809 4.20113   4
   3  -3   6 65.3750 5.69117   3
  -4   0   6 1031.15 26.8317   4
   0  -4  -6 1054.89 26.2604   3
   0  -4   6 1034.66 27.4540   2
  -4   0   6 1052.30 26.6915   5
   0  -4  -6 1029.39 27.2407   1
   0  -4  -6 1101.04 27.6413   2
  -4   0   6 1068.57 26.5199   8
   0  -4   6 990.983 26.9373   1
   0   4  -6 1044.83 31.7852   6
  -4   0  -6 1069.54 29.8846   7
   0  -4   6 1074.59 27.6746   3
   1  -4   6 51.5396 4.88224   1
  -1  -4  -6 54.9982 5.16452   7
  -4  -1   6 62.9200 4.54158   4
   1  -4   6 58.4245 5.10946   3
  -4  -1   6 55.5104 4.17867   5
   1  -4   6 51.9273 4.38431   2
  -4   1  -6 64.5331 7.39439   6
  -1  -4  -6 51.8160 4.82338   2
  -4  -1   6 62.7837 4.17927   8
  -4   1  -6 49.8436 5.84640   7
  -1  -4  -6 58.5198 4.57862   1
  -1  -4   6 55.3782 4.54824   2
   1  -4  -6 54.4740 5.00092   1
  -4   1   6 56.0601 4.12343   4
   1  -4  -6 53.8351 4.50348   2
  -4  -1  -6 60.5389 6.29205   7
  -1   4  -6 46.9250 6.54072   6
  -4   1   6 48.9133 4.26842   8
  -4   1   6 52.6714 3.87489   5
  -1  -4   6 72.3721 5.92207   3
  -1  -4   6 59.0537 4.97128   1
   1  -4  -6 62.5698 3.96392   3
  -4   2  -6 786.091 26.5165   6
  -4   2  -6 781.798 24.2971   7
  -4  -2   6 799.803 21.3777   5
  -4  -2   6 767.028 20.5691   8
  -2  -4  -6 748.613 22.8662   7
  -4  -2   6 758.747 21.2786   4
   2  -4   6 770.057 21.8764   1
   2  -4   6 782.764 22.1431   3
  -2  -4  -6 789.142 21.8840   1
   2  -4   6 769.145 21.2943   2
  -2  -4  -6 751.608 21.5093   2
  -4   2   6 774.254 20.7620   8
  -4  -2  -6 780.657 24.1373   7
  -2  -4   6 787.015 20.7735   1
  -4   2   6 774.606 20.5002   4
  -4   2   6 797.856 20.3126   5
  -2   4  -6 794.609 26.7637   6
  -2  -4   6 797.168 21.8766   3
  -2  -4   6 743.282 21.7806   2
   4  -2   6 766.795 22.0862   3
   2  -4  -6 762.094 21.4509   1
   2  -4  -6 785.912 21.5666   2
  -4  -3   6 40.7681 4.23855   5
  -4   3  -6 45.9080 7.75165   6
  -4  -3   6 35.2683 3.69309   8
  -3  -4  -6 43.2779 5.91543   7
   3  -4   6 36.5619 4.72980   3
  -4  -3   6 45.6762 4.74262   4
  -3  -4  -6 42.5059 4.70923   2
   3  -4   6 39.7483 4.90734   1
  -4   3   6 36.5273 3.96982   8
  -3   4  -6 37.4183 7.23068   6
  -3  -4   6 41.0649 3.96663   4
   4  -3   6 36.8952 4.81441   3
  -3  -4   6 33.9954 5.19178   3
  -3  -4   6 43.2401 3.84830   5
   3  -4  -6 43.3480 4.68976   1
  -3  -4   6 38.8576 4.42052   2
   4  -3   6 35.9903 4.37948   1
  -4  -3  -6 48.2081 6.54329   7
  -4   4   6 334.558 11.7972   8
   4  -4   6 347.997 13.3142   3
  -4   4  -6 340.819 18.6614   6
   4  -4   6 351.301 12.7156   1
  -4  -4   6 343.310 11.7921   5
  -4  -4  -6 333.767 15.4697   7
  -5   0  -6 43.6875 6.43316   7
   0  -5  -6 53.9388 5.68286   1
   0  -5  -6 51.0101 4.75423   3
   0  -5   6 52.1503 5.36915   1
  -5   0   6 46.2317 4.51768   5
  -5   0   6 50.5893 5.02392   4
   0  -5  -6 55.1037 5.59132   2
   0  -5   6 58.4995 6.00389   3
   0  -5   6 58.2700 5.65573   2
   0   5  -6 50.3702 7.98960   6
  -5   0   6 54.9117 4.99190   8
   1  -5   6 36.9937 4.63420   2
  -5   1  -6 41.2244 6.23119   7
   1  -5   6 39.7721 4.98205   3
  -5   1  -6 37.7216 7.06698   6
  -1  -5  -6 36.1847 5.13111   7
  -1  -5  -6 40.6574 4.82259   1
   1  -5   6 34.5101 4.70497   1
  -5  -1   6 34.8129 4.00562   8
  -1  -5  -6 34.7162 4.69242   2
  -5  -1   6 41.3888 4.79971   4
  -5  -1   6 40.8317 4.57299   5
   1  -5  -6 35.7969 4.48382   2
  -1   5  -6 33.7098 6.40724   6
   1  -5  -6 37.0461 3.81227   3
   5  -1   6 37.7138 5.00274   3
  -5   1   6 37.5493 4.35913   8
  -1  -5   6 42.2533 5.33953   3
  -5   1   6 39.1624 4.24313   5
  -5  -1  -6 38.3016 6.14191   7
  -1  -5   6 42.6689 5.03394   1
  -1  -5   6 40.7980 4.93393   2
   1  -5  -6 37.7376 4.79871   1
  -5   1   6 32.9911 4.02625   4
  -5  -2   6 41.1988 4.37846   8
  -5   2  -6 46.3353 6.69233   7
  -2  -5  -6 43.3205 5.13076   1
  -2  -5  -6 34.8103 5.33133   7
  -5  -2   6 40.0189 4.54662   5
   2  -5   6 38.1355 5.19601   3
  -5  -2   6 37.4875 4.84233   4
  -2  -5  -6 48.4468 5.35876   2
  -5   2  -6 33.1274 6.94767   6
   2  -5   6 45.8291 5.47986   1
  -5   2   6 45.5318 4.69641   8
   5  -2   6 49.8913 5.50060   3
  -2   5  -6 38.3374 7.24158   6
  -5  -2  -6 49.8416 6.85343   7
  -5   2   6 38.3981 3.99834   5
  -2  -5   6 35.5856 4.68830   2
  -5   2   6 36.7498 4.24674   4
   2  -5  -6 38.6915 4.99222   1
  -2  -5   6 41.2747 5.27188   3
   2  -5  -6 46.6676 5.24734   2
  -3  -5  -6 23.7134 5.20563   7
  -5  -3   6 20.1726 3.74655   4
   3  -5   6 14.6656 3.67685   3
  -5  -3   6 22.8408 3.68847   5
  -5   3  -6 26.8620 7.22873   6
  -3  -5  -6 24.6670 4.29400   2
   3  -5   6 20.7488 4.12000   1
  -5   3   6 17.5666 3.46349   8
  -5  -3  -6 28.2468 5.57459   7
  -3  -5   6 19.6860 3.86567   2
   3  -5  -6 23.9726 4.08412   1
  -3   5  -6 26.3038 6.86709   6
  -5   4  -6 16.6066 6.88721   6
  -4  -5  -6 20.4127 5.51213   7
  -5  -4   6 15.9085 3.31744   5
  -5  -4  -6 7.89214 4.19974   7
  -4   5  -6 18.1843 6.88910   6
   0  -6   6 253.376 11.7612   2
  -6   0   6 281.769 11.3252   4
   0  -6  -6 256.652 11.9792   7
   0  -6   6 264.572 12.1836   3
   0  -6  -6 249.991 11.7367   2
  -6   0   6 276.751 10.9761   8
  -6   0  -6 251.969 14.1367   7
   0   6  -6 246.464 15.6124   6
  -6   0   6 258.200 11.0097   5
   1   6  -6 18.3226 6.77378   6
  -1  -6  -6 13.0258 3.79031   2
  -6  -1   6 7.57878 3.23224   4
  -1  -6  -6 12.8347 4.09161   7
  -6  -1   6 15.0733 3.32499   8
   1  -6   6 16.3122 4.35637   3
  -6  -1   6 9.09299 2.76194   5
  -6   1  -6 11.9856 4.86272   7
   1  -6   6 14.9631 3.76806   2
  -6   1   6 10.0997 2.85914   5
  -1   6  -6 11.3573 5.46703   6
  -1  -6   6 9.52676 3.52793   3
   1  -6  -6 14.2542 3.91149   2
  -6   1   6 13.4714 3.22358   4
  -1  -6   6 9.64483 3.28061   2
  -6  -1  -6 7.26896 4.40595   7
  -6   1   6 15.5308 3.50893   8
  -6  -2   6 191.554 8.90515   8
  -6  -2   6 209.890 10.0444   5
  -2  -6  -6 224.863 12.4179   7
  -6  -2   6 212.525 10.7568   4
  -6   2   6 210.717 9.92492   8
  -6  -2  -6 196.045 12.6340   7
   2  -6  -6 189.274 10.8051   2
  -2   6  -6 223.231 15.2652   6
  -3  -6  -6 5.36122 3.89063   7
  -6  -3  -6 2.80208 3.80312   7
  -6   3   6 3.98003 2.77887   8
  -7   0   6 20.2891 5.16461   8
   0   0  -7 0.05899 1.40420   2
   0   0  -7 0.70236 0.97739   7
   0   0  -7 0.33927 0.75151   6
  -1   0   7 83.9795 5.23762   4
  -1   0   7 79.1112 3.56144   3
  -1   0  -7 71.9422 4.51025   2
   0  -1  -7 76.0388 4.70659   2
   0  -1  -7 73.0291 3.60075   7
  -1   0   7 79.5030 5.02318   2
   0  -1   7 70.3015 4.50449   4
   0   1  -7 72.5127 4.19441   6
   1   0  -7 94.9518 5.21645   2
  -1   0  -7 85.2292 3.95435   6
  -1   0  -7 72.9904 4.00417   7
   0  -1   7 71.8195 4.88809   2
   0   1  -7 76.7965 4.80817   2
   0  -1  -7 83.4373 4.95814   1
   0  -1   7 81.2307 4.58357   3
  -1  -1   7 1651.48 38.6328   4
  -1  -1  -7 1615.85 39.2888   2
  -1   1  -7 1635.33 38.5864   7
  -1  -1  -7 1629.71 38.4638   7
  -1  -1   7 1602.64 39.2166   2
   1  -1  -7 1671.13 39.3348   2
   1   1  -7 1654.88 39.8459   2
   1  -1   7 1615.55 39.3205   2
   1  -1  -7 1663.06 36.3703   7
   1  -1  -7 1663.23 38.9383   1
  -1   1   7 1640.90 39.9820   4
  -1   1   7 1608.03 37.7964   8
  -1  -1   7 1643.09 37.5326   3
  -1  -1  -7 1685.87 39.6938   1
  -1   1  -7 1653.60 39.0641   6
  -1   1  -7 1640.10 38.5124   2
   0  -2   7 1.45806 1.55627   2
  -2   0  -7 0.76282 1.62246   7
  -2   0  -7 0.47196 1.69071   6
   0   2   7 2.02625 1.10292   8
   0  -2  -7 1.74028 1.31183   7
  -2   0  -7 7.91212 1.89777   2
   2   0  -7 2.19721 1.91713   2
   0  -2   7 -0.1681 1.77876   3
   0  -2  -7 3.69021 1.65718   2
   0   2  -7 0.56656 1.96006   6
   0  -2   7 -0.8893 1.18758   4
  -2   0   7 4.80036 1.89346   2
  -2   0   7 1.21640 1.50994   8
   0  -2  -7 0.33209 1.53984   1
  -2   0   7 0.87645 1.78077   4
  -1   2   7 60.8584 3.14267   8
  -1  -2  -7 60.2978 4.11859   7
  -1  -2  -7 64.0073 4.47827   1
   1  -2   7 62.2377 5.04745   3
   2  -1  -7 77.2245 4.96352   2
  -1  -2  -7 60.9310 4.17346   2
  -1   2   7 64.6000 5.88506   4
   1  -2   7 67.5787 3.94893   4
  -2   1  -7 69.6402 4.83162   7
   2  -1  -7 61.7460 4.27956   1
  -2  -1   7 68.3362 4.17055   4
  -2  -1   7 63.0042 2.90077   3
  -2   1  -7 60.4460 4.97372   6
   1  -2   7 66.9106 4.27972   2
  -2  -1   7 57.4996 4.00068   2
  -1  -2   7 71.7385 4.47110   2
   1  -2  -7 64.0018 4.29584   1
  -1  -2   7 61.6558 4.13900   3
  -2  -1  -7 63.5760 4.71524   7
  -2  -1  -7 66.2114 4.24191   2
  -2   1   7 69.4468 4.85572   2
   1  -2  -7 64.3694 4.25686   2
   2   1  -7 61.9777 4.89974   2
   2  -1   7 61.9595 4.28259   2
  -2   1   7 68.9738 4.75853   4
  -2   1   7 66.2805 3.76520   8
  -1  -2   7 70.0311 3.72203   4
  -1   2  -7 70.0234 5.33245   6
   2  -2   7 4.99419 2.31740   3
  -2  -2   7 0.95929 1.35012   5
  -2  -2   7 2.74044 1.58045   2
   2  -2  -7 0.33376 1.59869   1
  -2  -2  -7 3.21844 1.72368   2
   2  -2   7 3.06980 1.60415   2
  -2   2   7 1.59036 1.21602   8
  -2   2   7 2.71205 1.42668   5
  -2  -2  -7 8.05835 2.50972   1
  -2  -2   7 2.89255 1.53897   4
  -2   2   7 6.03659 2.44096   4
  -2   2  -7 3.93225 2.35901   7
   2  -2  -7 2.31911 1.80443   2
  -2  -2   7 4.02435 1.58546   3
  -2   2  -7 8.57494 3.14530   6
  -2  -2  -7 4.41275 2.07966   7
   0  -3  -7 27.5914 3.06664   7
  -3   0  -7 26.4750 4.10649   6
  -3   0   7 23.5000 3.20909   4
   0  -3  -7 19.0479 2.80362   2
   0   3  -7 20.7169 4.23794   6
  -3   0   7 23.2129 2.46822   2
  -3   0  -7 16.6247 3.41057   7
   0  -3   7 30.2961 3.77061   3
  -3   0   7 28.4078 3.05708   5
   0  -3  -7 25.2436 3.30922   1
   3   0  -7 27.7571 3.59924   2
  -3   0   7 25.7603 2.96570   8
   0  -3   7 27.0260 3.30182   2
  -1  -3  -7 745.463 20.3520   1
  -1   3   7 730.456 21.6323   4
  -3  -1   7 741.168 19.0929   2
  -3  -1   7 725.208 19.7305   8
  -1  -3  -7 776.567 20.4926   7
   3  -1  -7 723.997 19.7109   1
   1  -3   7 743.834 20.6918   3
  -3  -1   7 723.447 19.8274   5
  -3  -1   7 723.410 19.9229   4
  -3   1  -7 738.427 21.7932   7
  -3   1  -7 743.612 22.5689   6
   3  -1  -7 771.459 21.0077   2
   1  -3   7 764.320 20.3549   2
  -1  -3  -7 717.056 20.2006   2
  -1  -3   7 717.996 20.4066   2
  -3   1   7 742.389 19.3936   5
  -3   1   7 753.590 19.0798   2
   1  -3  -7 733.888 20.1627   2
   1  -3  -7 740.208 20.0957   1
  -3  -1  -7 751.684 21.5336   7
  -1  -3   7 736.400 18.2915   4
  -3   1   7 737.020 19.3771   8
  -1   3  -7 766.908 23.0927   6
   3   1  -7 734.005 20.9819   2
  -3   1   7 767.578 20.2016   4
  -1  -3   7 761.783 20.2925   3
  -2   3   7 22.4040 3.41070   4
  -3   2  -7 20.8505 3.87519   7
  -2  -3  -7 20.5279 3.63964   7
  -3  -2   7 21.8546 2.79484   2
   3  -2  -7 20.6969 3.36912   2
  -3   2  -7 19.7730 4.56649   6
  -3  -2   7 21.7244 3.03476   8
  -2  -3  -7 18.0784 2.90054   2
  -2  -3  -7 21.8616 3.36979   1
   2  -3   7 25.0237 3.92916   3
  -3  -2   7 24.6468 3.20241   4
  -3  -2   7 20.2094 2.89711   5
  -2   3   7 23.2280 2.42800   8
   2  -3   7 26.8746 3.24474   2
   3  -2  -7 25.7964 3.30197   1
  -3   2   7 22.7721 2.83843   8
  -3   2   7 23.5850 3.10837   2
   2  -3  -7 23.0261 3.22891   2
  -3   2   7 15.8583 2.69462   4
  -2  -3   7 20.8140 3.07625   3
  -2  -3   7 23.8676 3.29936   2
  -2  -3   7 26.8164 2.92268   4
  -3  -2  -7 20.8405 2.85235   2
  -2   3  -7 26.1393 4.88657   6
  -3  -2  -7 21.9699 3.89421   7
   3  -2   7 24.6585 3.95507   3
  -2  -3   7 27.2560 3.02243   5
  -3   2   7 21.7472 2.55876   5
   2  -3  -7 24.4149 3.25038   1
  -3  -3   7 375.734 12.1322   5
  -3   3   7 370.875 11.6584   4
  -3  -3  -7 323.332 14.2796   1
   3  -3  -7 366.248 12.3341   1
  -3  -3   7 377.356 12.0327   4
  -3   3   7 371.881 11.4378   8
   3  -3   7 380.530 13.5757   3
  -3  -3   7 399.919 12.4479   8
  -3   3  -7 402.592 17.1437   6
  -3  -3  -7 368.217 14.3651   7
  -3  -3  -7 370.957 12.5379   2
  -3  -3   7 364.870 12.3234   2
   0   4  -7 -0.4013 3.39569   6
  -4   0   7 7.02076 2.07259   8
   0  -4  -7 5.17660 2.34436   7
   0  -4   7 0.99435 2.16278   1
   0  -4  -7 2.30213 2.16130   1
  -4   0  -7 6.07666 3.21251   7
   0  -4   7 4.32221 2.10288   2
   0  -4   7 3.13764 2.47577   3
  -4   0   7 0.56254 1.59143   5
   0  -4  -7 2.55418 1.98896   2
  -4   0   7 1.14222 1.90364   4
  -4   1  -7 38.1031 5.33481   7
   1  -4   7 31.6948 4.45728   3
   1  -4   7 29.8519 3.72516   2
  -1  -4  -7 29.7904 3.90020   2
  -4  -1   7 41.3181 4.54792   4
  -1  -4  -7 42.4593 4.64948   1
  -4   1  -7 43.3603 6.34316   6
   1  -4   7 24.8479 3.82608   1
  -4  -1   7 34.8615 3.77331   8
  -1  -4  -7 29.8864 4.14534   7
  -4  -1   7 38.7619 4.19429   5
  -4   1   7 47.6206 4.15031   5
  -1  -4   7 33.1352 4.56670   3
   1  -4  -7 39.5901 4.54296   1
  -1   4  -7 37.6952 5.89130   6
  -4  -1  -7 32.8942 4.87168   7
  -4   1   7 38.1337 3.89452   8
  -1  -4   7 29.1395 3.92390   2
  -1  -4   7 31.0666 4.02816   1
   1  -4  -7 32.6820 4.15662   2
  -4   1   7 36.7746 4.00802   4
  -2  -4  -7 0.36260 2.06779   2
   2  -4   7 2.45180 1.97831   2
  -4  -2   7 2.83162 1.96676   5
  -2  -4  -7 0.32308 2.08749   1
  -4  -2   7 6.17643 2.05247   8
  -4  -2   7 1.84854 2.01903   4
  -2  -4  -7 2.66004 2.61583   7
  -4   2  -7 4.09501 3.91981   6
   2  -4   7 8.33093 3.20142   3
   2  -4   7 3.95645 2.68128   1
  -4   2  -7 3.08572 3.26252   7
  -2  -4   7 6.79214 2.63510   3
  -2  -4   7 4.07562 2.14509   1
  -4   2   7 12.1373 2.30754   5
  -4   2   7 3.30721 1.87553   4
   2  -4  -7 6.78603 2.63287   1
  -4  -2  -7 4.68577 3.02597   7
   4  -2   7 -4.1961 2.42832   3
  -2   4  -7 11.0996 4.45891   6
  -2  -4   7 3.14077 2.16047   2
  -4   2   7 3.28233 1.89559   8
   2  -4  -7 6.40813 2.38871   2
  -4  -3   7 16.1189 3.29340   4
  -4   3  -7 24.8096 6.61086   6
   3  -4   7 19.0607 3.84223   1
  -3  -4  -7 24.7809 3.83214   2
  -4  -3   7 12.3425 2.66337   8
  -3  -4  -7 16.5395 4.30088   7
   3  -4   7 11.8962 3.65771   3
  -4  -3   7 15.2754 3.00152   5
  -3  -4   7 15.7436 3.24498   2
   3  -4  -7 19.8775 3.65284   1
  -4  -3  -7 11.7726 4.04035   7
  -3  -4   7 17.5563 2.86413   5
   4  -3   7 18.2333 4.20168   3
  -3  -4   7 16.8256 2.99026   4
  -4   3   7 13.1870 2.82014   8
   4  -3   7 17.5033 3.47199   1
  -3   4  -7 18.4610 5.67481   6
  -4  -4   7 3.55336 2.28913   4
   4  -4   7 0.64025 2.87335   1
  -4  -4   7 6.88651 2.31397   5
  -4   4  -7 6.59989 5.03995   6
  -4  -4  -7 9.01136 3.73094   7
   4  -4   7 0.11686 2.98232   3
   0  -5  -7 5.55210 2.77180   2
   0  -5  -7 3.85528 2.65791   7
   0  -5   7 7.36017 3.37533   3
  -5   0  -7 7.82906 3.87636   7
   0  -5   7 5.59124 2.59979   2
   0  -5  -7 3.10384 2.56130   1
   0   5  -7 4.53277 4.09973   6
   0  -5   7 7.36104 2.89737   1
  -5   0   7 5.45313 2.13462   5
  -5   0   7 6.67304 2.47950   8
  -5   0   7 5.02810 2.59679   4
  -1  -5  -7 204.615 9.70352   1
  -5   1  -7 221.335 12.1199   7
  -1  -5  -7 200.530 9.77115   2
  -5  -1   7 194.600 9.18945   5
  -5  -1   7 191.082 9.34937   4
  -5  -1   7 222.145 9.11246   8
   1  -5   7 227.767 10.6592   3
   1  -5   7 212.993 9.79489   2
  -1  -5  -7 205.341 10.2143   7
   1  -5   7 214.716 9.90629   1
  -1   5  -7 195.393 12.7099   6
   5  -1   7 184.191 9.95196   3
  -5   1   7 209.532 9.03714   4
  -1  -5   7 201.481 9.85149   2
   1  -5  -7 213.490 9.90327   2
  -1  -5   7 199.308 9.33907   1
  -5  -1  -7 241.583 12.1977   7
   1  -5  -7 227.193 10.0631   1
  -5   1   7 201.410 8.98372   8
  -1  -5   7 210.632 10.4214   3
  -5   1   7 215.065 8.99780   5
  -5  -2   7 3.71239 2.12301   8
  -2  -5  -7 8.31510 3.44691   7
  -5   2  -7 7.33744 4.88513   6
   2  -5   7 -0.7243 2.88321   3
  -5  -2   7 2.40060 2.00000   5
  -2  -5  -7 3.23435 2.63588   1
  -5   2  -7 -2.7515 3.12638   7
   2  -5   7 3.30737 2.86287   1
  -5  -2   7 3.85742 2.57897   4
  -2  -5  -7 5.26905 2.67983   2
  -5   2   7 5.33695 1.96824   5
  -5   2   7 6.33810 2.29882   4
  -2   5  -7 3.45939 4.11922   6
   2  -5  -7 10.6364 3.20184   1
   5  -2   7 3.44380 3.16272   3
  -5   2   7 5.29710 2.32962   8
  -2  -5   7 2.51632 2.78097   3
  -5  -2  -7 2.37745 2.97061   7
   2  -5  -7 0.90095 2.26266   2
  -2  -5   7 -0.0694 1.84855   2
   3  -5   7 124.583 8.45383   3
  -3  -5  -7 142.749 10.0290   7
  -3  -5  -7 130.478 7.98852   2
  -5  -3   7 119.774 7.37485   5
  -5  -3   7 125.546 7.74755   4
  -5   3  -7 116.291 12.2137   6
   5  -3   7 136.292 8.63114   3
  -5  -3  -7 127.841 9.52232   7
  -5   3   7 137.638 7.59289   8
  -3  -5   7 123.384 7.85744   2
   3  -5  -7 135.608 7.98149   1
  -5  -4   7 6.41903 2.63426   5
  -4  -5  -7 4.60820 3.80014   7
  -5  -4  -7 6.13324 4.01480   7
  -5   4   7 3.16025 3.13302   8
   0   6  -7 3.79278 4.32866   6
   0  -6   7 -0.5984 2.58459   2
  -6   0   7 3.09987 2.71482   8
   0  -6  -7 3.03447 3.15322   7
  -6   0  -7 2.93748 3.98773   7
  -6   0   7 3.83923 2.35368   5
  -6   0   7 -1.0286 2.06985   4
   0  -6   7 5.39454 3.60376   3
   0  -6  -7 -0.2550 2.72557   2
  -6  -1   7 16.9454 3.68060   8
   1  -6   7 11.2799 3.55873   2
  -6   1  -7 5.72663 4.63537   7
  -6  -1   7 13.2742 3.35471   5
  -6  -1   7 13.6317 3.61997   4
   1   6  -7 14.9534 6.14409   6
  -1  -6  -7 20.1368 4.69151   7
  -6   1   7 16.7365 3.37843   5
   1  -6  -7 18.6160 4.13358   2
  -1  -6   7 14.5213 6.42221   2
  -6   1   7 20.7533 3.84625   4
  -1   6  -7 13.4806 5.54924   6
  -1  -6   7 16.4684 5.33376   3
  -6   1   7 21.3523 3.94247   8
  -6  -1  -7 16.1589 5.12099   7
  -2  -6  -7 6.69003 3.99705   7
  -6  -2   7 4.06844 2.45480   8
  -6  -2   7 6.03696 2.95589   5
  -6  -2  -7 -0.1358 3.17528   7
  -2   6  -7 0.69154 4.35801   6
  -6   2   7 1.26601 2.57052   8
  -6   3   7 6.63925 3.27339   8
  -6  -3  -7 14.0680 7.32941   7
   0   0  -8 323.658 8.25311   6
   0   0  -8 323.173 8.94151   7
   0   0  -8 344.835 11.2227   2
   0  -1  -8 981.929 26.4416   2
   0  -1   8 1062.20 25.9015   4
   0  -1   8 985.229 26.7075   2
  -1   0  -8 1017.79 24.8569   7
   0  -1  -8 1001.96 24.1771   7
   0   1  -8 970.661 26.2726   2
  -1   0  -8 1002.23 24.1482   6
  -1   0  -8 1095.66 26.2380   2
   1   0  -8 1003.06 26.2970   2
  -1   0   8 1022.22 26.7112   2
   0  -1   8 987.729 25.3960   3
   0   1  -8 995.689 24.8085   6
   0  -1  -8 1040.09 26.6292   1
  -1   0   8 1035.95 26.6657   4
  -1   0   8 1015.31 24.0403   3
  -1   1  -8 2300.02 53.0988   2
  -1   1   8 2350.43 54.3131   4
  -1  -1   8 2281.78 53.1354   4
   1  -1  -8 2245.95 50.6663   7
   1  -1   8 2295.31 53.8100   2
  -1  -1  -8 2194.99 52.2740   7
  -1   1  -8 2377.01 52.9281   6
  -1  -1  -8 2292.15 53.6058   2
   1   1  -8 2189.52 54.0313   2
  -1  -1   8 2382.73 54.1324   2
  -1  -1   8 2250.06 51.6874   3
   1  -1  -8 2311.42 53.5307   1
  -1   1  -8 2239.44 52.3621   7
   1  -1  -8 2276.73 53.9319   2
   2   0  -8 209.660 8.86107   2
   0  -2  -8 218.345 8.56523   1
   0  -2   8 208.063 8.37603   3
   0  -2   8 207.255 8.55087   2
  -2   0   8 223.439 8.37123   8
   0  -2  -8 210.081 7.29158   7
   0  -2  -8 231.436 8.77690   2
  -2   0  -8 210.505 8.08392   6
  -2   0  -8 202.623 7.80253   2
   0  -2   8 210.254 7.60586   4
   0   2   8 208.352 6.81362   8
   0   2  -8 214.395 8.95047   6
  -2   0  -8 208.542 8.25349   7
  -2   0   8 218.129 8.94298   4
  -2   0   8 206.410 8.60069   2
  -2  -1   8 750.804 20.7640   2
   1  -2   8 742.993 20.9163   2
  -2   1  -8 784.227 21.1137   7
   1  -2   8 810.653 19.8718   4
   1  -2   8 756.863 21.2469   3
  -1  -2  -8 758.804 20.2937   7
  -1  -2  -8 779.869 21.2604   1
  -2   1  -8 774.994 21.3811   6
  -1   2   8 782.377 22.0155   4
   2  -1  -8 750.473 21.3702   2
  -2  -1   8 761.184 20.6595   4
  -1   2   8 739.103 18.8703   8
   2  -1  -8 749.914 20.6859   1
  -1  -2  -8 759.435 20.9749   2
  -1  -2   8 758.839 19.7446   4
  -1  -2   8 745.002 21.0034   2
  -2   1   8 741.857 19.7758   8
   1  -2  -8 745.692 20.8669   2
   2  -1   8 764.758 20.9639   2
  -2   1   8 729.930 21.3834   4
  -1  -2   8 747.536 20.0377   3
   2   1  -8 765.152 21.9492   2
  -2   1   8 819.945 21.5008   2
  -1   2  -8 792.003 22.0594   6
   1  -2  -8 755.156 18.5525   7
  -2  -1  -8 760.993 20.8832   7
  -2  -1  -8 774.740 20.3035   2
   1  -2  -8 745.292 20.5712   1
   2  -2   8 147.308 6.80705   2
  -2  -2  -8 141.201 6.93306   2
   2  -2  -8 146.061 6.75212   1
  -2  -2   8 141.521 6.72390   5
  -2  -2   8 133.148 6.72672   2
  -2   2  -8 144.628 8.08181   6
   2  -2  -8 128.023 6.89816   2
  -2  -2  -8 154.071 7.67389   1
  -2   2   8 131.152 5.60761   8
  -2  -2  -8 149.186 7.39227   7
  -2   2   8 127.162 7.36662   4
  -2  -2   8 132.549 5.81922   3
  -2   2  -8 132.467 7.39699   7
  -2  -2   8 133.504 6.23216   4
   2  -2   8 141.427 7.58041   3
  -3   0  -8 481.755 15.5941   7
  -3   0   8 469.710 14.2857   8
   0   3  -8 483.294 16.8300   6
  -3   0  -8 478.095 15.7045   6
   0  -3   8 468.962 15.0559   2
   3   0  -8 490.332 15.5251   2
  -3   0   8 467.958 14.9348   4
   0  -3   8 478.961 15.1452   3
   0  -3  -8 485.953 15.0148   2
  -3   0   8 468.688 14.4383   5
   0  -3  -8 457.943 14.7223   1
   0  -3  -8 480.281 13.9305   7
  -3   0   8 480.016 13.9332   2
  -3  -1   8 1024.43 26.0630   8
  -3  -1   8 988.836 25.9456   5
   1  -3   8 1003.17 26.8233   3
  -1  -3  -8 1023.41 26.1075   7
   1  -3   8 924.310 25.9679   2
  -3   1  -8 1031.54 28.0078   6
  -1  -3  -8 961.935 26.1717   1
  -3   1  -8 1027.31 27.5293   7
  -3  -1   8 977.413 26.0194   4
  -3  -1   8 958.578 25.1108   2
  -1  -3  -8 988.919 26.2221   2
  -1   3   8 974.291 27.3968   4
   3  -1  -8 980.053 26.5240   2
   1  -3  -8 949.118 26.0488   2
  -1   3  -8 1011.91 28.4048   6
   3   1  -8 968.981 27.1237   2
  -3  -1  -8 991.608 26.9069   7
  -1  -3   8 1010.89 26.5575   2
  -1  -3   8 993.690 26.1124   3
  -3   1   8 986.510 25.2392   8
  -1  -3   8 1011.60 24.0736   4
  -3   1   8 1002.60 25.3629   2
  -3   1   8 992.568 25.3325   5
   1  -3  -8 960.227 25.9760   1
   1  -3  -8 989.379 24.3701   7
  -3   1   8 996.525 26.3013   4
  -3  -2   8 372.677 12.5742   5
  -3  -2   8 366.035 12.1286   2
  -2   3   8 359.646 10.8005   8
  -3   2  -8 387.539 15.2310   6
   3  -2  -8 384.803 13.5911   2
  -2  -3  -8 385.677 13.5915   7
  -3  -2   8 373.517 12.4026   4
  -2   3   8 359.163 13.1421   4
   2  -3   8 388.508 12.6784   2
   3  -2  -8 363.686 12.3602   1
   2  -3   8 374.986 13.6263   3
  -2  -3  -8 396.470 13.0700   2
  -2  -3  -8 367.285 13.1671   1
  -3   2  -8 362.811 14.1526   7
  -3  -2   8 385.236 12.8255   8
  -2   3  -8 397.977 15.5137   6
  -2  -3   8 376.878 12.1101   5
  -3   2   8 380.534 12.4089   2
  -3   2   8 357.567 11.6106   8
   2  -3  -8 355.078 12.4241   1
  -3  -2  -8 385.776 11.9367   2
   3  -2   8 356.003 13.5733   3
  -2  -3   8 374.471 11.5682   4
  -2  -3   8 348.430 12.6981   2
  -2  -3   8 372.158 12.3695   3
  -3   2   8 365.156 11.4498   5
  -3   2   8 363.706 12.5507   4
   2  -3  -8 366.691 12.7915   2
  -3  -2  -8 376.373 14.0085   7
  -3  -3  -8 426.344 17.0493   1
  -3  -3  -8 498.157 15.6989   2
  -3   3  -8 530.763 19.7133   6
  -3   3   8 478.845 14.9185   4
  -3  -3   8 467.344 15.0357   5
  -3  -3   8 496.845 15.0440   4
  -3  -3  -8 481.271 17.2514   7
   3  -3  -8 489.693 15.3729   1
   3  -3   8 498.982 16.8492   3
  -3  -3   8 479.950 15.4465   2
  -3  -3   8 490.472 15.5902   8
  -3   3   8 491.875 14.2725   8
  -4   0  -8 78.2371 7.15353   7
   0  -4  -8 66.2781 5.13824   7
   0  -4   8 64.8504 6.27327   3
  -4   0   8 69.1058 5.01102   8
  -4   0   8 66.3991 5.47919   5
   0  -4  -8 69.4118 5.65469   2
   0  -4   8 70.5873 5.60370   2
  -4   0   8 64.2929 5.73480   4
   0   4  -8 69.9760 7.83528   6
   0  -4  -8 75.4436 5.77165   1
  -4  -1   8 325.201 12.4305   4
  -4  -1   8 341.058 12.2863   5
  -1  -4  -8 347.776 12.7218   7
  -4   1  -8 344.744 14.7709   6
   1  -4   8 361.215 12.7488   2
  -1  -4  -8 347.943 12.7813   2
  -4   1  -8 350.274 14.4443   7
   1  -4   8 358.207 13.5720   3
  -4  -1   8 345.899 12.0551   8
  -1  -4  -8 354.742 12.8547   1
  -4   1   8 342.803 12.2875   4
  -1  -4   8 350.617 13.0091   2
  -1  -4   8 344.283 13.1267   3
  -1   4  -8 365.544 15.3583   6
  -4   1   8 338.077 11.8115   8
   1  -4  -8 329.326 12.4554   1
  -4  -1  -8 374.456 14.2378   7
  -1  -4   8 317.860 12.0919   1
  -4   1   8 354.505 11.8876   5
   1  -4  -8 341.328 12.6540   2
  -4   2  -8 50.2729 6.43473   7
   2  -4   8 38.8074 5.36642   3
   2  -4   8 37.5154 5.07680   1
  -2  -4  -8 48.4093 5.19199   2
  -2  -4  -8 51.8338 5.65676   1
  -2  -4  -8 45.8923 5.69951   7
  -4  -2   8 54.9781 5.28952   8
  -4   2  -8 62.1573 8.01956   6
  -4  -2   8 40.6837 4.60226   5
  -4  -2   8 54.5352 5.44683   4
  -2   4  -8 48.6137 7.00558   6
  -2  -4   8 49.5369 5.43669   3
   4  -2   8 45.2662 5.73890   3
  -2  -4   8 53.5610 5.24131   1
  -2  -4   8 43.0623 4.89671   2
  -4  -2  -8 39.0583 5.35357   7
   2  -4  -8 47.6832 5.20554   2
  -4   2   8 48.9155 4.94831   4
   2  -4  -8 49.9589 5.24012   1
  -4   2   8 45.3624 4.18362   5
  -4   2   8 53.4957 4.99672   8
  -4  -3   8 198.330 8.76194   8
  -3  -4  -8 184.711 9.23634   2
   3  -4   8 211.024 10.6799   3
  -4   3  -8 205.940 13.2009   6
  -4  -3   8 192.859 8.94286   5
   3  -4   8 192.383 9.75588   1
  -3  -4  -8 190.736 10.7847   7
  -4  -3   8 190.494 9.03691   4
  -3  -4   8 207.559 8.44075   5
  -3  -4   8 178.012 9.13197   2
  -4  -3  -8 203.643 11.1105   7
   4  -3   8 190.966 10.1542   3
  -4   3   8 184.936 8.39125   8
   3  -4  -8 197.628 9.29014   1
  -3   4  -8 195.713 12.8294   6
   4  -4   8 22.7930 4.46737   1
  -4  -4  -8 13.5687 4.57504   7
   4  -4   8 22.7042 4.80355   3
  -4  -4   8 19.0362 3.31380   5
  -4   4  -8 22.8007 6.62080   6
  -4  -4   8 27.2082 4.16713   4
  -5   0   8 142.936 7.85443   4
   0  -5   8 138.090 8.12697   2
   0  -5  -8 130.037 7.60663   7
   0   5  -8 122.881 11.3356   6
  -5   0   8 123.911 7.17821   5
  -5   0  -8 139.409 9.79832   7
   0  -5   8 130.738 8.72532   3
   0  -5  -8 129.818 8.13998   2
   0  -5  -8 122.824 7.76564   1
   0  -5   8 112.355 7.62087   1
  -5   0   8 130.588 7.39033   8
  -5  -1   8 277.404 11.3809   5
   1   5  -8 263.896 15.0779   6
   1  -5   8 276.138 11.7828   2
   1  -5   8 265.724 11.8414   1
  -1  -5  -8 280.961 11.9506   1
  -1  -5  -8 273.482 12.0046   2
  -5  -1   8 292.259 11.1822   8
  -5   1  -8 255.077 13.5705   7
  -5  -1   8 289.840 11.9683   4
  -1  -5  -8 279.540 12.1044   7
   1  -5   8 276.829 12.6151   3
  -5   1   8 266.130 10.9409   8
  -1   5  -8 293.721 15.1125   6
  -1  -5   8 267.524 12.3336   3
  -1  -5   8 275.188 11.3854   1
   1  -5  -8 283.399 11.9062   1
  -5   1   8 278.381 10.9049   5
   5  -1   8 246.909 11.8277   3
  -5  -1  -8 272.738 13.2940   7
  -5   1   8 272.040 11.1111   4
   1  -5  -8 281.786 11.9441   2
  -1  -5   8 269.685 12.0251   2
  -5   2  -8 133.115 10.9026   6
   2  -5   8 105.756 7.65805   1
  -5   2  -8 103.975 10.3089   7
  -5  -2   8 111.258 7.25080   5
  -5  -2   8 119.197 7.13224   8
   2  -5   8 102.375 8.56574   3
  -2  -5  -8 110.897 8.38577   7
  -2  -5  -8 119.721 7.84150   1
  -5  -2   8 105.281 7.56205   4
  -2  -5  -8 123.990 7.84641   2
  -5   2   8 111.902 6.59503   4
  -2   5  -8 117.718 11.1497   6
   2  -5  -8 100.842 7.45091   2
   2  -5  -8 108.125 7.44455   1
  -5  -2  -8 121.616 9.02641   7
  -2  -5   8 97.9959 7.33662   2
  -5   2   8 123.452 7.23803   8
   5  -2   8 109.829 8.22763   3
  -2  -5   8 125.036 8.26531   3
   3  -5   8 146.722 9.63655   3
  -5  -3   8 166.019 11.6672   8
  -3  -5  -8 171.249 11.0898   7
  -5   3  -8 170.382 13.3087   6
  -5  -3   8 159.844 9.05587   4
  -5  -3   8 145.135 8.49853   5
  -3  -5  -8 152.275 8.90809   2
  -5   3   8 161.523 8.54544   8
  -5  -3  -8 184.276 10.9418   7
  -3  -5   8 158.798 9.17897   2
  -3   5  -8 172.244 12.4371   6
   5  -3   8 151.238 9.71695   3
  -4  -5  -8 79.4195 9.34048   7
  -5  -4  -8 58.4322 7.93993   7
  -6   0   8 22.5836 4.46846   8
  -6   0   8 14.2606 3.90025   4
  -6   0  -8 16.9763 5.55784   7
   0   6  -8 28.6150 6.61308   6
  -6   0   8 19.2519 3.83324   5
   0  -6  -8 21.6256 4.59487   7
  -6   1  -8 109.351 10.7560   7
   1   6  -8 112.241 12.1243   6
  -6  -1   8 119.743 7.71227   5
  -1  -6  -8 127.825 8.90281   7
  -6  -1   8 117.407 7.58029   8
  -6  -1  -8 124.916 11.2194   7
  -6   1   8 123.404 7.46273   5
  -6   1   8 119.582 7.90840   8
  -6   1   8 113.330 7.43545   4
   1  -6  -8 123.022 8.10424   7
  -1   6  -8 107.829 11.1347   6
  -2  -6  -8 9.92901 4.14635   7
  -6  -2   8 15.4836 3.71236   8
  -6   2   8 16.2945 4.03997   8
  -6  -2  -8 16.9801 4.82872   7
   0   0  -9 199.744 8.32574   2
   0   0  -9 188.946 6.14086   7
  -1   0  -9 69.3906 3.60393   6
   0  -1  -9 70.5635 3.79406   7
   0  -1  -9 75.4357 5.43593   2
  -1   0   9 71.6405 3.86966   3
   0  -1   9 72.0583 5.06009   4
   0  -1  -9 70.3682 5.37842   1
  -1   0   9 71.4932 5.31402   2
   0   1  -9 63.4383 5.15907   2
  -1   0   9 78.4360 6.33583   4
   0  -1   9 63.0423 5.33349   2
  -1   0  -9 67.5832 4.70270   2
   0  -1   9 63.6951 4.66137   3
   1   0  -9 75.2238 5.22675   2
   0   1  -9 66.8044 3.97275   6
  -1   0  -9 65.1030 4.04519   7
  -1  -1   9 454.888 15.7388   2
  -1   1  -9 521.878 14.4751   7
  -1  -1   9 501.951 14.0911   3
   1  -1   9 514.369 15.4875   3
   1  -1  -9 486.914 15.8266   2
   1   1  -9 497.531 16.2076   2
  -1   1  -9 501.604 15.4230   2
  -1   1  -9 519.766 14.5984   6
   1  -1  -9 523.467 15.8447   1
  -1  -1  -9 502.838 14.3499   7
  -1  -1  -9 502.462 15.4551   2
  -1   1   9 497.765 16.0529   4
   1  -1   9 510.427 15.9812   2
  -1  -1   9 502.883 15.4258   4
  -2   0   9 123.170 6.69783   8
   0   2  -9 128.450 6.72048   6
   0   2   9 130.100 5.56539   8
  -2   0  -9 127.553 6.40082   2
   2   0  -9 132.301 7.23675   2
  -2   0   9 138.050 7.29108   2
   0  -2  -9 150.779 7.42825   2
  -2   0   9 127.628 7.43761   4
   0  -2  -9 132.043 5.65406   7
   0  -2   9 128.524 6.85330   3
   0  -2  -9 135.730 7.11301   1
   0  -2   9 134.581 6.27296   4
  -2   0  -9 136.050 6.17575   6
   0  -2   9 139.700 7.41300   2
  -2   0  -9 128.240 6.43481   7
  -2   1  -9 47.5621 4.76778   6
  -1   2   9 41.6871 3.57615   8
  -1  -2  -9 55.3763 5.61558   1
   2  -1  -9 50.9032 4.93316   1
  -1   2   9 43.2338 5.23636   4
   1  -2   9 49.3913 4.92132   2
   2  -1  -9 45.8697 4.82637   2
  -1  -2  -9 46.2091 4.37570   7
  -2  -1   9 36.6091 4.31644   2
  -1  -2  -9 42.2906 4.55367   2
  -2  -1   9 44.3929 4.68402   4
   1  -2   9 47.6287 5.22057   3
   1  -2   9 43.5877 4.05802   4
  -2   1  -9 47.8891 4.62812   7
  -2   1   9 43.2768 4.20937   8
  -2  -1  -9 56.1791 4.93747   7
  -2   1   9 50.4663 4.95448   2
  -1  -2   9 37.3419 4.02463   3
   1  -2  -9 38.5948 4.39177   1
  -1  -2   9 46.1138 4.94879   2
  -2   1   9 36.4904 4.83833   4
  -2  -1  -9 50.1579 4.36956   2
  -1   2  -9 38.8923 4.46815   6
   2   1  -9 47.2011 5.14571   2
  -1  -2   9 51.8600 4.57864   4
   2  -1   9 48.2331 4.67336   2
   1  -2  -9 46.3171 4.82181   2
   2  -2  -9 110.788 6.72018   2
  -2   2   9 87.4996 7.43118   4
  -2  -2   9 91.4245 5.52083   4
   2  -2   9 87.8322 6.67825   3
  -2   2  -9 94.7017 6.73350   6
  -2  -2   9 98.5790 6.18221   2
  -2  -2   9 90.5938 5.99473   5
   2  -2   9 86.5218 5.74565   2
  -2  -2  -9 97.5411 6.53746   1
  -2  -2  -9 93.5337 6.20003   7
  -2  -2  -9 92.3907 6.21177   2
   2  -2  -9 95.8985 6.03094   1
  -2   2   9 90.6995 4.97696   8
   3   0  -9 44.3120 4.86137   2
   0  -3   9 31.5139 4.13620   2
   0  -3  -9 38.2747 4.50394   1
  -3   0  -9 38.8952 4.64468   7
   0  -3  -9 34.7368 3.67747   7
  -3   0   9 26.1405 3.54450   5
  -3   0  -9 43.1397 4.83870   6
  -3   0   9 30.6036 3.71019   2
   0  -3  -9 37.7091 4.55875   2
  -3   0   9 34.8498 4.55509   4
   0  -3   9 31.7590 4.55637   3
  -3   0   9 41.1162 4.36205   8
   0   3  -9 33.3221 4.88528   6
  -3  -1   9 267.775 10.4809   8
  -3   1  -9 257.639 10.9054   7
  -3  -1   9 251.700 10.3306   5
  -1  -3  -9 250.471 10.5854   1
  -1  -3  -9 251.164 10.4750   2
  -3  -1   9 237.998 9.68803   2
   1  -3   9 273.348 10.7265   2
   1  -3   9 256.314 11.1629   3
  -1   3   9 253.005 11.3073   4
  -3   1  -9 274.527 11.2586   6
  -1  -3  -9 260.124 9.97058   7
  -3  -1   9 248.915 10.3916   4
   3  -1  -9 264.823 10.6408   2
  -3   1   9 251.180 9.92939   2
  -3  -1  -9 271.590 10.8737   7
   1  -3  -9 250.429 10.4331   2
  -3   1   9 268.124 9.82007   8
   1  -3  -9 259.263 8.68925   7
  -3   1   9 259.763 9.84668   5
  -1  -3   9 264.142 8.81048   4
  -1  -3   9 266.271 10.5019   3
  -1   3  -9 263.930 11.7354   6
   1  -3  -9 261.090 10.3759   1
  -1  -3   9 259.451 10.7758   2
  -3   1   9 257.532 10.8191   4
   3   1  -9 252.793 11.2040   2
  -2  -3  -9 23.0523 4.14484   1
  -3  -2   9 23.6426 3.88289   8
  -2  -3  -9 29.5988 4.56136   7
   3  -2  -9 27.7042 4.53044   2
  -3  -2   9 24.6123 3.81722   4
  -3   2  -9 28.4207 5.05349   6
  -2   3   9 36.2522 5.10172   4
   2  -3   9 24.8600 4.56426   3
  -2  -3  -9 24.7054 3.95213   2
  -3   2  -9 33.0675 5.10427   7
   3  -2  -9 27.8439 3.96851   1
  -3  -2   9 24.4127 3.56055   2
   2  -3   9 26.3122 3.82103   2
  -3  -2   9 30.0077 3.87606   5
  -2   3  -9 35.0349 5.49051   6
   3  -2   9 25.7120 4.51667   3
  -3  -2  -9 33.5618 3.61834   2
  -2  -3   9 30.7476 3.68567   4
   2  -3  -9 25.2672 4.00810   1
  -3   2   9 27.4838 3.53853   8
   2  -3  -9 27.9119 4.31508   2
  -3   2   9 22.1859 3.91209   4
  -2  -3   9 23.6406 3.82785   3
  -2  -3   9 23.9018 3.77823   2
  -3  -2  -9 23.5292 4.20144   7
  -2  -3   9 22.9755 3.56026   5
  -3   2   9 32.2021 4.03736   2
  -3   2   9 33.5373 3.62752   5
   3  -3   9 145.948 9.20640   3
  -3   3  -9 166.136 10.7219   6
   3  -3  -9 155.145 8.07279   1
  -3  -3   9 151.032 7.72736   5
  -3  -3  -9 140.519 8.91758   7
  -3  -3   9 149.258 7.88396   2
  -3   3   9 132.849 6.61347   8
  -3  -3   9 140.654 8.05890   8
  -3   3   9 154.979 7.91114   4
  -3  -3  -9 136.315 7.80682   2
  -3  -3   9 158.215 7.53903   4
   0  -4  -9 50.4628 5.67681   1
   0  -4  -9 53.0755 5.11961   7
  -4   0  -9 58.0830 6.49540   7
   0  -4   9 53.2442 5.94390   3
  -4   0   9 41.8024 4.69288   8
  -4   0   9 45.5505 4.97085   5
   0  -4  -9 64.1843 6.03401   2
  -4   0   9 55.8000 5.81152   4
   0  -4   9 57.6340 5.69900   2
   0   4  -9 52.1273 6.73082   6
  -1  -4  -9 17.7045 3.70475   7
  -4  -1   9 17.5972 3.76872   4
  -4   1  -9 15.2143 4.31918   6
   1  -4   9 19.7142 3.64705   2
  -1  -4  -9 18.8906 3.75056   2
  -4   1  -9 18.6447 4.35050   7
  -1  -4  -9 16.4850 3.65789   1
  -4  -1   9 22.7742 3.73140   5
  -4  -1   9 16.2733 3.43679   8
  -1   4   9 18.6675 4.29218   4
   1  -4   9 16.4450 4.29304   3
   1  -4  -9 20.1586 3.88556   1
  -1  -4   9 21.3782 4.35871   3
  -1   4  -9 16.3611 4.56829   6
  -4   1   9 14.6886 2.98264   5
  -4   1   9 18.3442 3.40217   8
  -1  -4   9 17.3950 3.60573   2
   1  -4  -9 16.4854 3.05038   7
  -4   1   9 15.4987 3.42313   4
   1  -4  -9 14.7561 3.47687   2
   4  -1   9 13.5926 3.76279   3
  -4  -1  -9 15.9264 3.84386   7
  -4   2  -9 46.4041 6.72440   6
  -4   2  -9 43.4003 5.98820   7
  -4  -2   9 41.8710 4.88323   5
  -2  -4  -9 41.7627 5.36909   1
   2  -4   9 31.1250 5.31987   3
   2  -4   9 24.0925 4.53047   1
  -4  -2   9 37.6974 4.94569   4
  -4  -2   9 51.5362 5.55253   8
  -2  -4  -9 42.7595 5.13743   2
  -2  -4  -9 40.3167 5.43595   7
  -4   2   9 36.8023 4.73018   4
  -2  -4   9 37.0546 5.21698   3
  -2   4  -9 43.0055 6.43072   6
  -4   2   9 35.8233 3.94537   5
   2  -4  -9 44.8216 5.30521   1
  -4  -2  -9 36.1904 5.24886   7
   2  -4  -9 35.6593 4.89234   2
  -2  -4   9 42.3316 5.05998   2
  -4   2   9 32.9214 4.30580   8
   4  -2   9 44.0872 5.86962   3
  -3  -4  -9 16.0319 3.74361   2
  -3  -4  -9 11.7401 4.12552   7
  -4  -3   9 18.2558 3.79933   8
  -4   3  -9 15.1123 5.20885   6
   3  -4   9 2.35820 3.27000   1
  -4  -3   9 10.0687 3.09931   5
   3  -4   9 14.7852 4.51893   3
  -4  -3   9 14.3952 3.52290   4
   3  -4  -9 9.10301 3.19205   1
  -4  -3  -9 13.0525 4.18788   7
  -4   3   9 11.2007 3.04806   8
   4  -3   9 1.18727 3.11322   1
  -3   4  -9 13.4437 4.99758   6
  -3  -4   9 10.5629 3.25913   2
   4  -3   9 11.5194 4.11944   3
  -3  -4   9 9.50422 2.82998   5
   4  -4   9 21.2316 5.05707   3
  -4  -4  -9 22.9187 5.38282   7
  -4   4  -9 21.3099 6.09064   6
  -4  -4   9 17.4884 3.52840   5
   0   5  -9 10.1363 4.58629   6
  -5   0  -9 11.0663 4.19313   7
  -5   0   9 17.1327 4.05978   4
   0  -5  -9 15.3033 3.98403   1
   0  -5   9 6.17248 3.14925   1
   0  -5   9 16.2886 4.64772   3
  -5   0   9 7.40946 3.01989   8
  -5   0   9 14.4105 3.27055   5
   0  -5   9 15.1702 3.82289   2
   0  -5  -9 10.9144 3.37772   7
   0  -5  -9 15.8153 4.16507   2
  -1  -5  -9 86.9163 7.91730   1
   1   5  -9 83.9573 9.69288   6
  -5   1  -9 117.197 10.3249   7
  -5  -1   9 80.5338 7.21485   8
  -5  -1   9 73.9091 7.50109   4
  -1  -5  -9 99.1684 7.57179   7
  -5  -1   9 91.7315 6.76888   5
   1  -5   9 94.4572 8.51687   3
   1  -5   9 95.0390 7.20531   2
   1  -5   9 81.6319 7.75808   1
  -1  -5  -9 87.4552 7.20766   2
  -1   5  -9 100.727 10.1164   6
  -5  -1  -9 98.0143 8.75023   7
  -5   1   9 93.5852 7.56136   8
   5  -1   9 80.8620 7.65970   3
   1  -5  -9 92.2518 7.34545   1
  -5   1   9 91.5696 6.85092   4
   1  -5  -9 91.0231 7.26571   2
  -5   1   9 97.6241 6.40143   5
  -1  -5   9 70.8838 7.41313   3
   1  -5  -9 76.2606 6.45772   7
  -1  -5   9 84.5890 6.71189   1
  -1  -5   9 98.3707 7.36428   2
  -5  -2   9 7.97077 3.04054   8
  -2  -5  -9 11.9284 3.72303   2
  -5  -2   9 9.41447 3.71641   4
  -5   2  -9 0.10550 4.10167   6
  -5  -2   9 12.3678 3.38876   5
   2  -5   9 11.4694 4.53225   3
  -2  -5  -9 12.6270 3.79376   1
  -2  -5  -9 9.88130 3.81121   7
  -2  -5   9 13.5761 3.64596   2
  -2   5  -9 12.8797 5.04803   6
   2  -5  -9 13.1535 6.28267   1
  -5  -2  -9 8.81322 4.02413   7
  -5   2   9 14.7503 3.39714   4
  -5   2   9 14.1026 3.48245   8
   5  -2   9 0.38649 3.36682   3
   2  -5  -9 13.6227 3.83220   2
  -2  -5   9 13.7768 3.89983   3
  -5   3  -9 68.2230 9.46020   6
  -5  -3   9 42.6887 5.34178   5
  -5  -3   9 76.4527 7.03180   8
  -5  -3   9 60.2864 6.71579   4
  -3  -5  -9 59.4221 7.81192   7
  -3  -5  -9 61.1397 8.81986   2
  -3   5  -9 72.9746 9.53870   6
  -5  -3  -9 65.3893 7.69977   7
  -5   3   9 64.2575 6.50930   8
   5  -3   9 58.9520 8.79653   3
  -6   0   9 18.3015 4.55191   8
   0   6  -9 15.0483 6.35561   6
  -6   0  -9 15.2311 4.97166   7
   0  -6  -9 20.2337 4.42586   7
  -6   0   9 21.8736 4.13905   5
  -1  -6  -9 8.43301 3.77752   7
  -6  -1   9 6.52619 3.10258   8
  -6   1  -9 5.60778 4.49456   7
  -6   1   9 10.9912 3.65438   5
  -6   1   9 4.29416 3.11311   8
  -6  -1  -9 7.12330 4.22048   7
  -2  -6  -9 10.9922 4.42369   7
  -6  -2   9 13.6541 3.71548   8
  -6  -2  -9 14.0926 5.33649   7
  -6   2   9 13.2941 3.91060   8
   0   0  10 2644.05 61.2260   2
   0   0 -10 2559.93 60.6501   2
   0   0 -10 2553.71 57.3700   7
  -1   0 -10 172.585 7.74344   2
   0  -1 -10 163.837 6.10999   7
  -1   0  10 170.029 8.35628   4
   0  -1  10 177.958 8.81076   2
   0  -1 -10 168.584 8.18346   2
   1   0 -10 171.398 8.19559   2
   0   1 -10 162.885 8.29043   2
   0  -1  10 171.580 7.54413   3
  -1   0  10 183.917 8.46665   2
  -1   0  10 166.464 6.36549   3
   0  -1  10 190.074 8.07491   4
  -1   0 -10 173.790 6.70297   7
  -1  -1  10 43.8934 4.81161   4
  -1  -1 -10 45.1877 4.58090   2
  -1   1 -10 37.6574 3.69204   6
  -1  -1  10 40.4187 4.94349   2
   1  -1  10 37.9599 4.56729   2
  -1  -1 -10 49.8952 4.21559   7
  -1   1 -10 35.4273 4.24425   2
   1   1 -10 34.0950 4.54636   2
  -1   1 -10 44.7683 3.99459   7
  -1  -1  10 39.3163 3.89797   3
   1  -1  10 45.3944 4.73677   3
  -1   1  10 44.2085 4.96340   4
   1  -1 -10 41.4298 4.68164   2
  -2   0  10 1769.31 43.7852   2
   0  -2  10 1686.93 44.1631   2
  -2   0  10 1755.69 44.1877   4
   0  -2 -10 1774.04 41.2111   7
  -2   0 -10 1742.73 41.3755   6
   0  -2 -10 1771.51 43.9684   1
   2   0 -10 1784.46 43.6986   2
   0   2 -10 1712.92 42.4192   6
  -2   0  10 1661.10 43.2015   8
   0  -2 -10 1741.76 43.8973   2
   0  -2  10 1772.63 42.2236   4
   0  -2  10 1756.62 42.9459   3
  -2   0 -10 1840.63 42.5233   2
  -2   0 -10 1778.10 42.2469   7
  -1   2  10 95.6720 5.36462   8
   1  -2  10 105.388 5.91529   4
   1  -2  10 109.335 7.02135   2
   2  -1 -10 108.753 6.73476   2
  -1  -2 -10 111.342 7.15471   2
  -2  -1  10 103.876 6.74481   4
  -2  -1  10 110.287 6.96757   2
   1   2 -10 100.712 6.32538   6
  -1  -2 -10 104.935 7.15879   1
  -1  -2 -10 117.909 6.17095   7
   1  -2  10 115.615 7.38235   3
  -1   2  10 107.411 7.12940   4
  -2   1 -10 111.659 6.30851   6
  -2   1 -10 114.287 6.49938   7
   1  -2 -10 107.180 6.88982   1
  -2  -1 -10 112.523 6.11555   2
  -2  -1 -10 119.372 6.41318   7
  -1  -2  10 107.472 7.02681   2
  -2   1  10 104.383 6.20226   8
   1  -2 -10 101.476 6.82672   2
  -2   1  10 107.281 6.60053   2
   2   1 -10 100.851 7.14807   2
  -2   1  10 108.154 7.49685   4
   2  -1  10 124.829 6.83762   2
  -1  -2  10 110.639 6.37437   3
  -1  -2  10 110.163 6.38891   4
  -1   2 -10 108.357 6.45390   6
  -2   2  10 1228.87 33.6669   4
  -2   2 -10 1291.59 33.0704   6
  -2   2  10 1196.52 30.6804   8
   2  -2  10 1250.77 33.1626   3
  -2  -2 -10 1261.58 32.3377   2
  -2  -2  10 1145.39 32.7260   2
   2  -2 -10 1219.71 32.3719   1
   2  -2  10 1218.19 32.4727   2
  -2  -2  10 1264.02 31.9748   4
  -2  -2 -10 1265.69 32.3427   7
   2  -2 -10 1204.81 33.1648   2
   3   0 -10 114.624 7.15491   2
   0  -3 -10 100.638 5.67845   7
   0  -3  10 103.836 7.14653   2
  -3   0  10 102.755 6.74773   5
   0  -3 -10 92.2244 6.76352   1
   0  -3 -10 108.477 7.13702   2
   0   3 -10 102.565 7.09269   6
  -3   0  10 104.342 7.18204   4
   0  -3  10 103.634 7.36381   3
  -3   0  10 97.9750 6.52124   8
  -3   0  10 108.339 6.68030   2
  -3   0 -10 101.388 6.75282   7
  -3  -1  10 29.1382 3.99454   2
  -1  -3 -10 26.8398 4.21056   2
  -3   1 -10 28.2222 4.34544   7
  -3   1 -10 33.6089 4.91007   6
  -1   3  10 33.7623 4.89624   4
  -1  -3 -10 30.3289 4.53901   1
   3  -1 -10 48.5971 5.36024   2
  -1  -3 -10 33.2562 4.19681   7
  -3  -1  10 22.2536 4.08757   8
  -3  -1  10 30.7158 4.44641   5
   1  -3  10 33.8219 5.08283   3
  -3  -1  10 28.8896 4.56329   4
   1  -3  10 34.5238 4.63354   2
  -3   1  10 28.6288 4.81026   4
  -3   1  10 19.5852 3.48483   5
  -1   3 -10 36.1879 5.24450   6
  -3  -1 -10 31.5650 4.35897   7
  -1  -3  10 30.2316 3.54208   4
  -1  -3  10 30.8347 4.47237   2
   1  -3 -10 36.2527 4.95050   2
  -3   1  10 32.7895 4.25269   2
   3   1 -10 38.8999 5.43387   2
  -1  -3  10 20.4610 3.95906   3
   1  -3 -10 19.1688 3.79764   1
  -3   1  10 34.5384 4.39085   8
   3  -2 -10 66.3373 6.29337   1
  -3  -2  10 49.7846 5.29336   2
  -3   2 -10 69.6193 7.18379   6
   2  -3  10 76.1817 7.39995   3
  -3  -2  10 72.5176 6.49738   5
  -3  -2  10 75.7840 6.57123   4
  -2  -3 -10 73.8099 6.18367   2
  -2  -3 -10 64.4606 6.68771   1
   2  -3  10 69.3623 5.85114   2
  -3   2 -10 86.1579 7.56101   7
  -2  -3 -10 62.0559 6.18348   7
  -3  -2  10 70.1522 6.91741   8
   3  -2 -10 71.7762 7.16697   2
  -2   3  10 70.1637 7.21680   4
  -3   2  10 63.6106 5.52434   8
   2  -3 -10 79.4236 7.11076   2
  -2  -3  10 78.6760 5.39067   4
  -3   2  10 79.0595 5.40200   5
  -3   2  10 61.8762 6.57593   4
  -3   2  10 75.7623 5.73383   2
   3  -2  10 81.7564 7.44589   3
  -2  -3  10 57.9032 5.93270   2
  -2   3 -10 68.4336 7.08512   6
  -3  -2 -10 84.6264 5.76805   2
  -3  -2 -10 72.9866 6.73290   7
   2  -3 -10 76.7628 6.20268   1
  -2  -3  10 78.9537 6.49149   5
  -3   3  10 19.2263 3.30795   8
   3  -3  10 19.9066 4.77943   3
  -3  -3 -10 27.6121 5.08308   7
  -3  -3  10 18.1280 3.54344   5
  -3   3  10 27.0744 4.48037   4
  -3  -3  10 25.9163 4.09771   4
  -3   3 -10 27.1262 5.62280   6
  -3  -3  10 25.0311 4.59317   8
  -3  -3  10 20.9669 3.92206   2
  -3  -3 -10 25.5010 4.01534   2
   3  -3 -10 25.0128 4.37328   1
  -4   0  10 673.584 21.4990   4
   0  -4 -10 642.388 21.2008   2
  -4   0  10 707.088 20.8946   8
  -4   0  10 690.030 20.8419   5
   0  -4  10 632.684 21.2017   2
   0  -4 -10 673.578 19.6259   7
  -4   0 -10 718.861 22.0290   7
   0  -4 -10 641.584 20.8988   1
   0   4 -10 652.877 22.4343   6
   0  -4  10 667.121 21.6829   3
  -4  -1  10 29.5406 4.85737   4
  -4   1 -10 32.6114 5.43515   6
   1  -4  10 31.8145 4.87353   2
  -1  -4 -10 30.1021 4.93892   1
  -4   1 -10 35.3601 5.45261   7
  -4  -1  10 34.7044 4.84837   5
  -1  -4 -10 37.3907 4.79385   7
   1   4 -10 36.3126 6.25003   6
  -1  -4 -10 35.3296 5.00220   2
  -1   4  10 29.0085 5.03763   4
  -4  -1  10 28.2275 4.44451   8
   1  -4  10 28.6491 5.31129   3
  -1   4 -10 25.9648 5.34364   6
  -4   1  10 32.5001 4.62937   8
  -4   1  10 18.8567 4.19333   4
  -4   1  10 31.6663 4.35446   5
  -4  -1 -10 36.9638 5.32443   7
  -1  -4  10 27.8139 4.49990   2
   1  -4 -10 28.8672 4.63851   2
   4  -1  10 25.5213 4.70069   3
  -1  -4  10 32.4058 5.39968   3
   1  -4 -10 31.3106 4.87870   1
  -4   2 -10 504.697 19.2254   6
  -4  -2  10 520.245 17.8926   5
  -2  -4 -10 507.933 18.0465   7
  -4  -2  10 501.354 17.5542   8
  -4   2 -10 547.923 19.3038   7
  -2  -4 -10 523.477 18.4041   1
  -2  -4 -10 506.822 17.7422   2
   2  -4  10 494.178 18.8101   3
  -4  -2  10 536.723 18.0205   4
  -4  -2 -10 506.392 18.1275   7
   2  -4 -10 495.959 17.8391   2
   4  -2  10 484.625 18.0452   3
  -2  -4  10 505.660 18.1573   2
  -4   2  10 516.084 17.5851   4
  -4   2  10 513.502 16.7346   8
  -4   2  10 496.383 16.1146   5
   2  -4 -10 515.634 17.5285   1
  -2   4 -10 520.697 19.7642   6
  -4  -3  10 30.2813 5.04897   8
  -3  -4 -10 20.0287 4.88384   7
  -4  -3  10 27.7032 4.77190   4
  -4   3 -10 31.8387 6.52791   6
  -3  -4 -10 16.0265 4.04627   2
  -4  -3  10 20.3422 4.01250   5
   3  -4  10 15.0313 4.28638   1
   3  -4  10 22.9984 5.44153   3
  -4  -3 -10 19.7846 4.86079   7
  -3  -4  10 28.3867 4.84739   8
  -3  -4  10 20.2082 5.32577   5
   4  -3  10 27.1957 5.35501   3
  -3   4 -10 20.8550 5.39731   6
   3  -4 -10 24.3894 4.51210   1
  -4   3  10 30.9761 4.31603   8
  -3  -4  10 14.7635 4.02931   2
  -4  -4  10 220.930 13.7210   5
  -4  -4 -10 246.605 13.0456   7
  -4   4 -10 250.546 14.6108   6
   0  -5  10 42.0619 6.11576   3
  -5   0  10 45.7392 5.97842   8
   0  -5 -10 42.4471 5.93017   1
  -5   0  10 47.5350 6.14529   4
  -5   0  10 43.8129 5.31656   5
   0  -5  10 41.7559 5.61763   1
   0  -5  10 52.0003 6.41593   2
   0   5 -10 52.5212 7.70292   6
   0  -5 -10 44.7120 6.13092   2
  -5   0 -10 45.9716 6.40253   7
   1   5 -10 10.8416 5.14188   6
   1  -5  10 20.9580 5.25169   3
  -5  -1  10 16.2462 4.36549   4
  -1  -5 -10 17.3921 5.04397   1
  -1  -5 -10 14.5133 4.10124   2
  -5  -1  10 17.3762 3.96930   5
   1  -5  10 9.39518 3.49570   2
  -1  -5 -10 14.5660 3.90157   7
  -5   1 -10 13.4779 4.68007   7
  -5  -1  10 15.5117 4.05489   8
  -1  -5  10 12.7685 4.02051   2
   5  -1  10 12.4839 4.26017   3
  -1  -5  10 9.35431 3.69965   1
  -1  -5  10 22.3167 5.05722   3
  -5  -1 -10 1.15846 3.12657   7
   1  -5 -10 20.2652 4.64949   2
  -5   1  10 17.0912 4.08692   4
  -5   1  10 11.2482 3.33919   5
  -1   5 -10 14.3485 5.00451   6
  -5   1  10 10.2426 3.56712   8
   2  -5  10 39.3044 7.20740   3
  -5  -2  10 32.2342 5.38625   5
  -2  -5 -10 38.7931 6.15420   7
  -2  -5 -10 33.6813 5.50602   2
  -5  -2  10 26.8664 4.83248   8
  -5  -2  10 41.2679 6.13784   4
  -5   2 -10 48.3314 7.60289   6
   5  -2  10 30.4209 5.46570   3
  -2  -5  10 32.2652 5.75341   2
  -5   2  10 34.0120 5.12631   8
  -2   5 -10 44.0103 7.40815   6
  -5   2  10 29.0779 4.91405   4
  -5  -2 -10 42.8359 6.14275   7
   2  -5 -10 39.7297 5.99970   2
  -3  -5 -10 9.46807 4.29731   7
  -5  -3  10 5.21705 3.40645   5
  -5  -3  10 12.1273 3.84459   8
  -5  -3 -10 13.2499 4.40247   7
  -5   3  10 10.5322 3.58573   8
   0  -6 -10 191.298 10.4352   7
  -6   0 -10 196.845 12.3094   7
  -6   0  10 209.280 11.1096   8
  -6   1 -10 1.61241 3.89690   7
  -1  -6 -10 5.63909 3.52301   7
  -6  -1  10 4.54850 3.47627   8
  -6  -1 -10 1.69342 3.40020   7
  -6   1  10 6.86193 3.54435   8
  -6  -2  10 165.415 11.1629   8
   0   0 -11 562.576 16.9921   2
   0   0  11 503.437 17.0441   2
   0   0  11 548.555 16.8945   4
  -1   0  11 284.346 11.2575   2
  -1   0  11 271.304 11.0341   4
   0  -1  11 279.622 10.5056   4
  -1   0 -11 269.609 10.4327   2
   0  -1 -11 255.364 10.7323   2
   0   1 -11 274.619 11.2205   2
   1   0 -11 264.780 10.8182   2
   0  -1  11 264.271 10.0120   3
   0  -1  11 267.849 11.5173   2
  -1   0 -11 270.604 9.09625   7
   1  -1  11 116.231 7.33006   2
  -1  -1  11 112.053 7.06863   4
   1  -1  11 116.746 6.85070   3
  -1   1 -11 125.562 5.86924   7
  -1   1  11 100.441 6.89147   4
  -1  -1 -11 104.339 5.51000   7
  -1   1 -11 111.306 6.94690   2
   1  -1 -11 106.644 6.87258   2
   1   1 -11 114.624 7.31102   2
  -1  -1 -11 114.463 6.68618   2
  -1  -1  11 116.440 5.90152   3
  -1  -1  11 110.681 7.50006   2
   0  -2  11 399.145 12.9409   4
  -2   0  11 381.077 13.9357   2
  -2   0 -11 368.888 12.4788   7
  -2   0  11 384.256 14.0525   8
  -2   0  11 377.464 14.3813   4
   0  -2  11 364.849 14.4763   2
   0  -2 -11 385.522 12.6444   7
   2   0 -11 355.904 13.4544   2
   0  -2 -11 357.642 14.2137   1
   0  -2  11 391.456 13.4256   3
   0  -2 -11 326.322 13.8001   2
  -2   0 -11 394.467 12.8883   2
   0   2 -11 364.658 14.3235   6
  -1  -2 -11 189.750 9.72246   2
  -2   1 -11 205.077 8.73328   7
   1  -2  11 196.617 9.95555   2
  -1   2  11 184.609 9.60646   4
  -2   1 -11 213.880 8.74959   6
  -2  -1  11 202.826 9.97377   2
   1  -2  11 202.279 8.38540   4
  -1   2  11 194.904 8.24787   8
  -1  -2 -11 206.417 10.0439   1
  -1  -2 -11 205.646 8.57309   7
   2  -1 -11 206.789 9.55198   2
   1  -2  11 203.420 9.80206   3
  -2  -1  11 201.128 9.86454   4
  -1   2 -11 189.946 8.67361   6
   1  -2 -11 203.077 10.1043   1
  -2   1  11 194.860 9.10617   8
  -1  -2  11 199.011 9.08430   4
   1  -2 -11 200.929 10.2646   2
   2   1 -11 198.218 10.0350   2
   2  -1  11 175.851 9.05917   3
  -2   1  11 202.689 9.33912   2
  -1  -2  11 205.462 10.3538   2
  -1  -2  11 196.647 8.76464   3
  -2  -1 -11 200.762 8.64465   2
  -2  -1 -11 207.149 8.68040   7
  -2   1  11 193.053 10.0040   4
   2  -1  11 204.548 9.44591   2
   2  -2  11 293.702 12.2628   3
  -2  -2 -11 277.263 10.9675   7
  -2  -2  11 259.173 10.9984   4
  -2   2  11 257.532 10.0959   8
   2  -2 -11 245.951 11.3217   1
  -2  -2  11 244.066 11.6006   2
   2  -2  11 278.959 11.6221   2
  -2  -2 -11 268.280 10.8970   2
   2  -2 -11 255.140 11.8026   2
  -2   2  11 242.608 11.8829   4
  -2   2 -11 277.649 11.3122   6
  -2   2  11 255.679 10.9596   2
  -3   0  11 153.840 9.03532   5
   0  -3 -11 175.031 9.36417   1
   3   0 -11 173.721 9.08141   2
   0   3 -11 166.299 8.81984   6
  -3   0  11 168.837 8.69194   2
   0  -3  11 164.704 9.34984   3
  -3   0 -11 160.891 8.53841   7
   0  -3  11 174.565 9.78949   2
   0  -3 -11 171.390 9.42073   2
   0  -3 -11 168.825 7.59106   7
  -3   0  11 153.040 8.75120   8
  -3   0  11 158.098 9.46555   4
  -3  -1  11 67.6996 6.96303   4
  -3   1 -11 55.2214 5.87912   7
  -1  -3 -11 55.5253 6.35808   1
   1  -3  11 43.1773 5.51298   2
  -1  -3 -11 53.7646 5.30679   7
  -3  -1  11 53.9914 5.96075   5
  -3   1 -11 54.3396 5.79522   6
  -1   3  11 51.4393 6.01707   4
   3  -1 -11 54.5646 5.68822   2
   1   3 -11 54.9193 6.22028   6
  -3  -1  11 45.2379 5.25714   2
  -1  -3 -11 57.8517 6.35196   2
   1  -3  11 42.9067 5.90546   3
  -3  -1  11 61.5863 6.80144   8
  -3   1  11 63.0650 6.28452   5
  -3   1  11 60.1853 5.82422   2
   3  -1  11 62.5760 6.39412   3
  -1  -3  11 47.0866 5.89360   2
   3   1 -11 68.9047 7.13602   2
  -1   3 -11 55.8209 5.99627   6
  -3   1  11 58.4903 5.88849   8
  -1  -3  11 56.8811 5.95092   3
   1  -3 -11 54.3644 6.29727   2
  -3  -1 -11 54.3907 5.74619   7
   1  -3 -11 56.3131 5.96142   1
  -3   1  11 57.0821 6.54369   4
  -2  -3 -11 124.949 8.18537   2
  -3   2 -11 138.162 8.58622   7
  -2   3  11 129.797 8.76211   4
  -3  -2  11 132.572 8.22171   4
  -2  -3 -11 130.860 8.51320   1
   3  -2 -11 123.897 8.44434   2
   2  -3  11 131.837 9.02204   2
  -3  -2  11 122.789 8.27284   5
   3  -2 -11 137.589 8.23882   1
  -3  -2  11 128.486 8.62636   8
  -3   2 -11 130.148 8.51582   6
   2  -3  11 135.440 9.29839   3
  -2  -3 -11 119.538 7.89756   7
  -2  -3  11 129.411 7.21836   4
  -2  -3  11 124.346 8.53284   2
  -2   3 -11 133.440 8.62265   6
  -2  -3  11 125.762 8.05893   5
   2  -3 -11 129.246 8.14334   1
  -3   2  11 128.936 7.29892   8
  -3   2  11 109.517 8.36066   4
  -3   2  11 127.497 7.43148   5
   3  -2  11 131.472 8.87467   3
  -3   2  11 119.641 7.24791   2
   2  -3 -11 125.276 8.59444   2
  -3  -2 -11 135.053 8.07627   7
  -3  -3  11 41.5983 5.30559   4
   3  -3  11 30.9829 5.71685   3
  -3  -3  11 26.5352 4.46337   2
   3  -3 -11 29.2891 5.10172   1
  -3   3  11 33.0287 5.28197   4
  -3  -3  11 27.4976 4.71768   5
  -3   3 -11 36.7613 6.09277   6
  -3  -3 -11 33.0417 5.28350   7
  -3  -3  11 35.6420 5.55637   8
   0  -4 -11 126.601 8.48126   1
   0  -4 -11 139.223 8.93594   2
   0  -4  11 149.173 9.48014   2
  -4   0  11 140.994 9.37174   4
   0  -4 -11 153.324 7.78499   7
  -4   0 -11 138.031 8.81740   7
  -4   0  11 131.829 8.58266   8
  -4   0  11 140.567 8.66721   5
   0  -4  11 139.802 9.49596   3
   0   4 -11 137.675 9.30590   6
  -4  -1  11 98.2440 8.39056   8
  -4   1 -11 102.191 8.81410   7
  -4   1 -11 88.5921 7.31458   6
  -1  -4 -11 88.0696 7.32188   2
  -1  -4 -11 72.7329 7.38260   1
  -1  -4 -11 80.3387 7.03941   7
   1   4 -11 77.4380 8.13535   6
   1  -4  11 87.5512 8.96312   3
  -4  -1  11 68.1103 6.83920   5
   1  -4  11 79.3948 7.52192   2
  -4  -1  11 83.9522 8.00456   4
  -1   4  11 81.5604 7.87650   4
  -4   1  11 78.1852 7.25491   8
   1  -4 -11 73.8706 7.39476   2
  -1  -4  11 71.2811 7.41559   2
  -1   4 -11 67.2498 7.53734   6
  -4   1  11 88.6684 7.62928   5
  -4  -1 -11 81.9496 7.52046   7
  -4   1  11 81.5771 8.05241   4
   1  -4 -11 74.2243 7.26399   1
   4  -1  11 77.5512 7.59047   3
  -1  -4  11 86.8199 8.02695   3
  -4  -2  11 113.499 8.51953   4
  -4   2 -11 120.126 9.02247   6
   2  -4  11 109.161 9.67292   3
  -4   2 -11 114.911 8.88416   7
  -4  -2  11 114.928 9.47773   8
  -2  -4 -11 103.956 7.97194   2
  -2  -4 -11 109.262 8.15460   7
  -2  -4 -11 112.751 8.68595   1
  -4  -2  11 124.476 8.51187   5
   2  -4 -11 111.013 8.44412   2
  -4   2  11 102.692 7.88714   4
   4  -2  11 113.818 8.69281   3
  -4  -2 -11 105.129 8.02048   7
  -4   2  11 111.639 7.08866   5
   2  -4 -11 104.918 7.93650   1
  -2  -4  11 123.186 8.76099   2
  -4   2  11 111.629 7.60312   8
  -2   4 -11 127.418 9.34227   6
  -4   3 -11 58.6397 7.56139   6
  -3  -4 -11 56.3646 6.94914   7
  -4  -3  11 58.6071 6.65188   4
   3  -4  11 53.8101 7.47203   3
  -4  -3  11 62.5958 6.87928   5
  -4  -3  11 44.1963 6.22456   8
   3  -4 -11 54.3780 7.28165   1
  -4  -3 -11 62.0264 7.33277   7
   4  -3  11 45.9194 6.78622   3
  -4   3  11 51.2897 5.73681   8
  -3  -4  11 50.8217 6.51276   2
  -3   4 -11 74.3125 8.52967   6
  -3  -4  11 55.5502 6.61100   8
  -4  -4 -11 59.1611 7.43979   7
   0  -5 -11 72.4018 7.79304   2
   0  -5 -11 57.4792 6.41211   7
   0  -5  11 68.3306 7.91782   3
  -5   0 -11 72.8431 7.80030   7
  -5   0  11 89.3666 8.43660   5
  -5   0  11 64.6453 7.67584   4
  -5   0  11 68.0530 7.46354   8
   0   5 -11 68.4170 8.41256   6
   0  -5  11 83.3518 8.01103   2
  -5  -1  11 26.2726 5.17452   5
  -1  -5 -11 21.6176 4.52796   7
  -5  -1  11 24.3104 4.98691   8
   1  -5  11 21.8284 5.76033   3
   1   5 -11 17.9707 5.08773   6
  -5  -1  11 18.0030 4.99203   4
   1  -5  11 16.6276 4.30535   2
  -1  -5 -11 18.5834 4.63916   2
  -5   1 -11 18.7013 5.03213   7
  -1   5 -11 23.5349 5.73569   6
  -1  -5  11 15.3739 4.70956   3
   5  -1  11 19.8695 4.71204   3
  -5  -1 -11 16.0860 4.57653   7
  -1  -5  11 13.5384 4.37740   2
  -5   1  11 20.3276 4.15590   5
  -5   1  11 22.7238 4.98961   8
  -5   1  11 27.7275 5.32373   4
   1  -5 -11 20.2718 5.13362   2
   2   5 -11 52.4695 8.22885   6
  -5  -2  11 59.5378 7.13819   8
  -5  -2  11 42.4649 6.43926   5
  -2  -5 -11 53.6268 7.06412   7
  -5   2 -11 60.8895 8.07436   6
  -5   2  11 59.1216 6.81157   4
  -2   5 -11 52.2189 7.65370   6
  -5   2  11 66.8756 7.18627   8
  -5  -2 -11 44.5900 6.35123   7
  -3  -5 -11 9.85032 4.58246   7
  -5  -3  11 15.8176 4.53908   8
  -5   3  11 5.78581 3.34679   8
  -5  -3 -11 11.4770 4.60055   7
  -6   0  11 49.1010 7.13087   8
  -6  -1  11 28.2734 8.62299   8
   0   0  12 170.066 8.78332   2
   0   0  12 173.322 8.53354   4
   0   0 -12 147.068 7.88846   2
   0  -1  12 238.344 9.32995   3
  -1   0 -12 237.577 8.36066   7
   0  -1  12 237.453 9.81098   4
   1   0 -12 209.252 9.84526   2
  -1   0  12 219.686 10.3280   2
  -1   0 -12 232.981 9.86783   2
   1   0  12 225.763 10.2912   2
   0  -1  12 250.370 11.1434   2
   0  -1 -12 218.054 10.0066   2
   0   1 -12 210.423 10.1541   2
  -1   0  12 224.338 10.2378   4
   1  -1 -12 441.545 15.4794   2
  -1   1  12 432.308 15.3364   4
  -1  -1 -12 466.147 13.4841   7
  -1  -1  12 429.603 16.1207   2
  -1   1  12 452.975 14.8307   8
   1  -1  12 430.236 15.7903   2
  -1   1  12 456.742 15.7053   2
   1  -1  12 439.071 14.7974   3
   1  -1  12 435.061 14.6278   4
   1   1 -12 432.609 15.7357   2
  -1  -1  12 449.163 15.2713   4
  -1   1 -12 461.931 13.3972   7
  -1  -1 -12 427.893 14.8179   2
  -2   0  12 119.805 7.91738   8
  -2   0  12 148.162 8.87206   4
   2   0 -12 140.559 8.02299   2
  -2   0 -12 130.681 7.12973   2
   0  -2 -12 136.668 8.53239   2
  -2   0  12 130.977 8.07200   2
   0  -2 -12 131.302 8.58293   1
   0  -2  12 149.718 7.60991   4
   0  -2  12 135.028 7.76378   3
  -2   0 -12 129.890 6.87486   7
   0  -2  12 144.746 9.08754   2
  -2   1 -12 189.027 8.36286   7
   1  -2  12 174.451 9.83896   2
  -1  -2 -12 178.886 8.06243   7
   2  -1 -12 180.628 9.30406   2
  -2  -1  12 174.725 9.46454   4
  -2  -1  12 183.214 9.73812   2
   1  -2  12 181.919 9.45538   3
  -1   2  12 168.590 9.15435   4
  -1   2  12 179.313 8.16328   8
  -1  -2 -12 164.440 9.20559   2
   1  -2  12 178.018 8.06717   4
  -2   1  12 174.940 9.08909   8
  -1  -2  12 169.647 9.96325   2
  -2  -1 -12 176.267 8.17206   7
   2  -1  12 168.083 9.07170   3
   2   1 -12 159.108 9.36585   2
   1  -2 -12 186.296 10.1110   2
  -1  -2  12 183.756 8.60872   3
  -2  -1 -12 183.502 8.29998   2
  -1  -2  12 180.020 8.99850   4
  -2   1  12 187.807 9.94143   4
   1  -2 -12 177.652 9.70831   1
   2  -1  12 181.986 9.38553   2
  -2   1  12 155.692 8.68564   2
   2  -2  12 102.746 8.21764   3
  -2   2  12 101.341 7.17721   2
   2  -2 -12 95.6781 7.39800   1
  -2  -2  12 97.1676 7.74475   2
  -2  -2 -12 105.265 6.85370   7
   2  -2  12 92.7770 7.24191   2
  -2  -2 -12 122.848 7.23416   2
   2  -2 -12 96.7096 7.67627   2
  -2   2 -12 112.047 6.96267   6
  -2   2  12 101.967 8.89743   4
  -2   2  12 94.2871 6.38054   8
  -2  -2  12 102.730 7.34851   4
  -3   0  12 126.250 7.89029   2
  -3   0  12 113.775 8.36644   5
  -3   0 -12 116.535 7.43294   7
   0  -3  12 119.554 8.84521   2
   3   0 -12 114.537 7.88738   2
   0  -3 -12 125.304 8.74640   2
  -3   0  12 119.605 8.40561   8
   0  -3  12 113.409 8.15778   3
   0  -3 -12 114.348 8.34065   1
  -3   0  12 115.751 8.69565   4
  -3  -1  12 243.796 11.9644   4
   1  -3  12 241.729 11.9139   3
  -1  -3 -12 239.594 11.8781   2
  -3  -1  12 195.782 11.0116   8
  -1  -3 -12 236.435 10.1617   7
  -3   1 -12 231.606 10.6118   7
   3  -1 -12 238.633 11.0945   2
  -3  -1  12 233.678 11.8430   5
   1  -3  12 235.699 11.7615   2
  -1  -3 -12 231.224 11.6963   1
  -1   3  12 241.471 11.3158   4
  -3  -1 -12 252.889 10.7430   7
   3   1 -12 232.655 11.7667   2
  -3   1  12 256.508 10.8925   2
  -1  -3  12 232.222 12.2038   2
  -1   3 -12 247.891 10.8994   6
  -3   1  12 213.870 11.1721   5
  -3   1  12 220.448 11.8237   4
   1  -3 -12 233.215 11.7143   1
   1  -3 -12 218.752 11.6016   2
   3  -1  12 230.617 11.0181   3
  -1  -3  12 235.149 10.8073   3
  -3   1  12 228.959 10.9547   8
  -3   2 -12 97.8872 7.37250   6
   2  -3  12 97.6208 8.67848   3
   3  -2 -12 101.392 7.88534   2
  -3  -2  12 101.736 9.20598   8
  -2   3  12 90.7108 8.54874   4
  -3  -2  12 99.3387 8.47875   4
  -2  -3 -12 83.5303 6.95467   2
  -3  -2  12 75.0877 7.53152   5
  -3  -2  12 94.0903 7.37606   2
  -2  -3 -12 103.590 7.30413   7
  -3   2  12 94.6798 6.58102   2
   2  -3 -12 70.9425 7.40781   1
  -2  -3  12 69.9064 7.44031   2
  -2   3 -12 100.831 7.49239   6
  -3   2  12 89.8806 7.49901   8
  -3  -2 -12 91.4592 7.62670   7
  -2  -3  12 93.1016 8.18912   5
   3  -2  12 91.0115 8.25403   3
  -3   2  12 97.4484 7.14035   5
  -3   2  12 86.4901 8.49339   4
   2  -3 -12 97.0663 8.03187   2
  -2  -3  12 105.564 6.90198   4
  -3  -3  12 140.956 9.05031   5
  -3  -3  12 132.260 8.96024   2
  -3   3 -12 131.645 9.14483   6
  -3  -3  12 133.553 8.67180   4
   3  -3  12 139.361 9.86213   3
  -3  -3 -12 147.094 9.10205   7
   3  -3 -12 148.616 9.50831   1
  -3  -3  12 140.852 9.55010   8
  -3   3  12 121.122 8.95313   4
   0  -4  12 54.4699 6.84667   2
  -4   0  12 64.6342 7.87165   4
  -4   0  12 71.8030 7.84852   8
   0  -4  12 56.8032 7.06942   3
   0  -4 -12 59.0841 7.12319   2
  -4   0  12 47.8182 6.35802   5
   0  -4 -12 55.1372 6.65571   1
   0   4  12 47.3434 6.21301   4
  -4   0 -12 65.3128 6.80795   7
   0   4 -12 68.0605 7.33176   6
  -1  -4 -12 87.7635 8.26617   2
  -1  -4 -12 70.7481 7.79832   1
   1  -4  12 78.6814 7.97825   2
  -4   1 -12 82.1523 7.77880   7
  -4  -1  12 83.1621 8.53395   5
   1  -4  12 90.8300 9.25637   3
  -1  -4 -12 91.0068 6.93184   7
  -4  -1  12 81.1630 8.48117   4
  -1   4  12 97.3063 8.64362   4
  -4  -1  12 77.9357 7.97181   8
  -4   1  12 85.7695 8.62049   4
   4  -1  12 92.7144 7.95631   3
   1  -4 -12 99.8172 9.11213   2
  -4   1  12 83.7702 8.13955   8
   1  -4 -12 74.5635 7.74122   1
  -1  -4  12 79.3933 7.98392   2
  -4   1  12 87.2754 7.76821   5
  -1  -4  12 101.001 8.56075   3
  -1   4 -12 77.8727 7.76247   6
  -4  -1 -12 95.0530 8.11389   7
   2  -4  12 47.2781 7.00619   3
  -4  -2  12 52.5979 7.11987   4
  -2  -4 -12 51.3195 6.88780   1
  -2  -4 -12 48.8145 6.15950   7
  -4   2 -12 56.0422 7.07480   6
  -4  -2  12 49.5399 6.70345   5
  -2  -4 -12 33.1719 5.54015   2
  -4  -2  12 53.7038 7.31569   8
   4  -2  12 52.6331 6.48651   3
   2  -4 -12 45.2258 6.38216   2
   2  -4 -12 41.3495 6.47322   1
  -4   2  12 43.9206 5.75414   8
  -4   2  12 61.4165 6.79498   5
  -2   4 -12 55.7992 7.01948   6
  -2  -4  12 46.4651 6.67588   2
  -4  -2 -12 52.9341 6.64062   7
  -4   2  12 44.0333 6.50325   4
  -3  -4 -12 46.1877 6.61443   7
  -4  -3  12 52.6103 7.05455   8
  -4  -3  12 49.1716 6.32777   5
  -4  -3  12 48.4487 6.62203   4
  -4   3 -12 53.0574 7.25928   6
  -3  -4  12 67.8753 7.49024   8
  -4  -3 -12 40.2233 6.02756   7
  -3   4 -12 47.6134 6.77751   6
   0   5 -12 35.7339 6.07901   6
  -5   0  12 31.2094 5.20484   5
  -5   0  12 44.2584 6.68356   8
  -5   0  12 41.8868 7.96264   4
  -5   0 -12 40.3469 6.21689   7
  -5   1 -12 103.162 9.63603   7
  -1  -5 -12 83.6197 7.85466   7
  -5  -1  12 86.4386 9.30629   8
  -5  -1  12 72.5803 7.93557   5
   1   5 -12 81.7928 9.52575   6
  -5   1  12 76.5992 7.53486   5
  -5  -1 -12 83.6186 8.55668   7
  -1   5 -12 81.6797 8.68853   6
  -5   1  12 83.1828 8.69994   8
  -2  -5 -12 31.2935 5.62093   7
  -5  -2  12 32.8074 5.81722   8
  -5  -2 -12 25.2999 5.21807   7
  -5   2  12 24.8895 5.25677   8
  -5  -3  12 46.3627 8.11948   8
   0   0  13 3.29617 2.58812   2
   0   0 -13 -1.1030 2.10029   2
   0   0  13 5.17661 2.98406   4
   0   0  13 3.58937 2.07263   3
   1   0 -13 5.45497 2.79086   2
  -1   0 -13 6.15456 2.89774   2
   0  -1  13 11.2774 3.51672   2
  -1   0  13 3.79111 2.91183   4
   1   0  13 10.0318 3.41557   2
   0  -1  13 5.77038 2.63434   3
  -1   0  13 6.43616 2.98576   2
   0  -1  13 4.71029 2.78744   4
   0   1 -13 12.6136 3.56489   2
   0  -1 -13 5.78661 2.92427   2
   0   1  13 13.0479 3.83469   4
  -1   1  13 783.198 23.7589   4
  -1   1  13 824.772 23.0945   8
   1   1 -13 817.472 24.4978   2
  -1  -1 -13 795.066 23.4555   2
   1  -1  13 876.446 23.4424   4
  -1  -1  13 826.864 23.6882   4
   1  -1  13 808.801 24.6441   2
  -1  -1  13 775.696 24.7205   2
   1  -1 -13 807.246 24.0627   2
   1  -1  13 815.999 23.2163   3
  -1   1  13 750.216 23.9049   2
   0  -2  13 1.71706 2.52344   4
  -2   0  13 5.48908 3.17834   8
   0  -2 -13 1.87592 2.89488   2
  -2   0 -13 3.19290 2.27188   7
   0  -2  13 3.15678 2.88326   3
  -2   0  13 -2.8047 2.16730   2
   0  -2  13 -1.9041 2.48967   2
  -2   0 -13 2.92689 2.37766   2
   2   0 -13 5.78849 2.79269   2
   2   0  13 5.11523 2.75089   2
  -2   0  13 6.34306 3.50165   4
  -1   2  13 8.13613 2.95063   8
  -2  -1  13 7.40384 3.26644   2
  -2  -1  13 13.2852 4.10973   4
   2  -1 -13 12.5265 3.52086   2
  -1  -2 -13 20.8705 4.12806   2
  -1   2  13 4.34480 3.23905   4
   1  -2  13 20.8871 4.56463   2
  -2  -1  13 7.22093 3.38959   8
   1  -2  13 13.6616 3.99314   3
  -2   1 -13 12.7141 3.11280   7
  -1  -2  13 7.30983 3.32033   4
  -2   1  13 7.15808 3.15377   2
   2  -1  13 10.3704 3.47554   3
  -2   1  13 13.8808 3.74483   8
  -1  -2  13 4.14251 3.20195   2
  -2  -1 -13 7.72958 2.58852   2
  -2  -1 -13 8.33283 2.79425   7
   1  -2 -13 3.77171 3.10767   2
   2  -1  13 6.92401 3.10749   2
   2   1 -13 10.6580 3.90710   2
  -2   1  13 13.9057 3.87627   4
   2  -2  13 0.42930 2.65255   2
  -2   2  13 2.69066 3.16693   4
  -2  -2 -13 2.63427 2.46151   2
  -2  -2 -13 3.44691 2.68216   7
   2  -2  13 5.12959 3.41884   3
  -2  -2  13 3.67333 3.17213   4
   2  -2 -13 4.02143 3.11457   2
  -2   2  13 -1.2408 2.38370   2
  -2   2  13 2.80068 2.78594   8
  -2  -2  13 -0.5794 2.53145   2
  -3   0  13 5.47361 3.74400   8
  -3   0  13 2.71112 3.45579   4
   0  -3 -13 5.39790 3.58732   2
   3   0 -13 3.11917 2.88934   2
  -3   0 -13 -0.3078 2.58376   7
   0  -3 -13 -0.7179 3.05865   1
   0  -3  13 0.82883 3.25871   3
   0   3  13 2.34664 3.48096   4
  -3   0  13 2.88401 2.85606   2
   0  -3  13 0.65656 3.20470   2
  -3   0  13 -3.4043 2.75984   5
  -3  -1  13 463.225 18.1158   5
   3  -1 -13 430.293 16.5504   2
   1  -3  13 496.919 17.6450   3
  -1  -3 -13 458.501 20.8387   7
  -3   1 -13 483.982 16.2041   7
  -3  -1  13 444.379 17.5274   8
  -1  -3 -13 444.531 17.3382   2
  -1   3  13 476.104 16.9833   4
   1  -3  13 450.158 17.9099   2
  -3  -1  13 463.265 17.6787   4
  -3   1  13 491.711 17.3638   8
   1  -3 -13 455.378 18.1425   2
  -3  -1 -13 474.922 16.0468   7
   3  -1  13 485.306 17.1065   3
  -1  -3  13 422.232 18.1128   2
   1  -3 -13 457.252 17.8780   1
  -3   1  13 495.740 18.4279   4
  -3   1  13 456.895 17.7583   5
  -3   1  13 419.402 15.6938   2
  -2  -3 -13 3.74746 2.90310   7
   3  -2 -13 1.91660 3.20009   2
  -3  -2  13 2.95148 3.32987   4
  -3  -2  13 2.19145 3.15937   5
  -3  -2  13 4.16269 3.07028   2
  -2  -3 -13 1.34108 2.85847   2
  -2   3  13 4.76669 3.43828   4
   2  -3  13 -5.7265 3.24371   3
  -3  -2  13 0.74468 3.07418   8
  -2  -3  13 3.98823 3.43471   2
   2  -3 -13 4.12028 3.64564   2
  -3  -2 -13 2.21065 2.98894   7
  -3   2  13 6.48035 2.80067   2
  -3   2  13 2.93206 2.87884   5
  -3   2  13 6.52350 3.64514   4
  -3   2  13 2.30836 2.78948   8
   3  -2  13 4.08785 3.52334   3
  -2  -3  13 -1.1424 2.81271   5
   2  -3 -13 0.51547 3.65231   1
  -3  -3  13 265.264 12.6406   4
  -3  -3 -13 302.850 12.8440   7
  -3  -3  13 290.876 13.4707   5
  -3   3  13 271.933 13.4500   4
  -3  -3  13 244.365 12.8634   2
   3  -3  13 260.730 13.4479   3
  -3  -3  13 280.213 13.2352   8
  -3   3 -13 287.146 18.7806   6
  -4   0  13 3.60603 3.19684   5
   0   4  13 1.81723 3.41422   4
   0  -4 -13 -1.2143 3.37212   2
  -4   0 -13 4.59140 3.54707   7
  -4   0  13 -1.3125 3.23191   4
  -4   0  13 2.85926 3.62650   8
   0  -4  13 -4.1133 3.32997   3
   0  -4  13 1.08022 3.32391   2
  -4  -1  13 7.46970 4.08689   4
   1  -4  13 6.63816 3.74006   2
  -4  -1  13 3.29429 3.78918   8
  -4   1 -13 11.0038 4.04727   7
   1  -4  13 5.49281 4.55313   3
  -1   4  13 10.8106 3.52130   4
  -4  -1  13 12.4932 4.38436   5
  -1  -4 -13 14.8154 4.45943   2
  -4   1  13 13.7615 4.50527   4
  -4   1  13 11.6439 3.75680   5
   4  -1  13 9.54971 3.94850   3
  -4  -1 -13 7.75164 3.71233   7
   1  -4 -13 4.29653 3.76901   2
  -4   1  13 -0.1412 3.15694   8
  -1  -4  13 4.15840 3.74706   2
  -4  -2  13 -1.8792 3.31994   4
  -4  -2  13 2.49379 3.54582   5
  -2  -4 -13 2.61931 3.37058   2
  -4  -2  13 -0.2747 3.34594   8
  -2  -4 -13 1.79776 3.24138   7
  -2   4 -13 1.26918 3.21433   6
  -4   2  13 1.17655 3.04366   4
  -4  -2 -13 2.19302 3.18412   7
   2  -4 -13 3.64830 3.62217   2
  -4   2  13 1.31569 3.30179   8
  -4  -3  13 6.07049 3.92017   8
  -3  -4 -13 4.83475 3.44834   7
  -4  -3 -13 2.34150 3.17309   7
  -3  -4  13 6.19216 3.82613   8
  -5   0  13 1.97073 3.73463   8
  -5   0 -13 2.57759 3.58395   7
  -5   1 -13 192.439 11.2127   7
  -5  -1  13 179.630 11.7587   8
  -5  -1 -13 204.255 11.1305   7
  -5   1  13 159.935 10.9021   8
  -5  -2  13 -2.8005 3.30524   8
  -5   2  13 -2.9869 2.81363   8
   0   0  14 23.8097 4.45828   4
   0   0  14 29.9406 3.79436   3
   0   0  14 20.2298 4.04844   2
   0   0 -14 17.7239 3.80852   2
   0   1 -14 244.923 11.3884   2
   0  -1  14 240.230 9.98635   3
  -1   0  14 265.983 11.4843   4
  -1   0 -14 257.807 11.0162   2
   0  -1  14 244.418 11.8279   2
   1   0 -14 228.579 10.9463   2
  -1   0  14 256.933 11.6352   2
   0   1  14 269.655 11.8340   4
   1   0  14 235.207 11.3928   2
   0  -1  14 253.700 10.8190   4
   0  -1 -14 249.218 11.3224   2
   0   1  14 245.922 11.6396   2
  -1   1  14 202.142 10.6100   2
   1  -1  14 243.632 11.5485   2
   1  -1 -14 230.943 11.1461   2
  -1  -1  14 221.291 10.4218   4
  -1  -1 -14 210.859 10.1786   2
  -1   1  14 219.073 10.6510   4
  -1   1  14 231.542 10.0190   8
   1  -1  14 236.581 10.2592   3
   1   1 -14 231.816 11.1954   2
   1  -1  14 243.695 10.4120   4
  -1  -1  14 239.116 11.6197   2
  -2   0 -14 22.4720 3.66989   2
  -2   0 -14 18.9955 3.42606   7
   0  -2 -14 13.0758 3.92395   2
   0  -2  14 17.8682 4.55300   2
  -2   0  14 18.3266 4.17965   2
   0  -2  14 20.3831 3.90708   3
   0  -2  14 20.7212 3.99120   4
  -2   0  14 21.3700 4.41587   8
   2   0  14 16.5373 3.82537   2
   2   0 -14 16.7434 4.17396   2
  -2   0  14 18.6423 4.49438   4
   0   2  14 17.9391 4.54352   4
  -2  -1  14 196.775 10.6326   2
   1  -2  14 195.874 11.0872   2
   2  -1 -14 192.785 10.3810   2
  -2  -1  14 206.527 10.6873   4
  -1  -2 -14 190.957 10.0258   2
  -2  -1  14 194.384 10.3167   8
   1  -2  14 204.556 10.2297   3
  -2   1 -14 189.549 11.3562   7
  -1   2  14 190.926 10.1746   4
  -1  -2  14 210.554 11.6433   2
  -2   1  14 179.138 9.72153   2
  -2   1  14 212.050 10.7900   4
  -1  -2  14 211.232 10.0085   4
  -2   1  14 196.807 9.96081   8
   2   1 -14 185.772 10.5199   2
   2  -1  14 201.799 10.1467   3
   2  -1  14 198.947 10.4573   2
  -2  -1 -14 196.111 9.12949   2
   1  -2 -14 191.223 10.6167   2
  -2  -1 -14 200.661 8.93312   7
  -2  -2 -14 17.7764 3.68979   7
  -2   2  14 15.5455 3.68371   2
  -2   2  14 10.3643 3.44356   8
  -2  -2  14 16.7692 4.28257   4
   2  -2  14 16.7720 4.34878   3
   2  -2  14 10.1200 4.52185   2
   2  -2 -14 16.6635 4.17889   2
  -2  -2  14 18.8728 4.60551   2
  -2   2  14 14.6908 4.16715   4
  -2  -2 -14 11.3373 3.41800   2
   3   0 -14 140.967 9.02029   2
   0  -3  14 151.796 9.23128   3
   0   3  14 144.699 9.67059   4
   0  -3 -14 140.269 9.78276   2
  -3   0  14 152.063 9.79733   8
  -3   0 -14 147.264 8.41520   7
  -3   0  14 161.466 10.4025   4
   0  -3  14 158.788 10.6547   2
  -3   0  14 146.381 10.0240   5
  -3   0  14 155.161 9.11398   2
  -3   1 -14 134.290 8.23346   7
  -3  -1  14 133.328 9.73834   4
  -3  -1  14 129.725 9.31315   8
   1  -3  14 146.693 9.86318   2
   1  -3  14 144.855 9.37285   3
  -3  -1  14 138.668 9.78995   5
  -1   3  14 122.772 8.58462   4
   3  -1 -14 140.741 8.92904   2
  -1  -3 -14 118.718 8.68194   2
  -3  -1 -14 135.052 8.17778   7
  -3   1  14 147.760 9.89962   4
   3  -1  14 143.892 9.12927   3
  -3   1  14 156.247 10.2041   5
   1  -3 -14 130.368 9.64358   2
   3   1 -14 122.749 8.94572   2
  -3   1  14 131.524 8.23737   2
   1  -3 -14 151.986 10.2073   1
  -3   1  14 139.008 9.10403   8
  -1  -3  14 135.259 10.2565   2
  -2  -3 -14 108.247 7.77124   2
   2  -3  14 113.326 9.94383   3
  -2   3  14 128.303 8.66547   4
  -2   3  14 120.268 8.32607   2
  -2  -3 -14 122.196 7.94504   7
  -3  -2  14 130.546 10.9439   5
  -3  -2  14 123.537 10.5199   8
  -3  -2  14 120.351 8.93676   4
   3  -2 -14 120.710 8.81860   2
  -2  -3  14 132.578 9.09939   5
  -3   2  14 122.120 8.75873   5
  -3   2  14 126.007 8.46317   8
   2  -3 -14 126.218 9.38680   2
  -3  -2 -14 123.423 8.26925   7
   3  -2  14 125.418 9.04244   3
  -3   2  14 120.668 10.6269   4
  -3  -3  14 86.2522 9.66625   4
  -3   3  14 83.4718 8.57078   4
  -3  -3 -14 92.2330 8.07763   7
  -3  -3  14 68.0364 7.35959   5
  -3  -3  14 87.5521 8.57675   8
  -4   0  14 5.55613 3.61997   5
  -4   0 -14 12.9645 4.28198   7
   0   4  14 9.24788 4.02877   4
  -4   0  14 6.09477 4.26594   8
  -4   0  14 16.2218 4.99203   4
   0  -4  14 7.15711 4.19338   3
   0  -4  14 8.92269 4.37647   2
  -4  -1  14 86.9329 8.75876   4
   1  -4  14 79.0339 8.45385   2
  -1   4  14 75.6456 7.67724   4
  -4  -1  14 84.6214 9.06766   5
  -4  -1  14 94.7058 10.0378   8
  -4   1 -14 92.2329 8.22603   7
  -4   1  14 91.7372 9.01247   8
  -4   1  14 100.578 9.60126   5
  -4  -1 -14 89.5881 8.13757   7
  -4   1  14 83.8090 8.88002   4
  -2  -4 -14 9.94065 4.13915   7
  -4  -2  14 7.61449 4.23633   8
  -4  -2  14 -1.3486 4.12745   5
  -2  -4  14 7.84424 3.78924   8
  -4   2  14 6.91983 3.71124   8
  -4  -2 -14 7.27457 3.43314   7
  -4  -3  14 70.8344 8.08206   8
  -3  -4  14 47.6149 6.33150   8
  -5   0  14 51.9467 7.60718   8
  -5   1  14 48.4669 11.2409   8
   0   0  15 169.808 9.79149   2
   0   0  15 174.483 9.45328   4
   0   0 -15 174.299 9.48404   2
   0   1 -15 69.2035 6.83181   2
  -1   0  15 77.6830 7.53832   2
   0  -1  15 67.6007 7.01846   2
   0   1  15 81.2159 7.59625   4
   0  -1  15 88.3877 7.23941   4
   1   0  15 86.9781 7.78068   4
   1   0  15 65.3160 6.83252   2
   0  -1 -15 77.3826 7.34852   2
   1   0 -15 83.5273 6.86344   2
  -1   0 -15 77.0934 6.43369   2
   1   0  15 89.0715 6.30356   3
  -1   0  15 79.1360 7.19496   4
   0   1  15 80.7517 7.92462   2
  -1  -1  15 -0.6019 2.50534   2
   1  -1 -15 -1.1428 2.70207   2
  -1   1  15 -0.6429 2.62775   4
  -1  -1  15 -0.6088 2.51997   4
  -1  -1 -15 4.00419 2.67783   2
  -1   1  15 -2.3258 2.19072   2
  -1   1  15 1.82979 2.50566   8
   1   1 -15 -2.8413 2.75373   2
   1  -1  15 -3.9107 2.31309   2
   1  -1  15 2.47629 2.85420   4
   1  -1  15 -0.4725 2.49815   3
   0  -2  15 148.579 9.74758   2
   0   2  15 136.469 9.27990   4
  -2   0  15 131.310 8.64330   2
   2   0 -15 138.214 8.77764   2
  -2   0  15 158.728 9.55969   4
   0  -2 -15 110.733 8.31330   2
  -2   0  15 132.019 8.52392   8
   0  -2  15 143.440 9.38500   3
   0  -2  15 136.247 9.61676   4
   2   0  15 129.590 8.71000   2
   1  -2  15 45.6394 5.83027   3
   1  -2  15 51.3928 6.75714   2
  -1  -2 -15 59.4198 6.42732   2
   2  -1 -15 69.3048 7.18919   2
  -2  -1  15 53.8979 6.44813   2
  -1   2  15 75.4527 7.63316   4
  -2  -1  15 63.8037 6.70851   4
  -2  -1  15 61.1029 6.71971   8
  -1   2  15 61.4793 6.75839   2
  -2   1  15 64.5593 7.14803   4
   2  -1  15 59.2167 6.37725   3
  -1  -2  15 47.9302 6.31781   2
   2  -1  15 65.7728 6.97140   4
  -2   1  15 44.9282 5.64684   2
   2  -1  15 54.6273 6.30584   2
  -2  -1 -15 66.7343 5.98329   2
   1  -2 -15 66.5657 7.11210   2
  -2   1  15 56.0374 6.23443   8
  -1  -2  15 77.5198 6.94406   4
  -2  -2  15 102.714 8.85292   5
  -2  -2 -15 103.170 7.03623   2
  -2   2  15 95.8829 7.58809   2
   2  -2  15 117.732 8.49218   3
  -2  -2  15 117.135 8.41281   4
  -2   2  15 112.215 8.25011   4
  -2  -2  15 93.5963 8.26969   8
   2  -2 -15 100.705 8.12199   2
  -2  -2  15 81.9934 8.22740   2
  -3   0  15 62.7240 7.24490   8
   0   3  15 48.7598 6.65734   4
  -3   0  15 50.1424 6.97707   5
  -3   0  15 46.9323 5.70928   2
  -3   0  15 66.0480 7.61843   4
   0  -3 -15 49.8248 6.68932   2
   0  -3  15 57.1873 7.55380   2
   3   0 -15 48.1951 6.36018   2
   0  -3  15 50.6107 6.23543   3
  -3   0 -15 50.0523 5.81455   7
  -3  -1  15 1.88841 3.09101   8
  -1  -3 -15 -1.4247 2.75174   2
   1  -3  15 -3.5881 2.99648   3
  -3  -1  15 0.81148 3.01450   5
  -1   3  15 3.51466 3.26273   4
  -3   1 -15 1.54935 2.78174   7
   3  -1 -15 1.25271 2.88971   2
  -3  -1  15 -0.9746 3.47490   4
  -3  -1  15 0.72736 2.85123   2
   1  -3  15 4.26593 3.61250   2
   3   1 -15 -1.7627 2.91425   2
  -3   1  15 -0.9338 2.78583   5
  -3   1  15 2.58044 3.54183   4
  -3   1  15 6.44735 3.60314   8
   1  -3 -15 -0.2120 3.32682   2
  -3   1  15 2.82420 2.65374   2
  -1  -3  15 -2.7988 3.07386   2
   3  -1  15 4.49719 3.31414   3
  -3  -1 -15 -3.7994 2.58720   7
  -3  -2  15 42.1879 6.19472   8
   3  -2 -15 47.7976 6.58054   2
  -2   3  15 34.2011 5.48779   4
  -3  -2  15 38.9814 6.00594   4
  -3  -2  15 31.8714 5.50451   5
  -3  -2 -15 48.9809 5.96836   7
  -3   2  15 41.6988 6.33685   5
  -2  -3  15 42.9664 6.01876   8
  -2  -3  15 43.2142 6.21578   5
  -3   2  15 40.5259 6.20770   4
  -3   2  15 30.5902 5.29294   8
  -3  -3 -15 3.26365 3.07908   7
  -3  -3  15 1.66749 3.35438   8
  -4   0 -15 74.0023 7.37599   7
  -4   0  15 80.2962 9.06157   8
  -4   1 -15 27.0842 4.99326   7
  -4  -1  15 16.0399 5.17071   8
  -4  -1 -15 24.4163 4.73031   7
  -4   1  15 25.6049 5.38751   8
  -4  -2  15 48.5503 7.21486   8
  -2  -4  15 44.2761 6.08338   8
  -4  -2 -15 53.7225 6.78652   7
  -4   2  15 52.6660 6.67529   8
   0   0 -16 518.392 18.3977   2
   0   0  16 549.569 19.4848   2
   0   0  16 547.757 18.4954   4
   1   0  16 28.4475 5.12834   4
  -1   0 -16 41.0800 5.36871   2
   0   1 -16 34.3458 5.03412   2
   0   1  16 36.4996 5.70808   2
  -1   0  16 33.4176 5.19419   2
   0  -1  16 45.6490 5.65130   4
   1   0  16 33.2346 5.42188   2
   1   0 -16 41.4385 5.68490   2
   0   1  16 28.2574 5.29040   4
   0  -1  16 32.1657 5.11774   2
   0  -1 -16 42.2560 5.53401   2
   1   0  16 35.2576 4.60436   3
  -1   0  16 36.1960 5.48869   4
  -1  -1  16 67.4122 7.05716   4
  -1   1  16 48.4542 5.96531   2
  -1   1  16 40.1523 5.62286   4
   1  -1  16 57.2596 6.21701   4
   1  -1 -16 37.0440 5.32038   2
  -1  -1  16 43.5571 5.81568   2
   1   1 -16 45.6793 5.98328   2
   1  -1  16 45.9804 5.19839   3
   1   1  16 45.7289 6.63232   4
  -1   1  16 37.4535 4.79123   8
   1   1  16 51.5157 6.67773   2
   1  -1  16 48.1892 6.08932   2
  -1  -1 -16 47.6953 5.69521   2
  -2   0  16 435.090 16.3170   4
   0  -2 -16 393.070 15.9819   2
   2   0  16 447.031 15.7371   3
   0  -2  16 418.283 17.1748   2
  -2   0  16 371.798 15.5134   2
   2   0  16 417.104 16.3242   2
  -2   0  16 402.100 15.3069   8
   0   2  16 414.176 16.3874   4
   2   0 -16 391.680 15.8921   2
  -2  -1  16 36.1568 5.54862   4
  -2  -1  16 28.0655 4.82623   2
  -2  -1  16 36.0133 5.29494   8
   1  -2  16 26.9619 5.30441   2
  -1  -2 -16 30.5199 5.04082   2
  -1   2  16 32.2386 5.32656   2
   2   1  16 19.5494 4.61133   2
   1  -2  16 32.9065 4.99333   3
   2  -1 -16 28.4062 5.06722   2
  -1   2  16 28.9948 4.99914   4
  -1  -2  16 31.7323 5.36536   2
  -2   1  16 25.2653 4.58093   2
  -2  -1 -16 32.7333 4.57290   2
  -2   1  16 34.6518 5.60301   4
   2  -1  16 22.1591 4.86726   2
  -1  -2  16 29.8975 4.86088   4
   2  -1  16 25.1901 4.86959   3
   1  -2 -16 33.8601 5.59239   2
   2   1 -16 25.9246 5.23931   2
  -2   1  16 24.5269 4.55116   8
  -2  -2  16 330.019 13.9058   8
  -2  -2 -16 335.366 12.9642   2
  -2   2  16 327.779 14.2188   4
  -2  -2  16 345.055 14.2645   4
  -2  -2  16 323.613 14.3659   5
   2  -2 -16 338.524 19.7503   2
  -3   0  16 27.8453 5.41570   5
  -3   0  16 21.1854 7.65703   4
   0   3  16 22.9502 5.29189   4
  -3   0  16 28.5770 5.11866   8
  -3  -1  16 26.3170 5.08328   8
  -3  -1  16 20.1403 4.70408   5
  -3   1  16 35.3782 6.08055   5
  -3   1  16 32.1840 5.37186   8
  -3  -2  16 13.8824 4.67291   8
  -2  -3  16 17.8941 4.42516   8
  -4   0 -16 183.658 11.2604   7
  -4   0  16 194.581 11.4385   8
  -4  -1  16 11.2747 4.97526   8
  -4   1  16 0.95312 3.56603   8
   0   0  17 37.9902 5.59642   2
   0   0 -17 39.8611 5.59338   2
   0   0  17 39.6344 5.59633   4
   0  -1 -17 59.6360 6.79522   2
   0   1  17 54.5164 6.89297   4
   0  -1  17 62.8813 6.61305   4
   1   0  17 51.0419 6.53579   2
   1   0  17 59.6798 6.85371   4
  -1   0 -17 54.5654 6.03049   2
   1   0 -17 64.8079 7.29162   2
  -1   0  17 47.5048 6.24475   2
  -1   0  17 61.8170 6.79556   4
  -1   0  17 48.4481 5.68506   8
   0   1  17 43.0176 6.24435   2
   0  -1  17 57.4171 6.73485   2
   1  -1  17 21.2480 4.73957   2
   1   1  17 23.7994 5.58408   4
  -1  -1 -17 30.1369 4.78141   2
  -1   1  17 22.2407 4.75325   4
  -1   1  17 28.0647 4.20836   8
   1   1  17 18.5393 4.76419   2
  -1  -1  17 20.6345 4.49027   2
   1  -1  17 18.8847 4.26237   4
   1  -1  17 20.1924 4.21523   3
  -1  -1  17 31.6280 5.02379   4
  -1   1  17 26.0884 5.35628   2
   1  -1 -17 31.1682 5.30802   2
   0   2  17 31.8605 6.82897   4
  -2   0  17 33.1678 5.01330   8
  -2   0  17 24.6326 5.15931   4
   2   0  17 33.6805 5.97169   4
   2   0  17 24.2978 5.07527   2
  -2  -1  17 51.8202 6.17806   8
  -2  -1  17 33.3870 6.59022   4
  -2   1  17 43.9501 5.52114   8
  -2  -2  17 24.7444 4.87924   8
  -3   0  17 32.4956 5.25522   8
  -3  -1  17 19.6534 4.71818   8
  -3   1  17 27.8650 4.94002   8
   0   0  18 -0.6759 3.84651   4
   0  -1  18 87.6389 9.46549   4
  -1   0  18 93.8818 7.64660   8
  -1   1  18 119.576 8.21023   8
  -2   0  18 4.26384 2.68690   8
  -2  -1  18 79.2250 7.71510   8
  -2   1  18 67.5872 6.37423   8
  -1   0  19 16.5547 4.00828   8
  -1  -1  19 100.589 9.87217   8
   0   0   0    0.00    0.00   0

 _exptl_absorpt_process_details
)
 SADABS 2016/2: Krause, L., Herbst-Irmer, R., Sheldrick G.M. & Stalke D.,
 J. Appl. Cryst. 48 (2015) 3-10
)
 _exptl_absorpt_correction_type   multi-scan
 _exptl_absorpt_correction_T_max  0.7483
 _exptl_absorpt_correction_T_min  0.3901
 _exptl_special_details
)
 The following wavelength and cell were deduced by SADABS from the
 direction cosines etc. They are given here for emergency use only:
 CELL 0.71073    3.898    3.896   10.298   89.939   89.990   89.975
)
;
_shelx_hkl_checksum              58321
_olex2_submission_special_instructions 'No special instructions were received'
loop_
_space_group_symop_operation_xyz
'x, y, z'
'-x, -y, z'
'-y, x, z'
'y, -x, z'
'-x, y, -z'
'x, -y, -z'
'y, x, -z'
'-y, -x, -z'
'-x, -y, -z'
'x, y, -z'
'y, -x, -z'
'-y, x, -z'
'x, -y, z'
'-x, y, z'
'-y, -x, z'
'y, x, z'
loop_
_atom_site_label
_atom_site_type_symbol
_atom_site_fract_x
_atom_site_fract_y
_atom_site_fract_z
_atom_site_U_iso_or_equiv
_atom_site_adp_type
_atom_site_occupancy
_atom_site_site_symmetry_order
_atom_site_calc_flag
_atom_site_refinement_flags_posn
_atom_site_refinement_flags_adp
_atom_site_refinement_flags_occupancy
_atom_site_disorder_assembly
_atom_site_disorder_group
Te1 Te 0.0000 0.0000 0.0000 0.01401(7) Uani 1 16 d S T P . .
Cu2 Cu 0.0000 0.5000 0.80891(3) 0.02001(8) Uani 1 4 d S T P . .
K1 K 0.0000 0.0000 0.5000 0.02007(19) Uani 1 16 d S T P . .
S1 S 0.5000 0.5000 0.68750(7) 0.01214(12) Uani 1 8 d S T P . .
Cu1 Cu 0.5000 0.5000 0.0000 0.0220(9) Uani 0.223(4) 16 d S T P . .
loop_
_atom_site_aniso_label
_atom_site_aniso_U_11
_atom_site_aniso_U_22
_atom_site_aniso_U_33
_atom_site_aniso_U_23
_atom_site_aniso_U_13
_atom_site_aniso_U_12
Te1 0.01647(9) 0.01647(9) 0.00911(10) 0.000 0.000 0.000
Cu2 0.01236(13) 0.02285(16) 0.02482(16) 0.000 0.000 0.000
K1 0.0205(3) 0.0205(3) 0.0192(4) 0.000 0.000 0.000
S1 0.01196(18) 0.01196(18) 0.0125(3) 0.000 0.000 0.000
Cu1 0.0230(11) 0.0230(11) 0.0199(13) 0.000 0.000 0.000
loop_
_atom_type_symbol
_atom_type_description
_atom_type_scat_dispersion_real
_atom_type_scat_dispersion_imag
_atom_type_scat_source
Cu Cu 0.3201 1.2651 'International Tables Vol C Tables 4.2.6.8 and 6.1.1.4'
K K 0.2009 0.2494 'International Tables Vol C Tables 4.2.6.8 and 6.1.1.4'
S S 0.1246 0.1234 'International Tables Vol C Tables 4.2.6.8 and 6.1.1.4'
Te Te -0.5308 1.6751 'International Tables Vol C Tables 4.2.6.8 and 6.1.1.4'
loop_
_geom_angle_atom_site_label_1
_geom_angle_atom_site_label_2
_geom_angle_atom_site_label_3
_geom_angle
_geom_angle_site_symmetry_1
_geom_angle_site_symmetry_3
_geom_angle_publ_flag
Cu2 Te1 Cu2 180.000(10) 1_544 9_566 ?
Cu2 Te1 Cu2 89.48(6) 3_554 3_654 ?
Cu2 Te1 Cu2 180.000(10) 1_554 9_556 ?
Cu2 Te1 Cu2 120.30(4) 9_566 3_654 ?
Cu2 Te1 Cu2 90.52(6) 1_544 9_556 ?
Cu2 Te1 Cu2 59.70(4) 11_556 9_556 ?
Cu2 Te1 Cu2 59.70(4) 1_544 3_654 ?
Cu2 Te1 Cu2 59.70(4) 1_544 3_554 ?
Cu2 Te1 Cu2 59.70(4) 1_554 3_654 ?
Cu2 Te1 Cu2 180.0 11_456 3_654 ?
Cu2 Te1 Cu2 120.30(4) 3_554 9_556 ?
Cu2 Te1 Cu2 120.30(4) 9_566 3_554 ?
Cu2 Te1 Cu2 89.48(6) 11_556 11_456 ?
Cu2 Te1 Cu2 120.30(4) 1_554 11_456 ?
Cu2 Te1 Cu2 90.52(6) 9_566 1_554 ?
Cu2 Te1 Cu2 120.30(4) 1_544 11_556 ?
Cu2 Te1 Cu2 59.70(4) 3_554 1_554 ?
Cu2 Te1 Cu2 90.52(6) 11_556 3_654 ?
Cu2 Te1 Cu2 120.30(4) 3_654 9_556 ?
Cu2 Te1 Cu2 59.70(4) 9_566 11_556 ?
Cu2 Te1 Cu2 120.30(4) 1_544 11_456 ?
Cu2 Te1 Cu2 89.48(6) 9_566 9_556 ?
Cu2 Te1 Cu2 59.70(4) 9_566 11_456 ?
Cu2 Te1 Cu2 180.000(10) 3_554 11_556 ?
Cu2 Te1 Cu2 90.52(6) 3_554 11_456 ?
Cu2 Te1 Cu2 59.70(4) 11_456 9_556 ?
Cu2 Te1 Cu2 89.48(6) 1_544 1_554 ?
Cu2 Te1 Cu2 120.30(4) 11_556 1_554 ?
Cu1 Te1 Cu2 119.850(18) 1_445 11_556 ?
Cu1 Te1 Cu2 119.850(18) . 1_544 ?
Cu1 Te1 Cu2 119.850(17) 1_455 3_654 ?
Cu1 Te1 Cu2 119.850(17) 1_545 11_456 ?
Cu1 Te1 Cu2 119.850(17) 1_445 3_654 ?
Cu1 Te1 Cu2 60.150(18) . 9_566 ?
Cu1 Te1 Cu2 119.850(17) 1_545 3_554 ?
Cu1 Te1 Cu2 60.150(18) 1_445 3_554 ?
Cu1 Te1 Cu2 119.850(18) 1_455 1_544 ?
Cu1 Te1 Cu2 60.150(17) 1_445 9_556 ?
Cu1 Te1 Cu2 60.150(17) . 3_654 ?
Cu1 Te1 Cu2 60.150(17) 1_445 11_456 ?
Cu1 Te1 Cu2 60.150(18) 1_545 3_654 ?
Cu1 Te1 Cu2 119.850(17) 1_545 1_554 ?
Cu1 Te1 Cu2 60.150(17) 1_545 11_556 ?
Cu1 Te1 Cu2 119.850(17) . 11_456 ?
Cu1 Te1 Cu2 119.850(18) 1_445 9_566 ?
Cu1 Te1 Cu2 60.150(17) 1_545 1_544 ?
Cu1 Te1 Cu2 119.850(17) . 9_556 ?
Cu1 Te1 Cu2 60.150(18) 1_455 11_456 ?
Cu1 Te1 Cu2 60.150(18) 1_545 9_556 ?
Cu1 Te1 Cu2 119.850(17) 1_455 9_556 ?
Cu1 Te1 Cu2 119.850(17) 1_445 1_554 ?
Cu1 Te1 Cu2 119.850(18) . 3_554 ?
Cu1 Te1 Cu2 60.150(18) 1_455 1_554 ?
Cu1 Te1 Cu2 60.150(17) . 1_554 ?
Cu1 Te1 Cu2 60.150(17) 1_455 9_566 ?
Cu1 Te1 Cu2 60.150(17) 1_455 3_554 ?
Cu1 Te1 Cu2 60.150(18) . 11_556 ?
Cu1 Te1 Cu2 60.150(18) 1_445 1_544 ?
Cu1 Te1 Cu2 119.850(17) 1_455 11_556 ?
Cu1 Te1 Cu2 119.850(18) 1_545 9_566 ?
Cu1 Te1 Cu1 90.0 1_445 1_545 ?
Cu1 Te1 Cu1 180.0 1_455 1_545 ?
Cu1 Te1 Cu1 90.0 . 1_545 ?
Cu1 Te1 Cu1 90.0 1_445 1_455 ?
Cu1 Te1 Cu1 180.0 1_445 . ?
Cu1 Te1 Cu1 90.0 . 1_455 ?
Te1 Cu2 Te1 89.48(6) 1_566 1_556 ?
Te1 Cu2 K1 166.769(8) 1_556 1_565 ?
Te1 Cu2 K1 103.75(6) 1_556 . ?
Te1 Cu2 K1 103.75(6) 1_566 1_565 ?
Te1 Cu2 K1 166.769(8) 1_566 . ?
Te1 Cu2 Cu1 59.70(3) 1_556 1_456 ?
Te1 Cu2 Cu1 59.70(4) 1_566 1_456 ?
Cu2 Cu2 Te1 60.150(18) 3 1_556 ?
Cu2 Cu2 Te1 119.851(18) 3_665 1_556 ?
Cu2 Cu2 Te1 119.851(18) 3_565 1_556 ?
Cu2 Cu2 Te1 60.150(18) 3_565 1_566 ?
Cu2 Cu2 Te1 60.150(18) 3_655 1_556 ?
Cu2 Cu2 Te1 60.150(18) 3_665 1_566 ?
Cu2 Cu2 Te1 119.851(18) 3 1_566 ?
Cu2 Cu2 Te1 119.851(18) 3_655 1_566 ?
Cu2 Cu2 Cu2 180.0 3_665 3 ?
Cu2 Cu2 Cu2 180.0 3_565 3_655 ?
Cu2 Cu2 Cu2 90.0 3 3_565 ?
Cu2 Cu2 Cu2 90.0 3 3_655 ?
Cu2 Cu2 Cu2 90.0 3_665 3_655 ?
Cu2 Cu2 Cu2 90.0 3_665 3_565 ?
Cu2 Cu2 K1 111.688(18) 3_665 . ?
Cu2 Cu2 K1 68.310(17) 3_565 1_565 ?
Cu2 Cu2 K1 68.310(17) 3_665 1_565 ?
Cu2 Cu2 K1 111.688(17) 3 1_565 ?
Cu2 Cu2 K1 68.310(17) 3_655 . ?
Cu2 Cu2 K1 111.688(17) 3_655 1_565 ?
Cu2 Cu2 K1 111.688(17) 3_565 . ?
Cu2 Cu2 K1 68.310(17) 3 . ?
Cu2 Cu2 Cu1 119.851(18) 3_665 1_456 ?
Cu2 Cu2 Cu1 119.851(18) 3 1_556 ?
Cu2 Cu2 Cu1 60.150(18) 3_655 1_556 ?
Cu2 Cu2 Cu1 60.150(18) 3_665 1_556 ?
Cu2 Cu2 Cu1 119.851(18) 3_655 1_456 ?
Cu2 Cu2 Cu1 119.851(18) 3_565 1_556 ?
Cu2 Cu2 Cu1 60.150(18) 3 1_456 ?
Cu2 Cu2 Cu1 60.150(18) 3_565 1_456 ?
K1 Cu2 K1 63.02(5) . 1_565 ?
S1 Cu2 Te1 112.54(3) 1_455 1_556 ?
S1 Cu2 Te1 112.54(3) 1_455 1_566 ?
S1 Cu2 Te1 112.54(3) . 1_556 ?
S1 Cu2 Te1 112.54(3) . 1_566 ?
S1 Cu2 Cu2 126.532(15) 1_455 3_665 ?
S1 Cu2 Cu2 126.532(15) . 3 ?
S1 Cu2 Cu2 53.467(15) 1_455 3 ?
S1 Cu2 Cu2 53.467(15) 1_455 3_565 ?
S1 Cu2 Cu2 53.467(15) . 3_655 ?
S1 Cu2 Cu2 126.532(15) 1_455 3_655 ?
S1 Cu2 Cu2 53.467(16) . 3_665 ?
S1 Cu2 Cu2 126.532(15) . 3_565 ?
S1 Cu2 K1 62.60(3) 1_455 . ?
S1 Cu2 K1 62.60(3) . . ?
S1 Cu2 K1 62.60(3) . 1_565 ?
S1 Cu2 K1 62.60(3) 1_455 1_565 ?
S1 Cu2 S1 114.67(6) 1_455 . ?
S1 Cu2 Cu1 167.41(2) 1_455 1_556 ?
S1 Cu2 Cu1 77.92(6) . 1_556 ?
S1 Cu2 Cu1 167.41(2) . 1_456 ?
S1 Cu2 Cu1 77.92(6) 1_455 1_456 ?
Cu1 Cu2 Te1 59.70(4) 1_556 1_566 ?
Cu1 Cu2 Te1 59.70(4) 1_556 1_556 ?
Cu1 Cu2 K1 127.27(4) 1_456 . ?
Cu1 Cu2 K1 127.27(3) 1_456 1_565 ?
Cu1 Cu2 K1 127.27(3) 1_556 . ?
Cu1 Cu2 K1 127.27(4) 1_556 1_565 ?
Cu1 Cu2 Cu1 89.48(6) 1_556 1_456 ?
Cu2 K1 Cu2 180.0 3_655 11_456 ?
Cu2 K1 Cu2 43.38(3) 9_556 11_456 ?
Cu2 K1 Cu2 43.38(3) 3_655 1_545 ?
Cu2 K1 Cu2 116.98(5) 9_556 1_545 ?
Cu2 K1 Cu2 136.62(3) 11_456 1_545 ?
Cu2 K1 Cu2 136.62(3) 9_556 3_655 ?
S1 K1 Cu2 79.27(5) . 1_545 ?
S1 K1 Cu2 100.73(5) 1_455 11_456 ?
S1 K1 Cu2 79.27(5) 9_566 9_556 ?
S1 K1 Cu2 79.27(5) 1_455 1_545 ?
S1 K1 Cu2 100.73(5) 1_445 11_456 ?
S1 K1 Cu2 37.655(16) 9_566 11_456 ?
S1 K1 Cu2 37.655(16) 9_556 9_556 ?
S1 K1 Cu2 142.345(16) 9_566 1_545 ?
S1 K1 Cu2 142.345(16) 1_455 9_556 ?
S1 K1 Cu2 37.655(16) 1_445 1_545 ?
S1 K1 Cu2 79.27(5) 9_656 11_456 ?
S1 K1 Cu2 142.345(16) 9_566 3_655 ?
S1 K1 Cu2 142.345(16) 9_666 1_545 ?
S1 K1 Cu2 100.73(5) 9_656 3_655 ?
S1 K1 Cu2 100.73(5) 1_545 9_556 ?
S1 K1 Cu2 79.27(5) 1_455 3_655 ?
S1 K1 Cu2 79.27(5) 9_666 9_556 ?
S1 K1 Cu2 37.655(16) 1_545 3_655 ?
S1 K1 Cu2 100.73(5) 1_445 9_556 ?
S1 K1 Cu2 79.27(5) 1_445 3_655 ?
S1 K1 Cu2 37.655(16) 1_545 1_545 ?
S1 K1 Cu2 142.345(16) . 9_556 ?
S1 K1 Cu2 142.345(16) 1_545 11_456 ?
S1 K1 Cu2 37.655(16) 9_556 11_456 ?
S1 K1 Cu2 37.655(16) . 3_655 ?
S1 K1 Cu2 142.345(16) . 11_456 ?
S1 K1 Cu2 100.73(5) 9_556 1_545 ?
S1 K1 Cu2 79.27(5) 9_666 11_456 ?
S1 K1 Cu2 100.73(5) 9_666 3_655 ?
S1 K1 Cu2 37.655(16) 9_656 9_556 ?
S1 K1 Cu2 100.73(5) 9_656 1_545 ?
S1 K1 Cu2 142.345(16) 9_556 3_655 ?
S1 K1 S1 109.20(3) 9_666 1_455 ?
S1 K1 S1 69.99(6) 9_556 1_445 ?
S1 K1 S1 109.20(3) 9_656 1_445 ?
S1 K1 S1 69.99(6) . 9_666 ?
S1 K1 S1 180.0 9_666 1_445 ?
S1 K1 S1 109.20(3) 9_556 1_455 ?
S1 K1 S1 110.01(6) 9_556 9_666 ?
S1 K1 S1 180.0 9_656 1_455 ?
S1 K1 S1 110.01(6) . 1_445 ?
S1 K1 S1 180.00(2) 9_556 . ?
S1 K1 S1 109.20(3) 9_566 1_445 ?
S1 K1 S1 109.20(3) 9_556 1_545 ?
S1 K1 S1 69.99(6) 9_566 1_455 ?
S1 K1 S1 70.80(3) 1_545 1_445 ?
S1 K1 S1 110.01(6) 1_455 1_545 ?
S1 K1 S1 70.80(3) . 1_545 ?
S1 K1 S1 70.80(3) 9_666 9_566 ?
S1 K1 S1 109.20(3) . 9_566 ?
S1 K1 S1 109.20(3) . 9_656 ?
S1 K1 S1 109.20(3) 9_666 1_545 ?
S1 K1 S1 110.01(6) 9_566 9_656 ?
S1 K1 S1 70.80(3) 9_666 9_656 ?
S1 K1 S1 70.80(3) . 1_455 ?
S1 K1 S1 180.0 9_566 1_545 ?
S1 K1 S1 70.80(3) 9_556 9_656 ?
S1 K1 S1 70.80(3) 1_455 1_445 ?
S1 K1 S1 69.99(6) 9_656 1_545 ?
S1 K1 S1 70.80(3) 9_556 9_566 ?
Cu2 S1 Cu2 73.06(3) 3_665 1_655 ?
Cu2 S1 Cu2 73.06(3) 3_655 . ?
Cu2 S1 Cu2 73.06(3) 1_655 3_655 ?
Cu2 S1 Cu2 114.67(6) 1_655 . ?
Cu2 S1 Cu2 114.67(6) 3_665 3_655 ?
Cu2 S1 Cu2 73.06(3) 3_665 . ?
Cu2 S1 K1 142.862(13) 3_655 1_665 ?
Cu2 S1 K1 79.74(4) 3_655 1_655 ?
Cu2 S1 K1 142.862(13) 3_655 1_565 ?
Cu2 S1 K1 79.74(4) . 1_565 ?
Cu2 S1 K1 79.74(4) 3_665 1_565 ?
Cu2 S1 K1 142.862(13) 1_655 1_565 ?
Cu2 S1 K1 79.74(4) 1_655 1_655 ?
Cu2 S1 K1 142.862(13) 3_665 1_655 ?
Cu2 S1 K1 142.862(12) 1_655 . ?
Cu2 S1 K1 79.74(4) 1_655 1_665 ?
Cu2 S1 K1 79.74(4) 3_655 . ?
Cu2 S1 K1 142.862(13) . 1_655 ?
Cu2 S1 K1 79.74(4) 3_665 1_665 ?
Cu2 S1 K1 142.862(13) . 1_665 ?
Cu2 S1 K1 142.862(12) 3_665 . ?
Cu2 S1 K1 79.74(4) . . ?
K1 S1 K1 70.80(3) . 1_655 ?
K1 S1 K1 70.80(3) . 1_565 ?
K1 S1 K1 70.80(3) 1_665 1_655 ?
K1 S1 K1 110.01(6) . 1_665 ?
K1 S1 K1 70.80(3) 1_665 1_565 ?
K1 S1 K1 110.01(6) 1_655 1_565 ?
Te1 Cu1 Te1 180.0 1_665 . ?
Te1 Cu1 Te1 90.0 . 1_565 ?
Te1 Cu1 Te1 90.0 1_665 1_655 ?
Te1 Cu1 Te1 180.0 1_655 1_565 ?
Te1 Cu1 Te1 90.0 1_665 1_565 ?
Te1 Cu1 Te1 90.0 . 1_655 ?
Te1 Cu1 Cu2 60.150(18) 1_665 11_566 ?
Te1 Cu1 Cu2 60.150(18) 1_655 1_654 ?
Te1 Cu1 Cu2 119.850(17) 1_655 3_664 ?
Te1 Cu1 Cu2 119.850(17) . 1_654 ?
Te1 Cu1 Cu2 119.850(17) 1_655 9_566 ?
Te1 Cu1 Cu2 119.850(18) . 3_664 ?
Te1 Cu1 Cu2 60.150(18) 1_655 11_556 ?
Te1 Cu1 Cu2 119.850(18) . 11_566 ?
Te1 Cu1 Cu2 119.850(17) 1_665 9_566 ?
Te1 Cu1 Cu2 60.150(17) . 9_566 ?
Te1 Cu1 Cu2 60.150(17) 1_665 3_664 ?
Te1 Cu1 Cu2 119.850(18) 1_655 11_566 ?
Te1 Cu1 Cu2 119.850(17) 1_665 11_556 ?
Te1 Cu1 Cu2 60.150(17) . 11_556 ?
Te1 Cu1 Cu2 119.850(18) 1_565 3_654 ?
Te1 Cu1 Cu2 60.150(18) 1_565 11_566 ?
Te1 Cu1 Cu2 119.850(18) 1_665 3_654 ?
Te1 Cu1 Cu2 119.850(17) 1_565 1_654 ?
Te1 Cu1 Cu2 60.150(18) . 3_654 ?
Te1 Cu1 Cu2 119.850(18) 1_665 1_554 ?
Te1 Cu1 Cu2 60.150(17) 1_655 3_654 ?
Te1 Cu1 Cu2 60.150(18) 1_565 9_566 ?
Te1 Cu1 Cu2 60.150(18) 1_665 9_666 ?
Te1 Cu1 Cu2 60.150(18) . 1_554 ?
Te1 Cu1 Cu2 119.850(18) . 9_666 ?
Te1 Cu1 Cu2 60.150(17) 1_565 3_664 ?
Te1 Cu1 Cu2 60.150(17) 1_655 9_666 ?
Te1 Cu1 Cu2 119.850(17) 1_655 1_554 ?
Te1 Cu1 Cu2 60.150(17) 1_665 1_654 ?
Te1 Cu1 Cu2 119.850(17) 1_565 11_556 ?
Te1 Cu1 Cu2 60.150(17) 1_565 1_554 ?
Te1 Cu1 Cu2 119.850(17) 1_565 9_666 ?
Cu2 Cu1 Cu2 120.30(4) 3_654 9_666 ?
Cu2 Cu1 Cu2 89.48(6) 1_554 1_654 ?
Cu2 Cu1 Cu2 120.30(4) 1_654 11_556 ?
Cu2 Cu1 Cu2 120.30(4) 9_566 3_664 ?
Cu2 Cu1 Cu2 89.48(6) 11_566 11_556 ?
Cu2 Cu1 Cu2 59.70(4) 9_666 11_556 ?
Cu2 Cu1 Cu2 59.70(4) 1_654 3_664 ?
Cu2 Cu1 Cu2 120.30(4) 11_566 1_554 ?
Cu2 Cu1 Cu2 90.52(6) 9_666 1_654 ?
Cu2 Cu1 Cu2 59.70(4) 11_566 9_666 ?
Cu2 Cu1 Cu2 90.52(6) 3_654 11_556 ?
Cu2 Cu1 Cu2 59.70(4) 11_566 9_566 ?
Cu2 Cu1 Cu2 180.000(10) 1_554 9_666 ?
Cu2 Cu1 Cu2 120.30(4) 9_666 3_664 ?
Cu2 Cu1 Cu2 180.000(10) 3_664 11_556 ?
Cu2 Cu1 Cu2 90.52(6) 1_554 9_566 ?
Cu2 Cu1 Cu2 180.000(10) 11_566 3_654 ?
Cu2 Cu1 Cu2 59.70(4) 3_654 1_654 ?
Cu2 Cu1 Cu2 59.70(4) 1_554 3_654 ?
Cu2 Cu1 Cu2 120.30(4) 3_654 9_566 ?
Cu2 Cu1 Cu2 120.30(4) 11_566 1_654 ?
Cu2 Cu1 Cu2 120.30(4) 1_554 11_556 ?
Cu2 Cu1 Cu2 90.52(6) 11_566 3_664 ?
Cu2 Cu1 Cu2 89.48(6) 9_666 9_566 ?
Cu2 Cu1 Cu2 59.70(4) 1_554 3_664 ?
Cu2 Cu1 Cu2 59.70(4) 9_566 11_556 ?
Cu2 Cu1 Cu2 89.48(6) 3_654 3_664 ?
Cu2 Cu1 Cu2 180.0 1_654 9_566 ?
loop_
_geom_bond_atom_site_label_1
_geom_bond_atom_site_label_2
_geom_bond_distance
_geom_bond_site_symmetry_2
_geom_bond_publ_flag
Te1 Cu2 2.7627(15) 1_544 ?
Te1 Cu2 2.7627(15) 3_654 ?
Te1 Cu2 2.7627(15) 1_554 ?
Te1 Cu2 2.7627(15) 11_456 ?
Te1 Cu2 2.7627(15) 3_554 ?
Te1 Cu2 2.7627(15) 9_556 ?
Te1 Cu2 2.7627(15) 9_566 ?
Te1 Cu2 2.7627(15) 11_556 ?
Te1 Cu1 2.750(2) 1_445 ?
Te1 Cu1 2.750(2) 1_455 ?
Te1 Cu1 2.750(2) 1_545 ?
Te1 Cu1 2.750(2) . ?
Cu2 Te1 2.7627(15) 1_556 ?
Cu2 Te1 2.7627(15) 1_566 ?
Cu2 Cu2 2.750(2) 3_565 ?
Cu2 Cu2 2.750(2) 3_665 ?
Cu2 Cu2 2.750(2) 3 ?
Cu2 Cu2 2.750(2) 3_655 ?
Cu2 K1 3.721(2) 1_565 ?
Cu2 K1 3.721(2) . ?
Cu2 S1 2.3101(14) . ?
Cu2 S1 2.3101(14) 1_455 ?
Cu2 Cu1 2.7627(15) 1_456 ?
Cu2 Cu1 2.7627(15) 1_556 ?
K1 Cu2 3.721(2) 11_456 ?
K1 Cu2 3.721(2) 9_556 ?
K1 Cu2 3.721(2) 3_655 ?
K1 Cu2 3.721(2) 1_545 ?
K1 S1 3.3572(19) 1_455 ?
K1 S1 3.3572(19) 1_445 ?
K1 S1 3.3572(19) 9_666 ?
K1 S1 3.3572(19) 9_656 ?
K1 S1 3.3572(19) . ?
K1 S1 3.3572(19) 9_556 ?
K1 S1 3.3572(19) 1_545 ?
K1 S1 3.3572(19) 9_566 ?
S1 Cu2 2.3100(14) 3_665 ?
S1 Cu2 2.3100(14) 1_655 ?
S1 Cu2 2.3100(14) 3_655 ?
S1 K1 3.3572(19) 1_655 ?
S1 K1 3.3572(19) 1_665 ?
S1 K1 3.3572(19) 1_565 ?
Cu1 Te1 2.750(2) 1_665 ?
Cu1 Te1 2.750(2) 1_655 ?
Cu1 Te1 2.750(2) 1_565 ?
Cu1 Cu2 2.7627(15) 1_554 ?
Cu1 Cu2 2.7627(15) 9_666 ?
Cu1 Cu2 2.7627(15) 3_654 ?
Cu1 Cu2 2.7627(15) 9_566 ?
Cu1 Cu2 2.7627(15) 11_566 ?
Cu1 Cu2 2.7627(15) 11_556 ?
Cu1 Cu2 2.7627(15) 1_654 ?
Cu1 Cu2 2.7627(15) 3_664 ?
