#------------------------------------------------------------------------------
#$Date: 2019-11-11 03:14:35 +0200 (Mon, 11 Nov 2019) $
#$Revision: 226234 $
#$URL: file:///home/coder/svn-repositories/cod/cif/4/00/31/4003130.cif $
#------------------------------------------------------------------------------
#
# This file is available in the Crystallography Open Database (COD),
# http://www.crystallography.net/
#
# All data on this site have been placed in the public domain by the
# contributors.
#
data_4003130
loop_
_publ_author_name
'Bu, Kejun'
'Huang, Jian'
'Luo, Mengjia'
'Guan, Mengjia'
'Zheng, Chong'
'Pan, Jie'
'Zhang, Xian'
'Wang, Sishun'
'Zhao, Wei'
'Shi, Xun'
'Xu, Li'
'Huang, Fuqiang'
_publ_section_title
;
 Observation of High Seebeck Coefficient and Low Thermal Conductivity in
 [SrO]-Intercalated CuSbSe2 Compound
;
_journal_issue                   16
_journal_name_full               'Chemistry of Materials'
_journal_page_first              5539
_journal_paper_doi               10.1021/acs.chemmater.8b02651
_journal_volume                  30
_journal_year                    2018
_chemical_formula_moiety         'Cu O Sb Se2, Sr'
_chemical_formula_sum            'Cu O Sb Se2 Sr'
_chemical_formula_weight         446.83
_space_group_crystal_system      monoclinic
_space_group_IT_number           11
_space_group_name_Hall           '-P 2yb'
_space_group_name_H-M_alt        'P 1 21/m 1'
_cell_angle_alpha                90
_cell_angle_beta                 113.764(9)
_cell_angle_gamma                90
_cell_formula_units_Z            2
_cell_length_a                   7.641(2)
_cell_length_b                   4.0199(11)
_cell_length_c                   9.013(3)
_cell_measurement_reflns_used    555
_cell_measurement_temperature    273.(2)
_cell_measurement_theta_max      24.3175
_cell_measurement_theta_min      2.4695
_cell_volume                     253.37(13)
_computing_cell_refinement       'SAINT V8.38A (Bruker AXS Inc., 2017)'
_computing_data_reduction        'SAINT V8.38A (Bruker AXS Inc., 2017)'
_computing_molecular_graphics    'shelXle (C.B. Huebschle, rev 786)'
_computing_structure_refinement  'SHELXL-2016/6 (Sheldrick, 2016)'
_computing_structure_solution    'SHELXT 2014/5 (Sheldrick, 2014)'
_diffrn_ambient_temperature      273.(2)
_diffrn_detector_area_resol_mean 10.4167
_diffrn_measured_fraction_theta_full 0.994
_diffrn_measured_fraction_theta_max 0.994
_diffrn_measurement_device_type  'CCD area detector'
_diffrn_measurement_method       'phi and omega scans'
_diffrn_radiation_type           MoK\a
_diffrn_radiation_wavelength     0.71073
_diffrn_reflns_av_R_equivalents  0.1510
_diffrn_reflns_av_unetI/netI     0.0823
_diffrn_reflns_limit_h_max       9
_diffrn_reflns_limit_h_min       -8
_diffrn_reflns_limit_k_max       4
_diffrn_reflns_limit_k_min       -4
_diffrn_reflns_limit_l_max       10
_diffrn_reflns_limit_l_min       -10
_diffrn_reflns_number            4525
_diffrn_reflns_theta_full        25.34
_diffrn_reflns_theta_max         25.34
_diffrn_reflns_theta_min         2.47
_exptl_absorpt_coefficient_mu    34.142
_exptl_absorpt_correction_T_max  0.711
_exptl_absorpt_correction_T_min  0.198
_exptl_absorpt_correction_type   multi-scan
_exptl_absorpt_process_details
;
SADABS-2016/2 - Bruker AXS area detector scaling and absorption correction
;
_exptl_crystal_colour            black
_exptl_crystal_density_diffrn    5.857
_exptl_crystal_density_method    'not measured'
_exptl_crystal_description       plate
_exptl_crystal_F_000             388
_exptl_crystal_size_max          0.037
_exptl_crystal_size_mid          0.025
_exptl_crystal_size_min          0.010
_refine_diff_density_max         1.551
_refine_diff_density_min         -1.916
_refine_ls_extinction_method     none
_refine_ls_goodness_of_fit_ref   0.991
_refine_ls_hydrogen_treatment    undef
_refine_ls_matrix_type           full
_refine_ls_number_parameters     37
_refine_ls_number_reflns         532
_refine_ls_number_restraints     13
_refine_ls_restrained_S_all      0.978
_refine_ls_R_factor_all          0.0743
_refine_ls_R_factor_gt           0.0392
_refine_ls_shift/su_max          0.000
_refine_ls_shift/su_mean         0.000
_refine_ls_structure_factor_coef Fsqd
_refine_ls_weighting_details
'w=1/[\s^2^(Fo^2^)+(0.0199P)^2^] where P=(Fo^2^+2Fc^2^)/3'
_refine_ls_weighting_scheme      calc
_refine_ls_wR_factor_gt          0.0605
_refine_ls_wR_factor_ref         0.0668
_reflns_number_gt                381
_reflns_number_total             532
_reflns_threshold_expression     'I > 2\s(I)'
_cod_data_source_file            cm8b02651_si_001.cif
_cod_data_source_block           SrCuSbSeO
_cod_depositor_comments
;
The following automatic conversions were performed:

data item '_exptl_absorpt_correction_type' value 'Multi-Scan' was
changed to 'multi-scan' in accordance with the
/home/data/users/saulius/crontab/automatic-downloads/current/ACS/lib/dictionaries/cif_core.dic
dictionary named 'cif_core.dic' version 2.4.2 last updated on
2011-04-26.

Automatic conversion script
Id: cif_fix_values 6909 2019-04-08 15:41:33Z antanas 
;
_cod_database_code               4003130
_shelx_res_file
;

TITL P21m_a.res in P2(1)/m
    P21m_a.res
    created by SHELXL-2016/6 at 11:38:23 on 27-Aug-2017
REM Old TITL P21m in P2(1)/m
REM SHELXT solution in P2(1)/m
REM R1 0.104,  Rweak 0.018,  Alpha 0.035,  Orientation as input
REM Formula found by SHELXT:  Cu O Sb Se3
CELL  0.71073   7.6412   4.0199   9.0128   90.000  113.764   90.000
ZERR    2.000   0.0023   0.0011   0.0027    0.000    0.009    0.000
LATT  1
SYMM -X, 1/2+Y, -Z
SFAC CU O SB SE SR
UNIT 2 2 2 4 2
TEMP -0.150
L.S. 10
BOND
ACTA
LIST 4
DELU 0.001 Sb O
SIMU 0.001 Sb O
OMIT -2 0 8
OMIT -1 2 6
OMIT 1 4 3
OMIT 0 5 2
SHEL 999 0.83
ISOR 0.1 0.2 O
FMAP 2
PLAN 20
WGHT    0.019900
FVAR       0.38472
SB    3    0.383548    0.750000    0.297571    10.50000    0.01135    0.01286 =
         0.00815    0.00000   -0.00233    0.00000
SR    5    0.152868    0.250000   -0.090416    10.50000    0.01065    0.00907 =
         0.00882    0.00000    0.00219    0.00000
SE1   4    0.872939   -0.250000    0.634897    10.50000    0.01007    0.01052 =
         0.00926    0.00000    0.00245    0.00000
SE2   4    0.572458    0.250000    0.207367    10.50000    0.00785    0.01244 =
         0.01231    0.00000    0.00211    0.00000
CU    1    0.862078    0.250000    0.464132    10.50000    0.01993    0.02251 =
         0.01756    0.00000    0.00609    0.00000
O     2    0.177746    0.750000    0.082547    10.50000    0.01074    0.01279 =
         0.00796    0.00000   -0.00202    0.00000
HKLF 4




REM  P21m_a.res in P2(1)/m
REM R1 =  0.0392 for     381 Fo > 4sig(Fo)  and  0.0743 for all     532 data
REM     37 parameters refined using     13 restraints

END

WGHT      0.0199      0.0000

REM Highest difference peak  1.551,  deepest hole -1.916,  1-sigma level  0.381
Q1    1   0.3597  0.9048  0.3759  11.00000  0.05    1.55
Q2    1   0.8508 -0.2500  0.7763  10.50000  0.05    1.38
Q3    1   0.4963  0.1122  0.0867  11.00000  0.05    1.27
Q4    1   0.7627 -0.2500  0.5545  10.50000  0.05    1.20
Q5    1   0.9186  0.2500  0.3257  10.50000  0.05    1.14
Q6    1   0.6436  0.7500  0.3840  10.50000  0.05    1.14
Q7    1   0.5200  0.1274  0.2804  11.00000  0.05    1.08
Q8    1   0.4749  1.0953  0.4545  11.00000  0.05    1.07
Q9    1   1.0184  0.0405  0.6591  11.00000  0.05    1.04
Q10   1   0.4667  0.7500  0.3972  10.50000  0.05    1.01
Q11   1   0.6002  0.2500  0.0802  10.50000  0.05    0.98
Q12   1   0.9841 -0.2500  0.6368  10.50000  0.05    0.97
Q13   1   0.5956 -0.1099  0.2607  11.00000  0.05    0.97
Q14   1  -0.0621  0.2500 -0.1919  10.50000  0.05    0.97
Q15   1   0.7083 -0.2500  0.7731  10.50000  0.05    0.96
Q16   1   0.7080 -0.1363  0.6400  11.00000  0.05    0.96
Q17   1   0.3072  0.2500  0.0760  10.50000  0.05    0.93
Q18   1   0.0805  0.2500 -0.2475  10.50000  0.05    0.93
Q19   1   0.9849 -0.2500  0.7538  10.50000  0.05    0.93
Q20   1   0.2780  0.7500 -0.0310  10.50000  0.05    0.92
;
_shelx_res_checksum              35229
_shelx_hkl_file
;
   1   0   0    6.50    4.00
   1   0   0   41.50   26.50
   1   0   0    0.70   12.20
   1   0   0    5.60   11.20
  -1   0   0   19.30   13.60
  -1   0   0   -0.30    6.80
  -1   0   0   -9.50   23.40
  -1   0   0    2.10    3.50
   2   0   0  -27.60   49.70
  -2   0   0   33.90   26.90
  -2   0   0   -1.40    7.90
  -2   0   0   28.50   15.90
   2   0   0  -10.60   23.10
   2   0   0  -24.40   22.20
   2   0   0    3.50    7.60
  -2   0   0   25.10   29.50
  -2   0   0   -1.00   44.90
   2   0   0   15.30   14.00
   3   0   0 1516.25  167.78
   3   0   0 1614.14  116.79
   3   0   0 1685.13  107.69
  -3   0   0 1667.63   93.09
   3   0   0 1671.73   96.59
  -3   0   0 1679.73  117.39
  -3   0   0 1613.34   76.89
  -3   0   0 1744.73  122.99
   3   0   0 1631.64   78.09
  -4   0   0 5079.09  222.88
  -4   0   0 5644.64  286.37
   4   0   0 5354.46  263.37
   4   0   0 5278.97  225.18
   4   0   0 5343.77  250.27
   4   0   0 4729.73  328.17
   4   0   0 5652.33  284.17
  -4   0   0 5751.72  279.47
  -4   0   0 5508.95  242.88
   5   0   0  188.18   49.40
   5   0   0  481.95  105.19
   5   0   0  364.26  133.89
  -5   0   0  417.66  102.39
  -5   0   0  329.57   45.20
  -5   0   0  251.47   49.30
   5   0   0  351.06   45.30
   5   0   0  404.46   91.79
  -5   0   0  203.68  107.79
   6   0   0   26.10   94.99
   6   0   0   -7.00   32.60
  -6   0   0 -145.59  133.89
   6   0   0   25.00   56.09
  -6   0   0   30.00  128.49
   7   0   0 1121.29   95.69
  -7   0   0  933.61  211.48
   7   0   0 1088.39  174.98
  -7   0   0 1178.08  256.67
   7   0   0  759.52  180.48
   7   0   0  956.10  132.99
   8   0   0  261.27  209.58
   8   0   0  385.86  120.09
   8   0   0  259.07   65.99
   9   0   0 -227.78  263.27
   9   0   0  312.87  149.99
   9   0   0   52.79   79.59
   0  -1   0   14.20   11.90
   0  -1   0   -1.10    5.70
   0  -1   0    8.40    7.30
   0  -1   0  -44.40   20.50
   0  -1   0   -0.20   11.50
   0   1   0   10.60   11.90
   0   1   0   -7.90   10.60
   0   1   0   -7.00    4.50
  -1  -1   0  313.57   41.20
  -1  -1   0  264.47   47.90
  -1  -1   0  233.38   22.50
  -1  -1   0  298.27   35.40
   1  -1   0  266.87   21.90
   1  -1   0  273.87   18.50
  -1  -1   0  244.58   26.30
   1  -1   0  254.27   19.70
   1   1   0  255.07   42.50
   1   1   0  287.67   36.40
   1   1   0  281.97   21.70
   1   1   0  282.47   39.60
   1   1   0  262.47   26.80
   2  -1   0 4176.58  192.18
  -2  -1   0 4598.24  210.58
   2  -1   0 3998.10  174.58
   2  -1   0 4337.87  189.68
  -2  -1   0 4367.26  189.68
  -2  -1   0 4562.04  211.88
  -2  -1   0 4348.96  182.18
   2  -1   0 4264.67  184.28
  -2  -1   0 4425.76  227.18
  -2   1   0 4352.36  182.48
   2   1   0 4434.86  191.48
   2   1   0 4573.74  182.38
   2   1   0 4343.47  222.48
   2   1   0 4295.07  207.58
   2   1   0 4470.95  202.38
  -3  -1   0 1004.90  103.49
   3  -1   0  855.01   48.20
  -3  -1   0  885.51   68.79
  -3  -1   0  893.41   56.69
  -3  -1   0  937.91  115.69
  -3  -1   0  829.12  114.29
   3  -1   0  942.61   76.29
   3  -1   0  857.41   68.49
   3  -1   0 1002.00   88.99
   3   1   0  962.00   56.29
  -3   1   0  906.31   63.59
   3   1   0  937.11   92.19
  -3   1   0  917.31   45.40
   3   1   0  883.41  105.99
  -3   1   0  954.50  102.19
   3   1   0  977.10  105.89
  -3   1   0 1043.10   94.39
   3   1   0  929.81   73.19
   4  -1   0  236.68   33.10
   4  -1   0  284.57   67.99
  -4  -1   0  324.77   91.79
  -4  -1   0  246.58   35.00
  -4  -1   0  282.67  101.89
   4  -1   0  325.17   49.60
   4  -1   0  275.47   61.09
  -4  -1   0  257.17   87.29
  -4  -1   0  245.98   40.10
   4   1   0  260.87   36.30
  -4   1   0  218.58   37.40
   4   1   0  303.27   79.39
  -4   1   0  268.27   83.09
   4   1   0  265.07   50.79
   4   1   0  246.28   81.89
   4   1   0  288.27   85.39
  -4   1   0  230.58   27.70
  -4   1   0  416.46   98.09
   5  -1   0  288.27   86.69
   5  -1   0  207.98   35.20
  -5  -1   0  389.26  122.29
   5  -1   0  312.87   90.89
  -5  -1   0  219.18   52.19
  -5  -1   0   97.09  106.69
  -5  -1   0  145.69   36.40
   5  -1   0  304.47  156.38
   5  -1   0  192.08   53.39
  -5  -1   0  132.59  129.39
  -5   1   0  214.48   31.90
  -5   1   0  178.38   43.00
   5   1   0  277.47  125.59
   5   1   0  182.18   58.19
   5   1   0  298.77   87.79
  -5   1   0  452.65  150.98
  -5   1   0  482.65  118.39
   5   1   0  205.08   42.80
   5   1   0  144.19   87.99
   6  -1   0  732.23   98.89
   6  -1   0  590.74   68.09
  -6  -1   0  648.54  153.88
  -6  -1   0  792.82  191.78
   6  -1   0  532.05  118.49
   6  -1   0  597.54  117.69
  -6   1   0  771.62  148.49
  -6   1   0  854.71  196.08
   6   1   0  314.27  130.39
   6   1   0  604.24   77.19
   6   1   0  633.94  103.09
   6   1   0  628.14  123.79
   7  -1   0  270.97   97.19
   7  -1   0  217.88  141.79
   7  -1   0  105.09  127.59
  -7  -1   0  470.45  195.08
   7  -1   0  110.79   50.19
   7   1   0  231.68   55.79
  -7   1   0  341.37  214.38
  -7   1   0  -28.30  167.18
   7   1   0  206.38  132.19
   7   1   0  249.88   96.19
   7   1   0  -37.10  162.78
  -8  -1   0   49.20  239.98
   8  -1   0   25.40   69.19
   8  -1   0 -108.59  106.99
   8  -1   0   36.70  188.58
   8   1   0  123.29  236.98
   8   1   0  -24.90   64.79
   8   1   0   87.89  109.09
   0  -2   0 9509.35  395.66
   0  -2   0 9105.89  377.06
   0  -2   0 9204.28  385.76
   0  -2   0 9093.89  365.26
   0  -2   0 9999.00  420.96
   0   2   0 9150.98  376.96
   0   2   0 9573.84  392.86
   1  -2   0   -7.40   23.80
  -1  -2   0  -14.50   18.20
  -1  -2   0    4.00   20.50
  -1  -2   0   22.80   62.09
   1  -2   0   36.50   21.00
   1  -2   0   -3.00   14.50
   1  -2   0  -78.49   43.10
  -1  -2   0   -7.90   29.30
  -1  -2   0   38.90   35.90
  -1   2   0   16.80   15.30
   1   2   0   13.40   15.20
   1   2   0   34.30   25.80
   1   2   0   25.50   18.90
   1   2   0   12.30   53.69
   1   2   0   15.70   30.50
  -1   2   0   -9.80   13.30
   2  -2   0   41.20   44.70
  -2  -2   0  -32.70   50.09
  -2  -2   0  -10.10   36.50
   2  -2   0    3.50   19.30
  -2  -2   0   34.50   27.00
   2  -2   0   10.40   17.00
   2  -2   0  -29.90   25.70
  -2  -2   0   -5.10   22.30
  -2  -2   0   14.60   70.59
   2  -2   0  -12.10   30.40
   2   2   0   81.19   60.99
   2   2   0   67.19   38.40
   2   2   0   17.70   19.70
   2   2   0  -36.20   26.30
   2   2   0  -28.10   37.40
   3  -2   0  848.32   56.99
   3  -2   0 1081.99   99.29
  -3  -2   0  940.41  140.29
  -3  -2   0 1058.49  136.29
   3  -2   0  941.61   69.29
  -3  -2   0  879.81   79.29
  -3  -2   0  845.92  116.89
  -3  -2   0  999.00   71.69
   3   2   0  954.80  106.79
   3   2   0 1014.60   67.29
   3   2   0  936.51   90.69
   3   2   0  913.91  140.29
   3   2   0 1103.19  112.39
  -4  -2   0 3414.26  170.38
  -4  -2   0 3532.95  285.37
   4  -2   0 3512.95  176.58
  -4  -2   0 3656.93  186.98
   4  -2   0 3477.65  156.78
  -4  -2   0 3434.36  250.87
  -4  -2   0 3353.96  245.88
   4  -2   0 3657.13  208.48
   4   2   0 3737.13  199.98
  -4   2   0 3572.14  168.88
   4   2   0 3049.99  237.78
   4   2   0 3356.56  207.88
   4   2   0 3785.32  171.98
   4   2   0 3371.06  261.07
   5  -2   0  272.27   94.19
  -5  -2   0  299.07   65.19
  -5  -2   0  315.97  129.59
   5  -2   0  273.57   44.60
   5  -2   0  227.98   55.19
  -5  -2   0  269.07  142.39
   5   2   0  204.98   94.89
  -5   2   0  220.48   50.79
   5   2   0  169.08   71.39
   5   2   0  207.68  131.99
   5   2   0  257.67   54.39
   6  -2   0   13.00   48.30
  -6  -2   0  336.47  177.48
   6  -2   0  -74.59   62.99
   6  -2   0   13.10  108.59
  -6  -2   0 -202.28  144.49
   6   2   0   32.50   50.19
   6   2   0  -76.39  120.89
   6   2   0   80.59  154.18
   6   2   0   44.60   88.29
  -7  -2   0  688.43  238.48
   7  -2   0  981.80  160.88
   7  -2   0  841.02   98.09
   7  -2   0  760.02  126.49
  -7  -2   0  720.83  229.18
   7   2   0  924.61  156.18
   7   2   0  694.23  239.68
   7   2   0  794.92  102.29
   8  -2   0  255.97   98.69
   8  -2   0  377.96  148.19
  -8  -2   0   -8.10  250.47
  -8  -2   0   91.69  286.67
   8   2   0  281.77   85.89
   8   2   0  267.37  153.28
   8   2   0    6.00  245.28
   0  -3   0  -73.09   54.59
   0  -3   0   25.70   49.70
   0  -3   0  -56.29   94.99
   0   3   0  -20.00   26.00
   0   3   0    4.60   45.80
   0   3   0  -28.90   34.90
   1  -3   0   30.00   43.00
  -1  -3   0   74.89   66.19
  -1  -3   0   72.09   49.80
   1  -3   0  -20.60   85.89
  -1  -3   0   70.69   29.30
  -1  -3   0  -87.59  107.59
   1  -3   0   43.60   31.00
  -1  -3   0   59.19   39.30
   1  -3   0   32.90   43.10
   1   3   0   64.09   24.80
  -1   3   0   85.89   30.50
   1   3   0   56.99   57.59
   1   3   0   27.40   50.39
   1   3   0   32.30   27.90
  -1   3   0   84.39   28.90
  -2  -3   0 2141.79  131.69
  -2  -3   0 2064.39  122.29
   2  -3   0 2142.99  123.39
  -2  -3   0 2134.39  168.08
   2  -3   0 2257.67  154.58
   2  -3   0 2000.90  182.08
   2  -3   0 1923.51  121.99
  -2  -3   0 2366.26  268.37
  -2  -3   0 2312.67  184.18
   2   3   0 2028.60  128.79
   2   3   0 2255.57  116.69
  -3  -3   0  327.07   89.39
  -3  -3   0  523.25  129.69
  -3  -3   0  336.77   60.49
  -3  -3   0  241.98   56.69
   3  -3   0  456.45   96.69
   3  -3   0  343.37   51.39
   3  -3   0  315.67   40.30
   3  -3   0  332.77   76.19
   3  -3   0  380.66   78.69
   3   3   0  446.46   60.69
   3   3   0  338.77   71.29
   4  -3   0   67.39   80.39
   4  -3   0  112.39   47.60
  -4  -3   0  176.18   59.59
  -4  -3   0  137.89   74.99
  -4  -3   0  183.48  135.79
  -4  -3   0  -15.00  102.29
   4   3   0   50.79   49.90
   4   3   0   51.09  144.29
   4   3   0  227.48   79.49
  -5  -3   0 -111.99  169.08
  -5  -3   0  152.48   86.79
   5  -3   0  324.37   73.19
  -5  -3   0  145.99  151.18
   5   3   0  218.88  103.59
   5   3   0  119.29  167.68
   5   3   0  267.77   72.19
  -6  -3   0  265.07  195.78
  -6  -3   0 -147.59  219.58
   6  -3   0  485.45  103.49
   6   3   0  268.37  128.89
   6   3   0  533.05   94.59
   6   3   0  554.94  209.48
   7  -3   0   51.09  123.19
  -7  -3   0  337.97  302.87
  -7  -3   0 -170.08  263.77
   7   3   0  178.98  153.78
   7   3   0  172.78   92.29
   0  -4   0 3674.63  244.38
   0  -4   0 3395.06  262.87
   0  -4   0 3132.79  179.88
   0  -4   0 3535.15  354.76
   0   4   0 3414.56  166.48
  -1  -4   0    5.20  108.19
  -1  -4   0  -59.39   81.39
   1  -4   0    7.90   57.99
   1  -4   0  -74.89  154.08
   1  -4   0   86.29   87.69
   1  -4   0 -117.29   83.69
  -1   4   0    2.50   42.40
   2  -4   0 -111.69   75.79
  -2  -4   0 -108.49   96.29
   2  -4   0  271.97  152.08
  -2  -4   0  222.98   54.89
  -2  -4   0  -39.10   83.69
  -2  -4   0   34.30  133.89
   2  -4   0  243.38  117.99
   2  -4   0  -25.30   75.79
   2   4   0   41.00   52.59
  -3  -4   0  257.77  131.59
   3  -4   0   78.19  124.79
  -3  -4   0  529.45  174.48
  -3  -4   0  309.37   73.99
   3   4   0  533.15   87.39
   3   4   0  291.87   68.29
  -4  -4   0 1666.43  278.17
   4  -4   0 1432.56  199.58
  -4  -4   0 1228.68  206.08
   4   4   0 1616.44  194.38
   4   4   0 1523.55  154.98
  -5  -4   0  225.38  204.58
  -5  -4   0  296.67  241.38
   5  -4   0 -133.89  170.68
   5   4   0  112.59  130.29
   5   4   0  219.38   92.09
   0  -5   0   80.29  188.08
   0  -5   0 -118.19  139.29
   1  -5   0 -257.47  176.48
   1  -5   0  132.09  179.98
  -1  -5   0 -139.19  201.28
  -1  -5   0  219.18  145.29
   2  -5   0 1056.49  254.17
  -2  -5   0  784.92  220.08
   2  -5   0  887.81  191.48
  -2  -5   0 1508.15  275.07
   9   0  -1  171.08  121.39
   9   0  -1   62.59   69.59
   9   0  -1  111.19  253.27
  -8   0   1  685.13  213.78
   8   0  -1  353.26  196.28
   8   0  -1  435.66   72.09
   8   0  -1  503.95  110.49
  -7   0   1  604.34  226.08
   7   0  -1  234.48   80.29
   7   0  -1  430.76  154.48
   7   0  -1  376.16   55.49
   7   0  -1  338.57  115.09
  -7   0   1  263.87  159.08
   6   0  -1  456.55   95.89
   6   0  -1  440.96   78.59
   6   0  -1  490.85   57.69
  -6   0   1  892.11  160.98
   6   0  -1  633.84  184.68
  -6   0   1  697.73  135.29
   6   0  -1  539.65  127.89
   5   0  -1  155.28   61.29
   5   0  -1   64.69   25.40
  -5   0   1   80.29   77.39
  -5   0   1   97.29   24.20
  -5   0   1   86.69   33.70
   5   0  -1   28.90   82.99
   5   0  -1   28.00   40.40
   5   0  -1  191.48  116.09
  -5   0   1  256.17   98.59
  -4   0   1 1169.78   64.19
   4   0  -1 1283.47  126.69
   4   0  -1 1259.67   65.79
  -4   0   1 1207.08  112.19
  -4   0   1 1314.87  140.69
   4   0  -1 1203.38   95.69
   4   0  -1 1124.69  164.98
   4   0  -1 1248.98   88.39
  -4   0   1 1262.57   80.79
   3   0  -1   40.30   11.30
   3   0  -1   46.60   21.80
  -3   0   1   48.00   20.40
   3   0  -1    0.60   25.50
   3   0  -1   83.69   65.69
  -3   0   1   14.40   53.39
  -3   0   1   16.40   11.80
   3   0  -1   87.39   43.40
   2   0  -1  238.68   30.30
   2   0  -1  239.88   47.40
  -2   0   1  224.08   19.60
   2   0  -1  217.48   25.80
  -2   0   1  264.47   48.60
  -2   0   1  215.58   45.20
   2   0  -1  208.68   44.00
   2   0  -1  249.28   17.80
  -2   0   1  238.78   27.40
  -1   0   1   24.50    5.90
   1   0  -1   28.10   18.40
   1   0  -1   34.30    5.80
  -1   0   1   25.40   19.60
   0   0   1  247.38   16.90
   0   0  -1  188.28   29.60
   0   0   1  219.38   18.00
   1   0   1  467.05   69.19
  -1   0  -1  456.65   34.00
   1   0   1  469.95   26.00
  -1   0  -1  480.85   52.59
   1   0   1  423.76   33.50
  -1   0  -1  435.86   25.70
   1   0   1  478.25   52.89
  -1   0  -1  400.56   42.00
   2   0   1   58.19   19.30
  -2   0  -1  101.49   40.20
   2   0   1   39.50   39.80
   2   0   1   78.39   14.20
  -2   0  -1  125.49   47.30
   2   0   1  -39.60   62.09
   2   0   1  113.49   33.50
  -2   0  -1   72.89   16.20
  -2   0  -1   67.79   21.10
   3   0   1  210.58   51.59
  -3   0  -1  103.09   28.60
  -3   0  -1  212.08   65.39
   3   0   1  140.99   22.10
   3   0   1  176.28  105.59
   3   0   1  104.69   30.20
  -3   0  -1   96.49   59.09
   3   0   1  124.29   56.49
  -3   0  -1  189.28   25.40
  -4   0  -1   66.09   72.79
   4   0   1   15.60   36.00
  -4   0  -1  -15.40   18.10
   4   0   1   33.70   62.19
  -4   0  -1  -10.40   78.09
   4   0   1   12.00   20.70
   4   0   1   97.59   73.29
  -4   0  -1   13.30   32.10
   5   0   1  667.63  199.88
  -5   0  -1 1107.79  174.58
   5   0   1  899.81  111.39
  -5   0  -1  716.83   69.19
  -5   0  -1 1081.39  166.08
   5   0   1  923.91   69.89
   5   0   1 1062.19  145.39
   5   0   1 1024.40  140.79
   6   0   1  123.29   71.69
  -6   0  -1   82.29  157.48
   6   0   1  171.48  128.89
  -6   0  -1  263.87  161.78
   6   0   1  137.09  118.29
   6   0   1  125.39   45.00
   7   0   1  363.36   66.59
  -7   0  -1  588.24  233.48
   7   0   1  223.28  164.08
   7   0   1  524.05  170.88
   7   0   1  301.07   97.39
  -7   0  -1  213.68  229.88
   8   0   1   60.79  115.29
   8   0   1  142.19   70.09
   9  -1  -1  371.86   86.69
   9  -1  -1  -43.90  245.98
   9  -1  -1  118.19  143.19
   9   1  -1 -106.39  264.27
   9   1  -1  249.58  137.19
   9   1  -1  169.58   76.39
   8  -1  -1  317.47  111.89
   8  -1  -1  334.07   68.59
   8  -1  -1  642.44  210.88
  -8  -1   1  399.56  215.08
   8   1  -1  513.85  125.09
   8   1  -1  476.45  208.78
   8   1  -1  571.74   82.69
  -7  -1   1  265.67  163.78
   7  -1  -1  332.67  105.09
  -7  -1   1  303.57  225.08
   7  -1  -1  351.26   52.39
   7  -1  -1  403.06   93.59
   7  -1  -1  155.98  156.38
   7   1  -1  404.06   64.39
  -7   1   1   11.50  202.98
   7   1  -1  231.18  169.48
   7   1  -1  268.57  115.29
  -7   1   1  415.46  177.18
   7   1  -1  305.87   89.39
  -6  -1   1 -133.99  133.59
   6  -1  -1  172.28   37.50
   6  -1  -1   50.99   74.99
  -6  -1   1  176.58  114.89
   6  -1  -1   60.19   58.29
   6  -1  -1  145.79  202.88
   6  -1  -1  165.58  108.69
   6   1  -1  182.98   67.19
   6   1  -1  131.89   83.39
  -6   1   1  199.48  156.28
   6   1  -1  177.18   43.30
   6   1  -1   90.09  147.49
  -6   1   1   51.49   50.69
   6   1  -1  129.89  113.99
  -6   1   1  171.58  131.19
   5  -1  -1   61.69   21.90
   5  -1  -1  -16.20   38.60
  -5  -1   1   -7.00  104.79
   5  -1  -1 -203.38  129.39
  -5  -1   1   44.00  106.69
  -5  -1   1   36.00   29.70
  -5  -1   1  -59.39   34.30
   5  -1  -1  -65.39   53.59
  -5  -1   1  -24.50   78.19
   5  -1  -1  -86.89   70.49
  -5   1   1    9.10   32.20
  -5   1   1   10.50  103.49
  -5   1   1    8.60   19.30
  -5   1   1  -35.50   99.39
   5   1  -1  155.88   71.79
   5   1  -1  -56.49   41.50
   5   1  -1  -93.79   83.59
   5   1  -1   39.80   27.30
   5   1  -1  -83.79   86.59
  -4  -1   1  313.37   42.40
  -4  -1   1  250.67   80.79
  -4  -1   1  410.16   74.49
   4  -1  -1  371.96   74.89
   4  -1  -1  352.86   31.20
  -4  -1   1  366.56   48.60
  -4  -1   1  446.16   99.99
   4  -1  -1  430.96   54.59
   4  -1  -1  343.07   48.40
  -4   1   1  209.58   97.49
   4   1  -1  467.95   81.59
   4   1  -1  353.96   42.30
   4   1  -1  488.95  102.19
   4   1  -1  334.17   56.59
   4   1  -1  406.76   66.89
  -4   1   1  373.06   49.40
  -3  -1   1  731.33   83.29
  -3  -1   1  678.03   50.09
  -3  -1   1  757.82   57.99
  -3  -1   1  774.12   90.09
   3  -1  -1  758.32   57.19
  -3  -1   1  711.83  103.79
   3  -1  -1  646.34   79.29
   3   1  -1  771.92   76.69
   3   1  -1  745.53   84.09
   3   1  -1  799.42   64.29
   3   1  -1  682.13  106.09
  -3   1   1  770.42  116.69
   3   1  -1  748.33   48.80
  -3   1   1  693.63   54.59
  -2  -1   1    9.90   22.00
  -2  -1   1    5.00   14.70
   2  -1  -1   17.00   30.30
   2  -1  -1   11.00   12.30
  -2  -1   1   14.30   26.20
  -2  -1   1  -29.90   39.50
  -2  -1   1   -3.60   16.40
   2   1  -1   -5.70   26.20
   2   1  -1   11.80   23.10
   2   1  -1   12.50   11.10
   2   1  -1   18.00   17.00
   2   1  -1   19.10   37.70
  -1  -1   1   96.59   21.50
   1  -1  -1  105.29   17.50
  -1  -1   1   72.09   19.40
  -1  -1   1  105.89   14.30
  -1  -1   1  168.08   38.00
  -1  -1   1   97.89   17.70
   1   1  -1   66.69   20.10
   1   1  -1  122.59   25.00
   1   1  -1  149.19   38.10
   1   1  -1   89.39   15.00
   1   1  -1  100.99   14.00
  -1   1   1  118.59   19.60
   0  -1  -1   13.90   11.70
   0  -1  -1    9.40   14.40
   0  -1  -1   11.40   19.30
   0  -1   1   16.80   10.40
   0  -1   1   24.80   13.00
   0  -1   1   23.20   21.80
   0  -1   1   36.60   12.60
   0   1   1   24.50   20.00
   0   1  -1    9.40    8.00
   0   1  -1   17.20   11.50
   0   1   1   18.80   18.40
   0   1  -1   62.69   21.20
   0   1   1   28.20   10.30
   0   1  -1   23.40    6.00
  -1  -1  -1  836.12   55.69
  -1  -1  -1  877.61   85.69
   1  -1   1  771.92   58.29
  -1  -1  -1  894.71   69.19
  -1  -1  -1  851.41   72.09
   1  -1   1  787.72   45.50
  -1  -1  -1  835.62   45.10
   1  -1   1  862.71   44.50
  -1   1  -1  850.51   45.70
   1   1   1  933.61   56.79
   1   1   1  909.91   71.89
  -1   1  -1  842.52   42.60
   1   1   1  848.32   71.49
   1   1   1  904.91   45.40
   2  -1   1  641.04   74.49
  -2  -1  -1  709.13   96.79
  -2  -1  -1  675.33   96.39
   2  -1   1  682.13   48.90
  -2  -1  -1  652.63   87.69
  -2  -1  -1  691.73   56.79
  -2  -1  -1  646.74   43.40
   2  -1   1  624.34   40.70
  -2   1  -1  754.72   81.59
   2   1   1  662.23   62.29
   2   1   1  503.35   76.69
  -2   1  -1  619.84   36.00
   2   1   1  661.33   88.99
  -2   1  -1  654.53   49.20
   2   1   1  600.94   43.10
   2   1   1  501.65   69.39
  -3  -1  -1  198.58   79.39
  -3  -1  -1  143.39   35.70
   3  -1   1  211.78   29.10
   3  -1   1  252.87   66.79
  -3  -1  -1  234.68   82.79
  -3  -1  -1  184.98   75.59
   3  -1   1  228.98   39.70
  -3  -1  -1  161.58   26.90
  -3   1  -1  259.57   64.09
   3   1   1  171.48   60.79
   3   1   1  246.38   66.29
  -3   1  -1  181.08   24.20
   3   1   1  276.37   81.09
   3   1   1  205.78   30.80
   3   1   1  215.18   42.80
  -3   1  -1  197.08   37.10
   4  -1   1   12.90   47.80
   4  -1   1   14.00   21.50
  -4  -1  -1   12.20   34.10
  -4  -1  -1   -9.80  100.69
  -4  -1  -1   81.09   86.79
   4  -1   1   67.69   74.69
  -4  -1  -1   38.40   25.10
   4  -1   1  -20.10   36.30
  -4  -1  -1    4.10   90.49
   4   1   1   30.60   72.09
   4   1   1  -18.70   70.29
  -4   1  -1   20.70   33.70
  -4   1  -1   32.90   85.59
   4   1   1  -26.70   26.00
  -4   1  -1   -6.10   18.30
  -4   1  -1   32.90   71.59
   4   1   1   20.90   43.10
   4   1   1   27.60   89.19
   5  -1   1  716.33  211.78
   5  -1   1 1315.87   84.39
  -5  -1  -1 1437.86  211.88
  -5  -1  -1 1124.79   93.09
  -5  -1  -1 1346.07  221.18
   5  -1   1 1190.08  120.89
   5  -1   1 1305.07  182.38
  -5  -1  -1 1142.59  177.28
   5  -1   1 1477.45  135.19
   5   1   1 1134.99  170.18
   5   1   1 1387.66   89.79
   5   1   1  935.81  132.29
  -5   1  -1 1972.20  219.58
   5   1   1 1159.18  133.69
  -5   1  -1 1246.08  177.58
  -5   1  -1 1277.87  109.89
   6  -1   1  173.08   76.49
   6  -1   1  101.69   44.00
   6  -1   1  206.18  110.89
  -6  -1  -1   64.29  193.58
  -6  -1  -1 -107.69  165.58
   6  -1   1   -3.30  124.09
   6   1   1   74.39   80.29
   6   1   1  139.99  130.99
   6   1   1  -26.90  137.69
  -6   1  -1   10.60  159.18
  -6   1  -1  298.47  136.99
   6   1   1   13.00   44.00
  -7  -1  -1  367.86  218.88
   7  -1   1  446.06  112.69
   7  -1   1  464.35  198.28
   7  -1   1  412.76   70.79
  -7   1  -1  687.93  223.38
  -7   1  -1  132.19  230.08
   7   1   1  229.48  173.08
   7   1   1   84.19  178.88
   7   1   1  500.45   76.49
   7   1   1  251.77  105.49
   8  -1   1  -63.19   74.99
   8  -1   1  198.98  126.99
   8   1   1  -22.20  123.89
   8   1   1  -83.69   67.49
   8  -2  -1  506.95  142.29
  -8  -2   1  333.17  234.38
   8  -2  -1  340.97   89.99
  -8  -2   1  777.62  284.87
   8   2  -1  210.88  234.78
   8   2  -1  447.46   93.69
   8   2  -1  582.94  152.68
   7  -2  -1  210.68   67.69
  -7  -2   1   -9.10  177.48
  -7  -2   1  242.68  213.98
   7  -2  -1  403.66  115.19
   7  -2  -1  323.27  144.69
   7  -2  -1  131.69   90.79
   7   2  -1  212.58  178.88
   7   2  -1  -22.50  146.49
   7   2  -1  317.77   72.79
   7   2  -1  261.47  113.69
   6  -2  -1  611.84  120.09
   6  -2  -1  388.86   57.99
  -6  -2   1  412.76  154.58
   6  -2  -1  361.36   80.99
  -6  -2   1  411.46  179.48
   6   2  -1  535.25  168.98
   6   2  -1  498.65   70.99
   6   2  -1  424.16  103.79
   6   2  -1  197.48  118.79
  -5  -2   1   63.39   58.19
  -5  -2   1 -113.29  102.49
   5  -2  -1   54.59   51.89
   5  -2  -1   86.79   83.39
  -5  -2   1   68.49   43.80
  -5  -2   1   98.19  101.89
   5   2  -1   75.39   37.00
   5   2  -1   14.30   72.59
   5   2  -1  -83.89  106.19
   5   2  -1  125.59   64.29
  -4  -2   1 1251.87  167.88
  -4  -2   1  589.44  135.09
  -4  -2   1  830.62   77.89
   4  -2  -1  772.12   76.99
  -4  -2   1  943.11  144.29
  -4  -2   1  781.72   73.19
   4   2  -1  732.63  100.09
   4   2  -1 1054.89  113.19
   4   2  -1  777.72  100.29
   4   2  -1  645.34  136.59
   4   2  -1  736.03   74.29
   3  -2  -1   44.40   37.70
  -3  -2   1   30.60   49.80
   3  -2  -1  -14.40   23.60
  -3  -2   1  -37.30   78.59
  -3  -2   1   33.80   30.30
  -3  -2   1   17.00   56.59
  -3  -2   1   36.40   28.90
   3  -2  -1   32.90   54.39
   3   2  -1   68.69   35.30
   3   2  -1    4.10   25.00
   3   2  -1   24.40   47.00
   3   2  -1   38.40   72.79
   3   2  -1   70.69   51.89
  -2  -2   1  110.79   26.70
   2  -2  -1  142.19   35.20
   2  -2  -1  148.59   23.70
  -2  -2   1  203.08   54.59
  -2  -2   1  228.78   73.89
  -2  -2   1  115.29   39.10
  -2  -2   1  182.58   38.70
   2   2  -1   93.59   73.49
   2   2  -1   82.19   36.90
   2   2  -1  123.49   29.10
   2   2  -1  164.48   45.20
   2   2  -1  146.09   29.40
   1  -2  -1   20.40   25.60
   1  -2  -1   20.20   27.90
  -1  -2   1   67.09   30.20
  -1  -2   1   17.60   24.30
  -1  -2   1   13.60   14.70
   1  -2  -1   21.80   18.20
   1  -2  -1   29.40   15.10
  -1  -2   1  -10.70   29.10
  -1  -2   1  121.09   60.99
   1   2  -1    7.60   17.00
   1   2  -1   97.19   54.89
   1   2  -1   61.69   28.50
   1   2  -1   26.70   15.60
   1   2  -1   26.00   25.40
  -1   2   1   27.10   25.00
   0  -2   1  145.69   37.90
   0  -2  -1   77.79   24.70
   0  -2  -1   58.09   59.39
   0  -2  -1  163.98   37.60
   0  -2   1  172.48   34.30
   0  -2  -1  151.48   40.20
   0  -2  -1  111.49   20.80
   0  -2   1  121.99   25.40
   0  -2   1  185.98   55.99
   0   2   1  123.49   18.60
   0   2   1  170.78   32.10
   0   2  -1  101.79   23.90
   0   2  -1  118.79   47.90
   0   2   1   52.59   27.10
  -1  -2  -1  280.17   76.69
   1  -2   1  175.18   33.30
  -1  -2  -1  227.18   31.80
   1  -2   1  283.57   36.00
  -1  -2  -1  207.98   44.30
   1  -2   1  174.98   39.80
   1  -2   1  266.27   52.69
  -1  -2  -1  252.97   61.99
  -1  -2  -1  209.18   36.30
   1   2   1  259.77   31.10
   1   2   1  192.28   33.00
   1   2   1  243.08   47.40
  -1   2  -1  328.77   40.30
   1   2   1  152.38   43.20
  -1   2  -1  240.68   29.60
   2  -2   1   50.79   21.00
   2  -2   1   52.39   41.60
  -2  -2  -1    0.00   81.99
  -2  -2  -1   75.79   32.50
  -2  -2  -1  -41.70   49.80
  -2  -2  -1   43.20   25.00
   2  -2   1   36.00   24.40
  -2  -2  -1   53.69   68.69
  -2   2  -1   35.00   23.40
  -2   2  -1   64.09   16.70
  -2   2  -1   53.69   19.10
   2   2   1    5.80   20.10
   2   2   1  124.49   46.20
   2   2   1  120.29   48.50
   2   2   1   -8.80   33.50
  -3  -2  -1  150.98   85.59
  -3  -2  -1   90.89   32.20
  -3  -2  -1   99.69  109.99
   3  -2   1   88.79   30.00
   3  -2   1   73.29   68.29
  -3  -2  -1  115.19   65.79
  -3  -2  -1   41.10   40.50
   3  -2   1  152.48   36.60
  -3   2  -1   94.89   19.60
   3   2   1  135.79   62.99
  -3   2  -1  135.39   39.60
   3   2   1    8.50   64.29
   3   2   1   71.89   47.40
   3   2   1  141.99   34.00
  -3   2  -1   94.29   30.70
  -4  -2  -1   70.99   36.00
   4  -2   1   47.20   32.20
  -4  -2  -1  -35.10  104.79
   4  -2   1   50.39   41.90
  -4  -2  -1   68.19   53.19
   4  -2   1   11.40   87.19
  -4  -2  -1   89.89   95.49
   4   2   1  -64.39   82.29
  -4   2  -1  -42.70   58.49
   4   2   1   63.69   36.20
  -4   2  -1  -28.10   34.10
   4   2   1   16.20   58.79
  -4   2  -1   36.80   22.00
   4   2   1  -23.90   91.79
  -5  -2  -1  521.95   73.99
   5  -2   1  461.35   80.79
   5  -2   1  634.54   84.69
  -5  -2  -1  521.75  158.28
  -5  -2  -1  712.93  173.58
  -5   2  -1  637.64   90.19
   5   2   1  524.65  148.39
   5   2   1  517.95  103.79
  -5   2  -1  742.33  110.29
   5   2   1  679.23  169.68
   5   2   1  591.64   73.79
  -6  -2  -1  158.38  189.38
  -6  -2  -1  -64.89  166.48
   6  -2   1  289.47  150.48
   6  -2   1  146.89   62.59
   6  -2   1  108.79   80.79
   6   2   1  149.59   63.19
  -6   2  -1  174.38  127.89
   6   2   1  145.19  237.58
   6   2   1   35.20   94.49
   7  -2   1  395.46   85.69
  -7  -2  -1  574.84  242.98
  -7  -2  -1  144.69  259.77
   7  -2   1  483.55  129.29
   7   2   1  423.36  136.99
   7   2   1  403.26   88.59
   8  -2   1  -59.29  107.19
   8  -2   1  192.68  152.38
   8   2   1  148.99  175.88
   8   2   1  128.29   84.59
  -7  -3   1  322.07  262.77
   7  -3  -1   62.29  111.59
  -7  -3   1 -165.58  223.68
   7   3  -1  254.17  150.68
   7   3  -1   81.09  238.88
   7   3  -1   99.69   91.99
  -6  -3   1  130.09  181.68
  -6  -3   1   81.59  212.48
   6  -3  -1  142.79   80.19
   6   3  -1   49.99  195.58
   6   3  -1  127.99   75.79
   6   3  -1  -73.69  112.89
   5  -3  -1  -61.49   90.29
   5  -3  -1   -3.50   61.49
  -5  -3   1  223.48  121.59
  -5  -3   1 -131.79   83.39
  -5  -3   1  -30.10  159.38
   5   3  -1   28.40   53.99
   5   3  -1   78.29  148.39
   5   3  -1  -92.99   78.49
  -4  -3   1  128.79   99.89
   4  -3  -1  258.07   94.39
   4  -3  -1  141.69   54.49
  -4  -3   1    7.20   58.29
  -4  -3   1   94.39   56.49
   4  -3  -1   93.49   68.49
  -4  -3   1  240.28  122.19
   4   3  -1  136.99   67.89
   4   3  -1  416.86  161.28
   4   3  -1  274.57   58.79
  -3  -3   1  182.58  104.09
  -3  -3   1  296.57   63.79
   3  -3  -1  303.67   40.70
   3  -3  -1  229.08   69.49
  -3  -3   1  233.38   48.30
  -3  -3   1  223.58   73.49
   3  -3  -1  347.87  107.99
   3   3  -1  312.37   51.19
   3   3  -1  314.87  133.19
   3   3  -1  255.17   58.29
   2  -3  -1   -0.50   28.00
  -2  -3   1  -42.90   50.39
   2  -3  -1   38.90   48.70
  -2  -3   1   86.49  121.29
  -2  -3   1   53.79   32.50
   2  -3  -1   17.80   28.30
   2  -3  -1  -19.10   22.60
  -2  -3   1   41.70   52.19
   2  -3  -1   26.40   96.29
  -2  -3   1   22.60   76.39
   2   3  -1   82.89   60.19
   2   3  -1  -19.60   34.50
   2   3  -1    0.70   33.60
   2   3  -1  -18.10   93.49
   1  -3  -1    8.20   53.79
  -1  -3   1  -33.30   60.39
   1  -3  -1   66.49   92.49
   1  -3  -1   21.40   46.20
  -1  -3   1   21.80   57.59
  -1  -3   1 -126.99   95.49
  -1  -3   1  -14.50   31.30
   1  -3  -1   30.00   25.70
  -1   3   1   48.30   31.30
   1   3  -1   38.60   28.60
   1   3  -1   -1.60   47.50
   1   3  -1   39.60   53.99
   0  -3   1   56.49   51.39
   0  -3   1  -95.49   84.79
   0  -3  -1  -41.20   29.10
   0  -3  -1  275.87  107.89
   0  -3  -1   60.19   49.00
   0  -3   1    8.60   47.60
   0  -3  -1   20.80   31.50
   0  -3   1  -23.40   32.30
   0  -3  -1   12.20   62.79
   0   3   1    1.40   43.40
   0   3  -1   39.10   38.20
   0   3  -1   51.29   44.80
   0   3   1   18.90   48.00
   0   3   1    0.40   27.00
  -1  -3  -1  358.06   73.59
  -1  -3  -1  319.37   53.29
   1  -3   1  410.86   61.89
  -1  -3  -1  360.16   89.09
  -1  -3  -1  311.67   51.69
   1  -3   1  223.58   64.49
  -1  -3  -1  328.47  137.99
   1  -3   1  286.17   95.99
   1  -3   1  274.77   53.19
   1   3   1  290.47   70.19
   1   3   1  323.97   43.90
   1   3   1  366.36   43.20
  -1   3  -1  361.36   46.30
  -1   3  -1  360.56   43.50
   1   3   1  200.38   63.89
   2  -3   1  214.18   67.09
  -2  -3  -1  144.39  103.09
  -2  -3  -1  309.77   80.79
   2  -3   1  307.47   79.79
  -2  -3  -1  270.67   52.59
   2  -3   1  316.47   74.79
   2  -3   1  324.67   55.69
  -2  -3  -1  190.38   53.49
   2   3   1  287.17   56.09
   2   3   1  297.67   48.00
  -2   3  -1  334.47   46.30
  -3  -3  -1   36.10  115.79
  -3  -3  -1   41.00   58.99
   3  -3   1   -7.60   82.49
   3  -3   1   58.09   50.99
  -3  -3  -1  146.99   53.49
   3  -3   1  167.68   85.79
  -3  -3  -1  -22.10   92.99
   3   3   1  126.89   66.69
   3   3   1   34.70   46.50
  -4  -3  -1   13.30  158.58
   4  -3   1  -10.90   47.80
  -4  -3  -1   68.29  116.69
  -4  -3  -1   12.40   65.99
   4  -3   1   71.29   53.69
   4  -3   1  -25.40  122.99
   4   3   1   56.59   51.49
   4   3   1  -13.60   76.59
   5  -3   1  410.26   78.99
  -5  -3  -1  279.57  171.58
   5  -3   1  451.65  163.78
   5  -3   1  736.83   97.69
  -5  -3  -1  519.75  209.58
  -5  -3  -1  484.85  178.98
   5   3   1  611.44  133.59
   5   3   1  569.24   82.39
   6  -3   1   11.40   74.39
   6  -3   1   28.30   98.59
  -6  -3  -1  -47.20  207.98
  -6  -3  -1    7.10  275.67
   6   3   1  267.27  139.69
   6   3   1   79.29   84.49
  -7  -3  -1  232.98  284.57
  -7  -3  -1  529.95  352.26
   7  -3   1  132.59  141.29
   7   3   1  452.45  181.58
   7   3   1  314.37  103.79
  -6  -4   1  499.45  279.17
  -6  -4   1  122.49  242.28
   6  -4  -1 -161.58  192.18
   6   4  -1  205.18  100.19
   6   4  -1  305.17  170.38
  -5  -4   1  -87.29  231.88
   5  -4  -1  -34.00  150.38
  -5  -4   1  133.09  171.48
   5   4  -1  160.68  124.69
   5   4  -1   69.29   84.79
   4  -4  -1  139.69  136.09
   4  -4  -1  343.67  138.99
  -4  -4   1  167.88  180.48
  -4  -4   1  185.68  132.89
   4   4  -1  222.58   78.79
   4   4  -1  379.06   95.69
   3  -4  -1 -168.18  159.78
   3  -4  -1   13.30  116.19
  -3  -4   1   53.09  137.99
  -3  -4   1   13.70   58.39
  -3  -4   1  158.18  107.19
   3   4  -1  -23.00   59.39
   3   4  -1   39.90   61.69
  -2  -4   1  -56.59  124.49
   2  -4  -1   -2.70   91.49
   2  -4  -1   34.00  173.38
   2  -4  -1  -28.10   58.89
   2  -4  -1   92.79  107.29
  -2  -4   1  250.17   69.79
  -2  -4   1  -35.90   86.39
   2   4  -1   22.60   54.89
   1  -4  -1   82.49  208.68
   1  -4  -1  136.59   51.59
  -1  -4   1  -77.29   62.49
   1  -4  -1  -85.59   95.99
  -1  -4   1   12.80   88.29
  -1  -4   1   23.10   99.09
   1  -4  -1    0.10  103.19
   1   4  -1   20.70   49.40
   0  -4  -1  -27.60  107.29
   0  -4  -1   30.60   86.89
   0  -4   1  112.29   89.39
   0  -4   1 -164.88  155.08
   0  -4   1   31.60   89.29
   0  -4   1  -19.00   64.09
   0   4   1   -8.90   44.80
   0   4  -1   13.70   48.00
   1  -4   1   83.19   81.99
   1  -4   1  131.39  135.79
  -1  -4  -1   93.39   55.59
  -1  -4  -1  117.29   74.79
   1  -4   1   -2.60   87.09
  -1  -4  -1   33.50   92.29
  -1  -4  -1   43.30  121.89
   1  -4   1  -11.20   74.49
  -1   4  -1   65.09   50.89
  -2  -4  -1  121.59  162.58
   2  -4   1  -60.19  128.59
  -2  -4  -1   60.39   64.49
   2  -4   1  -63.49   95.59
   2  -4   1 -168.08  114.39
   2  -4   1   81.79   77.19
  -2  -4  -1 -159.48  109.59
  -2  -4  -1   47.60   76.89
   2   4   1   80.59   55.09
  -3  -4  -1  209.68  177.78
   3  -4   1  -78.09   77.09
   3  -4   1  116.99  130.19
   3  -4   1   31.10  128.29
  -3  -4  -1  169.08  129.89
   3   4   1  114.99   60.69
   3   4   1   61.49   83.49
   4  -4   1   -7.80  151.18
  -4  -4  -1  168.88  164.18
  -4  -4  -1  237.58  219.08
   4   4   1   50.19  111.99
   4   4   1  -98.79   72.79
   5  -4   1   21.40  201.18
  -5  -4  -1  344.97  245.98
  -5  -4  -1  206.98  264.97
   5   4   1  233.48  152.18
  -2  -5   1  -11.10  149.49
   2  -5  -1 -155.68  207.68
   2  -5  -1   -5.70  175.78
  -2  -5   1  196.48  230.58
  -1  -5   1 -128.99  150.18
   1  -5  -1 -167.88  189.88
   1  -5  -1   66.49  183.88
  -1  -5   1  192.18  195.98
   0  -5   1  264.57  153.78
   0  -5   1   39.40  176.78
   0  -5  -1  222.28  210.18
   0  -5  -1  183.88  161.18
   1  -5   1  322.07  174.68
  -1  -5  -1 -151.18  222.58
  -1  -5  -1  150.78  169.58
   1  -5   1 -117.99  155.98
  -2  -5  -1  -84.19  260.57
   2  -5   1  222.98  190.48
   2  -5   1  135.49  147.19
  -2  -5  -1  200.98  179.38
   9   0  -2  -27.30  109.99
   9   0  -2  515.45  252.97
   9   0  -2    7.60   62.09
   8   0  -2  197.68  197.88
   8   0  -2  183.48   55.79
   8   0  -2  227.08  122.49
   8   0  -2   40.10   91.29
  -7   0   2  145.39  180.98
   7   0  -2  256.07   48.60
   7   0  -2  334.37  192.78
   7   0  -2  416.56   87.49
   7   0  -2  357.16   96.69
   7   0  -2  335.57  148.89
   6   0  -2 1293.87  124.79
   6   0  -2  998.90  122.69
   6   0  -2 1253.17  169.58
   6   0  -2 1224.78  193.78
  -6   0   2 1329.77  183.78
   6   0  -2 1285.57   80.09
   5   0  -2   60.09   46.90
  -5   0   2   23.20  100.19
   5   0  -2   82.59   41.90
   5   0  -2   78.79   22.60
  -5   0   2   73.29   29.20
   5   0  -2  -78.39   93.49
   5   0  -2   37.80   77.59
  -5   0   2   10.50   23.80
  -4   0   2  665.73   48.50
  -4   0   2  678.63   60.79
   4   0  -2  760.42   68.69
   4   0  -2  762.32  115.39
   4   0  -2  803.92  107.39
   4   0  -2  753.82   68.89
  -4   0   2  947.81  123.29
   4   0  -2  778.12   47.50
   3   0  -2 4541.45  206.48
   3   0  -2 5128.39  230.38
  -3   0   2 4824.62  241.28
   3   0  -2 4865.11  211.38
   3   0  -2 4595.54  198.08
   3   0  -2 4963.80  255.67
  -3   0   2 4919.71  209.68
  -3   0   2 5066.39  255.17
  -2   0   2  775.32   81.09
   2   0  -2  595.04   77.29
  -2   0   2  643.64   37.80
   2   0  -2  640.44   39.80
   1   0  -2  203.48   40.50
   1   0  -2  204.18   18.20
  -1   0   2  192.38   18.00
  -1   0   2  185.48   44.10
   1   0  -2  218.78   25.90
  -1   0   2  209.68   29.30
   0   0   2  457.85   27.80
   0   0  -2  366.66   49.10
   0   0  -2  403.46   26.60
   0   0   2  376.36   53.89
   0   0  -2  448.36   34.70
  -1   0  -2 7951.30  304.07
   1   0   2 7434.16  338.57
   1   0   2 7885.71  304.77
  -1   0  -2 8239.78  342.07
  -1   0  -2 7651.63  315.27
   1   0   2 6365.16  359.66
   1   0   2 7637.84  316.17
   2   0   2  388.66   51.69
  -2   0  -2  305.77   29.90
  -2   0  -2  299.77   43.00
  -2   0  -2  351.76   77.69
   2   0   2  279.97   68.99
   2   0   2  299.87   31.60
   2   0   2  203.68   97.89
  -2   0  -2  412.66   63.79
   3   0   2   30.20   19.20
  -3   0  -2   63.69   75.19
  -3   0  -2   39.30   30.40
   3   0   2   41.60   30.00
  -3   0  -2   68.99   19.70
   3   0   2   48.20   93.29
   3   0   2   96.29   71.29
  -3   0  -2  122.29   68.09
  -4   0  -2   69.09   26.00
   4   0   2   91.79  147.29
  -4   0  -2   74.99   42.30
   4   0   2   92.59   28.60
  -4   0  -2  104.29   82.09
   4   0   2   49.50   42.40
   4   0   2  155.08   93.89
  -4   0  -2   77.29  102.09
   5   0   2 1665.13  103.69
   5   0   2 1650.73  149.49
  -5   0  -2 1400.06  200.88
  -5   0  -2 1837.22  253.77
   5   0   2 1626.64  220.48
   6   0   2  132.89   81.69
   6   0   2  242.18   56.39
  -6   0  -2  383.16  168.38
   6   0   2  192.58  156.48
  -6   0  -2  398.26  188.08
   7   0   2   -3.10   60.79
  -7   0  -2  -43.50  225.88
   7   0   2 -109.19   92.29
   8   0   2   74.19  133.69
   8   0   2  147.19   84.19
   9  -1  -2  -47.50  258.77
   9  -1  -2  -37.50   63.59
   9  -1  -2 -171.88  115.89
   9   1  -2  -93.49  245.98
   9   1  -2  -59.89   73.99
   9   1  -2  101.79  128.99
  -8  -1   2  170.88  184.08
   8  -1  -2   84.09  111.49
   8  -1  -2  409.56  112.79
   8  -1  -2  250.97   59.49
   8  -1  -2  508.15  204.18
   8   1  -2   -6.50  207.38
   8   1  -2  320.57  116.99
  -8   1   2  171.18  321.07
   8   1  -2  361.56   71.69
   7  -1  -2  621.74  393.56
  -7  -1   2  222.48  138.69
   7  -1  -2  156.88   42.80
   7  -1  -2   89.09   77.09
   7  -1  -2   -7.70   80.19
   7  -1  -2  183.48  138.09
  -7  -1   2   37.20  191.18
   7   1  -2  209.88  105.39
  -7   1   2  493.35  183.98
   7   1  -2  -19.30   76.09
  -7   1   2  242.28  174.38
   7   1  -2  165.78   51.19
   7   1  -2   44.70  156.48
   6  -1  -2 1615.44   87.49
   6  -1  -2 1725.63  126.29
   6  -1  -2 1622.74  216.78
   6  -1  -2 1386.86  195.48
  -6  -1   2 1894.41  192.58
   6  -1  -2 1800.92  139.99
  -6  -1   2 1863.11  270.97
   6   1  -2 1717.33  208.08
   6   1  -2 1516.15  226.28
   6   1  -2 1262.97  155.58
  -6   1   2 1723.73  236.98
   6   1  -2 1760.32  150.08
   6   1  -2 1678.33  100.69
  -6   1   2 1385.56  120.69
  -5  -1   2  417.36  106.39
   5  -1  -2  314.47   48.60
   5  -1  -2  348.57   35.10
   5  -1  -2  332.27   56.09
  -5  -1   2  574.74  133.89
  -5  -1   2  331.77   50.89
   5  -1  -2  205.38  129.69
  -5  -1   2  380.16   53.59
  -5  -1   2  206.28   80.99
   5  -1  -2  240.08   88.29
  -5   1   2  246.18   42.80
   5   1  -2  236.78   81.79
   5   1  -2  352.66   62.79
   5   1  -2  414.86   50.39
   5   1  -2  412.06  111.79
   5   1  -2  421.86   79.59
  -5   1   2  485.65  131.79
   4  -1  -2 1417.56  138.19
  -4  -1   2 1446.86   83.79
  -4  -1   2 1493.15  120.89
  -4  -1   2 1131.89  155.58
   4  -1  -2 1541.15   93.19
  -4  -1   2 1390.76   89.39
  -4  -1   2 1376.86  135.39
   4   1  -2 1377.06   79.79
  -4   1   2 1602.24  181.38
   4   1  -2 1348.07  109.79
   4   1  -2 1578.54  117.19
   4   1  -2 1469.55  105.59
   4   1  -2 1363.86  158.88
   3  -1  -2  431.46   43.90
  -3  -1   2  343.57   46.40
  -3  -1   2  343.07   50.49
  -3  -1   2  359.56   42.70
  -3  -1   2  501.55   66.29
  -3  -1   2  400.36   82.19
   3  -1  -2  309.97   63.19
   3   1  -2  394.76   37.40
   3   1  -2  420.16   80.29
   3   1  -2  413.46   51.19
   3   1  -2  486.55   60.99
   3   1  -2  404.86   61.89
   2  -1  -2 4679.83  234.78
  -2  -1   2 4679.43  195.18
  -2  -1   2 4795.72  204.08
  -2  -1   2 4832.42  244.18
  -2  -1   2 4486.45  206.18
   2  -1  -2 4602.74  194.78
   2   1  -2 4890.81  243.58
   2   1  -2 4663.73  198.38
   2   1  -2 4689.63  203.78
   2   1  -2 4771.22  199.28
   2   1  -2 4479.05  202.98
   1  -1  -2 5207.68  218.68
  -1  -1   2 5408.56  248.28
   1  -1  -2 5109.89  223.88
  -1  -1   2 5251.07  220.28
  -1  -1   2 5132.09  218.98
  -1  -1   2 5019.10  220.68
   1  -1  -2 5326.07  207.88
   1   1  -2 5230.08  245.88
  -1   1   2 5400.76  207.08
  -1   1   2 5523.75  221.08
   1   1  -2 5338.57  215.78
  -1   1   2 5126.79  215.38
   1   1  -2 5195.48  217.58
   1   1  -2 5328.57  222.08
   0  -1  -2  717.43   60.09
   0  -1  -2  748.33   50.69
   0  -1   2  623.44   60.89
   0  -1   2  640.04   54.09
   0  -1   2  620.44   41.60
   0  -1  -2  694.63   65.69
   0  -1  -2  657.53   37.10
   0   1  -2  660.53   40.80
   0   1   2  607.34   35.40
   0   1  -2  641.24   39.70
   0   1   2  628.84   45.30
   0   1  -2  672.33   48.10
   0   1  -2  673.83   58.89
   0   1   2  643.24   54.79
   0   1   2  620.04   66.59
   1  -1   2 1396.06   74.29
  -1  -1  -2 1408.46  110.39
   1  -1   2 1471.25   99.59
   1  -1   2 1484.05   72.19
  -1  -1  -2 1541.85  122.19
  -1  -1  -2 1383.96  115.39
  -1  -1  -2 1409.76   70.79
  -1  -1  -2 1422.86   85.49
  -1   1  -2 1481.85   92.09
  -1   1  -2 1396.86   74.79
   1   1   2 1393.16   83.99
   1   1   2 1416.46   69.09
   1   1   2 1322.47  106.09
   1   1   2 1303.97  107.69
  -1   1  -2 1391.66   68.49
   2  -1   2  763.02   51.59
   2  -1   2  840.82   64.49
  -2  -1  -2  818.32  109.89
  -2  -1  -2  632.64   50.59
  -2  -1  -2  797.02  109.09
  -2  -1  -2  702.83  103.49
  -2  -1  -2  724.13   69.39
   2  -1   2  685.73   88.39
  -2   1  -2  757.72   62.19
  -2   1  -2 1002.20   95.39
   2   1   2  850.11  114.79
  -2   1  -2  818.52   46.00
   2   1   2  782.62   73.69
   2   1   2  732.43   49.70
   2   1   2  725.93  103.39
  -3  -1  -2 4455.85  266.77
   3  -1   2 3632.64  243.38
  -3  -1  -2 4172.28  295.97
  -3  -1  -2 4083.19  206.58
  -3  -1  -2 4323.77  257.77
   3  -1   2 4499.95  208.08
  -3  -1  -2 4124.79  187.88
   3  -1   2 4431.96  190.28
   3   1   2 4186.38  242.68
   3   1   2 4613.34  220.78
   3   1   2 4526.45  190.48
  -3   1  -2 4374.06  200.18
   3   1   2 3434.16  262.77
  -3   1  -2 4888.31  248.28
  -3   1  -2 4145.39  180.58
  -4  -1  -2   83.09   51.49
   4  -1   2    4.00   40.50
  -4  -1  -2  -31.70   28.20
  -4  -1  -2   65.69  116.89
   4  -1   2   16.20   29.50
   4  -1   2  -98.39   95.89
  -4  -1  -2  139.69  110.29
  -4  -1  -2  -18.60  134.29
   4   1   2    9.40   29.30
  -4   1  -2  131.49   98.29
  -4   1  -2   44.10   78.09
  -4   1  -2   20.20   39.20
   4   1   2  -24.10   90.49
  -4   1  -2   17.70   24.10
   4   1   2   31.40  123.49
   4   1   2   29.60   48.00
  -5  -1  -2  812.12  185.98
  -5  -1  -2  554.14  157.08
   5  -1   2  662.53  162.58
   5  -1   2  661.03   96.49
   5  -1   2  625.04   80.29
  -5  -1  -2  732.83  193.38
  -5   1  -2  814.32  168.18
   5   1   2  628.64  127.39
   5   1   2  735.23   77.69
   5   1   2  672.53  105.39
  -5   1  -2  679.63  131.99
  -6  -1  -2 -190.58  180.38
   6  -1   2   85.69   53.79
   6  -1   2 -294.17  164.18
   6  -1   2   52.29   84.89
   6   1   2 -300.07  136.89
  -6   1  -2  135.29  148.09
  -6   1  -2   89.59  181.88
   6   1   2   -9.00   53.79
   6   1   2   94.79   85.29
   7  -1   2  610.34  135.39
   7  -1   2  742.43   97.19
  -7  -1  -2  539.05  255.37
   7   1   2  655.43   90.79
   7   1   2  607.04  133.49
   8  -1   2  164.98  148.89
   8  -1   2  -13.50   92.19
   8   1   2   52.99   79.89
   8   1   2  123.89  144.79
   8  -2  -2   91.19  117.99
  -8  -2   2 -153.58  204.58
   8  -2  -2  262.07  202.08
  -8  -2   2 -174.08  260.37
   8   2  -2  333.47  137.59
   8   2  -2  189.08   77.99
   8   2  -2  151.08  215.58
   7  -2  -2  100.59  149.39
  -7  -2   2   54.89  198.88
   7  -2  -2   43.20   90.79
  -7  -2   2  188.68  187.68
   7   2  -2  135.19  171.98
   7   2  -2  180.38  106.39
   7   2  -2  403.66   73.79
   7   2  -2  197.68  140.99
  -6  -2   2 1024.20  190.48
   6  -2  -2 1018.10  160.88
  -6  -2   2 1066.69  192.88
   6  -2  -2  964.70  110.09
   6   2  -2 1067.89   94.49
   6   2  -2  782.22  122.29
   6   2  -2 1011.70  127.49
   6   2  -2  639.04  172.48
  -5  -2   2   91.29   48.80
  -5  -2   2 -107.99   89.09
  -5  -2   2   -7.50   86.29
   5  -2  -2   94.09   95.09
   5  -2  -2   75.99   48.90
  -5  -2   2  -21.90   44.10
   5   2  -2  -78.89   78.59
   5   2  -2   11.50   58.49
   5   2  -2   27.90   99.39
   5   2  -2  -35.60   97.99
   5   2  -2   81.89   36.40
  -4  -2   2  657.33   70.19
   4  -2  -2  555.64   70.29
   4  -2  -2  636.34  107.19
  -4  -2   2  440.96  129.09
  -4  -2   2  546.75   87.49
  -4  -2   2  456.85   99.29
  -4  -2   2  496.35   69.59
   4   2  -2  519.85   66.69
   4   2  -2  755.22  103.39
   4   2  -2  609.24  140.79
   4   2  -2  565.84   75.49
   4   2  -2  626.34   90.29
   3  -2  -2 3014.80  156.78
  -3  -2   2 3299.17  181.58
  -3  -2   2 3077.09  149.69
  -3  -2   2 3063.49  218.98
  -3  -2   2 3015.60  155.58
   3  -2  -2 3138.19  148.19
   3  -2  -2 2993.40  199.38
  -3  -2   2 3138.09  176.98
   3   2  -2 2924.91  223.68
   3   2  -2 3211.78  148.99
   3   2  -2 3129.09  157.98
   3   2  -2 2965.30  166.38
   3   2  -2 3121.99  169.98
  -2  -2   2  384.16   87.39
  -2  -2   2  371.16   53.69
   2  -2  -2  543.85   59.49
  -2  -2   2  414.26   47.70
  -2  -2   2  533.35   71.29
   2   2  -2  456.85   48.20
   2   2  -2  431.76   52.39
   2   2  -2  453.25   48.40
   2   2  -2  331.97   47.70
   2   2  -2  333.17   84.29
  -1  -2   2   97.79   35.30
   1  -2  -2   50.09   37.50
   1  -2  -2   83.39   16.90
   1  -2  -2   53.69   26.90
   1  -2  -2   72.39   33.20
  -1  -2   2   75.59   30.20
  -1  -2   2   52.19   62.29
  -1  -2   2   75.99   27.70
   1   2  -2   64.99   16.70
   1   2  -2   77.39   27.20
  -1   2   2   98.39   27.00
   1   2  -2   63.79   24.20
   1   2  -2   67.19   29.90
   1   2  -2   91.09   61.99
  -1   2   2   86.29   28.30
   0  -2   2  279.47   40.50
   0  -2  -2  243.68   32.10
   0  -2  -2  323.87   60.19
   0  -2   2  210.08   38.60
   0  -2   2  214.78   40.70
   0  -2  -2  315.87   51.29
   0  -2   2  263.07   64.49
   0  -2  -2  255.87   40.30
   0   2  -2  309.27   35.30
   0   2  -2  234.18   51.79
   0   2   2  280.27   35.00
   0   2  -2  264.67   38.10
   0   2   2  288.37   49.90
   0   2   2  286.27   44.70
  -1  -2  -2 4855.31  281.37
   1  -2   2 5148.49  238.78
  -1  -2  -2 4976.70  210.78
  -1  -2  -2 4959.50  225.08
   1  -2   2 4609.94  228.08
   1  -2   2 4873.21  219.68
   1  -2   2 4992.00  214.88
  -1  -2  -2 4960.70  253.97
  -1  -2  -2 4890.21  250.47
   1   2   2 4624.54  235.58
   1   2   2 4953.00  205.38
  -1   2  -2 4960.70  197.98
  -1   2  -2 4829.82  203.98
   1   2   2 4736.33  233.78
   1   2   2 4856.51  224.18
  -2  -2  -2  123.49   42.60
  -2  -2  -2  144.09   78.79
   2  -2   2  228.38   63.99
   2  -2   2  182.28   34.20
   2  -2   2  187.68   31.30
  -2  -2  -2  154.48   36.70
  -2  -2  -2  140.99   71.89
  -2  -2  -2  291.67   97.89
  -2   2  -2  181.88   41.30
   2   2   2  181.48   32.90
  -2   2  -2  163.08   25.50
   2   2   2  154.38   64.29
   2   2   2  127.19   44.30
  -2   2  -2  114.89   29.70
   2   2   2  141.59   60.79
  -3  -2  -2  187.88  149.49
  -3  -2  -2  -39.60  102.39
   3  -2   2   18.60   38.30
   3  -2   2  118.99   38.90
  -3  -2  -2   44.90   38.00
  -3  -2  -2   -6.60   89.79
   3  -2   2  227.88   87.09
  -3  -2  -2   47.70   49.80
   3   2   2   50.99   51.39
  -3   2  -2   23.80   24.40
   3   2   2  -32.90   85.99
   3   2   2  117.99   80.79
  -3   2  -2   36.90   34.70
  -3   2  -2   74.89   62.79
   3   2   2   46.20   34.20
   4  -2   2   98.49   46.50
   4  -2   2   52.89  116.39
  -4  -2  -2   62.19   43.60
   4  -2   2   17.00   51.69
  -4  -2  -2  -73.59  121.99
  -4  -2  -2  -96.39  131.99
  -4   2  -2   50.39   82.59
   4   2   2   26.70   62.89
   4   2   2   42.70   45.30
   4   2   2    7.10  109.69
  -4   2  -2  -18.90   42.00
   5  -2   2 1145.89  150.98
   5  -2   2 1187.38  113.79
  -5  -2  -2  905.11  202.28
   5  -2   2 1210.78  187.38
  -5  -2  -2 1482.75  246.58
   5   2   2 1063.09  141.49
  -5   2  -2 1051.79  122.79
  -5   2  -2 1433.06  172.78
   5   2   2 1277.77  108.29
  -6  -2  -2  -57.69  222.88
  -6  -2  -2   45.80  216.58
   6  -2   2   21.90  205.78
   6  -2   2   13.50   93.69
   6  -2   2  213.58   83.49
   6   2   2  295.77   79.49
   6   2   2  342.27  124.29
   7  -2   2   85.89   96.49
  -7  -2  -2  114.69  337.67
  -7  -2  -2 -247.28  267.97
   7  -2   2  -14.30  126.49
   7   2   2   58.89   83.09
   7   2   2   26.40  145.49
  -7  -3   2  -14.70  207.28
   7  -3  -2  276.17  134.29
  -7  -3   2 -249.58  242.58
   7  -3  -2  -17.50  114.39
   7   3  -2   14.60   74.19
   7   3  -2  -34.40  133.39
   7   3  -2 -176.88  187.38
  -6  -3   2  770.12  215.28
  -6  -3   2 1210.18  214.28
   6  -3  -2 1106.09  176.98
   6  -3  -2 1037.10  123.49
   6  -3  -2  771.32  134.99
   6   3  -2  633.64  217.48
   6   3  -2  928.41  151.18
   6   3  -2  869.01  123.69
  -5  -3   2  222.88   80.09
  -5  -3   2  285.37  157.88
   5  -3  -2  181.18   81.79
   5  -3  -2  310.97   69.99
  -5  -3   2  289.37   86.09
  -5  -3   2  152.38  120.79
   5  -3  -2  183.48  121.69
   5   3  -2  147.29  149.88
   5   3  -2  171.88   59.29
   5   3  -2  225.58   86.39
   4  -3  -2  739.33  136.29
  -4  -3   2  923.11  155.18
   4  -3  -2  751.42  113.39
   4  -3  -2  663.23   91.19
  -4  -3   2  688.53  100.89
  -4  -3   2  698.33  116.89
   4   3  -2  923.91   95.39
   4   3  -2  801.02  175.28
   4   3  -2  778.82   94.89
  -3  -3   2  174.78   76.89
   3  -3  -2  149.49   39.80
  -3  -3   2  209.58   99.79
   3  -3  -2   64.39   56.09
  -3  -3   2  -83.39  146.39
   3   3  -2   87.89  109.39
   3   3  -2   92.09   50.89
   3   3  -2  183.18   54.09
   2  -3  -2 1772.22  144.09
  -2  -3   2 1761.12  155.28
  -2  -3   2 1935.21  149.99
  -2  -3   2 1786.92  213.28
   2  -3  -2 1852.01  110.69
  -2  -3   2 1357.26  107.79
   2   3  -2 1338.57  122.69
   2   3  -2 1920.81  109.39
   2   3  -2 1797.42   97.79
   2   3  -2 1865.11  202.08
  -1  -3   2 2112.69  131.99
   1  -3  -2 2239.98  161.88
   1  -3  -2 1889.41  125.29
  -1  -3   2 2456.65  154.98
   1  -3  -2 2281.77  155.08
  -1  -3   2 2246.88  157.08
   1  -3  -2 2137.19  113.49
  -1  -3   2 2328.47  201.88
   1  -3  -2 2434.16  222.98
   1   3  -2 2283.27  129.99
  -1   3   2 2260.07  116.29
  -1   3   2 2331.77  104.29
   1   3  -2 2280.97  156.58
   1   3  -2 2439.26  124.59
   1   3  -2 2079.39  209.48
  -1   3   2 1922.41  145.99
   0  -3  -2  205.68   51.19
   0  -3   2  217.48   55.39
   0  -3  -2  168.88   78.59
   0  -3   2  141.49   54.29
   0  -3   2  293.27   62.99
   0  -3  -2  236.28   41.30
   0  -3  -2  229.18   66.19
   0  -3   2  147.09   90.89
   0  -3  -2  256.87  131.99
   0   3   2  192.28   62.09
   0   3  -2  187.88   41.70
   0   3   2  126.79   57.49
   0   3   2  276.17   36.80
   1  -3   2  471.55  104.29
   1  -3   2  651.23   78.19
  -1  -3  -2  627.14   71.49
  -1  -3  -2  532.25  114.59
   1  -3   2  579.34   88.69
  -1  -3  -2  606.34   87.69
  -1  -3  -2  354.06  156.28
   1  -3   2  404.76   75.59
  -1  -3  -2  489.55   86.19
  -1   3  -2  446.26   59.99
   1   3   2  483.45   56.79
  -2  -3  -2  206.98   66.59
   2  -3   2  346.97   68.09
   2  -3   2  300.57   83.89
  -2  -3  -2  389.66   63.39
  -2  -3  -2  494.35   99.99
  -2  -3  -2  312.77  125.89
   2  -3   2  264.97   87.99
   2   3   2  345.77   69.19
   2   3   2  368.86   53.59
  -2   3  -2  395.66   62.99
  -3  -3  -2 2166.68  186.38
   3  -3   2 2025.20  141.19
   3  -3   2 2060.39  118.49
  -3  -3  -2 2706.93  266.27
   3  -3   2 2171.68  215.58
  -3  -3  -2 1979.40  273.27
  -3  -3  -2 1941.51  136.39
   3  -3   2 2027.60  207.08
   3   3   2 2106.99  169.58
   3   3   2 2126.29  130.59
   4  -3   2   54.49   61.39
  -4  -3  -2  -48.90   68.99
  -4  -3  -2   18.10  146.89
   4  -3   2   57.19   53.59
  -4  -3  -2  315.07  179.28
   4  -3   2  -32.20  148.79
   4   3   2   10.60   94.19
  -4   3  -2  -27.60   45.50
  -4   3  -2   80.49   52.99
   4   3   2  -27.00   60.89
   5  -3   2  365.56  190.08
  -5  -3  -2  599.34  231.08
   5  -3   2  393.36   92.29
   5  -3   2  141.49   88.19
  -5  -3  -2   -5.70  223.78
   5   3   2  333.97  130.39
   5   3   2  315.37   79.69
   6  -3   2  -15.80  111.99
  -6  -3  -2  471.35  315.67
  -6  -3  -2 -110.89  235.98
   6  -3   2  172.48  103.19
   6   3   2  338.77  153.38
   6   3   2   46.60   93.39
   6  -4  -2  611.84  184.58
  -6  -4   2  518.05  216.18
  -6  -4   2  425.86  261.37
   6   4  -2  178.78  237.68
   6   4  -2  663.83  162.98
   6   4  -2  404.96  102.19
   5  -4  -2  -14.50  152.08
  -5  -4   2   -3.70  217.88
   5  -4  -2  116.49  176.18
  -5  -4   2  176.78  159.88
   5   4  -2   89.39  226.18
   5   4  -2   17.80   74.69
   5   4  -2 -239.68  103.29
  -4  -4   2  509.25  174.28
   4  -4  -2  556.24  157.08
  -4  -4   2   50.29  134.09
   4  -4  -2  346.27  171.88
   4  -4  -2  308.07   64.09
   4   4  -2  328.17   91.59
   4   4  -2  336.37  207.38
   4   4  -2  256.47   90.79
   3  -4  -2  910.91  168.78
   3  -4  -2  941.31  216.38
  -3  -4   2 1009.00  172.18
  -3  -4   2 1173.58  161.58
  -3  -4   2  846.82  120.79
   3   4  -2  665.93  207.78
   3   4  -2 1154.28  118.29
   3   4  -2 1244.38  129.89
  -2  -4   2   91.99   77.29
  -2  -4   2  139.89   96.39
   2  -4  -2  255.27  123.29
   2  -4  -2   56.89  198.28
  -2  -4   2  449.46  131.49
   2   4  -2  271.37   71.09
  -1  -4   2  108.69   83.09
  -1  -4   2  253.37  190.38
   1  -4  -2  -50.69   93.29
  -1  -4   2   82.39  100.19
   1  -4  -2  -75.69  110.59
  -1  -4   2  -20.50   86.99
   1  -4  -2   57.99   51.19
  -1   4   2   99.89   40.60
   1   4  -2   26.10   52.09
   0  -4  -2   93.59   64.39
   0  -4   2   28.80   87.49
   0  -4   2  190.18   86.59
   0  -4  -2  128.29   64.19
   0  -4   2  227.88  101.49
   0  -4  -2  142.59  131.29
   0  -4   2  105.19  149.59
   0  -4  -2  136.29  102.29
   0   4   2  113.79   45.70
   0   4  -2   59.39   53.89
   1  -4   2 2055.19  181.68
  -1  -4  -2 2067.49  148.59
  -1  -4  -2 1507.05  155.88
   1  -4   2 2759.32  244.98
   1  -4   2 1851.01  187.98
  -1  -4  -2 2425.26  269.27
  -1  -4  -2 2119.99  263.67
   1  -4   2 1873.91  257.17
  -1   4  -2 1930.51  133.09
   2  -4   2    6.40   86.49
   2  -4   2   -5.40  124.29
  -2  -4  -2  -26.50  120.79
  -2  -4  -2   39.80   85.99
   2  -4   2  -20.20  121.69
  -2  -4  -2   87.39  174.28
   2   4   2  124.29   54.19
  -3  -4  -2   17.60  155.18
  -3  -4  -2  -37.90  201.98
   3  -4   2  -64.29   91.19
   3  -4   2 -211.08  143.69
   3   4   2   51.59   98.99
   3   4   2   50.69   62.59
  -4  -4  -2 -142.69  236.38
   4  -4   2   75.49  100.19
  -4  -4  -2    8.00  200.38
   4  -4   2 -154.68  177.28
   4   4   2  176.48  133.29
  -2  -5   2  599.34  176.78
  -2  -5   2  632.94  247.28
   2  -5  -2  546.75  198.98
   1  -5  -2  810.92  213.18
  -1  -5   2  772.82  172.38
  -1  -5   2  601.14  191.88
   1  -5  -2  761.32  225.78
   0  -5  -2 -107.19  189.98
   0  -5   2  -31.00  155.38
   0  -5  -2 -197.38  216.88
   0  -5   2 -157.08  169.78
  -1  -5  -2  157.78  198.88
  -1  -5  -2  182.18  251.17
   1  -5   2  139.79  158.28
   1  -5   2  208.28  196.68
   9   0  -3  479.15   71.59
   9   0  -3  -91.79  239.08
   9   0  -3  260.57  121.49
   8   0  -3   21.40   46.10
   8   0  -3   23.40  187.18
  -8   0   3 -148.09  160.88
   8   0  -3   90.79  100.99
   8   0  -3  196.48   93.89
  -7   0   3  119.29  119.99
   7   0  -3  166.78   82.69
   7   0  -3   58.99  139.29
   7   0  -3  139.39   40.80
   7   0  -3  128.59   73.09
   7   0  -3  103.59  141.09
  -6   0   3    3.20   38.40
  -6   0   3 -146.19  125.59
  -6   0   3  104.99   85.39
   6   0  -3  161.98   56.59
   6   0  -3   73.29   28.10
   6   0  -3   -7.70   98.69
   6   0  -3  -41.60  101.39
   6   0  -3   44.90   55.19
  -5   0   3  988.10  141.89
   5   0  -3  890.71  144.39
   5   0  -3 1065.29  141.19
   5   0  -3 1063.49   64.09
  -5   0   3  931.41  140.39
   5   0  -3 1095.19   88.99
   5   0  -3 1007.90   92.89
  -4   0   3  321.97   88.09
   4   0  -3  371.06   58.89
  -4   0   3  256.97   31.80
   4   0  -3  224.48   71.49
   4   0  -3  178.88   38.50
   4   0  -3  238.68   31.70
   4   0  -3  231.48   40.10
   3   0  -3  130.69   64.69
  -3   0   3  115.79   22.40
  -3   0   3  148.99   63.79
   3   0  -3  163.58   24.50
   3   0  -3  140.79   26.40
   3   0  -3  183.08   30.10
  -2   0   3  177.98   32.10
   2   0  -3  117.49   51.59
  -2   0   3  162.78   22.90
  -2   0   3  208.48   65.79
   2   0  -3  178.08   25.40
   2   0  -3  146.59   21.30
  -1   0   3  579.34   37.00
   1   0  -3  601.64   38.50
   1   0  -3  604.64   84.79
  -1   0   3  576.34   64.09
   1   0  -3  593.94   54.29
   0   0  -3  133.19   28.00
   0   0   3   69.09   45.40
   0   0   3  119.69   19.50
   0   0   3   49.30   59.19
   0   0  -3  134.89   21.10
   0   0  -3  130.99   46.60
   1   0   3  282.07   40.90
  -1   0  -3  220.58   30.10
  -1   0  -3  312.27   43.50
   1   0   3  231.28   69.99
  -1   0  -3  209.58   64.49
   1   0   3  285.47   33.60
   1   0   3  276.87   89.49
  -2   0  -3  -29.00   57.29
   2   0   3   13.60   31.50
  -2   0  -3  -11.60   65.99
  -2   0  -3   21.30   17.80
   2   0   3   -7.60   66.99
  -2   0  -3   29.80   31.50
   2   0   3   31.10   21.90
   2   0   3  111.29  101.29
   3   0   3  202.58  124.39
   3   0   3  347.87   61.39
   3   0   3  322.97  102.89
  -3   0  -3  307.37   88.39
  -3   0  -3  313.07   52.09
   3   0   3  375.76   46.90
  -3   0  -3  376.16   42.60
  -3   0  -3  535.45  124.19
  -4   0  -3  607.84  163.58
  -4   0  -3  350.56   71.29
   4   0   3  326.77  134.59
   4   0   3  274.57   63.19
   4   0   3  352.66   48.30
  -4   0  -3  133.29  104.99
  -4   0  -3  314.27   45.50
   5   0   3  404.56   95.29
   5   0   3  555.64   69.59
   5   0   3  165.48  160.38
  -5   0  -3  498.05  183.28
  -5   0  -3  654.73  149.39
   6   0   3  167.98  178.28
   6   0   3   99.59   57.29
   6   0   3  118.09   99.49
  -6   0  -3  379.36  221.08
  -6   0  -3  176.58  187.38
   7   0   3  203.48   78.79
   7   0   3  170.28  128.99
   9  -1  -3   -9.20   58.59
   9  -1  -3   -9.00  113.19
   9  -1  -3  107.09  250.37
   9   1  -3  413.26  265.57
   9   1  -3  -71.19  118.89
   9   1  -3   75.69   71.59
   8  -1  -3  373.66  101.79
   8  -1  -3  276.27   97.49
  -8  -1   3  301.47  176.28
   8  -1  -3  410.56   56.79
   8  -1  -3  493.45  196.88
   8   1  -3  431.66   75.09
   8   1  -3  393.36  116.09
   8   1  -3  440.56  225.08
   7  -1  -3  270.17   42.00
  -7  -1   3  336.37  174.68
   7  -1  -3  286.87   91.19
  -7  -1   3  149.29  134.19
   7  -1  -3  263.67   71.59
   7  -1  -3  235.58  147.89
   7  -1  -3  308.97  201.18
   7   1  -3   88.69  162.28
   7   1  -3  315.07   56.59
  -7   1   3  749.62  221.28
   7   1  -3  174.18  132.89
   7   1  -3  214.58   98.99
   7   1  -3  208.98   82.69
   6  -1  -3  901.71   89.29
   6  -1  -3  768.92   57.39
   6  -1  -3  624.34  172.98
  -6  -1   3  701.03  152.88
  -6  -1   3  879.21  129.29
   6  -1  -3  853.51  109.39
   6  -1  -3  890.21  165.08
   6   1  -3  737.63  107.69
  -6   1   3 1023.10  196.78
   6   1  -3  742.23   74.29
   6   1  -3  742.23  158.58
   6   1  -3 1058.09  133.89
   6   1  -3  813.72  117.19
  -5  -1   3   53.39   86.89
  -5  -1   3   58.39  116.39
   5  -1  -3   61.69   33.00
   5  -1  -3   48.40   39.00
  -5  -1   3   68.09   33.30
  -5  -1   3  167.78   68.89
   5  -1  -3   56.09   18.60
   5  -1  -3   54.09   95.89
  -5  -1   3   35.70   33.50
   5  -1  -3   95.29  118.49
   5   1  -3   55.39   28.10
   5   1  -3   52.19   83.79
   5   1  -3   55.69   45.00
   5   1  -3  -13.80   52.09
  -5   1   3  178.08  122.69
   5   1  -3   72.89   58.59
  -4  -1   3   -9.10   84.49
   4  -1  -3   10.10   28.10
  -4  -1   3   43.00   49.10
  -4  -1   3   91.09   53.69
   4  -1  -3   78.59   68.59
   4   1  -3   -5.80   22.80
   4   1  -3  -12.80   41.20
   4   1  -3  -32.20   30.70
   4   1  -3   16.30   44.20
   4   1  -3   31.70   72.79
  -3  -1   3   51.99   20.50
  -3  -1   3   14.80   31.20
  -3  -1   3   93.49   29.60
  -3  -1   3   29.70   67.49
   3  -1  -3   99.79   60.79
   3   1  -3   38.70   23.00
   3   1  -3   65.39   32.50
   3   1  -3   37.00   29.20
   3   1  -3   93.69   28.80
   3   1  -3   67.89   65.99
  -2  -1   3 1331.57   75.79
   2  -1  -3 1285.27   60.49
  -2  -1   3 1380.36  129.79
  -2  -1   3 1407.16   82.09
   2  -1  -3 1266.17   75.09
  -2  -1   3 1238.88   76.19
   2   1  -3 1343.47   75.99
   2   1  -3 1197.28  131.49
   2   1  -3 1337.97   76.69
  -1  -1   3  138.49   32.60
  -1  -1   3  125.69   51.79
  -1  -1   3   90.79   23.90
   1  -1  -3   86.59   37.80
  -1  -1   3  189.38   30.80
   1  -1  -3  136.99   29.50
   1  -1  -3  107.59   17.50
   1   1  -3  154.58   27.60
   1   1  -3  203.38   60.49
  -1   1   3  116.39   23.40
  -1   1   3  110.89   46.80
  -1   1   3  113.19   17.30
   1   1  -3   86.49   25.00
   0  -1  -3    8.80   44.80
   0  -1  -3   -7.50   20.90
   0  -1   3    4.00   19.50
   0  -1  -3  108.09   44.90
   0  -1   3    7.70   38.30
   0  -1  -3  -10.90   12.90
   0  -1   3  -34.90   41.20
   0   1   3  -10.20   12.40
   0   1  -3    8.50   19.60
   0   1   3  -42.90   31.30
   0   1  -3   27.30   30.70
   0   1   3    8.10   48.30
   0   1  -3  -33.00   51.19
   0   1  -3    9.40   17.10
  -1  -1  -3 -110.39   60.19
   1  -1   3    8.20   56.89
  -1  -1  -3   50.89   27.40
   1  -1   3   69.79   21.90
   1  -1   3   80.49   26.30
  -1  -1  -3   92.79   23.70
  -1  -1  -3   57.89   58.19
   1   1   3   19.20   57.29
  -1   1  -3   50.29   27.50
  -1   1  -3   73.39   21.40
   1   1   3   42.30   27.20
  -1   1  -3  137.59   47.00
   1   1   3   56.49   19.40
  -1   1  -3  125.99   49.00
   1   1   3   45.60   48.60
  -2  -1  -3 1297.27  148.89
  -2  -1  -3  882.71  140.59
   2  -1   3 1248.48   85.99
  -2  -1  -3 1067.39  138.59
   2  -1   3 1033.50  128.69
   2  -1   3 1167.88   74.99
  -2  -1  -3 1009.10   70.09
  -2  -1  -3 1069.29   89.69
   2   1   3  955.20  144.79
  -2   1  -3 1046.40   63.29
   2   1   3 1135.99   67.99
   2   1   3 1036.70   93.29
  -2   1  -3 1154.78   81.79
  -2   1  -3 1274.07  130.09
  -2   1  -3 1134.09   81.59
   2   1   3 1138.59  137.89
  -3  -1  -3  558.34   59.69
   3  -1   3  725.63   91.79
  -3  -1  -3  778.02  126.49
  -3  -1  -3  555.54  141.59
   3  -1   3  627.64   65.79
  -3  -1  -3  472.85  118.89
   3  -1   3  427.86  117.09
  -3  -1  -3  624.14   90.49
  -3   1  -3  803.42  127.99
   3   1   3  433.36   98.89
  -3   1  -3  650.63   89.19
  -3   1  -3  526.05   49.80
   3   1   3  387.26  115.69
  -3   1  -3  735.83   79.59
   3   1   3  604.24   84.99
   3   1   3  684.13   61.59
   4  -1   3  455.65  151.38
  -4  -1  -3  421.06  159.28
   4  -1   3  527.25   64.79
  -4  -1  -3  466.25  144.29
  -4  -1  -3  274.47  147.79
  -4  -1  -3  474.65   60.99
   4  -1   3  452.55   79.09
  -4   1  -3  494.05   93.09
  -4   1  -3  310.37  125.29
   4   1   3  372.96   77.59
   4   1   3  316.07  114.39
   4   1   3  384.56   54.19
  -4   1  -3  494.05   70.29
   5  -1   3  -32.80  159.48
  -5  -1  -3   33.90  181.18
   5  -1   3  -16.70   72.49
   5  -1   3   -3.50   49.10
  -5   1  -3   26.00  150.88
   5   1   3   10.30   46.70
   5   1   3  -36.80   70.59
  -5   1  -3   15.10  120.09
   5   1   3 -228.28  141.59
   6  -1   3 1047.20  152.28
  -6  -1  -3  601.74  263.17
   6  -1   3 1053.09  130.89
   6   1   3  882.71  238.48
  -6   1  -3 1201.28  234.08
   6   1   3 1134.99  115.69
   6   1   3 1069.49  152.48
  -7  -1  -3 -219.18  257.57
   7  -1   3   -0.50  119.79
   7  -1   3   28.50   89.09
   7   1   3  192.68  133.29
   7   1   3   32.40   74.09
  -9  -2   3  143.09  331.37
   9  -2  -3  459.05  416.06
   9  -2  -3  496.75  155.18
   9   2  -3  407.76   96.69
   9   2  -3  228.98  285.77
   9   2  -3  411.66  168.38
   8  -2  -3 -404.96  194.18
   8  -2  -3   75.39  114.19
  -8  -2   3  191.58  258.27
  -8  -2   3   56.79  205.38
   8   2  -3  221.98   67.19
   8   2  -3  -50.59  212.28
   8   2  -3  -86.19  122.09
  -7  -2   3  119.99  184.38
   7  -2  -3  272.47  177.38
   7  -2  -3   96.49   86.09
  -7  -2   3  104.79  168.48
   7  -2  -3 -128.59  380.56
   7   2  -3    8.90   98.09
   7   2  -3  122.29   58.49
   7   2  -3  207.28  123.49
   7   2  -3  146.89  179.68
   6  -2  -3  -60.29  126.29
   6  -2  -3   44.20   61.09
  -6  -2   3   14.40  115.99
  -6  -2   3  180.98  126.39
   6   2  -3   61.89   70.59
   6   2  -3  -48.20   94.99
   6   2  -3   72.59  146.19
   6   2  -3  126.79   45.40
  -5  -2   3  450.85  103.39
  -5  -2   3  782.62  112.69
  -5  -2   3  711.43   87.19
   5  -2  -3  736.33   93.79
  -5  -2   3  779.92   94.49
   5  -2  -3  946.11  139.99
   5   2  -3  577.34   89.09
   5   2  -3  606.24  156.88
   5   2  -3  583.34   84.99
   5   2  -3  609.54   99.29
   5   2  -3  756.12   76.89
  -4  -2   3   67.29   91.09
   4  -2  -3  136.89   36.70
  -4  -2   3  139.89   68.29
   4  -2  -3  202.58   44.30
   4  -2  -3  182.58   95.19
  -4  -2   3  -58.19  126.19
   4   2  -3  161.68   42.80
   4   2  -3  132.89   57.89
   4   2  -3  244.58   58.59
   4   2  -3  204.38   62.79
   4   2  -3  239.28  115.19
  -3  -2   3   58.89   42.30
  -3  -2   3   -3.50   88.29
   3  -2  -3   95.49   33.90
  -3  -2   3   74.39   27.90
  -3  -2   3   60.89   50.99
   3   2  -3   95.89   43.90
   3   2  -3  156.78   88.79
   3   2  -3  120.99   36.60
   3   2  -3   96.69   40.50
   3   2  -3  145.89   40.70
  -2  -2   3   77.69   40.90
  -2  -2   3  -53.59   73.39
  -2  -2   3  114.19   46.50
   2  -2  -3   97.09   36.50
  -2  -2   3   68.79   38.50
   2   2  -3  130.49   29.30
   2   2  -3   34.40   75.39
  -2   2   3   91.29   34.10
   2   2  -3  133.39   41.40
   2   2  -3   74.19   31.40
   2   2  -3   94.69   32.70
  -1  -2   3  327.17   56.99
  -1  -2   3  287.47   46.90
   1  -2  -3  290.57   44.60
  -1  -2   3  325.67   52.99
   1  -2  -3  352.46   33.30
  -1  -2   3  315.47   79.79
   1  -2  -3  378.56   66.69
   1  -2  -3  418.46   58.39
  -1   2   3  336.77   33.50
  -1   2   3  403.16   51.99
   1   2  -3  330.67   45.90
   1   2  -3  380.86   54.59
  -1   2   3  514.75   62.99
   1   2  -3  305.17   79.79
   1   2  -3  373.36   38.90
   0  -2  -3  137.99   67.19
   0  -2   3   60.99   46.00
   0  -2   3   95.09   37.40
   0  -2  -3   11.70   45.80
   0  -2   3   14.20   55.79
   0  -2   3   84.29   38.80
   0  -2  -3   43.40   36.30
   0  -2  -3   89.59   23.30
   0   2   3   78.49   38.70
   0   2  -3   73.39   22.50
   0   2  -3   74.89   27.40
   0   2   3   72.19   54.59
   0   2  -3   60.19   29.00
   0   2  -3  154.88   53.69
   1  -2   3  107.79   60.99
  -1  -2  -3  199.48   75.69
  -1  -2  -3  268.47  104.29
  -1  -2  -3  136.09   84.99
   1  -2   3  217.58   44.50
  -1  -2  -3  188.58   34.60
  -1  -2  -3  181.88   46.40
   1   2   3  193.08   73.39
  -1   2  -3  144.99   28.90
   1   2   3  218.98   32.50
  -1   2  -3  208.98   33.10
   1   2   3  133.29   51.69
  -1   2  -3  246.38   45.90
   1   2   3  197.68   45.90
  -2  -2  -3   85.59   93.09
   2  -2   3  -27.80   76.99
  -2  -2  -3   90.39   89.09
  -2  -2  -3  -24.00   31.20
  -2  -2  -3  -25.00  114.59
   2  -2   3  -22.60   31.90
  -2  -2  -3   76.09   47.90
   2  -2   3   16.00   32.80
  -2   2  -3   57.99   25.10
   2   2   3 -154.28   82.29
   2   2   3  -37.00   72.69
  -2   2  -3   11.70   34.60
   2   2   3    3.60   46.00
   2   2   3   31.80   35.20
  -2   2  -3   37.00   48.10
   3  -2   3  220.48   50.49
  -3  -2  -3  297.57   54.39
   3  -2   3   97.39  115.89
  -3  -2  -3  338.07  131.59
  -3  -2  -3  104.09   67.79
  -3  -2  -3   73.59  106.99
   3  -2   3  254.87   52.19
   3   2   3  167.68   66.79
  -3   2  -3  185.68   46.30
   3   2   3  279.77  118.69
   3   2   3  178.18   43.80
  -4  -2  -3  335.97  174.98
  -4  -2  -3  234.88   66.29
  -4  -2  -3  316.97  176.88
   4  -2   3  308.07  152.38
   4  -2   3  295.77   66.89
   4  -2   3  296.77   73.89
  -4   2  -3  638.24  146.79
  -4   2  -3  261.87   62.59
   4   2   3  232.38   54.99
   4   2   3  331.37  100.19
   5  -2   3  610.14   90.29
   5  -2   3  353.86  184.78
   5  -2   3  240.48   90.39
  -5  -2  -3  222.78  194.68
  -5  -2  -3  508.15  218.38
   5   2   3  324.77   70.89
   5   2   3  368.56  118.49
  -5   2  -3  598.44  160.38
   6  -2   3   48.00  113.19
  -6  -2  -3  158.58  277.27
   6  -2   3  -19.70   86.19
  -6  -2  -3  368.86  303.67
   6   2   3  -10.50  122.69
   6   2   3   52.89   82.09
   7  -2   3  139.29  122.69
   7  -2   3 -164.08  146.49
  -7  -2  -3  -95.69  345.77
   7   2   3  223.28  178.58
   7   2   3  238.58   98.99
   8  -3  -3  253.77  170.48
   8  -3  -3   91.99  145.89
  -8  -3   3  585.44  303.37
  -8  -3   3   85.29  303.67
   8   3  -3  489.85  176.58
   8   3  -3  232.08  272.47
   8   3  -3  226.58   97.89
  -7  -3   3  303.27  213.88
   7  -3  -3  238.68  120.69
   7  -3  -3  176.38  112.69
  -7  -3   3  -15.00  245.88
   7  -3  -3  302.67  228.08
   7   3  -3  -91.39  191.08
   7   3  -3  257.97  143.49
   7   3  -3   85.99   73.49
   6  -3  -3  459.45   98.39
   6  -3  -3  295.77  100.29
  -6  -3   3  356.86  170.68
  -6  -3   3  205.38  153.08
   6  -3  -3  198.98  191.18
   6   3  -3  539.65  120.09
   6   3  -3  415.56   80.89
   6   3  -3  120.89  172.58
   5  -3  -3  -20.30   69.49
  -5  -3   3  -43.80  107.89
   5  -3  -3  133.59   66.39
  -5  -3   3  -78.99  115.69
   5  -3  -3  -44.90  128.89
   5   3  -3  -35.70  158.68
   5   3  -3  176.88   80.59
   5   3  -3  -66.59   49.80
   4  -3  -3  -74.39  121.69
  -4  -3   3  -73.89   93.29
   4  -3  -3  -47.00   45.00
  -4  -3   3   96.79   88.39
  -4  -3   3   88.59   46.40
   4  -3  -3   62.29   61.79
   4   3  -3   52.99  130.29
   4   3  -3  -64.69   55.79
   4   3  -3   27.70   52.99
  -3  -3   3    4.60   64.49
  -3  -3   3   37.40   44.70
   3  -3  -3   84.49   36.90
   3  -3  -3   11.80   64.09
  -3  -3   3   51.89   81.29
  -3  -3   3  131.09  159.88
   3   3  -3   33.10   46.40
   3   3  -3  -65.79  114.89
   3   3  -3   14.80   46.00
  -2  -3   3  458.25  135.69
  -2  -3   3  519.05   89.19
  -2  -3   3  525.15   79.59
   2  -3  -3  500.35   79.19
   2  -3  -3  512.85   66.59
  -2  -3   3  766.42  116.89
   2   3  -3  563.44   80.39
   2   3  -3  472.05   59.19
   2   3  -3  574.74  136.09
   1  -3  -3   82.49   52.19
  -1  -3   3  -26.30   52.39
   1  -3  -3   34.80   76.89
  -1  -3   3   36.30   61.39
  -1  -3   3   30.20   52.19
   1  -3  -3    1.30   59.09
  -1  -3   3   93.09  103.19
   1  -3  -3   75.19   31.10
  -1   3   3   57.69   48.40
   1   3  -3   17.40   46.80
   1   3  -3  176.48  106.49
  -1   3   3   39.10   53.49
  -1   3   3   15.50   27.90
   0  -3   3   18.10   73.79
   0  -3  -3  -59.19   65.19
   0  -3  -3   53.69  159.38
   0  -3  -3  167.38   93.49
   0  -3  -3  -18.30   33.20
   0  -3   3  -48.90   73.99
   0  -3   3   34.70   90.59
   0  -3  -3  -41.20   53.09
   0  -3   3   35.80   60.39
   0   3   3  153.78   67.89
   0   3  -3  -38.00   91.69
   0   3  -3   51.09   46.20
   0   3   3   18.10   29.30
   1  -3   3   40.40   57.39
   1  -3   3 -175.68   76.19
  -1  -3  -3   78.59   62.69
  -1  -3  -3   91.29   45.70
  -1  -3  -3   29.10  111.09
   1  -3   3    8.70   67.59
  -1  -3  -3   34.20   75.39
   1   3   3    5.30   31.30
   2  -3   3  572.74   84.79
  -2  -3  -3  403.76  131.69
  -2  -3  -3  353.26  153.88
  -2  -3  -3  386.76   91.69
   2  -3   3  342.87  116.39
   2  -3   3  474.15  102.09
  -2  -3  -3  467.75   77.69
   2   3   3  611.74   66.19
   2   3   3  406.56   85.19
  -3  -3  -3  124.69  135.19
  -3  -3  -3  373.26  175.28
   3  -3   3  225.68  146.79
   3  -3   3  495.25   82.49
  -3  -3  -3  229.18   68.79
   3   3   3  429.26   69.09
  -3   3  -3  393.96   75.39
  -3   3  -3  356.76   52.89
   3   3   3  350.86   98.89
  -4  -3  -3  176.58   87.29
  -4  -3  -3  267.07  219.78
   4  -3   3  109.79   84.29
   4  -3   3  259.77   76.89
  -4  -3  -3  -21.70  178.28
   4  -3   3  250.67  184.08
   4   3   3  210.08   69.99
   4   3   3  115.79  103.79
   5  -3   3 -178.68   89.19
   5  -3   3   -6.70   93.89
  -5  -3  -3  -84.79  265.57
  -5  -3  -3  -22.00  224.58
   5   3   3  144.99  123.29
   5   3   3  -12.30   75.29
   6  -3   3  362.06  134.99
   6  -3   3  423.16  129.59
  -6  -3  -3  138.69  344.07
  -6  -3  -3  648.04  349.37
   6   3   3  750.32  185.08
   6   3   3  494.55  109.59
  -6  -4   3  -92.79  248.28
   6  -4  -3 -102.79  173.08
  -6  -4   3   80.79  203.88
   6   4  -3   93.39  100.59
   6   4  -3 -151.38  143.89
   6   4  -3  494.75  268.37
   5  -4  -3  433.96   95.99
  -5  -4   3  457.95  180.18
   5  -4  -3  116.49  195.38
  -5  -4   3  217.18  207.38
   5  -4  -3  534.15  177.48
   5   4  -3  255.47   98.69
   5   4  -3  153.88  107.49
   5   4  -3  272.17  230.68
   4  -4  -3   10.00  185.78
  -4  -4   3  -63.09  162.98
   4  -4  -3  161.28  146.69
   4  -4  -3  146.49   67.49
  -4  -4   3   -8.40  131.59
   4   4  -3   90.89  207.28
   4   4  -3   91.29   82.79
   4   4  -3   54.69   80.79
  -3  -4   3  132.89  135.59
   3  -4  -3   53.39   57.49
  -3  -4   3  185.78  117.29
   3  -4  -3 -199.68  131.19
   3   4  -3  -60.29   77.09
   3   4  -3   24.00   49.60
   3   4  -3   95.49  190.88
   2  -4  -3  -53.19   72.19
  -2  -4   3   -4.80   86.59
  -2  -4   3  -35.60  110.79
   2  -4  -3   62.79  109.69
  -2  -4   3   80.29  104.19
   2   4  -3   22.00   64.39
   2   4  -3  115.89  172.78
  -1  -4   3   87.49  194.08
   1  -4  -3   30.30  113.39
  -1  -4   3   -7.00   88.09
  -1  -4   3   46.40  105.39
   1  -4  -3   57.19  130.99
   1  -4  -3  100.79   57.59
   1  -4  -3  107.99   71.49
  -1  -4   3  124.29  100.49
   1   4  -3  191.88   66.49
   0  -4   3  -27.10   99.19
   0  -4  -3  -14.40  118.29
   0  -4   3  -64.69   98.99
   0  -4  -3  124.49   77.59
   0  -4  -3  111.89   69.09
   0  -4  -3 -196.98  140.89
   0  -4   3   31.60  154.18
   0  -4   3   57.89   97.99
   0   4   3   65.09   47.10
  -1  -4  -3  -77.89  129.29
  -1  -4  -3  132.39  170.18
   1  -4   3   22.30  123.59
  -1  -4  -3 -128.59   92.69
   1  -4   3  133.89   99.99
   1  -4   3 -125.99  160.48
   2  -4   3  -36.30  141.89
  -2  -4  -3  113.39  208.88
  -2  -4  -3   75.19  155.08
   2  -4   3 -218.08   97.39
   3  -4   3   68.49  167.78
  -3  -4  -3  422.66  247.68
  -3  -4  -3  -75.59  184.18
   3  -4   3   31.70  110.39
   3   4   3  121.69  111.79
  -4  -4  -3  644.04  300.87
   4  -4   3  142.39  203.88
   4  -4   3   49.40  117.89
  -4  -4  -3  358.06  235.68
   4   4   3  241.08  154.98
   2  -5  -3    2.10  205.28
  -2  -5   3  -92.99  191.08
   2  -5  -3   32.40  209.28
  -2  -5   3   22.70  167.78
   1  -5  -3  173.18  210.98
   1  -5  -3   56.69  233.48
  -1  -5   3  306.87  182.08
  -1  -5   3  254.57  163.78
   0  -5   3   91.09  183.28
   0  -5  -3    9.00  183.78
   0  -5   3  105.19  173.28
   0  -5  -3  543.05  243.98
   9   0  -4  -48.70   55.69
   9   0  -4 -163.68   96.89
   9   0  -4 -253.37  236.58
   8   0  -4   32.00   42.80
  -8   0   4  -60.29  151.38
   8   0  -4  -73.79   87.79
   8   0  -4   31.30   83.39
   8   0  -4   37.30  183.08
   8   0  -4   58.29  153.58
  -7   0   4  675.83  129.59
   7   0  -4  893.31  192.78
   7   0  -4  823.52   73.89
   7   0  -4  711.03  120.49
   7   0  -4  670.93   92.49
   7   0  -4  692.03  105.19
   6   0  -4  -12.90   73.09
   6   0  -4   16.80   51.59
   6   0  -4    4.10   50.39
   6   0  -4 -158.28  104.99
  -6   0   4  178.78  147.59
   6   0  -4   70.89   30.40
  -6   0   4  189.18   79.09
   5   0  -4  267.67   50.19
   5   0  -4  218.68   47.60
   5   0  -4  346.17  128.99
  -5   0   4  224.08   36.70
   5   0  -4  288.67   38.00
  -5   0   4    8.50  103.29
  -5   0   4  235.08   65.29
   4   0  -4   86.79   30.60
  -4   0   4   80.49   28.10
  -4   0   4  179.88   92.19
   4   0  -4   -8.10   79.49
   4   0  -4   82.19   33.30
   4   0  -4   82.29   26.30
   3   0  -4 3785.42  166.68
  -3   0   4 3826.72  237.18
  -3   0   4 3919.71  169.68
   3   0  -4 3849.81  165.68
   3   0  -4 3757.62  238.28
  -3   0   4 3698.73  177.18
   2   0  -4  573.34   99.99
   2   0  -4  518.15   55.59
   2   0  -4  574.04   44.60
  -2   0   4  529.95   70.99
  -2   0   4  561.24   42.50
   1   0  -4   24.90   37.30
  -1   0   4   -4.50   17.40
  -1   0   4   69.99   49.40
   1   0  -4   40.40   19.40
  -1   0   4   95.09   59.09
   1   0  -4   51.69   63.19
   0   0  -4   -5.00   25.10
   0   0   4   42.10   20.30
   0   0   4   62.79   76.79
   0   0  -4   13.80   20.20
   0   0   4    4.90   53.99
   0   0  -4  122.69   57.69
  -1   0  -4 3130.99  199.08
   1   0   4 2397.26  197.78
  -1   0  -4 2907.91  151.28
  -1   0  -4 2844.02  131.99
   1   0   4 2800.42  152.38
   1   0   4 3119.99  137.79
   1   0   4 2477.85  232.58
   2   0   4 1383.96  188.98
   2   0   4 1365.36  181.68
  -2   0  -4 1570.24   86.09
   2   0   4 1564.94   93.99
  -2   0  -4 1644.94  109.49
  -2   0  -4 1676.83  180.28
   2   0   4 1463.35  113.29
   3   0   4  238.98  124.09
  -3   0  -4  388.56  100.69
   3   0   4  139.69   52.99
   3   0   4  282.47  178.78
  -3   0  -4  344.17  135.29
  -3   0  -4  228.88   63.69
   3   0   4  190.98   46.70
  -3   0  -4  256.27   43.30
   4   0   4  241.68   74.09
  -4   0  -4  378.06  171.28
   4   0   4  360.76  165.28
  -4   0  -4  625.54  136.49
   4   0   4  260.97   59.19
  -5   0  -4  252.67  194.58
   5   0   4  299.87  182.68
   5   0   4  198.18   86.59
  -5   0  -4  -57.69  157.28
   5   0   4  228.88   64.09
  -6   0  -4  568.54  266.97
   6   0   4  508.75  125.09
   6   0   4  354.46   83.59
   7   0   4  226.98  146.09
   7   0   4 -100.39   82.49
   9  -1  -4  724.53  146.99
   9  -1  -4  453.75  253.07
   9  -1  -4  386.46   69.49
   9   1  -4  766.12  262.57
   9   1  -4  593.54   85.79
   9   1  -4  462.05  144.69
   8  -1  -4    8.60   80.49
   8  -1  -4  145.39   43.20
   8  -1  -4  -94.49  213.08
   8  -1  -4   30.90   91.09
   8  -1  -4 -115.49  192.08
  -8  -1   4  534.95  160.78
   8   1  -4  -44.20  152.28
   8   1  -4 -121.79  195.88
   8   1  -4  116.89   53.99
   8   1  -4   38.60   87.59
  -7  -1   4  672.83  181.28
  -7  -1   4  680.53  142.99
   7  -1  -4  838.12  104.59
   7  -1  -4  859.21  178.58
   7  -1  -4  541.25  173.98
   7  -1  -4  796.32   66.79
   7  -1  -4  720.63  108.99
   7   1  -4  468.45  111.39
   7   1  -4  719.73  113.79
   7   1  -4  947.31  128.49
   7   1  -4  793.62   87.69
   7   1  -4  645.84  182.48
   6  -1  -4  221.08  130.09
   6  -1  -4  346.67  127.59
  -6  -1   4  216.48   88.49
   6  -1  -4  224.18   59.59
  -6  -1   4  395.46  135.69
   6  -1  -4  292.37   49.20
   6  -1  -4  278.67   34.10
   6   1  -4  341.67   53.09
  -6   1   4  372.26  182.18
   6   1  -4  396.36   79.69
   6   1  -4  285.27   70.49
   6   1  -4  216.28   73.79
   6   1  -4  232.68  118.39
  -5  -1   4 2738.73  169.88
   5  -1  -4 2415.46  226.98
  -5  -1   4 2437.96  249.78
  -5  -1   4 2814.32  206.38
  -5  -1   4 2291.87  128.59
   5  -1  -4 2659.63  150.88
   5  -1  -4 2545.25  120.39
   5   1  -4 2526.55  154.78
   5   1  -4 2572.54  133.39
   5   1  -4 2265.67  239.18
   5   1  -4 2512.95  155.68
  -4  -1   4  435.16   61.99
  -4  -1   4  443.66   54.99
   4  -1  -4  489.85  102.49
  -4  -1   4  479.05   69.69
  -4  -1   4  449.06  110.29
   4  -1  -4  473.65   64.39
   4  -1  -4  496.15   42.30
   4   1  -4  581.04   67.69
   4   1  -4  449.16   58.59
   4   1  -4  501.05   56.59
   4   1  -4  276.97  105.99
   4   1  -4  387.26   56.69
  -3  -1   4 2202.68  177.28
  -3  -1   4 1994.90  114.09
   3  -1  -4 2146.49  103.89
  -3  -1   4 2294.37  113.19
   3  -1  -4 2122.89   98.49
   3  -1  -4 2208.58  185.48
  -3  -1   4 2176.28  122.89
   3   1  -4 2114.89  200.98
  -3   1   4 2145.39  135.79
   3   1  -4 2304.57  118.39
   3   1  -4 2277.37  113.09
   3   1  -4 2105.59  116.09
   3   1  -4 2204.38  118.39
  -2  -1   4  245.18   48.70
   2  -1  -4  253.47   31.00
  -2  -1   4  230.98   71.99
   2  -1  -4  333.37   49.90
  -2  -1   4  303.57   44.20
  -2  -1   4  296.77   43.80
   2   1  -4  385.86   47.50
   2   1  -4  268.67   39.90
   2   1  -4  311.27   96.09
  -2   1   4  284.37   30.80
  -2   1   4  281.67   67.39
   1  -1  -4 3270.17  182.68
   1  -1  -4 3242.68  182.98
  -1  -1   4 3206.68  198.38
  -1  -1   4 3270.57  176.78
   1  -1  -4 3347.87  161.58
  -1  -1   4 3295.27  153.58
   1  -1  -4 3237.88  143.19
  -1   1   4 3049.79  190.18
   1   1  -4 3631.14  165.08
   1   1  -4 3421.86  223.98
   1   1  -4 3216.68  149.39
  -1   1   4 3240.68  152.88
   0  -1  -4 4044.90  176.78
   0  -1  -4 3675.63  240.28
   0  -1  -4 4075.49  194.88
   0  -1   4 4082.89  182.18
   0  -1  -4 3967.50  228.28
   0  -1   4 3624.44  216.98
   0   1  -4 4375.56  209.18
   0   1  -4 4256.57  186.18
   0   1   4 4376.26  176.48
   0   1  -4 4206.48  234.28
   0   1   4 4259.27  209.48
   0   1   4 3746.13  230.78
   0   1  -4 3827.92  176.48
  -1  -1  -4  223.98   89.79
  -1  -1  -4  303.47  109.09
  -1  -1  -4  305.77   46.80
   1  -1   4  310.87   44.60
   1  -1   4  397.26   99.59
  -1  -1  -4  334.37   42.90
   1  -1   4  484.05   56.79
  -1   1  -4  338.77   40.30
  -1   1  -4  458.75   88.99
   1   1   4  359.76   85.69
   1   1   4  301.17   50.09
  -1   1  -4  328.67   47.60
   1   1   4  364.86   44.20
   1   1   4  280.07   81.09
  -1   1  -4  609.84   91.89
  -2  -1  -4  208.18  106.79
  -2  -1  -4  338.07   44.00
  -2  -1  -4  317.17   59.19
   2  -1   4  314.27   55.09
  -2  -1  -4  308.27  111.99
  -2  -1  -4  464.15  135.69
   2  -1   4  575.54  127.99
   2  -1   4  522.65   60.99
   2   1   4  369.36  123.09
  -2   1  -4  335.17   46.40
  -2   1  -4  523.85   73.19
  -2   1  -4  548.35  110.89
   2   1   4  429.36   49.30
  -2   1  -4  542.15  101.39
   2   1   4  356.46   61.39
   2   1   4  407.26   98.39
   3  -1   4  348.67  134.19
  -3  -1  -4  672.83  173.98
   3  -1   4  364.36   55.69
  -3  -1  -4  401.06   50.99
  -3  -1  -4  293.67  145.49
  -3  -1  -4  428.26  125.79
   3  -1   4  314.87   65.29
  -3   1  -4  641.14  146.79
  -3   1  -4  528.05   89.19
   3   1   4  226.48  148.49
   3   1   4  369.66   54.89
   3   1   4  323.17   67.49
  -3   1  -4  399.96   62.59
   3   1   4  373.46  146.49
  -4  -1  -4 2359.16  304.97
   4  -1   4 2365.86  300.97
   4  -1   4 1933.21  164.48
  -4  -1  -4 1833.02  127.79
   4  -1   4 2163.58  138.99
   4   1   4 1405.46  205.68
  -4   1  -4 1945.51  231.98
   4   1   4 1919.81  128.19
   4   1   4 2008.60  181.38
  -4   1  -4 2170.78  178.48
   5  -1   4  -37.80   57.49
   5  -1   4 -160.78   74.49
   5  -1   4 -127.29  186.78
  -5  -1  -4   20.30  195.08
   5   1   4  -13.70   60.19
   5   1   4  148.59  220.28
  -5   1  -4 -239.38  189.98
  -5   1  -4  122.79  136.59
   5   1   4 -100.59   82.59
   6  -1   4  211.88  122.79
  -6  -1  -4  -26.20  256.77
   6  -1   4  246.68   88.39
   6   1   4  164.28   79.99
   6   1   4  280.87  116.59
  -9  -2   4  146.69  348.67
   9  -2  -4   -7.90  134.39
   9  -2  -4  -67.79  268.97
   9   2  -4  430.16  292.17
   9   2  -4  520.05  168.68
   9   2  -4    4.00   72.69
  -8  -2   4   17.80  250.27
   8  -2  -4  -11.60  105.19
  -8  -2   4   31.40  190.38
   8  -2  -4    4.50  227.78
   8   2  -4 -213.48  219.68
   8   2  -4  -95.59   65.89
   8   2  -4   63.19  130.49
  -7  -2   4  620.54  195.08
   7  -2  -4  618.04  192.98
   7  -2  -4  753.12  112.79
   7  -2  -4   65.99  244.68
  -7  -2   4  391.66  172.48
   7   2  -4  587.54   81.09
   7   2  -4  535.85  116.29
   7   2  -4  468.85  103.79
   7   2  -4  457.45  209.38
  -6  -2   4   71.69  113.69
   6  -2  -4   -1.00  144.79
   6  -2  -4   51.39   58.89
  -6  -2   4   -6.40  118.99
   6  -2  -4   23.30   54.49
   6   2  -4  -37.70   93.39
   6   2  -4   62.19   48.20
   6   2  -4  112.09  162.68
   6   2  -4   16.10   82.79
   6   2  -4  177.48   82.59
   5  -2  -4  158.48   49.70
  -5  -2   4  186.78   49.80
  -5  -2   4  268.37   84.19
   5  -2  -4  190.48  111.89
  -5  -2   4  167.28   94.09
   5  -2  -4  182.98   47.30
   5   2  -4  117.89   67.29
   5   2  -4  285.37   52.89
   5   2  -4  166.28  125.69
   5   2  -4  188.98   72.19
   5   2  -4  220.18   63.89
  -4  -2   4  154.38  135.79
   4  -2  -4   88.59   36.10
  -4  -2   4   16.60   34.00
  -4  -2   4   55.69   76.39
   4  -2  -4  -27.70   93.09
  -4  -2   4   17.80   56.29
   4  -2  -4   54.79   39.10
   4   2  -4   36.50  110.69
   4   2  -4   43.20   37.50
   4   2  -4   58.69   47.40
   4   2  -4  -16.20   50.29
   4   2  -4  149.19   49.50
  -3  -2   4 2622.04  227.28
   3  -2  -4 2548.84  142.09
  -3  -2   4 2550.84  156.68
  -3  -2   4 2476.65  140.69
  -3  -2   4 2769.62  163.68
   3   2  -4 2634.14  140.79
   3   2  -4 2796.92  145.29
   3   2  -4 2616.74  143.69
   3   2  -4 2509.15  223.18
   3   2  -4 2576.24  151.28
  -2  -2   4  492.55   72.59
  -2  -2   4  546.55  109.59
  -2  -2   4  265.47   49.10
  -2  -2   4  291.17   55.79
   2  -2  -4  338.07   68.09
   2  -2  -4  378.36   38.40
  -2   2   4  459.45   65.69
   2   2  -4  308.87   45.80
   2   2  -4  343.47   54.19
   2   2  -4  361.06   45.30
   2   2  -4  392.26  102.39
  -1  -2   4   58.59   53.39
   1  -2  -4  118.59   68.19
  -1  -2   4   29.70   43.10
   1  -2  -4  -12.50   47.00
  -1  -2   4   34.00   77.09
   1  -2  -4   23.00   23.00
  -1  -2   4  -17.10   38.10
   1  -2  -4  -55.89   37.50
   1   2  -4   34.10   26.80
   1   2  -4   22.90   28.20
  -1   2   4   41.80   24.40
  -1   2   4   48.10   35.50
   1   2  -4   28.30   33.60
   1   2  -4  -30.50   71.89
  -1   2   4  -82.89   62.19
   0  -2   4   -7.30   59.79
   0  -2   4  -14.20   37.00
   0  -2   4   45.70   43.20
   0  -2   4   33.20   67.49
   0  -2  -4  -71.19   41.60
   0  -2  -4   82.59   74.89
   0  -2  -4   -8.90   28.40
   0  -2  -4   91.19   68.29
   0   2  -4   -3.10   38.70
   0   2   4    2.90   24.10
   0   2   4  -43.80   42.70
   0   2  -4    5.60   29.10
   0   2  -4  -12.60   59.79
   0   2   4  -47.20   76.39
   0   2  -4   12.50   30.00
  -1  -2  -4 2021.60  137.49
  -1  -2  -4 1616.94  233.68
  -1  -2  -4 1686.53  192.98
  -1  -2  -4 1854.41  110.09
   1  -2   4 1568.54  172.18
  -1  -2  -4 1836.22  203.68
   1  -2   4 1938.41  118.89
   1   2   4 1828.22  130.89
  -1   2  -4 1945.31  110.09
  -1   2  -4 2361.26  149.49
   1   2   4 1546.25  189.18
   1   2   4 2060.79  154.68
   1   2   4 1913.51  104.59
  -1   2  -4 1558.14   99.99
  -2  -2  -4 1154.78  171.48
   2  -2   4 1139.89   95.29
  -2  -2  -4 1098.69   89.69
  -2  -2  -4 1045.70  170.18
   2  -2   4 1247.38   99.89
   2  -2   4  891.91  148.79
  -2  -2  -4  944.11  138.69
   2   2   4 1057.99  128.09
  -2   2  -4 1529.65  145.69
   2   2   4  853.51  148.89
   2   2   4  842.82  125.59
  -2   2  -4 1270.47   94.89
   2   2   4 1157.78   86.59
   3  -2   4  142.69   57.39
   3  -2   4  -69.29  144.69
  -3  -2  -4  -91.09  151.38
  -3  -2  -4  109.49   50.49
   3  -2   4  165.68   62.49
  -3  -2  -4  194.78  156.68
   3   2   4   98.39   46.50
   3   2   4  140.69   79.59
  -3   2  -4  188.78  101.79
  -3   2  -4   -4.80   54.09
   4  -2   4  528.45  198.68
   4  -2   4  168.68   74.79
   4  -2   4  271.37   75.59
  -4  -2  -4  198.58  206.08
  -4  -2  -4  244.78   83.39
  -4  -2  -4   27.20  193.88
  -4   2  -4   46.20   75.59
   4   2   4  351.96   69.49
  -4   2  -4   96.69  133.59
   4   2   4  154.08   88.89
   5  -2   4  337.07   92.19
   5  -2   4  260.17   99.59
  -5  -2  -4   19.10  239.58
  -5  -2  -4  144.49  293.77
   5   2   4  158.78   77.59
   5   2   4  143.69  108.69
   6  -2   4  353.66  135.69
   6  -2   4  667.53  130.89
  -6  -2  -4  929.31  380.76
   6   2   4  247.98   89.29
   6   2   4  384.36  152.88
  -8  -3   4  237.08  251.77
  -8  -3   4   86.49  284.67
   8  -3  -4   54.89  129.89
   8  -3  -4  174.78  305.97
   8  -3  -4  163.58  135.59
   8   3  -4 -125.99   88.59
   8   3  -4   86.59  159.78
   8   3  -4 -236.58  272.27
  -7  -3   4  339.97  229.08
   7  -3  -4  597.24  130.39
  -7  -3   4  327.27  222.38
   7  -3  -4  433.86  111.19
   7  -3  -4  318.07  231.28
   7   3  -4  506.15  150.98
   7   3  -4  297.17   92.99
   7   3  -4  172.68  249.78
  -6  -3   4  135.59  145.69
  -6  -3   4 -121.49  148.59
   6  -3  -4  165.68   80.49
   6  -3  -4   29.60  167.28
   6  -3  -4  124.39   82.39
   6   3  -4  150.38  109.59
   6   3  -4  168.08   76.79
   6   3  -4 -217.68  192.38
  -5  -3   4 1216.68  163.78
   5  -3  -4 1224.08  142.29
   5  -3  -4 1335.87  207.28
   5  -3  -4 1377.46  131.09
  -5  -3   4 1364.06  177.78
   5   3  -4  987.00  238.78
   5   3  -4 1649.93  129.59
   5   3  -4 1411.26  164.38
   4  -3  -4  283.77   88.99
  -4  -3   4   97.79  100.99
   4  -3  -4  187.88   56.89
  -4  -3   4  112.29   90.19
  -4  -3   4  152.88   63.99
   4  -3  -4  399.86  155.98
   4   3  -4  149.69  159.68
   4   3  -4  155.08   67.59
   4   3  -4  145.29   65.19
  -3  -3   4 1120.89  154.88
  -3  -3   4 1130.49  109.89
   3  -3  -4  910.71  136.69
  -3  -3   4 1053.49  148.79
  -3  -3   4  773.32  183.58
   3   3  -4  767.02  171.78
   3   3  -4 1078.39  108.59
   3   3  -4  859.81  100.09
  -2  -3   4  149.49  130.19
  -2  -3   4   44.90   57.89
   2  -3  -4  224.08   63.79
   2  -3  -4  111.49   33.40
   2  -3  -4   94.49   68.19
  -2  -3   4  121.79   65.09
  -2  -3   4   97.39   74.29
   2  -3  -4   56.89   85.39
   2   3  -4  149.39   38.30
   2   3  -4  134.49   61.39
   2   3  -4  -26.30  109.19
  -2   3   4  125.19   56.99
   1  -3  -4 1554.84  100.29
  -1  -3   4 1629.44  157.68
   1  -3  -4 1529.45  138.59
  -1  -3   4 1811.22  212.08
   1  -3  -4 1665.53  178.08
   1  -3  -4 1643.84  199.28
  -1  -3   4 1576.84  149.39
  -1  -3   4 1560.84  150.48
   1   3  -4 1827.02  133.59
  -1   3   4 1679.53  133.29
   1   3  -4 1532.95  188.48
  -1   3   4 1630.94   92.89
   0  -3  -4 2015.80  196.28
   0  -3   4 1798.82  152.48
   0  -3   4 1573.74  181.18
   0  -3  -4 1657.73  151.88
   0  -3  -4 1629.24  222.78
   0  -3  -4 1698.43  112.49
   0  -3   4 1666.33  176.68
   0  -3   4 1986.50  173.68
   0   3   4 1161.08  174.38
   0   3   4 1856.31  100.09
   0   3  -4 1696.63  181.78
   0   3  -4 1359.16  139.39
  -1  -3  -4  126.29   60.99
   1  -3   4    0.70  111.89
  -1  -3  -4  321.27  134.39
   1  -3   4   48.40   82.29
  -1  -3  -4  153.98   88.49
  -1  -3  -4  -67.89  107.69
   1  -3   4  103.89   70.59
  -1   3  -4  285.17   58.79
   1   3   4  164.28   42.80
   2  -3   4  211.88  146.89
  -2  -3  -4  329.77  151.38
  -2  -3  -4  119.79  165.78
  -2  -3  -4   -8.20   69.19
   2  -3   4  320.37   79.59
   2  -3   4  255.37  102.69
   2   3   4  256.17   57.89
  -2   3  -4  227.38   45.40
   2   3   4  191.68   82.39
   3  -3   4  213.08  179.98
  -3  -3  -4  149.88   85.39
  -3  -3  -4  -95.59  183.68
  -3  -3  -4  229.48  188.78
   3  -3   4  175.08   88.09
  -3   3  -4  363.56   92.59
   3   3   4  175.88   66.19
   3   3   4  269.57  108.69
  -3   3  -4  244.68   53.09
   4  -3   4 1354.56  150.18
   4  -3   4 1152.18  124.39
  -4  -3  -4  847.32  271.17
  -4  -3  -4 1224.58  259.47
   4   3   4 1035.30  135.39
   4   3   4 1129.09  173.98
   5  -3   4  158.38  116.09
   5  -3   4  153.68  115.39
  -5  -3  -4  105.39  357.46
  -5  -3  -4  344.37  277.77
   5   3   4  148.09  148.59
   5   3   4  -32.60   90.19
  -6  -4   4   81.09  238.08
  -6  -4   4  329.07  201.88
   6  -4  -4  237.68  250.87
   6  -4  -4   84.69  153.08
   6  -4  -4  157.08  206.08
   6   4  -4  377.46  287.67
   6   4  -4   67.19  138.69
   6   4  -4   17.10  104.09
   5  -4  -4  420.46  193.38
  -5  -4   4  177.18  193.28
   5  -4  -4 -317.47  220.48
   5  -4  -4   39.30   93.79
  -5  -4   4  203.48  157.38
   5   4  -4  279.37  109.39
   5   4  -4  367.26  252.77
   5   4  -4  304.67   96.59
   4  -4  -4   42.00  131.99
   4  -4  -4   62.69  219.58
   4  -4  -4   91.89   77.59
  -4  -4   4  -37.70  129.29
  -4  -4   4   97.99  161.98
   4   4  -4 -109.19   78.49
   4   4  -4  -72.79  229.88
   4   4  -4  -14.60   83.69
  -3  -4   4 1128.99  183.38
  -3  -4   4  925.01  148.09
   3  -4  -4  997.40   97.39
   3  -4  -4 1026.00  169.48
   3   4  -4  936.31   95.49
   3   4  -4 1265.77  154.48
   3   4  -4 1060.29  231.18
   2  -4  -4  125.39  128.49
  -2  -4   4  386.66  129.99
  -2  -4   4  221.98  123.29
   2  -4  -4  334.07  148.99
   2   4  -4  296.57  188.08
   2   4  -4  192.88   79.49
   1  -4  -4  -44.20  128.29
  -1  -4   4   49.40  110.69
   1  -4  -4    9.30   64.29
   1  -4  -4  -66.19   96.09
   1  -4  -4   54.39  161.28
  -1  -4   4 -162.98  194.78
  -1  -4   4  100.59  113.59
   1   4  -4  -98.29   73.19
   0  -4  -4   23.40  135.59
   0  -4  -4   12.70  120.69
   0  -4   4   26.70  121.09
   0  -4  -4  142.89  171.08
   0  -4   4   16.90  111.59
   0   4  -4  234.88   99.09
   1  -4   4  631.24  135.99
  -1  -4  -4  649.14  213.98
   1  -4   4  744.43  160.18
  -1  -4  -4  809.32  195.18
   2  -4   4  657.33  138.49
  -2  -4  -4  718.23  251.67
   2  -4   4  806.42  180.58
  -2  -4  -4  129.49  189.28
   3  -4   4  -94.39  123.49
  -3  -4  -4 -304.17  224.68
   3  -4   4  -20.80  201.18
  -3  -4  -4  548.25  300.97
   9   0  -5  297.17   62.49
   9   0  -5  296.17  119.39
   9   0  -5    0.90  240.48
   8   0  -5  805.62  118.79
   8   0  -5  702.43   85.49
   8   0  -5  689.63  105.79
   8   0  -5  720.43  205.18
  -8   0   5  535.65  153.28
   7   0  -5  293.27  174.28
   7   0  -5  255.97   77.99
   7   0  -5  145.19   70.39
   7   0  -5  237.88   44.50
  -7   0   5  204.18  107.69
   6   0  -5   35.00   29.90
  -6   0   5  -11.90   70.89
   6   0  -5    7.90   50.89
   6   0  -5   27.10   49.10
   6   0  -5   -2.70  127.09
   5   0  -5    8.70   30.10
  -5   0   5   64.49   42.80
   5   0  -5   72.29   37.70
   5   0  -5  105.39  116.79
   5   0  -5   62.69   42.80
  -5   0   5  188.28  137.79
   4   0  -5 1219.08  179.68
   4   0  -5 1427.46   74.49
  -4   0   5 1159.58  188.28
  -4   0   5  949.80   86.79
   4   0  -5 1299.37   81.79
  -4   0   5 1231.78   98.49
   3   0  -5  403.16   50.39
   3   0  -5  516.25   52.29
   3   0  -5  314.47   97.09
  -3   0   5  361.56   44.90
  -3   0   5  261.17   55.59
  -3   0   5  435.26  102.29
   2   0  -5  133.19   86.19
  -2   0   5  237.78   63.59
  -2   0   5  207.58   32.40
   2   0  -5  196.68   36.70
   2   0  -5  227.78   47.20
  -1   0   5  739.23  101.59
   1   0  -5  847.92   65.39
   1   0  -5  859.61  130.89
   1   0  -5  963.20   75.79
  -1   0   5  959.50  117.89
   1   0  -5  997.60   99.09
  -1   0   5  897.61   62.79
   0   0   5  829.72  128.49
   0   0   5  630.04  107.49
   0   0   5  820.22   64.59
   0   0  -5  727.53   60.99
   0   0  -5  783.02   76.59
   0   0  -5  950.40  124.69
   1   0   5  345.17  103.99
   1   0   5  296.47   53.49
  -1   0  -5  370.76   46.50
   1   0   5  341.57   46.00
  -1   0  -5  387.56   93.89
  -1   0  -5  281.47   51.39
   1   0   5  347.17  121.19
  -2   0  -5 1170.28  124.49
   2   0   5 1448.56  205.78
  -2   0  -5 1316.17   86.49
   2   0   5 1465.25  229.28
  -2   0  -5 1516.75  211.78
   2   0   5 1368.36  119.49
   2   0   5 1374.76  103.19
  -3   0  -5  375.26  167.68
  -3   0  -5  351.96  114.69
   3   0   5  209.28   52.89
   3   0   5   83.79   60.69
   3   0   5  375.66  146.89
  -3   0  -5  189.28   45.70
   4   0   5  304.37   70.49
  -4   0  -5   50.29  185.28
  -4   0  -5  499.95  155.48
   4   0   5  123.49   73.19
   4   0   5  379.86  176.08
   5   0   5  629.94   94.69
  -5   0  -5  451.25  226.78
  -5   0  -5  527.45  254.67
   5   0   5  509.25  113.89
   6   0   5 1011.60  128.09
   9  -1  -5   74.59   52.09
   9  -1  -5  190.38  116.09
   9  -1  -5  419.96  288.67
   9   1  -5   33.50   61.99
   9   1  -5   19.00  106.59
   9   1  -5 -268.67  250.47
   8  -1  -5  168.78   73.49
   8  -1  -5 -309.07  192.78
  -8  -1   5  -65.69  143.49
   8  -1  -5   -8.10   39.40
   8  -1  -5   27.10   90.69
   8   1  -5   -4.30   52.19
   8   1  -5   -5.20  121.79
   8   1  -5   -0.50  206.88
   8   1  -5  125.99  104.49
   7  -1  -5  247.98  167.28
  -7  -1   5  411.56  170.88
   7  -1  -5  332.97   64.09
   7  -1  -5  397.96   85.09
   7  -1  -5  386.86   45.30
  -7  -1   5  371.76  121.19
   7   1  -5  239.98   84.29
   7   1  -5  495.95   99.69
   7   1  -5  336.37  173.68
   7   1  -5  424.56   65.89
   7   1  -5  264.57   87.49
   6  -1  -5  415.86   73.79
  -6  -1   5  415.36  122.29
   6  -1  -5  521.05   66.99
  -6  -1   5  381.86   93.99
   6  -1  -5  548.55  147.69
   6  -1  -5  418.06   47.90
   6   1  -5  293.17   77.69
   6   1  -5  479.05   81.49
   6   1  -5  389.36  166.88
   6   1  -5  567.54   73.29
   6   1  -5  573.54   83.49
  -5  -1   5  400.56   83.59
   5  -1  -5  393.46  114.39
   5  -1  -5  420.06   63.89
  -5  -1   5  472.65  155.68
   5  -1  -5  418.06   55.59
  -5  -1   5  389.26   87.19
  -5  -1   5  390.76   65.39
   5  -1  -5  413.76   49.20
   5   1  -5  347.67   54.99
   5   1  -5  380.46   56.69
   5   1  -5  443.96   69.19
   5   1  -5  367.86   69.99
   5   1  -5  267.67  141.19
  -4  -1   5   88.09   52.99
   4  -1  -5  -68.59   86.99
  -4  -1   5   52.59   39.50
  -4  -1   5   35.40  102.59
   4  -1  -5   56.59   20.70
   4  -1  -5   47.40   28.40
  -4  -1   5   34.20   36.60
   4   1  -5  102.89   42.80
   4   1  -5  136.89  114.89
  -4   1   5   97.29   39.00
  -4   1   5  -36.80   65.69
   4   1  -5   57.59   35.20
   4   1  -5   48.90   41.70
   4   1  -5   47.10   41.50
   3  -1  -5    8.60   96.29
   3  -1  -5   19.20   31.20
   3  -1  -5  -12.40   24.70
  -3  -1   5   11.40   38.30
  -3  -1   5   17.80   28.10
  -3  -1   5  146.99   92.09
  -3  -1   5   39.30   38.20
  -3   1   5    0.60   28.20
  -3   1   5   13.90   74.79
   3   1  -5    2.70   26.40
   3   1  -5   30.00  101.79
   2  -1  -5  227.08   33.00
  -2  -1   5  199.28   37.70
   2  -1  -5  179.28   52.99
  -2  -1   5  274.97   64.39
  -2  -1   5  128.69   87.89
  -2  -1   5  239.18   44.70
   2   1  -5  232.68   43.60
  -2   1   5  219.28   29.50
  -2   1   5  104.69   77.89
   2   1  -5  343.87  118.99
   2   1  -5  176.48   40.30
  -1  -1   5  279.37   67.89
   1  -1  -5  278.27   78.09
   1  -1  -5  200.68   79.59
   1  -1  -5  216.98   46.90
  -1  -1   5  305.57   48.20
   1  -1  -5  287.27   39.30
   1   1  -5  286.67   59.59
  -1   1   5  241.38   33.60
   1   1  -5  267.57   41.90
   1   1  -5  332.67  129.69
  -1   1   5  248.48   49.50
  -1   1   5  117.09   83.09
   1   1  -5  228.18   40.00
   0  -1  -5   99.79   83.39
   0  -1   5   59.19   74.09
   0  -1  -5   30.70   31.20
   0  -1   5   54.99   30.50
   0  -1  -5   93.39   89.29
   0  -1  -5   35.10   40.50
   0   1  -5   68.09   61.39
   0   1  -5   25.30   29.90
   0   1  -5   54.49   32.60
   0   1   5  -51.69   86.29
   0   1  -5   -6.60   95.19
   0   1   5  -35.00   56.59
   0   1   5   38.60   31.60
  -1  -1  -5   23.50   47.40
  -1  -1  -5  -29.90   29.00
  -1  -1  -5   22.50  107.59
  -1  -1  -5   62.99  119.69
   1  -1   5   60.39   91.09
   1  -1   5  103.59   43.00
  -1   1  -5   20.80   80.89
  -1   1  -5   11.10   32.20
   1   1   5   20.70   39.00
  -1   1  -5   29.70   38.30
   1   1   5 -157.78   80.49
  -1   1  -5   94.29  111.89
   1   1   5   20.90  113.19
   1   1   5   36.20   33.20
   2  -1   5   33.90  114.79
   2  -1   5   49.00   48.10
  -2  -1  -5  294.97  131.29
  -2  -1  -5   54.99   39.80
  -2  -1  -5   58.89  125.49
   2  -1   5  129.39   48.60
  -2   1  -5  106.49  125.69
  -2   1  -5   78.59  100.49
   2   1   5    0.60  127.29
   2   1   5   89.19   49.90
  -2   1  -5  136.49   43.20
   2   1   5  111.69  126.79
  -2   1  -5  146.99   52.49
   2   1   5  158.78   45.00
   3  -1   5  173.68  146.79
  -3  -1  -5   63.89   53.49
   3  -1   5  128.19   55.29
  -3  -1  -5   86.39  156.58
   3  -1   5   67.99   63.29
   3   1   5  105.69   71.49
   3   1   5  217.18  185.78
  -3   1  -5  -63.29  142.29
  -3   1  -5  199.48   99.69
   3   1   5  148.99   53.09
   4  -1   5  221.38   90.39
   4  -1   5  481.45  191.48
  -4  -1  -5  159.68  184.28
   4  -1   5  346.37   74.39
   4   1   5  275.57   63.99
   4   1   5  561.54  107.59
  -4   1  -5  587.54  187.58
  -4   1  -5  432.36  131.09
   5  -1   5   40.90   83.49
  -5  -1  -5   79.09  237.98
   5  -1   5  183.08   99.19
   5   1   5   52.19   77.69
  -5   1  -5  -31.90  218.88
   5   1   5  291.07  104.39
  -6  -1  -5  347.87  352.36
   6  -1   5  219.48  124.49
   6  -1   5  106.69  100.09
   6   1   5   27.90   87.89
   6   1   5  391.56  128.19
   9  -2  -5  223.48  144.39
   9  -2  -5  410.66  308.07
  -9  -2   5 -185.48  351.66
   9   2  -5 -542.85  284.77
   9   2  -5  182.88   85.89
   9   2  -5  289.27  165.78
  -8  -2   5  909.91  284.37
   8  -2  -5  497.35  121.39
  -8  -2   5  568.14  200.88
   8  -2  -5  371.26   90.49
   8  -2  -5  669.63  272.57
   8   2  -5  312.17  118.19
   8   2  -5  741.33  267.67
   8   2  -5  602.84   94.79
  -7  -2   5   -9.10  161.68
   7  -2  -5  130.59   81.89
  -7  -2   5  376.06  152.08
   7  -2  -5  318.77  218.38
   7   2  -5  182.78  109.49
   7   2  -5    8.90  188.78
   7   2  -5  179.68   66.39
   7   2  -5  128.79   90.49
   6  -2  -5  105.39  152.68
   6  -2  -5    5.70   60.89
  -6  -2   5  140.39  121.79
  -6  -2   5   32.20  110.29
   6   2  -5   -8.20   49.60
   6   2  -5  -39.20   90.09
   6   2  -5   19.50   80.69
   6   2  -5  -44.70   83.39
   6   2  -5  130.39  167.88
  -5  -2   5  -10.60   60.49
  -5  -2   5   50.09   75.09
   5  -2  -5   58.99   47.60
  -5  -2   5 -124.69   84.79
   5  -2  -5  116.99  126.19
   5   2  -5   55.79   61.29
   5   2  -5   15.30   65.29
   5   2  -5 -104.09   55.19
   5   2  -5   12.10   47.00
   5   2  -5  146.69  149.69
  -4  -2   5 1112.89  136.19
  -4  -2   5  975.80   98.19
  -4  -2   5  838.72  119.69
  -4  -2   5  902.61  192.38
   4  -2  -5  624.04  158.38
   4   2  -5 1055.79   98.89
   4   2  -5  777.72  167.28
   4   2  -5  848.42  107.59
   4   2  -5  894.21  100.09
   4   2  -5  927.41  104.39
   3  -2  -5  186.58   53.49
  -3  -2   5  492.25  120.59
  -3  -2   5  289.57   60.49
  -3  -2   5  128.49   47.50
   3  -2  -5  234.88   35.20
  -3  -2   5  301.27   76.19
   3   2  -5  228.58   49.40
   3   2  -5  264.97   62.69
   3   2  -5  215.48   54.79
   3   2  -5  379.06  133.89
   2  -2  -5  109.99   60.69
  -2  -2   5  105.49   58.59
  -2  -2   5  149.19   53.39
  -2  -2   5  152.08   93.19
   2  -2  -5  126.19   31.70
   2  -2  -5   65.49   48.60
   2  -2  -5  159.68   76.59
  -2  -2   5   44.20   55.89
   2   2  -5   66.39  109.29
  -2   2   5   88.29   84.49
   2   2  -5  121.79   43.10
  -2   2   5  131.49   33.90
   2   2  -5  159.68   50.19
  -2   2   5  168.78   44.30
   1  -2  -5  560.94   72.39
  -1  -2   5  462.15   72.59
  -1  -2   5  463.95   73.79
   1  -2  -5  457.75   93.79
   1  -2  -5  392.86  101.49
  -1  -2   5  591.74  103.49
   1  -2  -5  534.95   59.19
  -1  -2   5  620.24  108.69
   1   2  -5  674.23  125.89
  -1   2   5  648.84   59.49
  -1   2   5  666.73   83.19
   1   2  -5  521.95   68.89
   1   2  -5  615.24   74.39
  -1   2   5  561.24  119.79
   1   2  -5  609.94   87.39
   0  -2  -5  357.66   76.19
   0  -2   5  419.06   66.09
   0  -2  -5  465.85  112.99
   0  -2  -5  444.56   60.19
   0  -2   5  440.06  101.59
   0  -2  -5  370.96  114.79
   0   2   5  192.28  124.99
   0   2  -5  470.25   60.19
   0   2  -5  686.13   90.79
   0   2   5  502.25   58.39
   0   2  -5  492.45  105.99
   0   2   5  420.26   71.39
   0   2  -5  488.65   60.29
   1  -2   5  208.88   55.89
  -1  -2  -5  166.08  126.29
  -1  -2  -5  294.37   58.19
  -1  -2  -5   38.40  123.99
   1  -2   5  428.86  120.39
  -1  -2  -5  202.08  116.99
   1   2   5  167.08   84.79
  -1   2  -5  203.78   78.69
  -1   2  -5  294.27   53.89
   1   2   5  254.77   45.70
  -2  -2  -5  805.72   97.99
  -2  -2  -5  950.20  196.48
   2  -2   5  890.41  175.68
  -2  -2  -5 1179.98  210.28
   2  -2   5 1049.20  113.99
   2   2   5 1041.70  100.29
  -2   2  -5 1420.56  178.88
   2   2   5  983.70  144.99
  -2   2  -5  926.61  107.49
   3  -2   5  341.97   77.79
  -3  -2  -5  249.68   69.79
  -3  -2  -5  122.29  184.48
  -3  -2  -5   58.79  192.28
   3  -2   5  112.99   65.99
   3  -2   5  359.86  184.88
   3   2   5  245.68   93.29
  -3   2  -5   56.59  129.79
  -3   2  -5   75.89   74.29
   3   2   5  164.18   60.99
   4  -2   5  198.08  100.19
   4  -2   5  187.38   86.99
  -4  -2  -5 -310.57  219.88
  -4  -2  -5  500.25  248.68
  -4   2  -5   55.69  166.88
   4   2   5  160.68  104.89
   4   2   5  187.18   71.59
  -5  -2  -5  582.74  353.56
   5  -2   5  378.96  114.99
   5  -2   5  520.05  133.09
   5   2   5  371.26   98.19
   5   2   5  321.97  142.19
   8  -3  -5 -199.68  137.99
   8  -3  -5  105.79  123.09
  -8  -3   5   18.30  284.67
  -8  -3   5   10.20  227.08
   8  -3  -5  -56.39  302.37
   8   3  -5   56.89  166.48
   8   3  -5 -140.49   87.09
   8   3  -5  519.25  302.47
   7  -3  -5  214.58  109.39
   7  -3  -5   89.79  100.39
   7  -3  -5  168.08  253.17
  -7  -3   5   82.89  216.98
  -7  -3   5  323.17  212.68
   7   3  -5  243.08  147.69
   7   3  -5  271.57   95.79
   7   3  -5  618.34  266.47
   6  -3  -5  422.16  136.59
  -6  -3   5  195.78  159.18
   6  -3  -5  478.35   95.59
   6  -3  -5  272.77  195.88
  -6  -3   5  148.79  152.78
   6   3  -5  359.16   86.69
   6   3  -5  465.15  231.38
   6   3  -5  417.76  123.89
   5  -3  -5  161.98  111.49
  -5  -3   5  307.27  126.99
  -5  -3   5  236.48  131.39
   5  -3  -5  245.28   71.69
   5  -3  -5  618.04  197.88
   5   3  -5  278.97   85.19
   5   3  -5  240.38  191.88
   5   3  -5  198.28   70.89
   4  -3  -5  108.09  158.58
   4  -3  -5   81.19   73.99
  -4  -3   5  -51.09   72.39
  -4  -3   5  -94.29  102.29
  -4  -3   5   91.29   94.09
   4   3  -5   67.69   66.39
   4   3  -5   17.00  166.78
   4   3  -5   36.00   66.89
   3  -3  -5  -83.49   78.69
  -3  -3   5   29.50   67.99
   3  -3  -5   81.29   74.69
  -3  -3   5   18.70   85.39
  -3  -3   5   52.29   90.89
   3   3  -5  -29.30  138.19
   3   3  -5  -21.00   50.69
   3   3  -5   52.89   70.79
  -2  -3   5  135.59   76.59
  -2  -3   5  139.89   78.59
  -2  -3   5  134.29   86.09
   2  -3  -5   88.89   43.20
   2  -3  -5  111.09  109.49
  -2  -3   5  156.68  139.19
   2  -3  -5  175.28   87.19
   2  -3  -5   49.70   79.39
   2   3  -5   14.50   72.49
  -2   3   5  149.69   63.99
   2   3  -5   80.29  128.49
   2   3  -5  112.99   43.90
  -1  -3   5  141.69   83.59
  -1  -3   5   85.89   79.29
  -1  -3   5  190.08  118.09
   1  -3  -5  127.09   51.49
   1  -3  -5  -21.20   85.69
  -1  -3   5   59.99   99.89
   1  -3  -5  163.28   98.79
   1  -3  -5  245.58  130.59
   1   3  -5  189.78   41.10
   1   3  -5  124.89   46.40
  -1   3   5  163.48   47.80
   1   3  -5  360.36  129.99
  -1   3   5   97.09   78.69
   1   3  -5  245.98   86.79
   0  -3  -5  -14.10   55.59
   0  -3   5   59.59   76.49
   0  -3   5  -62.99  114.39
   0  -3  -5  107.29  134.89
   0  -3   5  -38.90  105.99
   0  -3   5    7.10   80.69
   0  -3  -5  -16.60  110.49
   0   3  -5  197.38  125.09
   0   3  -5   58.59   45.10
   1  -3   5  113.39  101.59
  -1  -3  -5  -36.80  160.78
  -1  -3  -5  -13.50   70.49
   1  -3   5  -11.60   77.19
  -1  -3  -5  161.58  163.78
   1  -3   5  128.89  148.19
   1   3   5    7.40   49.80
  -1   3  -5   91.69   51.09
  -1   3  -5  -16.00   73.89
   2  -3   5  212.28  134.29
   2  -3   5  131.99   88.99
  -2  -3  -5    5.10   75.49
  -2  -3  -5   37.50  197.68
  -2  -3  -5  -59.19  200.88
   2  -3   5   26.00  184.78
  -2   3  -5  173.98   51.59
   2   3   5   94.69   59.79
  -2   3  -5   34.80   91.59
  -3  -3  -5  548.75  233.18
  -3  -3  -5  292.17  252.47
   3  -3   5  174.48  101.29
   3   3   5  116.59   78.29
   3   3   5   21.30  117.69
   4  -3   5  234.28  122.59
  -4  -3  -5  108.29  295.47
  -4  -3  -5   73.09  307.47
   4   3   5  277.17  145.29
   4   3   5  143.19   80.99
  -6  -4   5  266.37  212.98
  -6  -4   5  458.55  251.77
   6  -4  -5  201.48  217.28
   6  -4  -5   60.79  261.57
   6  -4  -5   89.59  124.39
   6   4  -5  -47.90  138.69
   6   4  -5  242.98  282.17
   6   4  -5  -46.00  110.69
  -5  -4   5 -135.59  184.28
  -5  -4   5  383.76  176.48
   5  -4  -5  -21.00   87.59
   5  -4  -5  136.29  253.17
   5  -4  -5  202.08  158.78
   5   4  -5  206.38  250.77
   5   4  -5  -50.89  104.49
   4  -4  -5  745.73  246.68
  -4  -4   5   45.00  167.88
   4  -4  -5  705.23  165.88
  -4  -4   5  238.28  146.79
   4  -4  -5  371.16   87.99
   4   4  -5  325.57   92.49
   4   4  -5  574.04  106.39
   4   4  -5   86.59  253.87
  -3  -4   5  253.37  141.99
  -3  -4   5   -5.60  124.59
   3  -4  -5  189.28  145.29
   3   4  -5   21.10  104.69
   3   4  -5  319.37  242.98
  -2  -4   5  220.88  138.89
   2  -4  -5   -9.60   63.69
   2  -4  -5  -47.00  169.08
   2  -4  -5   -6.60  137.09
  -2  -4   5   80.09  129.39
   2   4  -5  171.98  199.48
   2   4  -5   85.39  100.49
   1  -4  -5  -70.49  147.09
   1  -4  -5  212.38  196.68
  -1  -4   5  248.68  132.69
  -1  -4   5  281.67  130.59
   1   4  -5  180.18   99.29
   1   4  -5  506.05  181.08
   0  -4  -5  -23.00  185.18
   0  -4   5  255.07  124.59
   0  -4  -5 -260.27  194.38
   0  -4   5  351.96  151.38
  -1  -4  -5 -180.98  237.48
  -1  -4  -5 -143.59  200.98
   1  -4   5  153.98  153.58
   1  -4   5   -8.90  130.09
  -2  -4  -5  177.78  290.57
   2  -4   5  254.07  147.59
  -2  -4  -5  -44.50  264.67
   2  -4   5  307.87  196.38
   9   0  -6  241.18  244.08
   9   0  -6  548.05   78.39
   9   0  -6  670.13  137.99
   8   0  -6  -61.69   79.59
   8   0  -6  161.18  210.08
  -8   0   6  176.58  145.69
   8   0  -6    8.00   47.70
   8   0  -6  -14.30   85.99
  -7   0   6  127.09  104.99
   7   0  -6   12.40   62.99
   7   0  -6   11.70   40.10
   7   0  -6 -145.19  170.18
   7   0  -6  -71.09   64.49
   6   0  -6 1735.53  149.59
   6   0  -6 1996.50  118.39
   6   0  -6 1904.51  126.19
  -6   0   6 1977.80  154.38
   5   0  -6  630.74  156.88
   5   0  -6  780.72   79.59
   5   0  -6  615.54   91.29
   5   0  -6  816.62   76.29
   4   0  -6  127.19   44.90
   4   0  -6  167.28   36.50
  -4   0   6   99.19   42.80
  -4   0   6   64.29   67.99
   4   0  -6  -15.20  101.79
  -4   0   6  -14.90  129.59
  -3   0   6   14.90   32.00
   3   0  -6   -2.40   32.60
   3   0  -6  -54.59   90.09
  -3   0   6   -6.40   66.09
   3   0  -6  -16.60   36.20
   2   0  -6 4865.21  220.18
   2   0  -6 5211.18  249.58
   2   0  -6 5041.20  320.17
  -2   0   6 4437.66  270.37
  -2   0   6 5147.58  220.78
  -1   0   6   40.20   95.09
   1   0  -6   48.20   36.70
  -1   0   6    7.90   98.59
   1   0  -6   49.00   42.00
   1   0  -6   47.60  110.29
   1   0  -6   -7.30   63.39
  -1   0   6   57.19   33.90
   0   0  -6   73.29   94.19
   0   0   6   34.10  110.99
   0   0  -6  104.79   34.40
   0   0   6  114.39  110.89
   0   0  -6   18.30   41.60
   0   0   6   59.19   47.40
   1   0   6   74.09   46.80
   1   0   6  100.29  123.59
   1   0   6  245.08  147.79
  -1   0  -6   53.49   59.29
  -1   0  -6  125.89   37.90
  -1   0  -6    1.70  102.69
  -2   0  -6 2237.28  132.19
   2   0   6 2015.50  280.17
   2   0   6 2075.29  165.78
  -2   0  -6 2381.26  270.17
  -3   0  -6  670.03  166.78
  -3   0  -6  844.42  209.78
   3   0   6  602.84  106.99
   3   0   6  631.74   85.89
   3   0   6  849.81  222.28
   4   0   6  208.88  100.99
  -4   0  -6  246.98  216.68
   4   0   6  118.39  271.87
   4   0   6   55.99   71.99
  -4   0  -6  210.58  212.28
   5   0   6   78.59  110.59
  -5   0  -6  197.58  270.87
   5   0   6  188.18   92.09
   9  -1  -6  295.57  121.29
   9  -1  -6   -5.70   53.59
   9  -1  -6  143.09  278.37
   9   1  -6  148.69   72.09
   9   1  -6  -57.29  265.17
   9   1  -6  158.18  128.49
  -8  -1   6   -5.50  138.19
   8  -1  -6  126.09  100.99
   8  -1  -6  135.49  233.28
   8  -1  -6  332.87   52.09
   8  -1  -6  246.38   69.39
   8   1  -6  319.87   68.09
   8   1  -6  262.27  102.99
   8   1  -6  302.87  206.58
  -7  -1   6   69.99  108.89
   7  -1  -6  153.98  172.58
   7  -1  -6  185.78   38.20
  -7  -1   6   86.79  176.38
   7  -1  -6  186.28   75.29
   7  -1  -6  140.69   57.29
   7   1  -6  140.49   74.39
   7   1  -6  107.89   80.99
   7   1  -6  188.18   59.09
   7   1  -6 -188.88  175.48
   7   1  -6  145.89   88.89
  -6  -1   6  257.87   93.29
   6  -1  -6  299.37   53.99
   6  -1  -6  295.67   44.60
   6  -1  -6  424.26  171.38
   6  -1  -6  419.36   77.49
   6   1  -6  251.27   81.49
   6   1  -6  214.38  171.58
   6   1  -6  311.77   60.29
   6   1  -6  288.17   77.29
   5  -1  -6   17.20   39.50
   5  -1  -6  -25.60  126.99
  -5  -1   6  106.29   67.09
   5   1  -6   73.89   55.79
  -5   1   6   17.90   55.19
   5   1  -6   60.79   45.40
  -5   1   6   -5.60   92.69
   5   1  -6   54.79  152.58
   5   1  -6   30.30   51.79
  -4  -1   6 1534.75  229.98
   4  -1  -6 1276.57   86.39
   4  -1  -6 1247.98  190.98
  -4  -1   6 1235.88  121.39
   4  -1  -6 1463.55   88.59
  -4  -1   6 1409.76  123.19
  -4   1   6 1348.37  100.09
  -4   1   6  916.21  133.29
   4   1  -6 1130.19  203.58
  -3  -1   6  138.59   61.29
  -3  -1   6  128.79   40.30
   3  -1  -6  171.28   38.90
   3  -1  -6  151.68   47.80
  -3  -1   6    7.20  119.19
  -3  -1   6  117.19   52.49
   3  -1  -6  131.29  109.39
   3   1  -6  115.39  138.29
   3   1  -6   80.09   44.60
   3   1  -6  208.38   47.50
  -3   1   6   21.80  104.99
  -3   1   6   88.39   34.30
  -2  -1   6  272.37   49.60
   2  -1  -6  270.07   42.80
  -2  -1   6  330.67   61.89
  -2  -1   6  262.57   81.99
   2  -1  -6  163.58   67.49
  -2   1   6  253.97  115.59
   2   1  -6  160.88  131.19
  -2   1   6  224.88   36.30
   2   1  -6  196.48   46.20
   2   1  -6  228.28   55.99
   1  -1  -6  151.78   52.79
   1  -1  -6  135.29   89.09
   1  -1  -6  134.69   41.50
  -1  -1   6  164.58   48.20
  -1  -1   6   34.20   82.59
  -1   1   6  113.99  123.69
   1   1  -6  162.78   40.40
   1   1  -6  163.68   46.60
  -1   1   6  106.49   36.40
   1   1  -6   81.19   65.99
  -1   1   6  146.59   59.99
   1   1  -6  111.69  139.59
   0  -1  -6 1550.24  142.79
   0  -1  -6 1716.93  108.79
   0  -1  -6 1686.63  205.58
   0  -1   6 1615.44  185.98
   0  -1   6 1636.14  115.39
   0   1  -6 1797.62  126.79
   0   1   6 1780.52  167.18
   0   1  -6 1623.74  102.79
   0   1   6 1426.66  207.88
   0   1  -6 1700.03  166.38
   0   1  -6 1618.34  226.48
   0   1   6 1935.31  110.19
   1  -1   6  916.51  157.58
  -1  -1  -6 1003.70  170.98
  -1  -1  -6  959.00   88.59
   1  -1   6  990.50   98.99
   1   1   6  762.02  192.18
  -1   1  -6 1019.40  118.09
  -1   1  -6 1362.86  187.98
  -1   1  -6 1463.55  230.38
   1   1   6 1248.98  103.69
  -1   1  -6 1031.30   87.59
   2  -1   6 -107.59  152.98
  -2  -1  -6  -94.79   46.90
   2  -1   6   82.39   53.59
  -2  -1  -6  123.39  145.59
   2   1   6  -66.39   55.59
  -2   1  -6   39.50  129.79
  -2   1  -6  -61.29  167.88
   2   1   6   28.20   51.89
  -3  -1  -6 -117.79  191.08
   3  -1   6  -41.10   70.19
   3  -1   6    4.50   66.19
   3  -1   6  105.29  181.78
   3   1   6   -5.30   71.29
   3   1   6   23.40   62.09
  -3   1  -6   88.79  117.39
  -3   1  -6 -137.09  193.68
  -3   1  -6  196.28  181.48
   4  -1   6  473.25  103.79
   4  -1   6  390.36  108.59
  -4  -1  -6  398.96  246.18
   4   1   6  322.47  109.99
  -4   1  -6  562.04  240.38
  -4   1  -6  349.77  220.28
   4   1   6  262.17   88.29
   5  -1   6  462.65  113.59
   5  -1   6  502.65  136.59
  -5  -1  -6  198.48  339.47
   5   1   6  245.08  136.39
   5   1   6  530.45  113.39
   9  -2  -6  181.08  337.67
  -9  -2   6  600.44  348.57
   9  -2  -6  387.06  147.49
   9   2  -6  553.64  101.49
   9   2  -6  725.23  153.78
   9   2  -6  635.04  326.37
   8  -2  -6 -121.89  102.49
  -8  -2   6  -37.60  256.47
  -8  -2   6   42.10  180.08
   8  -2  -6    4.00  261.27
   8   2  -6   52.39  119.89
   8   2  -6   75.09   74.49
   8   2  -6 -379.26  238.98
   7  -2  -6  102.19  214.68
  -7  -2   6   81.99  166.88
  -7  -2   6 -188.28  147.59
   7  -2  -6  173.08   80.19
   7   2  -6   87.69   98.39
   7   2  -6 -100.09  110.29
   7   2  -6 -111.79  222.78
   7   2  -6  -54.29   60.59
  -6  -2   6 1446.36  162.88
   6  -2  -6 1519.95  152.98
   6  -2  -6 1195.88  239.58
  -6  -2   6 1654.83  227.28
   6   2  -6 1359.56  133.59
   6   2  -6 1546.65  166.48
   6   2  -6 1381.66  170.88
   6   2  -6  802.52  225.38
   6   2  -6 1390.76  163.48
   5  -2  -6  358.26  166.38
  -5  -2   6  521.35  118.89
  -5  -2   6  580.54   97.99
   5   2  -6  504.15   85.99
   5   2  -6  257.17  186.58
   5   2  -6  532.55   85.29
   5   2  -6  347.57   77.09
   5   2  -6  507.15   89.69
  -4  -2   6   54.99   80.59
   4  -2  -6  146.49  142.39
  -4  -2   6   87.89   70.79
  -4  -2   6  100.49   66.19
   4   2  -6 -161.28  150.18
   4   2  -6   48.30   63.69
   4   2  -6   98.39   57.89
   4   2  -6  190.88   67.19
   3  -2  -6   42.30   36.30
  -3  -2   6 -113.09  130.39
   3  -2  -6  -46.80   63.09
  -3  -2   6  -55.49   68.29
  -3  -2   6    2.60   55.09
  -3  -2   6   84.09   68.59
   3   2  -6  169.78  144.29
   3   2  -6   52.49   57.49
   2  -2  -6 3534.35  215.18
   2  -2  -6 3234.88  165.88
  -2  -2   6 3079.49  216.48
   2  -2  -6 3290.77  229.18
  -2  -2   6 3640.14  199.08
  -2  -2   6 2951.90  259.37
  -2  -2   6 3772.02  201.58
   2  -2  -6 3363.96  237.38
   2   2  -6 3552.54  180.58
   2   2  -6 3958.90  192.58
  -2   2   6 3388.06  175.78
  -2   2   6 3408.86  160.68
   2   2  -6 3361.86  294.47
  -1  -2   6   30.80   60.09
   1  -2  -6   53.69  105.99
  -1  -2   6 -179.18   89.69
   1  -2  -6   47.70   69.99
   1  -2  -6   69.39  108.59
   1  -2  -6  -11.80   39.50
  -1  -2   6   87.39   65.29
   1   2  -6  -24.00   55.79
   1   2  -6  -16.00   46.10
   1   2  -6  -20.10   54.09
   1   2  -6  112.39  136.49
  -1   2   6  -63.89   53.19
   0  -2   6  -13.60  111.19
   0  -2  -6   84.69  125.69
   0  -2  -6   49.00   48.80
   0  -2   6   45.20   59.59
   0  -2  -6  -17.70  121.29
   0   2   6   23.20   78.49
   0   2  -6   83.69   49.99
   0   2  -6   58.69   73.89
   0   2   6   22.60   44.80
   0   2  -6  214.38  132.99
  -1  -2  -6   35.90  158.08
  -1  -2  -6   22.60   57.39
   1  -2   6    6.00   67.49
  -1  -2  -6  184.08  156.38
   1  -2   6  184.08  156.58
  -1   2  -6  161.18  112.19
  -1   2  -6   71.89  104.89
   1   2   6  -17.30   50.49
  -1   2  -6   97.99   58.49
  -2  -2  -6 1410.96  258.77
  -2  -2  -6 1181.78  235.08
   2  -2   6 1829.32  233.88
  -2  -2  -6 1461.15  137.89
   2  -2   6 1540.35  154.28
   2   2   6 1852.51  132.69
   2   2   6 1846.22  178.48
  -2   2  -6 1827.32  242.58
  -2   2  -6 1447.06  157.38
   3  -2   6  502.95  105.29
  -3  -2  -6  572.64  258.67
  -3  -2  -6  551.44  108.79
  -3  -2  -6  -10.40  226.58
  -3   2  -6  505.05  173.08
   3   2   6  401.36   83.79
   3   2   6  454.85  116.59
   4  -2   6  -83.59   96.19
   4  -2   6   87.19   99.89
  -4  -2  -6  136.99  278.07
   4   2   6  171.78  126.19
   4   2   6   71.79   85.59
  -7  -3   6  101.49  197.28
   7  -3  -6   69.69  104.09
  -7  -3   6   64.39  217.38
   7  -3  -6  338.87  269.87
   7   3  -6   89.39  151.58
   7   3  -6  172.08  279.77
   7   3  -6   82.19   93.19
   6  -3  -6  -13.90  210.18
  -6  -3   6  244.88  175.18
   6  -3  -6  162.68   87.99
  -6  -3   6  228.58  161.28
   6   3  -6   60.49  111.19
   6   3  -6   58.89   84.99
   6   3  -6   78.99  246.18
   5  -3  -6   34.40   88.79
   5  -3  -6  158.98  198.08
   5  -3  -6   11.60   70.89
  -5  -3   6 -133.69  130.99
  -5  -3   6  114.99  124.59
   5   3  -6   85.29   90.19
   5   3  -6 -147.79  212.58
   5   3  -6  -14.10   80.59
  -4  -3   6  482.75  153.18
  -4  -3   6 1003.10  140.99
   4  -3  -6  865.01  120.59
   4  -3  -6  965.00  233.78
   4   3  -6  912.91  115.79
   4   3  -6  771.82  103.69
   4   3  -6  707.93  212.68
  -3  -3   6  131.29  116.19
  -3  -3   6  165.08   95.99
   3  -3  -6   75.89   94.99
   3  -3  -6   87.39   46.70
  -3  -3   6   71.99  105.69
   3   3  -6  -65.19   76.89
   3   3  -6  123.29   64.89
   3   3  -6  -38.70  157.38
  -2  -3   6  215.08  164.28
  -2  -3   6  -44.40  112.49
   2  -3  -6  327.87  137.09
   2  -3  -6   59.29  103.59
  -2  -3   6  178.18   96.19
   2  -3  -6  227.28   55.49
  -2  -3   6  138.49   96.39
   2   3  -6  212.78   97.69
  -2   3   6  250.67   76.99
  -2   3   6  258.17   52.09
   2   3  -6  159.38   56.69
   2   3  -6  -13.40  140.99
   2   3  -6  137.49   56.19
  -1  -3   6  -64.59   94.99
  -1  -3   6   27.20   95.19
   1  -3  -6 -248.48  133.59
   1  -3  -6  168.88  130.39
   1  -3  -6   74.49   58.09
  -1  -3   6  151.08  122.79
  -1  -3   6 -231.18  139.19
  -1   3   6  -97.99   95.99
   1   3  -6   55.09   54.79
  -1   3   6  102.19   55.89
   1   3  -6  -70.79  139.99
   0  -3  -6  826.32  203.58
   0  -3   6 1246.88  166.78
   0  -3  -6  758.42  195.38
   0  -3  -6  893.21  122.29
   0  -3   6 1070.59  133.99
   0  -3   6 1194.88  174.68
   0   3  -6 1262.57  154.38
   0   3  -6  890.91  155.48
   0   3  -6 1094.39  110.49
   1  -3   6  684.13  121.69
  -1  -3  -6  376.06  219.58
   1  -3   6  635.74  149.59
  -1  -3  -6   43.90  201.08
  -1   3  -6  915.81  128.69
   1   3   6  655.63   79.99
  -2  -3  -6 -395.26  219.18
   2  -3   6  182.38  149.79
  -2  -3  -6  278.87  257.47
   2  -3   6   73.39  107.89
   2   3   6   64.49   72.89
  -3  -3  -6 -479.95  280.07
  -3  -3  -6 -299.57  283.57
   3  -3   6   56.79  126.09
   5  -4  -6  -19.00  288.47
  -5  -4   6 -161.58  201.98
   5  -4  -6  482.95  109.29
   5  -4  -6  390.06  168.48
  -5  -4   6  203.28  182.68
   5   4  -6  378.76  122.89
   5   4  -6  488.65  316.47
  -4  -4   6  236.48  154.78
   4  -4  -6  -44.90  166.78
   4  -4  -6  215.88  273.57
  -4  -4   6   83.19  198.68
   4   4  -6 -238.78  282.17
   4   4  -6  -67.09  101.69
  -3  -4   6  361.16  164.38
  -3  -4   6  -21.00  149.59
   3  -4  -6  -40.60  154.88
   3   4  -6 -149.88  104.49
   3   4  -6  -76.49  261.37
  -2  -4   6 1749.03  224.58
   2  -4  -6 1662.13  232.28
   2  -4  -6 1295.87  247.48
  -2  -4   6 2146.69  277.07
   2   4  -6 1804.52  301.57
  -1  -4   6  316.07  161.58
   1  -4  -6  160.78  223.58
  -1  -4   6   -6.20  152.08
   1  -4  -6    6.90  195.08
   1   4  -6  204.38  184.58
   0  -4  -6  139.29  238.58
   0  -4   6 -118.89  141.89
   0  -4   6 -200.18  160.58
   0  -4  -6 -241.58  252.87
  -1  -4  -6  177.48  282.57
   1  -4   6  186.88  184.38
   1  -4   6  -87.69  148.49
  -1  -4  -6  558.94  284.37
   9   0  -7  -41.60  114.09
   9   0  -7  131.19   68.49
   9   0  -7  278.17  267.77
   8   0  -7 -137.39  216.18
   8   0  -7  209.78   99.49
   8   0  -7  129.99   54.39
   7   0  -7  697.03   91.79
   7   0  -7  528.25  223.58
  -7   0   7  673.23  117.09
   7   0  -7  647.84  105.89
   7   0  -7  905.01   89.99
   6   0  -7  136.69   50.59
   6   0  -7 -109.69  158.68
  -6   0   7  -26.80  119.69
   6   0  -7  146.49   67.19
   6   0  -7   80.89   67.49
  -5   0   7    5.80   58.09
   5   0  -7   77.19   36.10
   5   0  -7   71.49   59.39
   5   0  -7   50.09  151.88
   4   0  -7   61.29   51.09
  -4   0   7   60.09   49.10
   4   0  -7   61.19  152.48
   4   0  -7   17.60   45.70
  -3   0   7  666.33  136.89
   3   0  -7  944.61  178.98
   3   0  -7 1025.40   92.19
  -3   0   7  993.50   93.19
   3   0  -7  828.62  105.19
   2   0  -7  157.28   56.79
   2   0  -7  201.88   80.69
  -2   0   7  -10.30  131.69
   2   0  -7  132.69   58.89
   2   0  -7  273.17  138.19
  -2   0   7  223.98   52.19
  -1   0   7  251.47   52.19
   1   0  -7   53.29  142.79
   1   0  -7  170.38   94.49
  -1   0   7  225.08  119.49
  -1   0   7  284.57  136.89
   1   0  -7  347.97   58.29
   1   0  -7  114.99   59.99
   0   0  -7  402.86   59.59
   0   0  -7  358.86  160.68
   0   0   7  491.45  149.69
   0   0   7  332.67   62.99
   0   0  -7  276.07  107.99
   0   0   7  237.78  169.08
  -1   0  -7  325.07   58.49
  -1   0  -7  288.37  135.89
   1   0   7  335.97  195.98
   1   0   7  409.06  197.48
   1   0   7  366.46   68.09
  -2   0  -7  171.58  184.78
   2   0   7   80.39   67.49
   3   0   7  438.46   95.49
   3   0   7  549.54  115.49
  -3   0  -7  889.81  251.87
   4   0   7 -214.08   93.69
   4   0   7  -31.10   90.29
  -4   0  -7  256.77  272.77
   9  -1  -7  339.57   64.79
   9  -1  -7   -1.90  298.07
   9  -1  -7  300.37  130.39
   9   1  -7  248.28  266.57
   9   1  -7  363.16   87.69
   9   1  -7  403.76  143.09
   8  -1  -7 -348.47  237.58
   8  -1  -7   80.49   94.79
   8  -1  -7  -31.30   45.70
   8  -1  -7   89.59   71.29
   8   1  -7   50.69   62.39
   8   1  -7   38.00  229.98
   8   1  -7  -41.20   91.79
   7  -1  -7   79.59  195.68
  -7  -1   7   28.40  114.69
   7  -1  -7   84.19   72.59
   7  -1  -7   -5.20   39.80
   7  -1  -7  -25.40   60.19
   7   1  -7 -109.79   54.49
   7   1  -7  -27.10   80.19
   7   1  -7  105.99   89.59
   7   1  -7   -6.90  201.88
   6  -1  -7  225.28   71.69
  -6  -1   7  122.49   92.19
   6  -1  -7   89.79  171.48
   6  -1  -7  149.99   47.60
   6  -1  -7   98.09   53.79
   6   1  -7  135.29   75.29
   6   1  -7  144.19   59.69
   6   1  -7 -110.29  199.18
   6   1  -7   47.50   71.59
  -5  -1   7 1367.16  138.49
   5  -1  -7 1213.08   98.89
   5  -1  -7 1107.19  217.58
   5  -1  -7 1236.18   86.89
   5   1  -7  939.41  119.29
   5   1  -7 1122.89  116.09
  -5   1   7 1206.48  122.59
   5   1  -7  896.31  218.68
   5   1  -7 1362.36  130.79
  -4  -1   7   71.19   58.59
   4  -1  -7   13.90   43.70
   4  -1  -7    9.70  130.39
   4  -1  -7  -20.60   44.90
   4   1  -7   19.90   35.00
  -4   1   7   76.29   50.19
   4   1  -7   34.80   60.09
   4   1  -7 -268.07  154.98
   3  -1  -7  100.49   61.09
  -3  -1   7   29.80   98.59
  -3  -1   7  100.09   50.29
  -3  -1   7  143.89  164.38
  -3  -1   7  128.09   67.59
   3  -1  -7   71.99   44.90
   3  -1  -7  144.29  133.59
   3   1  -7   34.60   48.50
   3   1  -7  132.69  155.08
   3   1  -7  100.59   55.59
   2  -1  -7   60.99   46.30
  -2  -1   7   95.49   52.19
   2  -1  -7  154.48  221.18
   2  -1  -7  168.58  224.78
  -2  -1   7  154.98  100.39
  -2  -1   7   91.59   53.29
   2   1  -7  114.29   50.89
   2   1  -7  132.69   63.19
   2   1  -7  102.89  170.48
   2   1  -7   34.50   53.49
  -2   1   7   95.89   38.90
   1  -1  -7 1642.94  192.78
  -1  -1   7  967.20  168.28
  -1  -1   7 1272.47  114.49
   1  -1  -7 1050.49   98.19
  -1   1   7 1168.58  137.19
  -1   1   7 1216.98   98.09
   1   1  -7 1440.86  223.98
   1   1  -7 1048.50  149.69
   1   1  -7 1168.68   97.09
   1   1  -7 1061.89  130.19
   0  -1   7   17.60  133.59
   0  -1  -7  161.38   53.09
   0  -1   7  141.99   55.99
   0  -1  -7   18.80  113.69
   0   1   7  102.39   54.69
   0   1  -7   30.20   64.49
   0   1   7  157.68   96.49
   0   1  -7   72.29   56.69
   0   1  -7  211.38  177.48
   0   1  -7   94.59   96.19
  -1  -1  -7   91.19   52.99
   1  -1   7   81.89   64.39
  -1  -1  -7    5.80  158.08
   1  -1   7  295.37  164.48
   1   1   7   81.69   60.19
  -1   1  -7   92.79  127.99
  -1   1  -7  165.88  180.98
  -2  -1  -7  158.28  209.98
   2  -1   7  218.68  235.48
   2  -1   7  261.47   79.59
  -2  -1  -7  130.29   70.29
  -2   1  -7  328.27  170.78
  -2   1  -7  361.86  219.28
   2   1   7  214.48   77.39
   3  -1   7  704.83  118.09
  -3  -1  -7  514.45  248.08
   3   1   7  594.44  119.49
  -3   1  -7 1119.29  239.08
  -3   1  -7  946.51  280.37
   3   1   7  596.84  109.69
  -4  -1  -7  194.38  281.87
   4  -1   7  -59.29  102.09
   4  -1   7  -31.80   88.49
   4   1   7  209.78  118.19
   4   1   7  -51.69  101.19
  -4   1  -7  -58.59  231.88
   8  -2  -7  215.18  109.59
  -8  -2   7  253.97  252.07
   8  -2  -7  218.98  291.17
   8   2  -7  265.17  128.59
   8   2  -7   14.90   74.29
   8   2  -7  337.87  298.27
   7  -2  -7  448.56  244.18
  -7  -2   7  860.61  183.08
  -7  -2   7  732.33  191.48
   7  -2  -7  543.15  111.19
   7   2  -7  617.34  126.19
   7   2  -7  539.75  253.07
   7   2  -7  664.93  107.49
  -6  -2   7  104.29  127.59
   6  -2  -7  157.08   75.29
  -6  -2   7  151.18  123.09
   6  -2  -7  274.37  187.58
   6   2  -7   41.20  205.58
   6   2  -7   78.79   73.59
   6   2  -7  115.79   88.09
   6   2  -7  -23.60   99.69
  -5  -2   7  146.09  101.49
   5  -2  -7  -27.90  172.68
  -5  -2   7   43.80   86.89
   5   2  -7   53.19   74.59
   5   2  -7 -233.28  186.88
   5   2  -7   60.29   84.09
   5   2  -7  -22.10   71.69
   4  -2  -7   49.40   61.69
  -4  -2   7   40.40   76.39
   4  -2  -7   16.00   46.70
  -4  -2   7   54.99   81.49
   4  -2  -7  -79.19  167.58
   4   2  -7  -72.99  185.68
   4   2  -7   61.09   72.59
   4   2  -7   32.20   81.69
   4   2  -7  110.69   62.89
  -3  -2   7  745.63  152.38
  -3  -2   7  134.09  173.78
   3  -2  -7  693.33  204.78
   3  -2  -7  654.43   87.39
  -3  -2   7  726.83   93.09
  -3  -2   7  848.82  116.79
   3  -2  -7  658.03  111.29
   3   2  -7  719.33   89.19
  -3   2   7  648.24   81.39
   3   2  -7  575.94   93.49
   3   2  -7  678.43  199.68
   2  -2  -7   41.20  106.19
  -2  -2   7  114.19   70.89
  -2  -2   7   91.59  148.19
  -2  -2   7  190.18   78.89
   2  -2  -7  -22.50   49.40
  -2  -2   7   90.89  118.49
   2   2  -7  148.19   69.49
   2   2  -7  150.48   61.69
  -2   2   7  117.79   49.10
   2   2  -7   59.69  175.68
  -2   2   7  212.08   56.79
   2   2  -7   11.60   72.09
   1  -2  -7  323.77  146.79
  -1  -2   7  258.37   83.09
  -1  -2   7  -29.50  114.19
  -1  -2   7  150.88   81.39
   1  -2  -7  271.27  140.59
   1  -2  -7   82.29   59.19
   1   2  -7  207.08   63.49
  -1   2   7  167.98   53.89
  -1   2   7  180.28   72.39
   1   2  -7  289.77  182.98
   1   2  -7  171.28   81.49
   0  -2  -7  206.88   75.09
   0  -2   7  215.68  166.88
   0  -2   7  238.58   84.19
   0  -2  -7   28.80  177.28
   0  -2  -7  364.36  172.48
   0   2  -7  416.86  123.69
   0   2  -7  147.49   74.99
   0   2   7  277.07  116.19
   0   2   7  374.36   69.69
   0   2  -7  414.96  192.38
  -1  -2  -7  294.67  176.28
  -1  -2  -7  -73.99  212.68
   1  -2   7   57.49  185.98
   1  -2   7  186.08   94.39
  -1  -2  -7  249.28   74.99
   1   2   7  361.16   84.19
  -1   2  -7  208.68  132.69
  -1   2  -7  100.59  181.28
   2  -2   7   98.29   94.99
  -2  -2  -7   95.59  235.58
   2   2   7   42.00   79.89
   3  -2   7  524.65  125.29
  -3  -2  -7  465.15  280.67
   3   2   7  278.97   94.69
   3   2   7  358.36  136.39
   4  -2   7   22.30  114.99
  -4  -2  -7 -347.27  311.17
   4   2   7 -195.38  131.89
   4   2   7 -152.78   92.89
  -7  -3   7  240.18  223.48
   7  -3  -7   78.09  296.57
   7  -3  -7  -96.29  107.19
  -7  -3   7  200.08  228.68
   7   3  -7  -56.89  143.59
   7   3  -7  146.19  101.59
   7   3  -7  267.87  317.77
  -6  -3   7   53.89  201.98
   6  -3  -7  -83.89   88.29
  -6  -3   7  191.08  176.38
   6  -3  -7  358.36  257.37
   6   3  -7  150.18   91.89
   6   3  -7    3.70  122.89
   6   3  -7  151.18  270.27
  -5  -3   7  804.92  158.28
  -5  -3   7  450.75  183.98
   5  -3  -7  899.81  276.37
   5   3  -7  759.52  129.89
   5   3  -7  811.72  124.99
   5   3  -7  704.83  282.67
  -4  -3   7   89.99  140.79
  -4  -3   7   42.20  116.49
   4  -3  -7 -305.97  216.08
   4   3  -7  -91.39   90.09
   4   3  -7   -4.30   83.39
   4   3  -7  232.58  225.38
   3  -3  -7  191.48  134.59
  -3  -3   7 -104.69  115.09
  -3  -3   7  -20.20  108.59
   3  -3  -7  -98.39  125.89
   3   3  -7  170.98  103.89
   3   3  -7   68.99  207.48
   3   3  -7   57.19   74.59
  -2  -3   7   83.39  113.09
   2  -3  -7    7.60   68.79
   2  -3  -7 -117.39  156.88
  -2  -3   7   83.39  114.89
   2  -3  -7  -81.89  148.39
  -2  -3   7  355.36  172.48
  -2  -3   7 -270.57  207.78
   2   3  -7   56.39   64.59
   2   3  -7 -149.79  173.78
  -2   3   7    6.90   71.99
   2   3  -7  -28.70   68.99
  -2   3   7  -22.10   81.59
   1  -3  -7  237.48  199.28
   1  -3  -7  470.25  192.48
  -1  -3   7  738.63  129.59
  -1  -3   7  607.44  195.78
  -1  -3   7  789.42  147.69
   1   3  -7  727.13  179.18
   1   3  -7  828.62  122.29
   0  -3  -7  119.69  218.78
   0  -3   7 -203.28  126.89
   0  -3   7  -25.00  111.29
   0  -3  -7   85.09  206.48
   0   3  -7   96.99  144.99
   0   3  -7   45.90  101.09
  -1  -3  -7 -206.38  256.37
   1  -3   7  130.79  119.89
  -1  -3  -7  418.86  246.68
   1  -3   7  182.38  155.98
  -2  -3  -7  629.64  303.77
   2  -3   7  179.98  139.49
  -2  -3  -7  448.66  318.97
   2  -3   7   92.19  189.88
   4  -4  -7   63.29  177.48
  -4  -4   7  -70.89  198.48
  -4  -4   7  -44.50  172.58
   4  -4  -7 -479.15  296.07
   4   4  -7 -254.97  275.27
   4   4  -7  197.48  158.08
  -3  -4   7  693.13  191.38
   3  -4  -7  248.58  203.68
  -3  -4   7  615.44  189.98
   3   4  -7  357.76  259.77
  -2  -4   7  -75.89  165.28
   2  -4  -7 -234.78  216.08
   2  -4  -7 -205.78  236.58
  -2  -4   7  215.48  159.18
   2   4  -7 -192.48  261.67
  -1  -4   7  -12.20  165.18
   1  -4  -7  -20.10  265.97
   1  -4  -7 -332.77  256.87
  -1  -4   7  191.08  176.58
   9   0  -8  504.85  293.67
   9   0  -8  -35.30  117.49
   9   0  -8  200.28   71.89
   8   0  -8   36.10  242.08
   8   0  -8  486.85   77.69
   8   0  -8  583.34  117.09
   7   0  -8   31.60   61.99
   7   0  -8  138.29   82.69
  -7   0   8   25.90  102.99
   7   0  -8 -253.57  207.48
   7   0  -8  -47.20   89.19
   6   0  -8  366.56  197.88
   6   0  -8  123.29   80.59
   6   0  -8  -45.00   63.99
   6   0  -8   54.59   56.09
   5   0  -8 1207.98  101.09
  -5   0   8  908.21  123.79
   5   0  -8  828.52  118.09
   5   0  -8  830.62  230.58
   4   0  -8  270.87   74.29
   4   0  -8  211.98   72.99
  -4   0   8  194.18   65.39
   4   0  -8  176.78  170.58
   3   0  -8  221.08   74.19
   3   0  -8  293.77  168.88
   3   0  -8  134.19   67.79
  -3   0   8  248.98   67.09
   2   0  -8   34.50  161.18
   2   0  -8  -44.50   90.19
  -2   0   8   10.00   57.49
  -1   0   8 1908.21  134.09
   1   0  -8 1568.14  124.89
   1   0  -8 1988.50  223.38
   1   0  -8 1899.91  277.57
  -1   0   8 1710.33  246.58
   0   0  -8  213.88   72.69
   0   0  -8  116.99  149.49
   0   0  -8  317.37  195.28
   0   0   8  176.78   66.99
   0   0   8 -117.79  176.08
  -1   0  -8  -69.39  182.08
   1   0   8   57.89   70.09
  -1   0  -8  -36.00  204.18
   2   0   8   -3.40   95.49
  -2   0  -8  -91.19  201.08
   3   0   8  549.05  120.69
  -3   0  -8  488.95  290.47
   9  -1  -8  -29.80  324.37
   9  -1  -8   75.39  123.79
   9  -1  -8   -6.80   61.29
   9   1  -8  -32.90  293.87
   9   1  -8   84.49   81.09
   9   1  -8  113.49  134.79
   8  -1  -8  292.97  251.87
   8  -1  -8  247.98   59.19
   8  -1  -8  160.38  106.19
   8   1  -8  122.99   75.99
   8   1  -8   32.80  263.27
   8   1  -8  239.88  112.99
  -7  -1   8  174.28  124.59
   7  -1  -8   66.89   54.39
   7  -1  -8   49.30   81.99
   7  -1  -8   58.49   67.89
   7  -1  -8  -31.40  220.38
   7   1  -8  240.58  241.98
   7   1  -8  -57.49   84.89
   7   1  -8   45.00   69.19
   6  -1  -8  272.37   70.99
  -6  -1   8  475.55  114.89
   6  -1  -8   17.60  186.58
   6   1  -8  414.76   87.19
  -6   1   8  231.28   88.09
   6   1  -8  325.97   87.79
   6   1  -8  206.78   92.19
   6   1  -8  225.58  232.78
   5  -1  -8   16.20   48.90
   5  -1  -8  -33.20   59.39
  -5  -1   8   10.90   89.59
   5  -1  -8 -272.07  161.58
   5   1  -8   60.29   73.09
  -5   1   8  140.99   72.29
   5   1  -8  132.09  207.08
  -4  -1   8  768.82  108.69
   4  -1  -8  684.73   93.49
   4  -1  -8  570.34   78.69
   4  -1  -8  516.35  192.98
   4   1  -8  829.22  101.39
   4   1  -8  592.44  224.28
  -4   1   8  749.82   81.49
   4   1  -8  439.56   85.89
   3  -1  -8  943.31  125.69
   3  -1  -8  892.01  105.29
  -3  -1   8  924.21  108.79
   3  -1  -8  958.50  237.68
  -3   1   8  949.51   95.69
   3   1  -8  851.71  234.28
   3   1  -8 1020.00  131.99
   2  -1  -8  121.79  185.68
  -2  -1   8   94.19   66.69
   2  -1  -8  -12.80  102.39
  -2  -1   8   13.50   68.99
   2  -1  -8    5.10   61.69
   2   1  -8  -75.69   63.29
  -2   1   8  -68.89   49.80
   2   1  -8   -5.00  204.98
   2   1  -8   19.10   70.79
  -1  -1   8  124.69   65.99
   1  -1  -8   80.79   61.89
   1  -1  -8 -191.58  120.09
   1   1  -8   -0.70   70.59
   1   1  -8  115.39  206.78
  -1   1   8 -105.69   87.09
  -1   1   8   27.90   58.79
   1   1  -8   35.10   89.79
   0  -1  -8  427.66  179.78
   0  -1   8  546.75   91.69
   0  -1  -8  582.24   91.59
   0   1   8  524.55   92.89
   0   1  -8  429.16  139.69
   0   1  -8  678.43  221.58
   0   1   8  219.78  128.19
  -1  -1  -8 1380.36  253.37
  -1  -1  -8 1215.38  117.89
   1  -1   8 1149.48  137.39
  -1   1  -8 1148.19  202.78
  -1   1  -8 1256.27  271.47
   1   1   8  909.41  118.39
   2  -1   8  218.78  113.49
  -2  -1  -8   94.19  229.08
  -2   1  -8  469.15  260.17
  -2   1  -8  420.26  217.78
   2   1   8  100.69   87.09
  -3  -1  -8 -448.26  292.07
   3  -1   8  166.18  102.69
  -3   1  -8  264.97  235.18
   3   1   8  275.47  110.89
  -3   1  -8  419.26  343.77
   8  -2  -8  394.06  121.39
   8  -2  -8  432.16  325.67
   8   2  -8  515.25  142.89
   8   2  -8  450.05   99.39
   8   2  -8  117.19  322.07
  -7  -2   8   18.60  182.28
   7  -2  -8  110.69  244.68
   7  -2  -8   31.20   94.29
  -7  -2   8 -121.99  153.68
   7   2  -8  -83.29   75.99
   7   2  -8 -232.58  254.07
   7   2  -8  109.09  110.39
  -6  -2   8   13.80  130.89
   6  -2  -8  -33.40  216.18
  -6  -2   8  347.87  134.99
   6   2  -8   25.50  268.37
   6   2  -8  204.38   96.99
   6   2  -8  -99.29   85.69
   5  -2  -8  801.32  251.97
  -5  -2   8  797.62  122.69
   5  -2  -8  791.62  110.09
  -5  -2   8  741.93  143.09
   5   2  -8  443.56  258.07
   5   2  -8  737.03  123.09
   5   2  -8  746.93  115.39
   5   2  -8  894.31  123.29
  -4  -2   8  277.87   97.79
   4  -2  -8 -146.79  207.98
   4  -2  -8  251.17   87.19
  -4  -2   8  123.99  100.49
   4  -2  -8  140.89   63.39
   4   2  -8  127.69   95.99
   4   2  -8   -5.20  260.67
   3  -2  -8  383.06  210.88
  -3  -2   8   21.50   86.99
   3  -2  -8  243.28   73.49
  -3  -2   8    7.80   90.59
   3  -2  -8   82.09  109.69
   3   2  -8   30.00  248.28
   3   2  -8  313.37   90.29
  -3   2   8   86.29   61.99
  -2  -2   8  104.59   96.29
  -2  -2   8   58.59   90.99
   2  -2  -8  135.69   70.99
   2  -2  -8   21.00  131.69
  -2   2   8   87.49   58.09
   2   2  -8   -5.00  231.98
   2   2  -8   19.80   89.69
  -1  -2   8 1311.27  187.68
   1  -2  -8 1217.28  135.69
   1  -2  -8  885.11  197.18
  -1   2   8 1537.35  129.79
   1   2  -8 1628.24  293.47
  -1   2   8 1472.15  184.28
   1   2  -8 1530.65  202.88
   0  -2  -8 -184.08  174.78
   0  -2   8   37.60  100.99
   0  -2   8  341.17  231.88
   0   2   8  140.19   76.49
   0   2  -8  258.17  129.19
   0   2  -8  257.77  237.58
   1  -2   8   74.29  108.89
  -1  -2  -8   -2.00  211.08
  -1   2  -8  -23.20  163.08
   1   2   8  -45.50   82.69
  -1   2  -8  -24.10  226.48
   2  -2   8  210.48  116.29
  -2  -2  -8  660.83  302.97
   2   2   8  102.99   95.59
  -2   2  -8  -10.10  183.88
   6  -3  -8  197.68  107.29
  -6  -3   8  330.77  213.08
   6  -3  -8 -228.78  264.97
  -6  -3   8  193.58  191.98
   6   3  -8  519.15  148.89
   6   3  -8  443.06  137.19
   6   3  -8   27.30  325.27
  -5  -3   8  -78.59  148.59
  -5  -3   8   10.80  165.48
   5  -3  -8  266.27  267.27
   5   3  -8 -132.99  109.99
   5   3  -8  673.73  314.67
   5   3  -8 -108.59  112.49
  -4  -3   8  128.39  143.89
   4  -3  -8  379.66  128.89
   4  -3  -8  211.28  254.77
  -4  -3   8  534.65  184.78
   4  -3  -8  251.47   77.09
   4   3  -8  319.47  111.79
   4   3  -8 -157.78  275.97
   4   3  -8  432.16  134.69
  -3  -3   8  567.94  151.98
  -3  -3   8  744.93  149.39
   3  -3  -8  335.47  169.88
   3   3  -8  712.63  111.39
   3   3  -8  600.64  279.87
   3   3  -8  517.65  141.39
  -2  -3   8  218.38  136.39
   2  -3  -8  316.97  188.28
  -2  -3   8   54.39  132.69
   2  -3  -8  314.07  208.38
   2   3  -8 -340.57  219.98
   1  -3  -8 -311.27  238.58
  -1  -3   8    4.60  125.49
  -1  -3   8 -151.08  139.99
   1  -3  -8  177.38  219.98
   1   3  -8 -157.08  102.89
   1   3  -8  -49.00  199.98
   0  -3   8  229.68  148.29
   0  -3  -8  161.68  263.67
   0  -3   8  454.45  172.78
   0  -3  -8  333.17  289.67
   0   3  -8  337.37  201.58
  -1  -3  -8  628.94  351.46
   1  -3   8  862.91  220.18
   1  -3   8  347.37  168.08
  -1  -3  -8  583.64  284.27
   8   0  -9    4.90   73.39
   8   0  -9   26.50  108.59
   8   0  -9  136.79  266.37
   7   0  -9  329.17  108.79
   7   0  -9  424.66   80.29
   7   0  -9  -29.50  240.68
   6   0  -9  581.14  255.97
  -5   0   9   46.40   81.39
   5   0  -9 -290.77  205.28
   5   0  -9  -44.40   85.49
   5   0  -9   67.69   61.99
   4   0  -9  166.68  217.78
   4   0  -9  -20.60   85.19
   4   0  -9   -2.30   76.09
  -4   0   9   16.40   75.79
   3   0  -9  143.29   90.59
   3   0  -9  192.38  201.38
  -3   0   9    7.90   69.69
   3   0  -9   -2.30   76.49
   2   0  -9  774.52  150.78
   2   0  -9  571.54   86.99
   2   0  -9  153.38  216.38
  -2   0   9  553.84   92.99
  -1   0   9   50.59   76.39
   1   0  -9 -106.49  210.28
  -1   0   9  -68.89  156.88
   1   0  -9  -26.80   82.49
   1   0  -9   14.30  136.09
   0   0   9  -31.20   83.39
   0   0  -9  293.67  176.38
   0   0  -9  218.38  248.98
   1   0   9   -2.20  100.09
  -1   0  -9  105.49  278.27
  -1   0  -9 -138.49  197.08
  -2   0  -9   70.09  327.47
   2   0   9  153.88  115.69
  -2   0  -9 -136.59  248.58
   8  -1  -9  502.15   79.59
   8  -1  -9  168.58  284.67
   8  -1  -9  504.55  131.59
   8   1  -9  443.16   97.79
   8   1  -9  588.14  307.47
   8   1  -9  641.94  138.89
   7  -1  -9   91.09   73.69
   7  -1  -9   20.10   91.79
   7  -1  -9  -18.40  236.58
   7   1  -9  201.08  102.49
   7   1  -9  170.08   80.29
   7   1  -9  136.19  282.67
   6  -1  -9 -237.08  203.98
  -6  -1   9  -79.19  115.59
   6  -1  -9  -40.10   55.39
   6   1  -9  224.58   95.49
   6   1  -9  218.48  248.58
   6   1  -9   49.99   83.09
   5  -1  -9  108.89   75.39
  -5  -1   9   99.19  113.69
   5  -1  -9 -272.97  199.28
   5  -1  -9   29.90   69.09
   5   1  -9    2.30  235.38
   5   1  -9   -3.00   71.49
  -5   1   9  232.28   76.39
   5   1  -9  -91.59   89.29
   4  -1  -9 1135.09  161.78
  -4  -1   9 1268.07  172.88
   4  -1  -9 1001.60  131.79
   4  -1  -9 1095.69  244.78
  -4   1   9 1590.54  147.89
   4   1  -9  904.21  293.07
   3  -1  -9  119.99  214.68
  -3  -1   9  -45.40   85.99
   3  -1  -9  358.16  114.89
   3  -1  -9   58.79   76.79
   3   1  -9  -53.19   88.39
   3   1  -9  208.08   98.79
  -3   1   9  -11.60   65.39
   3   1  -9  474.45  266.37
   2  -1  -9  -89.49  214.48
  -2  -1   9  -88.49  182.38
  -2  -1   9   93.69   96.29
   2  -1  -9  -52.39   75.59
   2  -1  -9  242.68  141.59
  -2  -1   9  -25.00   82.79
   2   1  -9  173.28  127.29
   2   1  -9  -64.19  103.99
  -2   1   9   12.00   71.59
   2   1  -9 -110.49  253.57
   1  -1  -9 -110.19  151.38
  -1  -1   9  210.08  101.89
   1  -1  -9   39.20   79.29
   1  -1  -9  424.26  257.57
   1   1  -9  116.99  266.47
   1   1  -9  269.87  140.89
  -1   1   9  332.57  109.99
  -1   1   9  275.37   84.49
   0  -1  -9  905.51  228.58
   0  -1   9 1157.68  152.38
   0   1   9  754.12  116.79
   0   1  -9 1600.34  348.57
   0   1  -9  890.61  194.18
   1  -1   9  348.67  114.59
  -1  -1  -9  166.28  229.88
  -1   1  -9  686.83  298.37
   1   1   9  283.87  100.09
  -1   1  -9  254.97  205.88
   2  -1   9  166.68  118.69
  -2  -1  -9  100.49  287.27
   2   1   9  222.08  120.59
  -2   1  -9  468.85  290.27
  -2   1  -9  326.47  309.17
   7  -2  -9  262.67  113.49
   7  -2  -9  -12.00  277.77
   7   2  -9  281.47  110.49
   7   2  -9  282.27  127.29
   7   2  -9  376.56  334.37
  -6  -2   9  588.64  160.48
   6  -2  -9  438.36   76.99
   6  -2  -9  507.65  265.17
   6   2  -9  449.86  116.29
   6   2  -9  403.66  323.07
   6   2  -9  578.14  129.49
  -5  -2   9   17.00  131.99
  -5  -2   9   32.00  118.89
   5  -2  -9  275.27  236.38
   5  -2  -9   78.89   83.19
   5   2  -9   82.89   98.89
   5   2  -9 -357.46  288.97
   5   2  -9  -69.19  103.49
   4  -2  -9  -39.10  121.09
   4  -2  -9  131.59  231.48
  -4  -2   9   44.10  133.19
  -4  -2   9  282.57  112.09
   4   2  -9  117.69   85.39
   4   2  -9  297.17  306.27
  -3  -2   9 -200.78  117.19
   3  -2  -9 -191.88  141.69
  -3  -2   9  204.68  110.49
   3  -2  -9  356.16  249.38
   3   2  -9   26.50  314.47
   3   2  -9  -11.50   97.69
  -2  -2   9  566.24  142.59
  -2  -2   9  324.87  125.69
   2  -2  -9  149.49  177.28
   2   2  -9  506.15  156.88
   2   2  -9  208.48  331.97
  -1  -2   9  -45.90  111.29
  -1  -2   9  -78.99  137.49
   1  -2  -9  392.06  199.58
   1   2  -9 -167.18  129.09
   1   2  -9  112.59  314.57
   0  -2   9  -61.69  136.69
   0  -2  -9   94.09  234.98
   0   2  -9   63.99  293.17
   0   2  -9  355.66  177.28
  -1  -2  -9   82.29  261.77
   1  -2   9  112.69  130.89
  -5  -3   9  -61.79  218.08
  -5  -3   9  -48.50  170.48
   5  -3  -9  156.08  307.77
   5   3  -9   46.10  127.89
   5   3  -9  -13.00  130.49
   5   3  -9  230.38  346.77
   4  -3  -9  771.52  178.08
  -4  -3   9  916.91  203.08
   4  -3  -9 1147.39  334.57
  -4  -3   9  646.54  189.28
   4   3  -9  778.92  147.29
   4   3  -9  922.11  170.68
   4   3  -9  470.55  338.77
   3  -3  -9  332.57  309.77
  -3  -3   9  299.97  189.68
   3  -3  -9   68.79  191.88
  -3  -3   9 -376.36  156.58
   3   3  -9   10.00  155.88
   3   3  -9  277.57  115.29
   3   3  -9 -181.18  304.47
   2  -3  -9   50.19  231.08
  -2  -3   9   26.60  168.88
   2  -3  -9   67.79  255.77
  -2  -3   9  277.47  175.88
   2   3  -9   50.59  129.29
   2   3  -9  260.67  286.97
  -1  -3   9  111.69  164.38
   1  -3  -9 -138.79  313.97
  -1  -3   9  217.18  178.48
   1  -3  -9  402.66  268.47
   8   0 -10 -125.69   86.69
   8   0 -10 -236.58  312.17
   8   0 -10  -40.70  119.49
   7   0 -10  195.78  274.67
   7   0 -10   79.89   93.09
   7   0 -10   82.19  100.49
   6   0 -10 -126.39   75.39
   6   0 -10 -185.98  245.48
  -5   0  10  -81.49  111.79
   5   0 -10  391.36  103.09
   5   0 -10   73.29  265.07
   4   0 -10  280.17  247.68
   4   0 -10  300.77  118.59
  -4   0  10   58.59   92.19
   3   0 -10  -21.20  250.27
   3   0 -10  -10.80  116.99
  -3   0  10   88.99  100.89
   2   0 -10   91.19  165.58
  -2   0  10   69.89  101.69
   2   0 -10  -20.80  253.37
   1   0 -10  335.57  275.57
  -1   0  10  547.85  122.19
   1   0 -10  531.95  197.78
   0   0 -10  569.94  229.88
   0   0  10  453.45  119.69
   0   0 -10   59.39  309.57
  -1   0 -10  247.78  264.27
  -1   0 -10  487.25  358.76
   1   0  10  343.37  131.99
   7  -1 -10  160.58  273.47
   7  -1 -10  216.38  112.49
   7  -1 -10  322.17   90.69
   7   1 -10   63.09  316.67
   7   1 -10  394.56  125.09
   7   1 -10  198.28  105.49
   6  -1 -10  128.39  256.37
   6  -1 -10  108.09   82.69
   6   1 -10   19.10   97.09
   6   1 -10  412.06  305.77
   6   1 -10 -145.99   91.59
   5  -1 -10  508.45  115.49
  -5  -1  10  343.87  137.99
   5  -1 -10  205.68  245.48
   5   1 -10  393.76  308.97
   5   1 -10  547.45  113.39
   4  -1 -10 -117.49  113.99
   4  -1 -10  112.59  238.38
  -4  -1  10  236.78  125.19
   4   1 -10   18.40   99.29
   4   1 -10 -200.58  295.27
   3  -1 -10  278.07  252.17
  -3  -1  10  690.53  129.09
   3  -1 -10  498.85  159.48
   3   1 -10  322.37  319.47
   3   1 -10  656.93  136.89
   2  -1 -10  566.24  290.47
   2  -1 -10  733.63  190.48
  -2  -1  10  577.54  128.99
  -2  -1  10  874.91  145.49
   2   1 -10  821.92  175.98
   2   1 -10  502.85  329.37
   1  -1 -10   80.19  269.87
   1  -1 -10 -132.89  201.38
  -1  -1  10   83.89  129.69
   1   1 -10 -127.49  171.68
  -1   1  10   19.60  107.19
   1   1 -10  314.57  352.56
   0  -1 -10  368.36  306.57
   0  -1 -10  154.18  239.58
   0  -1  10   40.20  142.09
   0   1 -10  -64.49  368.86
   0   1 -10  160.88  217.98
   6  -2 -10  266.87   95.29
   6  -2 -10  100.89  279.27
   6   2 -10  495.75  380.16
   6   2 -10   77.99  118.69
   6   2 -10  180.58  123.79
  -5  -2  10  273.27  156.98
   5  -2 -10  103.89  279.97
   5  -2 -10  371.96  124.59
   5   2 -10  439.76  129.99
   5   2 -10  411.16  121.29
   5   2 -10  582.54  374.86
   4  -2 -10   56.49  284.77
   4  -2 -10   -3.60  152.48
  -4  -2  10  313.57  130.79
  -4  -2  10 -183.08  161.18
   4   2 -10   32.10  379.56
   4   2 -10  142.39  118.99
  -3  -2  10  198.08  151.38
   3  -2 -10  146.59  182.98
  -3  -2  10   46.50  143.49
   3  -2 -10  480.95  299.37
   3   2 -10  499.75  402.06
   3   2 -10  -43.20  128.09
   2  -2 -10  133.29  301.77
  -2  -2  10   64.49  144.19
   2  -2 -10   23.80  216.88
  -2  -2  10  268.47  159.68
   2   2 -10  208.78  155.88
   2   2 -10  140.69  401.56
   1  -2 -10 -249.08  232.08
  -1  -2  10  220.68  158.68
  -1  -2  10  567.24  202.58
   1   2 -10  722.43  201.28
   1   2 -10  547.05  409.46
   6   0 -11  916.21  137.29
   6   0 -11  728.13  342.27
   5   0 -11  379.76  125.79
   5   0 -11  359.06  333.97
   4   0 -11  -52.39  130.39
   4   0 -11  288.37  296.77
   3   0 -11  406.96  320.67
   3   0 -11  394.26  169.38
   2   0 -11  301.67  188.28
   2   0 -11 -296.17  295.77
   1   0 -11  326.07  343.17
   1   0 -11  313.57  215.08
   6  -1 -11  211.78  110.09
   6  -1 -11   56.09  309.67
   6   1 -11  498.05  368.56
   5  -1 -11 -164.48  286.77
   5  -1 -11  124.89  130.09
   5   1 -11   -4.60  338.97
   5   1 -11  166.08  130.09
   4  -1 -11  167.08  154.98
   4  -1 -11 -308.47  275.57
  -4  -1  11   99.99  153.68
   4   1 -11  327.07  138.59
   4   1 -11  187.38  359.46
  -3  -1  11  365.46  136.19
   3  -1 -11  438.76  194.68
   3  -1 -11  149.79  311.37
   3   1 -11  393.86  381.06
   3   1 -11  892.61  193.38
  -2  -1  11    4.50  152.38
   2  -1 -11  212.38  341.37
  -2  -1  11   60.39  147.79
   2  -1 -11  117.59  204.88
   2   1 -11 -466.15  398.96
   2   1 -11   -0.90  174.98
   0   0   0    0.00    0.00

_computing_structure_solution     'SHELXT 2014/5 (Sheldrick, 2014)'
;
_shelx_hkl_checksum              74419
loop_
_space_group_symop_operation_xyz
'x, y, z'
'-x, y+1/2, -z'
'-x, -y, -z'
'x, -y-1/2, z'
loop_
_atom_site_type_symbol
_atom_site_label
_atom_site_fract_x
_atom_site_fract_y
_atom_site_fract_z
_atom_site_U_iso_or_equiv
_atom_site_adp_type
_atom_site_calc_flag
_atom_site_refinement_flags_adp
_atom_site_refinement_flags_occupancy
_atom_site_refinement_flags_posn
_atom_site_occupancy
Sb Sb 0.38355(15) 0.75 0.29757(14) 0.0128(3) Uani d TU P S 1
Sr Sr 0.1529(2) 0.25 -0.09042(18) 0.0101(4) Uani d T P S 1
Se Se1 0.8729(2) -0.25 0.6349(2) 0.0104(4) Uani d T P S 1
Se Se2 0.5725(2) 0.25 0.2074(2) 0.0115(4) Uani d T P S 1
Cu Cu 0.8621(3) 0.25 0.4641(3) 0.0205(6) Uani d T P S 1
O O 0.1777(13) 0.75 0.0825(12) 0.0123(8) Uani d TU P S 1
loop_
_atom_site_aniso_label
_atom_site_aniso_U_11
_atom_site_aniso_U_22
_atom_site_aniso_U_33
_atom_site_aniso_U_12
_atom_site_aniso_U_13
_atom_site_aniso_U_23
Sb 0.0113(6) 0.0129(6) 0.0082(7) 0 -0.0023(5) 0
Sr 0.0107(8) 0.0091(9) 0.0088(10) 0 0.0022(7) 0
Se1 0.0101(8) 0.0105(9) 0.0093(10) 0 0.0025(7) 0
Se2 0.0078(9) 0.0124(10) 0.0123(10) 0 0.0021(8) 0
Cu 0.0199(12) 0.0225(13) 0.0176(14) 0 0.0061(10) 0
O 0.0107(12) 0.0128(12) 0.0080(11) 0 -0.0020(10) 0
loop_
_atom_type_symbol
_atom_type_description
_atom_type_scat_dispersion_real
_atom_type_scat_dispersion_imag
_atom_type_scat_source
Cu Cu 0.3201 1.2651 'International Tables Vol C Tables 4.2.6.8 and 6.1.1.4'
O O 0.0106 0.0060 'International Tables Vol C Tables 4.2.6.8 and 6.1.1.4'
Sb Sb -0.5866 1.5461 'International Tables Vol C Tables 4.2.6.8 and 6.1.1.4'
Se Se -0.0929 2.2259 'International Tables Vol C Tables 4.2.6.8 and 6.1.1.4'
Sr Sr -1.5307 3.2498 'International Tables Vol C Tables 4.2.6.8 and 6.1.1.4'
loop_
_geom_angle_atom_site_label_1
_geom_angle_atom_site_label_2
_geom_angle_atom_site_label_3
_geom_angle_site_symmetry_1
_geom_angle_site_symmetry_3
_geom_angle
O Sb Se2 . 1_565 90.9(2)
O Sb Se2 . . 90.9(2)
Se2 Sb Se2 1_565 . 92.59(6)
O Sb Se1 . 3_656 82.6(2)
Se2 Sb Se1 1_565 3_656 172.14(5)
Se2 Sb Se1 . 3_656 91.90(4)
O Sb Se1 . 3_666 82.6(2)
Se2 Sb Se1 1_565 3_666 91.90(4)
Se2 Sb Se1 . 3_666 172.14(5)
Se1 Sb Se1 3_656 3_666 82.94(5)
O Sb Sr . 3_565 38.9(3)
Se2 Sb Sr 1_565 3_565 116.46(4)
Se2 Sb Sr . 3_565 116.46(4)
Se1 Sb Sr 3_656 3_565 55.70(4)
Se1 Sb Sr 3_666 3_565 55.70(4)
O Sb Sr . . 36.11(13)
Se2 Sb Sr 1_565 . 102.50(5)
Se2 Sb Sr . . 56.69(4)
Se1 Sb Sr 3_656 . 74.72(4)
Se1 Sb Sr 3_666 . 115.96(5)
Sr Sb Sr 3_565 . 62.20(4)
O Sb Sr . 1_565 36.11(13)
Se2 Sb Sr 1_565 1_565 56.69(4)
Se2 Sb Sr . 1_565 102.50(5)
Se1 Sb Sr 3_656 1_565 115.96(5)
Se1 Sb Sr 3_666 1_565 74.72(4)
Sr Sb Sr 3_565 1_565 62.20(4)
Sr Sb Sr . 1_565 63.95(4)
O Sr O . 1_545 106.8(4)
O Sr O . 3_565 79.1(3)
O Sr O 1_545 3_565 79.1(3)
O Sr Se1 . 1_454 146.7(2)
O Sr Se1 1_545 1_454 80.72(19)
O Sr Se1 3_565 1_454 70.44(17)
O Sr Se1 . 1_464 80.72(19)
O Sr Se1 1_545 1_464 146.7(2)
O Sr Se1 3_565 1_464 70.44(17)
Se1 Sr Se1 1_454 1_464 76.78(5)
O Sr Se2 . . 71.5(2)
O Sr Se2 1_545 . 71.5(2)
O Sr Se2 3_565 . 129.4(2)
Se1 Sr Se2 1_454 . 139.48(3)
Se1 Sr Se2 1_464 . 139.48(3)
O Sr Se2 . 3_665 79.3(2)
O Sr Se2 1_545 3_665 140.7(2)
O Sr Se2 3_565 3_665 139.15(10)
Se1 Sr Se2 1_454 3_665 115.75(6)
Se1 Sr Se2 1_464 3_665 72.13(5)
Se2 Sr Se2 . 3_665 74.12(6)
O Sr Se2 . 3_655 140.7(2)
O Sr Se2 1_545 3_655 79.3(2)
O Sr Se2 3_565 3_655 139.15(10)
Se1 Sr Se2 1_454 3_655 72.13(5)
Se1 Sr Se2 1_464 3_655 115.75(6)
Se2 Sr Se2 . 3_655 74.12(6)
Se2 Sr Se2 3_665 3_655 73.30(5)
O Sr Cu . 1_454 122.27(19)
O Sr Cu 1_545 1_454 122.27(19)
O Sr Cu 3_565 1_454 82.1(2)
Se1 Sr Cu 1_454 1_454 41.59(3)
Se1 Sr Cu 1_464 1_454 41.59(3)
Se2 Sr Cu . 1_454 148.48(7)
Se2 Sr Cu 3_665 1_454 80.73(5)
Se2 Sr Cu 3_655 1_454 80.73(5)
O Sr Sb . 3_565 95.9(2)
O Sr Sb 1_545 3_565 95.9(2)
O Sr Sb 3_565 3_565 28.5(2)
Se1 Sr Sb 1_454 3_565 50.77(3)
Se1 Sr Sb 1_464 3_565 50.77(3)
Se2 Sr Sb . 3_565 157.91(6)
Se2 Sr Sb 3_665 3_565 122.49(5)
Se2 Sr Sb 3_655 3_565 122.49(5)
Cu Sr Sb 1_454 3_565 53.61(4)
O Sr Sb . 1_545 87.76(19)
O Sr Sb 1_545 1_545 27.21(19)
O Sr Sb 3_565 1_545 94.11(19)
Se1 Sr Sb 1_454 1_545 107.11(3)
Se1 Sr Sb 1_464 1_545 162.16(6)
Se2 Sr Sb . 1_545 45.68(3)
Se2 Sr Sb 3_665 1_545 119.20(5)
Se2 Sr Sb 3_655 1_545 81.70(4)
Cu Sr Sb 1_454 1_545 147.897(19)
Sb Sr Sb 3_565 1_545 117.80(4)
O Sr Sb . . 27.21(19)
O Sr Sb 1_545 . 87.76(19)
O Sr Sb 3_565 . 94.11(19)
Se1 Sr Sb 1_454 . 162.16(6)
Se1 Sr Sb 1_464 . 107.11(3)
Se2 Sr Sb . . 45.68(3)
Se2 Sr Sb 3_665 . 81.70(4)
Se2 Sr Sb 3_655 . 119.20(5)
Cu Sr Sb 1_454 . 147.898(18)
Sb Sr Sb 3_565 . 117.80(4)
Sb Sr Sb 1_545 . 63.95(4)
Cu Se1 Cu 1_545 . 106.26(10)
Cu Se1 Cu 1_545 3_756 67.42(6)
Cu Se1 Cu . 3_756 67.42(6)
Cu Se1 Sb 1_545 3_656 74.24(5)
Cu Se1 Sb . 3_656 142.00(8)
Cu Se1 Sb 3_756 3_656 138.31(3)
Cu Se1 Sb 1_545 3_666 142.00(8)
Cu Se1 Sb . 3_666 74.25(5)
Cu Se1 Sb 3_756 3_666 138.31(3)
Sb Se1 Sb 3_656 3_666 82.94(5)
Cu Se1 Sr 1_545 1_656 144.47(7)
Cu Se1 Sr . 1_656 79.65(5)
Cu Se1 Sr 3_756 1_656 83.87(6)
Sb Se1 Sr 3_656 1_656 122.61(7)
Sb Se1 Sr 3_666 1_656 73.53(4)
Cu Se1 Sr 1_545 1_646 79.65(5)
Cu Se1 Sr . 1_646 144.47(7)
Cu Se1 Sr 3_756 1_646 83.87(6)
Sb Se1 Sr 3_656 1_646 73.53(4)
Sb Se1 Sr 3_666 1_646 122.61(7)
Sr Se1 Sr 1_656 1_646 76.78(5)
Cu Se2 Sb . . 95.77(6)
Cu Se2 Sb . 1_545 95.77(6)
Sb Se2 Sb . 1_545 92.59(6)
Cu Se2 Sr . . 170.30(9)
Sb Se2 Sr . . 77.62(5)
Sb Se2 Sr 1_545 . 77.62(5)
Cu Se2 Sr . 3_665 81.80(6)
Sb Se2 Sr . 3_665 97.04(3)
Sb Se2 Sr 1_545 3_665 170.25(5)
Sr Se2 Sr . 3_665 105.88(6)
Cu Se2 Sr . 3_655 81.80(6)
Sb Se2 Sr . 3_655 170.25(5)
Sb Se2 Sr 1_545 3_655 97.04(3)
Sr Se2 Sr . 3_655 105.88(6)
Sr Se2 Sr 3_665 3_655 73.30(5)
Se2 Cu Se1 . 1_565 111.66(7)
Se2 Cu Se1 . . 111.66(7)
Se1 Cu Se1 1_565 . 106.26(10)
Se2 Cu Se1 . 3_756 102.25(10)
Se1 Cu Se1 1_565 3_756 112.58(6)
Se1 Cu Se1 . 3_756 112.58(6)
Se2 Cu Cu . 3_766 121.56(9)
Se1 Cu Cu 1_565 3_766 56.43(6)
Se1 Cu Cu . 3_766 126.75(12)
Se1 Cu Cu 3_756 3_766 56.15(7)
Se2 Cu Cu . 3_756 121.56(9)
Se1 Cu Cu 1_565 3_756 126.75(12)
Se1 Cu Cu . 3_756 56.43(6)
Se1 Cu Cu 3_756 3_756 56.15(7)
Cu Cu Cu 3_766 3_756 92.04(12)
Se2 Cu Sr . 1_656 158.18(9)
Se1 Cu Sr 1_565 1_656 58.77(5)
Se1 Cu Sr . 1_656 58.77(5)
Se1 Cu Sr 3_756 1_656 99.57(8)
Cu Cu Sr 3_766 1_656 71.56(8)
Cu Cu Sr 3_756 1_656 71.56(8)
Se2 Cu Sr . 3_655 59.10(6)
Se1 Cu Sr 1_565 3_655 158.02(6)
Se1 Cu Sr . 3_655 95.70(4)
Se1 Cu Sr 3_756 3_655 55.95(5)
Cu Cu Sr 3_766 3_655 109.20(10)
Cu Cu Sr 3_756 3_655 65.43(7)
Sr Cu Sr 1_656 3_655 136.99(4)
Se2 Cu Sr . 3_665 59.10(6)
Se1 Cu Sr 1_565 3_665 95.70(4)
Se1 Cu Sr . 3_665 158.02(6)
Se1 Cu Sr 3_756 3_665 55.95(5)
Cu Cu Sr 3_766 3_665 65.43(7)
Cu Cu Sr 3_756 3_665 109.20(10)
Sr Cu Sr 1_656 3_665 136.99(4)
Sr Cu Sr 3_655 3_665 62.32(5)
Sb O Sr . . 116.7(3)
Sb O Sr . 1_565 116.7(3)
Sr O Sr . 1_565 106.8(4)
Sb O Sr . 3_565 112.6(4)
Sr O Sr . 3_565 100.9(3)
Sr O Sr 1_565 3_565 100.9(3)
loop_
_geom_bond_atom_site_label_1
_geom_bond_atom_site_label_2
_geom_bond_site_symmetry_2
_geom_bond_distance
Sb O . 1.942(9)
Sb Se2 1_565 2.7803(15)
Sb Se2 . 2.7804(15)
Sb Se1 3_656 3.0353(15)
Sb Se1 3_666 3.0353(15)
Sb Sr 3_565 3.758(2)
Sb Sr . 3.7957(18)
Sb Sr 1_565 3.7957(18)
Sr O . 2.503(6)
Sr O 1_545 2.503(6)
Sr O 3_565 2.556(10)
Sr Se1 1_454 3.2367(18)
Sr Se1 1_464 3.2367(18)
Sr Se2 . 3.248(2)
Sr Se2 3_665 3.3674(18)
Sr Se2 3_655 3.3674(18)
Sr Cu 1_454 3.724(3)
Se1 Cu 1_545 2.5125(16)
Se1 Cu . 2.5125(16)
Se1 Cu 3_756 2.521(3)
Se2 Cu . 2.475(3)
Cu Cu 3_766 2.793(3)
Cu Cu 3_756 2.793(3)
