#------------------------------------------------------------------------------
#$Date: 2021-03-24 01:19:02 +0200 (Wed, 24 Mar 2021) $
#$Revision: 263264 $
#$URL: file:///home/coder/svn-repositories/cod/cif/4/00/38/4003893.cif $
#------------------------------------------------------------------------------
#
# This file is available in the Crystallography Open Database (COD),
# http://www.crystallography.net/
#
# All data on this site have been placed in the public domain by the
# contributors.
#
data_4003893
loop_
_publ_author_name
'Benin, Bogdan M.'
'McCall, Kyle M.'
'W\"orle, Michael'
'Borgeaud, Dominique'
'Vonderach, Thomas'
'Sakhatskyi, Kostiantyn'
'Yakunin, Sergii'
'G\"unther, Detlef'
'Kovalenko, Maksym V.'
_publ_section_title
;
 Lone-Pair-Induced Structural Ordering in the Mixed-Valent 0D
 Metal-Halides Rb23BiIIIxSbIII7--xSbV2Cl54 (0 &#x2264; x &#x2264; 7)
;
_journal_name_full               'Chemistry of Materials'
_journal_paper_doi               10.1021/acs.chemmater.0c04491
_journal_year                    2021
_chemical_formula_moiety         '0.25(Cl20 O4 Rb8 Sb4)'
_chemical_formula_sum            'Cl5 O Rb2 Sb'
_chemical_formula_weight         485.94
_space_group_crystal_system      orthorhombic
_space_group_IT_number           62
_space_group_name_Hall           '-P 2ac 2n'
_space_group_name_H-M_alt        'P n m a'
_atom_sites_solution_primary     dual
_audit_creation_date             2020-08-31
_audit_creation_method
;
Olex2 1.2
(compiled 2018.05.29 svn.r3508 for OlexSys, GUI svn.r5506)
;
_cell_angle_alpha                90
_cell_angle_beta                 90
_cell_angle_gamma                90
_cell_formula_units_Z            4
_cell_length_a                   14.0332(6)
_cell_length_b                   10.1091(4)
_cell_length_c                   7.2292(3)
_cell_measurement_reflns_used    8737
_cell_measurement_temperature    300
_cell_measurement_theta_max      31.3950
_cell_measurement_theta_min      2.8710
_cell_volume                     1025.56(7)
_computing_cell_refinement       'CrysAlisPro 1.171.40.16b (Rigaku OD, 2018)'
_computing_data_collection       'SMART v5.630 (Bruker, 2003)'
_computing_data_reduction        'CrysAlisPro 1.171.40.16b (Rigaku OD, 2018)'
_computing_molecular_graphics    'Olex2 (Dolomanov et al., 2009)'
_computing_publication_material  'Olex2 (Dolomanov et al., 2009)'
_computing_structure_refinement  'ShelXL (Sheldrick, 2015)'
_computing_structure_solution    'ShelXT (Sheldrick, 2015)'
_diffrn_ambient_temperature      300
_diffrn_detector                 'CCD plate'
_diffrn_measured_fraction_theta_full 1.000
_diffrn_measured_fraction_theta_max 0.942
_diffrn_measurement_details
;
List of Runs (angles in degrees, time in seconds):

  # Type    Start    End  Width  t~exp~   \w     \q     \k     \f   Frames
--------------------------------------------------------------------------
  1  \w      2.18 182.00   0.30   30.07    --   28.00  73.93 -25.82  600
  2  \w      2.18 182.00   0.30   30.07    --   28.00  73.93  94.18  600
  3  \w      2.18 182.00   0.30   30.06    --   28.00  73.93-145.82  600
;
_diffrn_measurement_device       'abstract diffractometer'
_diffrn_measurement_device_type
'Saxi-CrysAlisPro-abstract goniometer imported SAXI images'
_diffrn_measurement_method       '\w scans'
_diffrn_orient_matrix_type
'CrysAlisPro convention (1999,Acta A55,543-557)'
_diffrn_orient_matrix_UB_11      -0.0275381000
_diffrn_orient_matrix_UB_12      0.0527614000
_diffrn_orient_matrix_UB_13      0.0362507000
_diffrn_orient_matrix_UB_21      -0.0289087000
_diffrn_orient_matrix_UB_22      -0.0008213000
_diffrn_orient_matrix_UB_23      -0.0804235000
_diffrn_orient_matrix_UB_31      -0.0309969000
_diffrn_orient_matrix_UB_32      -0.0462603000
_diffrn_orient_matrix_UB_33      0.0429140000
_diffrn_radiation_monochromator  Parallel,graphite
_diffrn_radiation_probe          x-ray
_diffrn_radiation_type           MoK\a
_diffrn_radiation_wavelength     0.71073
_diffrn_reflns_av_R_equivalents  0.0415
_diffrn_reflns_av_unetI/netI     0.0190
_diffrn_reflns_Laue_measured_fraction_full 1.000
_diffrn_reflns_Laue_measured_fraction_max 0.942
_diffrn_reflns_limit_h_max       20
_diffrn_reflns_limit_h_min       -20
_diffrn_reflns_limit_k_max       14
_diffrn_reflns_limit_k_min       -14
_diffrn_reflns_limit_l_max       10
_diffrn_reflns_limit_l_min       -10
_diffrn_reflns_number            11208
_diffrn_reflns_point_group_measured_fraction_full 1.000
_diffrn_reflns_point_group_measured_fraction_max 0.942
_diffrn_reflns_theta_full        25.242
_diffrn_reflns_theta_max         31.520
_diffrn_reflns_theta_min         2.903
_diffrn_source                   'fine-focus sealed X-ray tube'
_diffrn_source_current           35.0
_diffrn_source_power             1.575
_diffrn_source_type              'Enhance (Mo) X-ray Source'
_diffrn_source_voltage           45.0
_exptl_absorpt_coefficient_mu    13.356
_exptl_absorpt_correction_T_max  2.374
_exptl_absorpt_correction_T_min  0.727
_exptl_absorpt_correction_type   multi-scan
_exptl_absorpt_process_details
;
CrysAlisPro 1.171.40.16b (Rigaku Oxford Diffraction, 2018)
Spherical absorption correction
 using equivalent radius and absorption coefficient.
Empirical absorption correction using spherical harmonics,
 implemented in SCALE3 ABSPACK scaling algorithm.
;
_exptl_crystal_colour            'clear yellowish white'
_exptl_crystal_colour_lustre     clear
_exptl_crystal_colour_modifier   yellowish
_exptl_crystal_colour_primary    white
_exptl_crystal_density_diffrn    3.147
_exptl_crystal_description       plate
_exptl_crystal_F_000             872
_exptl_crystal_preparation       'Solvothermally crystallized from HCl'
_exptl_crystal_size_max          0.22
_exptl_crystal_size_mid          0.18
_exptl_crystal_size_min          0.03
_refine_diff_density_max         1.503
_refine_diff_density_min         -0.908
_refine_diff_density_rms         0.221
_refine_ls_extinction_method     none
_refine_ls_goodness_of_fit_ref   1.171
_refine_ls_hydrogen_treatment    undef
_refine_ls_matrix_type           full
_refine_ls_number_parameters     49
_refine_ls_number_reflns         1694
_refine_ls_number_restraints     0
_refine_ls_restrained_S_all      1.171
_refine_ls_R_factor_all          0.0443
_refine_ls_R_factor_gt           0.0389
_refine_ls_shift/su_max          0.001
_refine_ls_shift/su_mean         0.000
_refine_ls_structure_factor_coef Fsqd
_refine_ls_weighting_details
'w=1/[\s^2^(Fo^2^)+(0.0408P)^2^+3.5647P] where P=(Fo^2^+2Fc^2^)/3'
_refine_ls_weighting_scheme      calc
_refine_ls_wR_factor_gt          0.0896
_refine_ls_wR_factor_ref         0.0930
_reflns_Friedel_coverage         0.000
_reflns_number_gt                1520
_reflns_number_total             1694
_reflns_threshold_expression     'I > 2\s(I)'
_cod_data_source_file            cm0c04491_si_001.cif
_cod_data_source_block           dp085
_cod_database_code               4003893
_shelx_shelxl_version_number     2018/3
_chemical_oxdiff_formula         Rb4InSbCl12
_shelx_space_group_comment
;
The symmetry employed for this shelxl refinement is uniquely defined
by the following loop, which should always be used as a source of
symmetry information in preference to the above space-group names.
They are only intended as comments.
;
_shelx_estimated_absorpt_t_max   0.690
_shelx_estimated_absorpt_t_min   0.157
_reflns_odcompleteness_completeness 99.92
_reflns_odcompleteness_iscentric 1
_reflns_odcompleteness_theta     26.32
_olex2_refinement_description
;
;
_shelx_res_file
;
TITL dp085_a.res in Pnma
    dp085.res
    created by SHELXL-2018/3 at 11:26:42 on 31-Aug-2020
REM Old TITL DP085 in Pnma
REM SHELXT solution in Pnma: R1 0.072, Rweak 0.002, Alpha 0.010
REM <I/s> 0.752 for 141 systematic absences, Orientation as input
REM Formula found by SHELXT: Cl6 Rb2 Sb
CELL 0.71073 14.0332 10.1091 7.2292 90 90 90
ZERR 4 0.0006 0.0004 0.0003 0 0 0
LATT 1
SYMM 0.5-X,-Y,0.5+Z
SYMM -X,0.5+Y,-Z
SYMM 0.5+X,0.5-Y,0.5-Z
SFAC Cl O Rb Sb
UNIT 20 4 8 4

L.S. 40
PLAN  20
SIZE 0.03 0.18 0.22
TEMP 26.85
list 4
fmap 2 53
acta
REM <olex2.extras>
REM <HklSrc "%.\\DP085.hkl">
REM </olex2.extras>

WGHT    0.040800    3.564700
FVAR       0.17500
SB01  4    0.614609    0.750000    0.691071    10.50000    0.02318    0.02016 =
         0.02550    0.00000   -0.00194    0.00000
RB02  3    0.644448    0.500748    0.155655    11.00000    0.03593    0.03479 =
         0.04031    0.00443   -0.00506   -0.00139
CL03  1    0.752463    0.750000    0.904099    10.50000    0.02563    0.03281 =
         0.02698    0.00000   -0.00649    0.00000
CL04  1    0.722699    0.750000    0.422615    10.50000    0.04012    0.04335 =
         0.02503    0.00000    0.00799    0.00000
CL05  1    0.603711    0.503732    0.679472    11.00000    0.03981    0.01846 =
         0.04497   -0.00340   -0.00940   -0.00016
CL06  1    0.502549    0.750000    0.956988    10.50000    0.02934    0.03381 =
         0.03839    0.00000    0.01012    0.00000
O07   2    0.490549    0.750000    0.492824    10.50000    0.03573    0.02831 =
         0.05734    0.00000   -0.02580    0.00000
HKLF 4




REM  dp085_a.res in Pnma
REM wR2 = 0.0930, GooF = S = 1.171, Restrained GooF = 1.171 for all data
REM R1 = 0.0389 for 1520 Fo > 4sig(Fo) and 0.0443 for all 1694 data
REM 49 parameters refined using 0 restraints

END

WGHT      0.0407      3.5647

REM Highest difference peak  1.503,  deepest hole -0.908,  1-sigma level  0.221
Q1    1   0.6196  0.5374  0.1696  11.00000  0.05    1.50
Q2    1   0.6381  0.4614  0.1885  11.00000  0.05    1.44
Q3    1   0.6381  0.4815  0.0856  11.00000  0.05    1.25
Q4    1   0.6194  0.8353  0.6892  11.00000  0.05    1.01
Q5    1   0.7647  0.7500  0.9589  10.50000  0.05    0.92
Q6    1   0.6436  0.7500  0.8071  10.50000  0.05    0.80
Q7    1   0.5276  0.7500  0.4874  10.50000  0.05    0.77
Q8    1   0.5594  0.7128  0.6768  11.00000  0.05    0.70
Q9    1   0.6173  0.5063  0.6280  11.00000  0.05    0.69
Q10   1   0.6197  0.4971  0.7136  11.00000  0.05    0.67
Q11   1   0.5857  0.6172  0.8254  11.00000  0.05    0.66
Q12   1   0.5616  0.5162  0.6733  11.00000  0.05    0.65
Q13   1   0.4396  0.8314  0.4729  11.00000  0.05    0.64
Q14   1   0.6873  0.7500  0.4909  10.50000  0.05    0.63
Q15   1   0.7199  0.7967  0.4373  11.00000  0.05    0.63
Q16   1   0.3801  0.7500  0.2948  10.50000  0.05    0.62
Q17   1   0.5011  0.7789  0.8695  11.00000  0.05    0.61
Q18   1   0.5930  0.4682  0.6799  11.00000  0.05    0.61
Q19   1   0.6024  0.7139  0.7976  11.00000  0.05    0.60
Q20   1   0.7053  0.8159  0.3998  11.00000  0.05    0.58
;
_shelx_res_checksum              58527
_shelx_hkl_file
;
   2   0   0   40.47    0.79
  -2   0   0   37.33    0.80
  -2   0   0   38.17    0.81
   3   0   0    0.32    0.37
  -3   0   0   -0.12    0.38
  -3   0   0    0.02    0.35
  -4   0   0 2869.09    9.74
  -4   0   0 2786.49    9.58
   4   0   0 2835.83    8.21
  -5   0   0    0.06    0.49
  -5   0   0   -0.30    0.50
   5   0   0    0.16    0.43
  -6   0   0   10.37    0.89
  -6   0   0   10.65    0.94
   6   0   0   11.23    0.75
  -7   0   0    0.10    0.67
   7   0   0    0.20    0.46
  -7   0   0   -0.29    0.68
  -8   0   0 3259.91   15.44
  -8   0   0 3194.84   15.09
   8   0   0 3210.22   11.62
  -9   0   0    0.89    0.82
   9   0   0    0.21    0.52
  -9   0   0    0.71    0.82
 -10   0   0    3.38    1.06
  10   0   0    5.12    0.72
  10   0   0    5.45    1.03
 -11   0   0    0.18    0.96
  11   0   0    0.91    0.87
  11   0   0    0.67    0.62
 -12   0   0   29.61    2.20
  12   0   0   26.70    1.35
  12   0   0   25.98    1.95
  13   0   0    0.60    1.12
 -13   0   0   -0.62    1.17
 -14   0   0    5.81    1.56
  14   0   0    1.88    1.11
  15   0   0    0.29    1.23
 -15   0   0    0.34    1.46
  16   0   0    8.57    1.67
 -16   0   0   10.82    2.12
 -17   0   0    4.66    1.71
  17   0   0   -1.67    1.56
 -18   0   0   22.36    2.50
  18   0   0   14.19    2.24
  19   0   0    0.38    1.32
   0  -1   0    0.04    0.18
   0  -1   0    0.00    0.14
  -1   1   0    0.25    0.20
  -1  -1   0    0.10    0.14
   1  -1   0    0.06    0.20
   1   1   0   -0.05    0.17
   1   1   0    0.10    0.14
  -1  -1   0    0.07    0.34
  -2  -1   0 1421.41    3.66
  -2   1   0 1429.08    5.03
   2   1   0 1416.00    3.57
   2   1   0 1401.01    5.13
  -2   1   0 1454.27    4.45
   2  -1   0 1382.01    5.04
   3  -1   0    0.62    0.39
  -3  -1   0    1.24    0.61
  -3   1   0    0.20    0.37
  -3  -1   0   -0.02    0.37
   3   1   0    0.21    0.25
  -3   1   0    0.06    0.34
  -4  -1   0    2.24    0.52
   4   1   0    2.40    0.44
  -4   1   0    2.52    0.49
   4  -1   0    2.36    0.50
  -4  -1   0    1.38    0.58
  -4   1   0    1.76    0.48
  -5  -1   0    0.85    0.62
   5   1   0    0.61    0.58
  -5   1   0    0.26    0.51
  -5  -1   0   -0.26    0.48
  -5   1   0   -0.07    0.44
   5  -1   0    0.30    0.44
  -6   1   0  385.24    4.31
  -6   1   0  360.79    4.23
  -6  -1   0  375.34    4.56
  -6  -1   0  394.98    5.09
   6  -1   0  362.14    3.72
   6   1   0  381.66    3.95
  -7   1   0   -0.45    0.61
   7  -1   0   -0.20    0.51
  -7  -1   0    0.28    0.78
   7   1   0    0.21    0.49
  -7  -1   0    0.04    0.67
  -7   1   0    0.28    0.65
   8   1   0  247.04    3.05
   8   1   0  253.45    4.28
  -8  -1   0  277.01    4.96
   8  -1   0  241.91    3.45
  -8   1   0  259.40    4.21
  -8   1   0  281.24    4.53
   9   1   0   -0.35    0.77
  -9   1   0    0.03    0.77
  -9  -1   0   -0.69    0.98
   9   1   0   -0.03    0.50
   9  -1   0   -0.21    0.55
 -10   1   0  306.64    5.22
  10   1   0  276.49    3.52
  10  -1   0  278.03    3.96
  10   1   0  295.44    5.25
 -10   1   0  299.05    5.30
  11  -1   0    0.55    0.70
 -11   1   0   -0.49    0.95
  11   1   0   -0.84    0.59
 -11  -1   0    0.50    1.08
  11   1   0   -0.21    0.82
 -12   1   0   69.59    3.06
  12   1   0   62.61    2.85
 -12  -1   0   68.25    3.39
  12  -1   0   70.56    2.87
  12   1   0   56.80    1.69
  12  -1   0   58.53    2.05
  13  -1   0    0.10    1.05
 -13  -1   0    1.94    1.50
 -13   1   0   -0.05    1.20
  13  -1   0    0.26    0.72
  13   1   0   -1.08    1.23
  14  -1   0   38.58    2.44
 -14  -1   0   44.96    3.32
  14   1   0   36.79    2.54
 -14   1   0   42.15    2.88
  15  -1   0   -0.95    1.23
 -15  -1   0    2.30    1.76
 -15   1   0    0.64    1.24
  15   1   0    0.20    1.30
 -16   1   0   64.88    3.74
 -16  -1   0   64.81    4.24
  16   1   0   63.99    3.50
  16  -1   0   61.91    3.33
 -17  -1   0    1.41    1.43
  17  -1   0    1.18    1.30
 -17   1   0    5.58    1.75
  17   1   0    2.62    1.55
 -18  -1   0    6.03    1.20
  18   1   0    7.75    1.99
  18  -1   0    6.64    1.63
  19   1   0   -0.26    1.47
   0  -2   0   24.86    0.79
   0   2   0   24.07    0.55
   0  -2   0   21.45    0.88
  -1  -2   0   -0.08    0.30
   1   2   0   -0.10    0.26
  -1   2   0   -0.17    0.36
   1  -2   0   -0.21    0.39
  -1  -2   0   -0.22    0.51
   2   2   0   26.40    0.84
  -2  -2   0   22.24    1.21
  -2   2   0   25.11    0.87
  -2   2   0   26.56    0.63
  -2  -2   0   26.52    0.72
   2  -2   0   22.53    0.89
  -3   2   0   -0.11    0.39
  -3  -2   0   -0.24    0.82
   3   2   0    0.03    0.38
   3  -2   0    0.00    0.44
  -3   2   0    0.08    0.30
  -3  -2   0    0.57    0.27
  -4  -2   0 2738.80    7.12
  -4   2   0 2835.58    8.80
  -4   2   0 2760.87    9.95
   4  -2   0 2782.47   10.20
   4   2   0 2774.51   10.25
   5   2   0    0.13    0.49
   5  -2   0    0.35    0.50
   5   2   0   -0.22    0.33
  -5   2   0   -0.06    0.40
  -5   2   0    0.68    0.49
  -5  -2   0   -0.09    0.88
   6   2   0  504.33    4.08
  -6   2   0  486.43    4.63
   6  -2   0  485.38    4.77
  -6   2   0  487.45    4.98
   6   2   0  487.79    5.18
   7   2   0    0.78    0.56
  -7   2   0    0.24    0.66
  -7  -2   0    0.13    1.03
   7  -2   0    0.37    0.58
  -7   2   0   -0.18    0.54
   7   2   0   -0.70    0.64
   8   2   0  139.92    3.29
   8   2   0  144.82    2.97
  -8  -2   0  151.35    4.35
   8  -2   0  133.48    2.81
  -8   2   0  147.92    3.13
  -8   2   0  144.95    3.25
  -9  -2   0    0.48    1.24
   9  -2   0    0.56    0.69
  -9   2   0   -0.31    0.75
  -9   2   0    1.00    0.81
   9   2   0    0.61    0.77
  10  -2   0  560.95    6.10
 -10   2   0  602.59    7.47
  10   2   0  552.60    4.63
  10   2   0  574.99    7.35
 -10   2   0  601.14    7.07
 -11   2   0    1.05    0.96
 -11  -2   0   -1.11    1.32
  11   2   0    0.27    0.46
 -11   2   0    2.05    1.11
  11   2   0   -0.27    1.02
  11  -2   0   -0.30    0.76
 -12   2   0    1.50    1.08
  12  -2   0    2.28    0.86
 -12  -2   0    3.15    1.53
  12   2   0    2.13    1.12
  12  -2   0    2.59    0.99
 -13  -2   0    2.68    1.66
 -13   2   0   -0.58    1.10
  13   2   0    1.86    1.27
  13  -2   0   -0.35    0.80
  13  -2   0    0.35    0.94
 -14   2   0  205.26    5.59
  14   2   0  223.41    5.79
  14  -2   0  211.04    4.19
  14  -2   0  229.66    5.40
  15  -2   0    1.31    1.12
 -15  -2   0    1.44    1.80
  15   2   0   -0.86    1.48
 -15   2   0    0.41    1.35
 -16  -2   0  150.32    6.94
  16  -2   0  162.20    4.98
  16   2   0  158.14    5.39
 -16   2   0  170.67    5.78
 -17   2   0   -1.86    1.31
  17   2   0   -1.16    1.48
  17  -2   0   -1.28    1.29
  18  -2   0  132.31    4.92
  18   2   0  130.31    5.34
 -18  -2   0  135.06    7.46
  19   2   0    2.57    1.59
  20  -2   0   24.98    2.24
   0  -3   0    0.08    0.40
   0   3   0   -0.18    0.27
  -1   3   0   -0.02    0.30
   1   3   0   -0.26    0.29
   1  -3   0    0.34    0.46
  -1   3   0    0.02    0.50
  -1  -3   0   -0.23    0.59
  -1  -3   0   -0.08    0.36
   2   3   0  876.90    4.86
  -2  -3   0  905.61    7.25
  -2   3   0  848.52    5.65
  -2   3   0  848.53    3.29
  -2  -3   0  881.73    4.96
   2  -3   0  841.94    5.75
  -3   3   0    0.33    0.47
  -3  -3   0    0.05    0.73
   3   3   0   -0.12    0.38
   3  -3   0   -0.08    0.47
  -3   3   0    0.41    0.27
  -3  -3   0    0.40    0.33
  -4  -3   0    1.71    0.88
  -4  -3   0    2.16    0.38
   4   3   0    1.73    0.51
   4  -3   0    2.22    0.59
  -4   3   0    1.62    0.52
  -4   3   0    2.11    0.40
  -5  -3   0    0.15    0.31
  -5  -3   0    1.74    1.04
   5  -3   0    0.72    0.60
   5   3   0    0.26    0.49
  -5   3   0   -0.14    0.40
  -5   3   0    0.16    0.53
   6   3   0  248.66    3.79
  -6   3   0  247.83    3.79
   6  -3   0  251.31    3.80
  -6   3   0  242.52    3.18
  -6  -3   0  243.23    2.72
  -6  -3   0  241.11    5.86
  -7   3   0    0.29    0.65
   7   3   0    1.15    0.47
  -7   3   0    0.06    0.55
   7   3   0    1.37    0.68
   7  -3   0    0.96    0.68
  -7  -3   0   -0.91    1.40
   8  -3   0  175.20    3.46
  -8   3   0  188.71    3.38
   8   3   0  176.47    3.70
  -8   3   0  178.80    3.68
  -8  -3   0  193.26    6.36
   9   3   0   -0.53    0.78
  -9  -3   0    0.05    1.73
   9  -3   0    0.30    0.76
  -9   3   0    0.58    0.83
  -9   3   0    0.86    0.75
   9   3   0   -0.87    0.83
 -10   3   0  240.37    4.38
 -10  -3   0  267.56    7.88
 -10   3   0  241.21    4.84
  10   3   0  245.30    3.60
  10   3   0  237.43    4.84
  10  -3   0  234.80    4.30
 -11   3   0   -0.32    0.80
  11   3   0    1.20    0.97
 -11  -3   0    1.93    1.80
  11  -3   0   -0.11    0.79
 -12   3   0   50.26    2.64
  12  -3   0   52.14    2.21
  12   3   0   44.65    2.55
 -12  -3   0   52.44    4.14
  13  -3   0   -0.02    0.88
 -13   3   0   -0.79    1.12
  13   3   0    0.74    1.17
  13  -3   0    0.64    0.91
 -13  -3   0    0.62    1.83
 -14   3   0   28.12    2.36
  14  -3   0   31.14    1.92
  14   3   0   29.65    2.45
  14  -3   0   32.06    2.13
  15  -3   0    0.20    1.07
 -15   3   0    1.51    1.41
  15   3   0    0.22    1.36
 -15  -3   0    1.27    2.33
 -16  -3   0   69.37    5.57
  16   3   0   62.12    3.63
 -16   3   0   44.58    3.07
  16  -3   0   51.19    2.89
  17   3   0   -1.35    1.52
 -17   3   0   -2.06    1.13
  18   3   0    5.45    1.64
  18  -3   0    9.82    1.58
  19  -3   0    0.57    0.72
  19   3   0   -0.38    1.35
   0   4   0 9999.00   15.22
   0  -4   0 9882.20   20.54
  -1  -4   0    0.26    0.48
  -1   4   0    0.42    0.37
  -1  -4   0   -0.21    0.64
   1   4   0   -0.02    0.32
  -1   4   0    0.19    0.59
   1  -4   0    0.06    0.51
  -2   4   0   18.39    0.58
  -2   4   0   17.04    1.06
   2  -4   0   17.39    1.05
  -2  -4   0   20.06    1.42
   2   4   0   19.58    0.86
  -2  -4   0   20.24    0.96
  -3  -4   0   -0.40    0.74
  -3   4   0    0.44    0.27
  -3  -4   0    0.14    0.38
   3   4   0   -0.25    0.39
   3  -4   0   -0.04    0.59
  -4   4   0 1802.17    9.96
   4  -4   0 1806.92   10.34
  -4  -4   0 1795.97    7.83
   4   4   0 1832.98    9.13
  -4   4   0 1771.90    6.45
   5  -4   0    0.25    0.64
  -5  -4   0    0.71    0.93
  -5   4   0    0.03    0.37
   5   4   0    0.50    0.57
  -5   4   0   -0.19    0.59
  -5  -4   0   -0.26    0.41
  -6   4   0    5.61    0.90
   6   4   0    3.55    0.71
   6  -4   0    4.10    0.79
  -6   4   0    5.95    0.65
  -6  -4   0    3.58    1.19
  -6  -4   0    5.14    0.58
  -7  -4   0   -0.33    1.17
   7   4   0   -0.78    0.63
  -7   4   0    0.32    0.51
  -7  -4   0   -0.08    0.42
   7  -4   0   -0.39    0.77
  -7   4   0   -0.35    0.75
  -8  -4   0 2137.15   18.45
   8   4   0 2020.59   12.61
   8  -4   0 2023.42   12.47
  -8   4   0 2095.91   12.79
  -8   4   0 2075.05   10.68
  -9   4   0    1.09    0.92
   9   4   0   -0.03    0.78
   9  -4   0   -0.02    0.80
  -9   4   0   -0.32    0.71
  -9  -4   0    0.96    1.47
   9   4   0    0.48    0.59
 -10   4   0    3.64    0.99
  10   4   0    5.11    1.17
 -10  -4   0    4.40    1.83
  10  -4   0    5.31    1.10
 -10   4   0    4.16    0.92
  11  -4   0    1.99    0.98
  11   4   0   -0.70    1.01
 -11   4   0    0.50    1.02
 -11  -4   0   -0.68    1.76
 -11   4   0   -0.38    0.83
 -12  -4   0   17.27    2.76
  12  -4   0   17.63    1.60
 -12   4   0   23.07    2.03
  12   4   0   17.24    1.83
  13   4   0    1.88    1.27
  13  -4   0    0.25    0.82
 -13   4   0   -0.21    1.15
  13  -4   0    0.13    0.95
  14   4   0    0.89    1.37
 -14   4   0    0.56    1.19
  14  -4   0    3.04    1.05
 -14  -4   0    2.44    2.14
  14  -4   0    2.51    1.00
  15  -4   0    1.09    1.04
  15  -4   0    0.06    1.00
 -15   4   0    0.06    1.30
 -15  -4   0    3.42    1.99
  15   4   0   -0.40    1.44
  16   4   0    9.14    1.94
  16  -4   0    6.23    1.35
 -16  -4   0    8.75    2.55
 -16   4   0   10.45    1.88
  17   4   0   -1.31    1.67
 -17  -4   0    8.24    2.29
  18   4   0   19.62    2.52
 -18  -4   0   20.62    2.84
 -19  -4   0    1.56    2.61
   0   5   0    0.05    0.42
   0   5   0   -0.40    0.68
   0  -5   0   -0.21    0.56
  -1  -5   0    0.38    0.58
  -1   5   0    0.71    0.77
   1   5   0   -0.13    0.37
  -1  -5   0    0.25    0.80
   1  -5   0   -0.34    0.60
  -1   5   0    0.95    0.47
  -2  -5   0  748.92    6.07
  -2   5   0  784.13    7.29
   2  -5   0  755.67    6.88
  -2   5   0  758.61    3.68
   2   5   0  771.01    5.25
   3  -5   0    0.73    0.61
  -3   5   0   -0.30    0.65
   3   5   0   -0.20    0.45
  -3  -5   0    1.21    0.99
  -3   5   0    0.36    0.26
  -3  -5   0    0.33    0.53
   4  -5   0    8.99    1.04
  -4  -5   0    8.24    1.30
  -4   5   0    8.34    1.00
  -4   5   0    9.33    0.54
   4   5   0    7.84    0.79
  -4  -5   0    9.95    0.81
   5   5   0   -0.70    0.63
  -5  -5   0    0.25    0.89
  -5   5   0   -0.04    0.68
  -5   5   0   -0.08    0.34
  -5  -5   0    0.35    0.44
   5  -5   0    0.24    0.70
  -6   5   0  246.65    4.41
  -6  -5   0  248.86    3.28
   6  -5   0  248.39    4.58
   6   5   0  241.10    3.98
  -6   5   0  239.37    2.97
  -7   5   0   -0.17    0.81
  -7  -5   0    0.35    1.15
  -7   5   0   -0.28    0.51
  -7  -5   0    0.01    0.47
   7  -5   0   -0.13    0.83
   7   5   0    0.03    0.67
  -8   5   0  152.92    3.80
   8  -5   0  147.62    3.78
  -8   5   0  144.38    2.76
   8   5   0  146.08    3.51
  -8  -5   0  152.59    2.68
  -8  -5   0  138.31    4.85
   9   5   0    0.33    0.59
   9   5   0   -0.44    0.82
   9  -5   0    0.57    0.91
  -9  -5   0    1.10    1.44
  -9   5   0    0.16    0.66
  -9   5   0    0.66    0.93
  10  -5   0  191.59    4.55
 -10   5   0  195.53    3.74
 -10  -5   0  194.41    6.17
  10   5   0  188.63    4.44
 -10   5   0  195.14    4.65
  11   5   0    0.48    1.05
 -11   5   0   -0.10    1.06
 -11  -5   0   -0.95    1.69
 -11   5   0    0.02    0.77
  11  -5   0    0.31    0.99
  12  -5   0   56.37    2.30
  12  -5   0   53.15    2.67
 -12   5   0   62.60    3.00
  12   5   0   55.10    2.83
 -12  -5   0   58.84    3.93
  13   5   0   -0.98    1.29
  13  -5   0    0.52    1.13
 -13  -5   0    2.82    1.66
 -13   5   0    2.02    1.23
  14  -5   0   28.15    2.18
  14   5   0   27.10    2.39
 -14   5   0   34.04    2.60
 -14  -5   0   35.06    3.54
  15   5   0    0.55    1.41
 -15   5   0    0.06    1.31
 -15  -5   0    2.55    1.95
  15  -5   0   -0.09    1.13
 -16   5   0   57.40    3.47
  16   5   0   51.40    3.45
  17   5   0   -1.76    1.55
 -17  -5   0    2.49    1.73
  18   5   0    2.51    1.73
 -18  -5   0   10.02    1.83
 -19  -5   0    2.18    2.30
   0   6   0    4.20    1.05
   0  -6   0    7.77    0.95
   0   6   0    6.46    0.86
  -1  -6   0   -0.67    0.63
   1  -6   0    0.01    0.72
  -1   6   0    0.61    0.80
  -1   6   0   -0.15    0.41
   1   6   0    0.38    0.43
   2   6   0   11.64    0.81
  -2  -6   0   12.50    1.46
  -2  -6   0    9.79    0.96
   2  -6   0   11.88    1.17
  -2   6   0   12.51    1.30
  -2   6   0   11.91    0.57
  -3  -6   0    0.26    0.61
  -3   6   0   -0.56    0.77
   3   6   0   -0.21    0.50
  -3  -6   0   -0.04    0.94
  -3   6   0    0.30    0.25
   3  -6   0    0.59    0.77
  -4  -6   0  784.31    9.96
  -4   6   0  791.26    8.15
   4  -6   0  774.01    8.21
   4   6   0  787.34    6.60
  -4  -6   0  767.88    6.63
  -5   6   0    0.93    0.84
  -5  -6   0    0.17    1.07
   5  -6   0   -0.17    0.87
  -5   6   0    0.05    0.33
  -5  -6   0   -0.39    0.58
   5   6   0   -0.25    0.59
  -6   6   0  219.55    4.58
   6  -6   0  223.21    4.74
   6   6   0  218.38    3.93
  -6  -6   0  225.65    3.48
  -6   6   0  209.65    2.67
  -7  -6   0    0.06    0.52
   7  -6   0    0.77    0.92
  -7  -6   0   -0.73    1.19
   7   6   0   -0.05    0.74
  -7   6   0   -0.79    0.91
  -7   6   0    0.71    0.50
   8  -6   0   83.78    3.11
  -8   6   0   82.49    2.07
  -8   6   0   79.38    2.99
   8   6   0   78.23    2.68
  -9  -6   0    1.24    1.48
   9  -6   0    0.04    1.02
  -9   6   0   -0.24    0.63
  -9   6   0   -1.25    1.03
   9   6   0   -0.82    0.86
 -10   6   0  273.26    4.27
 -10   6   0  293.60    5.90
  10   6   0  263.83    5.31
 -10  -6   0  269.42    7.34
  10  -6   0  282.67    5.88
 -11  -6   0    1.46    1.65
 -11   6   0    0.74    1.13
  11   6   0    0.95    1.12
  11  -6   0    0.81    1.26
 -12  -6   0    3.91    1.78
 -12   6   0    2.84    1.29
  12  -6   0   -0.62    1.23
  12   6   0    3.02    1.33
  13   6   0    1.51    1.28
  13  -6   0    0.27    1.23
 -13  -6   0   -1.56    1.83
 -13   6   0    0.37    1.12
 -14  -6   0  118.65    5.80
  14   6   0  125.55    4.55
 -14   6   0  136.90    4.92
  14  -6   0  127.34    4.44
  15   6   0    2.19    1.54
  15  -6   0   -1.16    1.21
 -15   6   0    0.18    1.24
 -15  -6   0    0.69    1.57
  16  -6   0  104.09    4.11
  16   6   0  105.04    4.67
 -16  -6   0  109.65    5.90
  17   6   0   -0.29    1.56
 -17  -6   0    1.78    1.35
 -18  -6   0   68.47    4.82
   0   7   0   -1.08    1.03
   0   7   0    0.16    0.61
  -1  -7   0   -0.11    0.73
   1  -7   0   -0.10    0.81
   1   7   0   -0.42    1.00
  -1   7   0    0.31    0.44
  -1   7   0   -0.88    0.98
   1   7   0    0.00    0.53
  -2   7   0  283.43    2.51
   2   7   0  289.94    3.68
   2  -7   0  279.91    5.05
  -2  -7   0  287.66    4.67
  -2   7   0  303.25    5.66
  -2  -7   0  305.77    6.30
   3  -7   0   -0.34    0.81
  -3   7   0    0.87    0.97
  -3  -7   0   -0.48    1.14
  -3  -7   0    0.35    0.73
   3   7   0    0.44    0.59
  -3   7   0    0.01    0.25
  -4  -7   0    1.63    0.71
   4   7   0    2.41    0.75
   4  -7   0    0.85    0.91
  -4   7   0    3.47    1.06
  -4  -7   0    2.73    1.24
  -5  -7   0   -1.09    1.21
  -5   7   0    3.17    0.31
   5   7   0    0.23    0.70
   5  -7   0    1.02    1.02
  -5  -7   0    0.61    0.64
  -5   7   0    1.50    1.05
   6  -7   0  106.85    3.60
   6   7   0  107.64    2.95
  -6   7   0  117.77    3.67
  -6  -7   0  104.14    2.69
   7   7   0    0.49    0.80
  -7  -7   0    0.87    1.45
  -7   7   0   -0.09    0.95
  -7  -7   0    0.31    0.64
   7  -7   0   -0.57    1.20
   8   7   0   59.12    2.43
   8  -7   0   67.00    3.13
  -8   7   0   71.18    3.11
   9   7   0   -0.52    0.86
   9  -7   0    0.04    1.22
  -9  -7   0    2.05    1.61
  -9   7   0   -0.18    1.17
 -10   7   0  114.54    4.07
  10  -7   0  127.98    4.35
  10   7   0  120.27    3.71
 -11   7   0   -1.40    1.24
  11   7   0    1.12    1.20
  11  -7   0    0.75    1.30
 -11  -7   0   -0.33    1.60
 -12   7   0   24.65    2.30
  12  -7   0   26.64    2.34
  12   7   0   27.37    2.17
  13   7   0    0.96    1.24
  13  -7   0    1.14    1.39
 -13  -7   0    3.96    2.01
 -13   7   0    0.96    1.46
 -14   7   0   20.91    2.26
  14  -7   0   14.38    1.98
 -14  -7   0   22.33    2.99
  14   7   0   20.07    2.20
  15  -7   0   -1.16    1.47
  15   7   0   -0.23    1.37
 -15  -7   0   -0.49    1.42
 -15   7   0   -0.81    0.98
  16  -7   0   29.25    2.54
  16   7   0   26.50    2.58
 -16  -7   0   30.17    3.32
 -17  -7   0    6.52    2.04
   0  -8   0 3489.01   18.41
   0   8   0 3605.10   13.11
  -1   8   0    0.58    1.15
   1   8   0   -0.65    1.21
   1  -8   0    2.46    1.04
  -1  -8   0   -0.75    0.94
   1   8   0    0.73    0.77
  -2  -8   0    5.01    1.06
   2   8   0    4.37    0.77
   2  -8   0    1.98    1.00
   2   8   0    6.19    1.56
  -2   8   0    7.02    1.42
  -3  -8   0    2.08    1.47
  -3  -8   0   -0.81    0.85
   3   8   0    0.09    0.67
   3  -8   0    0.54    1.04
  -3   8   0    0.36    1.17
   4   8   0  749.47    7.11
   4  -8   0  730.57    9.20
  -4  -8   0  742.38    7.90
  -4  -8   0  714.36   10.83
  -4   8   0  754.22    9.62
   5  -8   0    0.14    1.16
  -5  -8   0    0.67    0.86
   5   8   0   -0.18    0.76
  -5   8   0    0.39    1.05
  -5  -8   0    0.35    1.27
  -6  -8   0    2.33    0.84
   6   8   0    1.93    0.91
  -6   8   0    3.52    1.26
   6  -8   0    3.17    1.36
  -6  -8   0    2.58    1.31
  -7   8   0    0.19    1.18
   7   8   0   -0.15    0.86
   7  -8   0    0.19    1.19
   8   8   0  797.17    8.85
  -8   8   0  847.07   10.82
   8  -8   0  824.41   10.76
  -9  -8   0    0.40    1.61
  -9   8   0    0.95    1.29
   9  -8   0    0.77    1.35
   9   8   0   -0.74    1.01
  10   8   0    0.58    1.03
 -10   8   0    4.02    1.49
  10  -8   0    4.48    1.53
  11   8   0   -1.01    1.04
 -11  -8   0    1.28    1.57
 -11   8   0   -0.72    1.26
  11  -8   0    1.52    1.49
 -12   8   0    8.64    1.72
 -12  -8   0   13.36    2.40
  12  -8   0   10.52    1.93
  12   8   0    9.63    1.62
 -13   8   0    0.63    1.42
  13  -8   0    0.36    1.42
 -13  -8   0   -1.64    1.81
  13   8   0    1.37    1.28
 -14  -8   0    6.19    1.99
  14   8   0    3.53    1.52
 -14   8   0    4.17    1.47
  14  -8   0    0.69    1.38
  15  -8   0   -1.44    1.38
 -15  -8   0   -0.33    1.33
  15   8   0   -2.24    1.38
  16   8   0    4.35    1.65
  16  -8   0    2.20    1.37
   0   9   0    2.11    1.43
   0  -9   0    0.67    0.96
   1   9   0    0.93    1.35
  -1   9   0    0.22    1.28
   1  -9   0    0.75    1.10
  -1  -9   0   -1.18    1.08
   2   9   0  303.87    7.27
  -2  -9   0  294.29    5.67
  -2   9   0  280.01    6.46
   2  -9   0  296.11    6.06
   3   9   0    0.40    1.39
  -3   9   0   -0.55    1.16
   3  -9   0   -0.81    1.10
  -3  -9   0   -0.38    0.89
  -4  -9   0    8.44    1.31
  -4  -9   0    6.15    1.74
   4   9   0    9.25    1.08
  -4   9   0    5.96    1.43
   4  -9   0   11.13    1.62
  -5  -9   0    0.81    0.86
  -5  -9   0   -0.84    1.43
  -5   9   0   -0.23    1.35
   5  -9   0   -0.27    1.25
   5   9   0    0.53    0.89
  -6   9   0  123.92    4.44
   6  -9   0  120.56    4.41
  -6  -9   0  124.61    3.41
   6   9   0  123.26    3.50
  -6  -9   0  105.18    4.73
   7   9   0    0.84    1.02
   7  -9   0    0.50    1.42
  -7   9   0    0.47    1.28
  -7  -9   0   -0.86    1.41
   8   9   0   61.02    2.72
  -8   9   0   66.58    3.50
  -8  -9   0   55.90    3.77
   8  -9   0   71.62    3.69
   9   9   0    1.36    1.13
  -9  -9   0    0.08    1.37
  -9   9   0    0.38    1.40
   9  -9   0    0.02    1.46
  10   9   0   82.09    3.37
 -10  -9   0   73.85    4.52
 -11   9   0    0.04    1.35
  11   9   0    0.16    1.14
  11  -9   0   -0.73    1.58
 -11  -9   0   -1.78    1.70
 -12  -9   0   28.92    3.11
  12  -9   0   35.29    3.00
 -12   9   0   37.42    2.88
  12   9   0   29.95    2.37
 -13   9   0   -1.05    1.27
  13  -9   0    1.50    1.70
  13   9   0    0.93    1.35
  14  -9   0   21.86    2.68
 -14   9   0   21.87    2.20
  14   9   0   13.77    1.90
 -14  -9   0   14.08    2.45
  15   9   0    2.68    1.49
  15  -9   0    1.86    1.41
 -15  -9   0   -0.89    1.76
  16  -9   0   33.24    2.78
   0 -10   0    2.48    1.22
   0  10   0    3.19    1.56
   1 -10   0    1.06    1.16
   1  10   0   -0.48    1.57
  -1 -10   0   -0.18    1.07
  -1  10   0    0.47    1.35
  -2 -10   0    3.09    1.23
   2 -10   0    4.42    1.31
  -2  10   0    3.06    1.47
   2  10   0    7.34    1.96
   3 -10   0    0.84    1.28
   3  10   0    0.27    1.48
  -3 -10   0    0.53    1.08
  -3  10   0   -0.26    1.36
   4 -10   0  161.22    5.09
   4  10   0  156.06    5.94
  -4 -10   0  173.59    4.58
  -4  10   0  168.17    5.48
   5 -10   0   -1.35    1.36
  -5 -10   0    0.55    0.86
  -5 -10   0    0.28    1.46
  -5  10   0    2.93    1.54
  -6 -10   0   45.78    3.49
   6 -10   0   57.29    3.35
  -6  10   0   54.37    3.37
   7 -10   0    1.88    1.50
  -7  10   0    2.77    1.61
  -7 -10   0    0.46    1.48
  -8  10   0   40.45    3.00
   8 -10   0   40.88    3.14
   8  10   0   38.15    2.30
   9 -10   0   -0.15    1.58
   9  10   0    0.13    0.99
  -9  10   0   -0.76    1.30
  -9 -10   0   -0.75    1.45
  10 -10   0   94.69    4.62
 -10 -10   0   78.13    4.76
 -10  10   0   86.01    4.27
  10  10   0   85.69    3.54
  11  10   0   -0.34    1.03
  11 -10   0    0.21    1.62
 -11  10   0    2.31    1.59
 -11 -10   0    0.21    1.56
 -12  10   0    4.42    1.52
  12 -10   0    7.76    2.10
  12  10   0    4.62    1.32
  13  10   0    1.19    1.31
 -13 -10   0   -0.17    1.46
  13 -10   0   -0.27    1.67
 -13  10   0   -1.31    0.84
  14 -10   0   54.37    3.80
 -14 -10   0   50.58    4.07
  14  10   0   45.23    3.12
  15  10   0    4.61    1.07
   0 -11   0    2.04    1.28
   0  11   0   -0.34    1.42
   1 -11   0    0.69    1.21
   1  11   0   -0.76    1.55
  -1 -11   0    0.66    1.28
  -1  11   0    3.60    1.63
   2  11   0   69.84    4.27
  -2 -11   0   77.40    3.50
  -2  11   0   77.14    4.12
   2 -11   0   69.95    3.61
  -3  11   0    0.77    1.43
   3 -11   0   -0.21    1.44
  -3 -11   0    0.19    1.13
  -4  11   0    0.17    1.39
   4  11   0    2.19    1.61
  -4 -11   0    1.14    1.04
   4 -11   0    1.43    1.52
  -5  11   0    1.64    1.49
   5  11   0    3.41    1.67
   5 -11   0    1.94    1.63
   6 -11   0   41.13    3.20
  -6  11   0   44.97    3.25
   7 -11   0   -2.53    1.79
  -7 -11   0   -0.47    1.73
  -7  11   0   -0.17    1.40
   8 -11   0   16.71    2.59
  -8 -11   0   11.29    2.32
  -9  11   0   -0.19    1.50
   9 -11   0   -0.84    1.84
  10 -11   0   40.85    3.44
 -10  11   0   43.76    3.37
 -10 -11   0   40.04    3.75
  11 -11   0    0.77    1.90
 -11  11   0    0.67    1.25
  12 -11   0   15.81    2.61
 -12 -11   0    8.19    1.94
 -12  11   0   13.68    1.83
   0 -12   0  897.21   12.61
   0  12   0  816.02   13.72
  -1 -12   0   -1.91    1.52
   1  12   0   -0.39    1.77
  -1  12   0    0.51    1.56
   1 -12   0    0.55    1.50
   2 -12   0   -0.50    1.38
   2  12   0   -0.03    1.63
  -2  12   0    0.35    1.53
  -2 -12   0    0.51    1.16
   3 -12   0    0.84    1.51
  -3 -12   0   -1.20    1.22
   3  12   0    1.04    1.56
  -3  12   0    1.62    1.59
  -4  12   0  226.73    7.28
   4 -12   0  236.85    7.01
   5  12   0   -0.86    1.55
   5 -12   0    1.33    1.67
  -5  12   0    1.93    1.58
   6 -12   0    2.43    1.87
   6  12   0    6.11    1.97
  -6  12   0    7.72    1.79
  -7  12   0    1.16    1.52
   7 -12   0    0.88    1.80
   8 -12   0  241.02    7.83
  -8  12   0  236.23    7.58
  -9 -12   0    1.79    1.93
  -9  12   0   -0.65    1.41
   9 -12   0   -2.93    2.22
 -10 -12   0    7.74    2.06
 -10  12   0    6.45    1.40
  10 -12   0    8.60    2.21
 -11  12   0   -2.67    1.14
   0  13   0    3.01    1.75
   0 -13   0   -1.02    1.48
   1  13   0    2.00    1.60
   1 -13   0   -1.12    1.53
  -1 -13   0    0.41    1.26
  -2  13   0   90.43    4.92
  -2 -13   0   95.56    4.41
   3  13   0   -2.78    1.72
   3 -13   0   -0.63    1.52
   4  13   0    3.51    1.50
   4 -13   0    0.84    1.48
   5 -13   0    0.95    1.76
   5  13   0    1.85    2.14
  -5  13   0    0.60    1.54
   6 -13   0   45.10    3.62
  -6  13   0   53.69    3.90
   6  13   0   40.51    3.81
   7 -13   0    4.88    1.93
  -8  13   0   20.07    2.53
  -9  13   0   -1.30    1.44
   0 -14   0    3.02    1.23
   0  14   0    2.58    1.19
   1  14   0    2.97    1.06
  -1  14   0   -0.72    0.73
   1 -14   0    1.20    1.10
  -1 -14   0    2.81    1.13
  -2  14   0    2.26    1.07
   2 -14   0   -1.04    1.30
  -3  14   0   -0.25    0.80
   3 -14   0   -1.38    1.40
   0   0   1    0.99    0.38
   0   0   1    0.83    0.18
   0   0   1    0.60    0.25
   0   0  -1    0.38    0.17
  -1   0   1    9.18    0.49
   1   0   1    9.81    0.56
  -1   0  -1    8.85    0.47
   1   0   1    8.50    0.39
   1   0  -1    7.75    0.51
  -2   0  -1   85.29    1.50
  -2   0   1   89.07    1.49
   2   0   1   92.34    1.02
   2   0  -1   99.61    1.69
   2   0   1   88.13    1.40
  -3   0   1   17.65    0.69
  -3   0  -1   17.26    0.86
  -3   0   1   16.21    0.80
   3   0   1   15.67    0.74
   3   0  -1   17.99    1.01
   3   0   1   16.12    0.48
   4   0   1 1294.17    4.19
   4   0  -1 1313.31    8.87
  -4   0   1 1291.03    6.12
  -4   0  -1 1251.85    7.21
   4   0   1 1293.94    6.66
  -4   0   1 1291.98    7.03
  -5   0  -1  104.11    2.31
   5   0   1  108.72    2.19
   5   0  -1   91.36    3.02
   5   0   1  108.13    1.37
  -5   0   1  107.45    2.11
  -5   0   1  103.63    2.29
  -6   0   1  155.03    2.96
  -6   0   1  161.72    2.89
   6   0   1  155.05    2.85
  -6   0  -1  151.16    3.01
   6   0   1  160.11    1.84
  -7   0   1  627.56    6.17
  -7   0   1  629.92    6.41
   7   0   1  599.65    3.79
  -7   0  -1  594.85    6.36
   7   0   1  622.96    6.12
  -8   0   1 1255.37    9.51
  -8   0   1 1229.13    9.52
  -8   0  -1 1185.13    9.61
   8   0  -1 1215.55    9.92
   8   0   1 1199.17    5.81
   8   0   1 1251.45    9.32
   9   0   1  288.69    4.82
   9   0  -1  279.19    4.69
   9   0   1  268.22    2.95
  -9   0   1  287.47    5.00
  -9   0   1  283.55    4.91
  -9   0  -1  264.47    4.92
  10   0   1   27.12    1.73
 -10   0  -1   26.50    1.89
 -10   0   1   31.92    1.99
 -10   0   1   31.67    1.93
  10   0   1   28.21    1.10
  10   0  -1   28.78    1.73
 -11   0   1   14.46    1.69
 -11   0   1   13.88    1.54
 -11   0  -1   13.44    1.63
  11   0   1   14.06    0.88
  11   0  -1   14.66    1.43
  11   0   1   13.92    1.48
 -12   0   1  996.68   10.76
  12   0   1  983.42   10.37
  12   0  -1  989.15    9.09
 -12   0  -1  995.96   11.38
 -13   0   1  148.82    4.92
 -13   0  -1  155.37    4.83
 -13   0   1  164.33    4.77
  13   0  -1  153.45    3.81
 -14   0  -1   58.34    3.27
  14   0   1   55.13    2.92
 -14   0   1   53.48    3.04
 -14   0   1   58.29    3.42
 -15   0   1   61.94    3.73
  15   0   1   63.81    3.26
  15   0  -1   69.86    3.47
  16   0  -1  266.45    6.72
  16   0   1  262.76    6.50
  17   0   1   44.51    3.01
  17   0  -1   46.21    3.15
 -17   0  -1   45.62    3.47
  18   0   1   14.47    2.03
 -18   0  -1   16.61    2.56
  18   0  -1   12.41    2.19
  19   0   1    1.47    1.34
  19   0  -1   -1.43    1.51
 -20   0  -1   87.59    5.52
   0   1  -1 1251.73    4.42
   0  -1   1 1329.08    5.21
   0  -1  -1 1280.88    6.99
   0  -1   1 1308.19    4.08
  -1  -1   1   62.54    1.21
  -1  -1  -1   66.57    1.42
   1  -1  -1   65.61    0.86
  -1   1  -1   59.62    1.15
  -1   1   1   60.09    0.79
   1   1   1   62.26    1.34
  -1   1   1   68.10    1.40
   1  -1   1   59.59    1.10
   1  -1  -1   57.91    1.75
   1   1  -1   60.72    1.01
   1  -1   1   62.95    1.18
  -1  -1  -1   61.89    1.40
  -1  -1   1   63.99    1.07
   2  -1  -1   19.54    1.28
   2  -1   1   24.73    0.68
  -2  -1  -1   24.63    0.98
  -2   1  -1   25.28    0.91
   2   1   1   22.90    0.87
   2  -1   1   25.80    0.80
  -2   1   1   26.51    0.55
  -2  -1   1   28.37    0.87
  -2  -1   1   25.52    0.84
  -2   1   1   25.89    0.85
  -2  -1   1   28.06    0.80
  -3  -1   1   68.60    1.51
   3   1   1   68.73    1.52
   3   1  -1   65.39    1.39
  -3   1   1   65.32    1.04
  -3  -1  -1   63.34    1.62
  -3  -1   1   68.12    1.65
   3  -1   1   65.46    1.25
   3  -1  -1   54.67    1.92
  -3   1  -1   63.70    1.51
   3  -1   1   68.10    1.28
  -3   1   1   62.57    1.41
   4  -1  -1  411.86    5.12
   4  -1   1  488.52    3.49
   4  -1   1  473.41    3.78
  -4   1  -1  463.77    4.35
  -4   1   1  475.95    4.17
   4   1   1  485.33    4.38
  -4  -1   1  487.04    4.38
  -4  -1  -1  452.92    4.55
  -4   1   1  487.38    3.37
   4   1  -1  493.57    4.11
  -5   1   1   73.25    1.90
  -5  -1   1   65.21    2.26
   5  -1   1   73.46    1.48
  -5  -1   1   78.75    2.02
   5  -1   1   73.30    1.71
   5   1  -1   77.59    1.89
  -5   1   1   75.48    1.61
  -5  -1  -1   75.21    2.10
  -5   1  -1   73.64    1.97
   5   1   1   77.35    1.97
   5  -1  -1   72.84    2.28
  -6  -1   1   87.54    2.67
  -6   1   1  103.82    2.16
   6  -1   1   98.20    2.19
   6   1   1   95.21    2.36
   6   1   1  101.61    0.99
   6  -1   1   99.73    1.82
  -6   1   1  103.90    2.44
  -6   1  -1   93.63    2.38
   6   1  -1  110.59    2.65
  -6  -1   1  104.08    2.51
   6  -1  -1  101.40    2.69
  -7   1   1   43.85    1.76
   7  -1  -1   37.98    1.79
   7   1   1   42.70    1.77
   7  -1   1   40.83    1.26
   7   1  -1   42.16    2.17
   7   1   1   42.47    0.78
  -7  -1   1   41.91    2.06
  -7  -1   1   43.14    1.82
   7  -1   1   41.42    1.60
  -7   1   1   41.24    1.58
  -7   1  -1   39.38    1.75
  -7  -1  -1   39.01    1.85
   8  -1   1  459.57    5.45
   8  -1   1  444.44    4.14
  -8  -1  -1  447.03    6.15
  -8   1   1  469.94    5.83
  -8   1   1  469.44    5.48
   8   1   1  453.74    5.81
  -8   1  -1  444.04    5.87
   8   1   1  461.26    2.81
  -8  -1   1  453.54    6.70
  -8  -1   1  471.94    6.05
  -9   1   1   22.17    1.52
   9  -1   1   21.72    1.44
  -9  -1   1   17.83    1.53
  -9   1   1   22.96    1.49
   9   1   1   20.95    0.72
   9   1   1   22.26    1.57
  -9  -1  -1   20.67    1.67
   9  -1   1   20.86    1.06
   9  -1  -1   20.85    1.49
   9   1  -1   21.21    1.67
  -9  -1   1   18.83    1.74
  -9   1  -1   21.38    1.63
  10  -1  -1   67.15    2.50
  10  -1   1   64.92    2.46
 -10  -1   1   63.45    3.07
  10   1   1   64.30    2.57
 -10   1   1   71.47    2.67
  10   1   1   63.74    1.30
 -10   1  -1   62.04    2.63
 -10  -1  -1   68.82    2.92
 -10  -1   1   64.64    2.68
  10   1  -1   68.72    2.64
  10  -1   1   62.53    1.79
 -10   1   1   59.47    2.46
 -11   1  -1   68.63    2.89
 -11   1   1   72.93    2.95
 -11  -1   1   76.39    3.02
 -11  -1  -1   81.28    3.36
  11  -1   1   68.36    2.67
  11   1  -1   68.90    2.52
 -11   1   1   66.54    2.76
  11  -1  -1   76.88    2.81
  11  -1   1   65.88    1.93
 -11  -1   1   68.38    3.37
  11   1   1   79.45    3.00
 -12   1   1   27.27    2.02
  12  -1   1   27.98    1.94
 -12  -1   1   23.69    2.04
 -12   1  -1   25.41    2.04
 -12   1   1   24.75    2.02
  12   1   1   29.10    2.04
 -12  -1   1   25.50    2.37
  12  -1   1   30.88    1.48
  12   1  -1   34.50    1.93
 -12  -1  -1   31.41    2.40
  12  -1  -1   26.89    1.84
  13   1  -1   28.68    1.73
 -13  -1   1   33.60    2.42
  13  -1  -1   25.02    1.76
 -13   1   1   27.09    2.12
 -13   1   1   22.49    1.98
 -13   1  -1   26.83    2.23
  13  -1   1   29.19    2.09
 -13  -1  -1   32.18    2.60
 -13  -1   1   27.32    2.58
  13   1   1   26.78    2.13
  14   1   1  109.57    4.04
 -14  -1  -1  121.84    4.86
 -14   1  -1  104.95    4.25
  14  -1   1  111.74    3.90
 -14   1   1  110.87    4.09
  14  -1  -1  101.80    3.26
 -14  -1   1   90.73    4.61
  14   1  -1   98.53    3.92
 -14   1   1   95.02    3.95
 -15   1  -1    1.67    1.60
 -15   1   1    3.20    1.37
 -15  -1   1    0.14    1.51
  15   1  -1    3.64    1.47
 -15  -1  -1    5.78    1.80
  15   1   1    1.08    1.23
  16  -1  -1   42.53    2.84
  16   1   1   49.44    3.11
  16  -1   1   45.35    2.86
 -16  -1   1   35.71    3.09
  16   1  -1   48.73    3.16
 -16  -1  -1   46.13    3.63
 -16   1  -1   36.75    2.89
  17  -1  -1   19.75    2.27
 -17   1  -1   27.04    2.70
  17   1   1   24.94    2.50
  17  -1   1   20.64    2.09
 -17  -1  -1   26.41    3.06
  17   1  -1   21.18    2.44
  18  -1  -1   26.42    2.56
  18   1  -1   28.99    2.89
  18   1   1   26.32    2.67
  18  -1   1   24.20    2.37
 -18  -1  -1   32.60    3.41
 -18   1  -1   34.76    3.15
  19   1  -1    8.76    1.98
 -19   1  -1   15.71    2.40
  19   1   1   12.41    2.17
  19  -1  -1   12.07    2.05
 -19  -1  -1   19.01    2.70
  19  -1   1    9.35    1.76
 -20  -1  -1    0.62    2.34
  20  -1   1   -0.85    0.50
   0  -2   1    0.38    0.20
   0  -2  -1   -0.14    0.48
   0   2  -1   -0.07    0.36
   0  -2  -1    0.97    0.51
   0  -2   1    1.26    0.41
  -1  -2   1  195.80    1.81
   1  -2  -1  203.53    2.79
   1   2  -1  190.07    2.35
   1   2   1  202.10    2.51
  -1   2  -1  190.71    2.34
  -1  -2  -1  177.02    2.97
  -1   2   1  212.60    2.76
   1  -2  -1  207.71    2.32
   1  -2   1  184.54    2.41
  -1  -2  -1  202.05    2.09
  -1  -2   1  197.37    2.39
   2   2   1 2016.53    8.01
  -2   2   1 1999.99    6.48
  -2  -2  -1 2032.66   12.48
  -2  -2   1 1991.68    6.82
  -2  -2  -1 2033.59    5.49
  -2   2  -1 2024.41    8.29
  -2   2   1 2037.87    7.59
  -2  -2   1 2059.05    8.16
   2  -2   1 2038.36    7.91
   2  -2  -1 2084.65    9.56
   2  -2   1 1981.54    4.78
  -2  -2   1 2022.63    7.71
  -3  -2   1 1101.61    6.64
   3  -2  -1 1080.44    7.56
  -3   2   1 1055.81    4.92
   3  -2   1 1077.80    4.35
  -3   2  -1 1051.45    6.39
  -3  -2   1 1081.67    5.87
  -3  -2   1 1080.91    5.78
   3   2   1 1081.64    6.32
  -3   2   1 1072.50    5.73
  -3  -2  -1 1085.83    3.16
   3  -2   1 1090.43    5.98
  -3  -2  -1 1082.02    8.75
   4   2   1  173.12    2.78
  -4  -2   1  163.49    2.36
   4  -2  -1  181.77    3.32
  -4   2  -1  170.90    2.81
  -4   2   1  173.39    2.26
  -4  -2   1  166.05    2.63
  -4   2   1  157.98    2.41
   4  -2   1  167.00    2.09
   4  -2   1  167.97    2.48
  -4  -2  -1  181.44    3.63
  -4  -2   1  182.55    3.26
  -5   2   1   11.94    0.75
   5  -2   1   11.88    0.81
  -5  -2   1   13.22    1.25
   5   2   1   11.29    0.93
   5  -2  -1   15.88    1.20
  -5   2   1   11.96    0.85
   5   2  -1   13.71    0.83
  -5  -2   1   11.94    0.91
  -5  -2  -1   14.68    1.29
   5  -2   1   10.39    0.71
  -5   2  -1   12.15    0.97
  -6   2   1 1340.63    7.57
   6   2   1 1319.20    8.92
  -6   2  -1 1293.00    8.78
  -6  -2   1 1314.18    8.68
   6  -2   1 1330.72    7.52
   6   2  -1 1347.11    7.78
   6  -2   1 1319.48    7.50
   6  -2  -1 1406.71    9.81
  -6   2   1 1321.73    8.21
  -6  -2  -1 1385.81   10.78
   7  -2   1  115.71    2.49
  -7  -2   1  123.24    2.95
  -7   2   1  119.84    2.74
   7  -2   1  117.73    2.39
  -7   2   1  121.86    2.61
   7   2  -1  118.25    2.64
  -7   2  -1  110.29    2.81
  -7  -2  -1  120.99    3.47
   7   2   1  112.97    2.82
   7  -2  -1  135.55    3.40
   8  -2   1  358.28    4.24
  -8   2  -1  356.90    5.30
  -8  -2  -1  406.21    6.61
  -8  -2   1  390.66    5.56
   8  -2   1  371.53    4.76
   8   2  -1  406.36    5.59
  -8   2   1  380.38    5.12
  -8   2   1  379.32    4.88
   8  -2  -1  434.30    6.13
   8   2   1  376.77    5.42
  -9  -2   1   -0.43    0.86
  -9  -2   1   -1.10    1.33
   9  -2   1   -0.46    0.61
   9  -2   1    1.68    0.78
   9  -2  -1    0.37    0.89
  -9   2   1    0.19    0.81
   9   2   1    1.07    0.85
  -9  -2  -1    0.21    1.01
  -9   2   1   -0.33    0.78
   9   2  -1    0.30    0.94
  -9   2  -1    1.41    0.91
  10  -2   1  210.99    3.53
 -10   2   1  201.15    4.21
  10  -2  -1  229.53    4.62
 -10   2   1  241.63    4.60
  10   2   1  216.41    4.60
  10   2  -1  175.51    4.75
 -10  -2   1  209.93    4.69
 -10  -2  -1  221.59    5.48
 -10   2  -1  222.63    4.74
 -10  -2   1  159.77    5.54
  10  -2   1  224.33    4.27
  11  -2   1  275.63    4.21
 -11  -2   1  288.26    5.78
  11  -2  -1  290.79    5.28
 -11   2   1  301.72    5.51
  11   2   1  280.52    5.51
 -11  -2  -1  302.92    6.76
  11  -2   1  291.17    5.12
 -11   2  -1  288.24    5.74
  11   2  -1  301.16    5.54
 -11   2   1  280.53    5.27
 -12   2  -1   65.16    2.98
 -12   2   1   67.12    2.92
 -12  -2  -1   65.64    3.51
  12   2  -1   64.47    2.53
 -12  -2   1   51.42    3.56
 -12   2   1   63.13    2.81
  12   2   1   61.36    2.87
  12  -2   1   57.68    2.53
  12  -2   1   59.07    2.10
  12  -2  -1   65.11    2.74
 -12  -2   1   59.64    2.96
 -13  -2  -1    9.61    2.00
  13  -2   1    6.79    1.28
 -13   2  -1    7.49    1.55
 -13   2   1   10.66    1.52
  13   2  -1   12.72    1.74
  13  -2   1    8.31    1.07
 -13   2   1   11.75    1.63
  13  -2  -1    8.60    1.39
 -13  -2   1    4.07    1.63
  13   2   1    9.54    1.57
 -14   2   1   54.13    3.04
 -14  -2   1   50.72    4.22
  14   2   1   62.19    3.22
 -14   2   1   49.06    2.80
 -14   2  -1   65.86    3.32
 -14  -2  -1   66.18    3.97
  14  -2  -1   51.78    2.52
  14  -2   1   56.15    2.79
  14   2  -1   60.18    3.18
 -15   2   1    2.12    1.37
  15  -2  -1    0.37    0.96
  15   2  -1    2.39    1.52
 -15   2   1    8.69    1.18
 -15  -2  -1    0.57    1.62
 -15   2  -1    0.85    1.33
  15   2   1   -0.83    1.30
 -15  -2   1    7.12    2.44
  15  -2   1   -0.46    1.11
 -16  -2   1    3.79    1.68
  16   2   1    9.15    1.83
 -16  -2  -1    9.53    2.46
 -16   2  -1    6.32    1.70
  16  -2   1    5.31    1.45
  16  -2  -1    7.97    1.63
  16   2  -1    8.29    1.84
 -17  -2  -1    3.03    1.62
  17   2  -1    6.18    1.81
  17  -2  -1   10.37    1.81
  17  -2   1    4.74    1.24
 -17   2  -1    9.03    2.01
  17   2   1    6.32    1.79
  18   2   1   -2.51    1.72
  18  -2  -1    0.43    1.09
  18  -2   1    0.63    1.10
 -18  -2  -1    2.26    1.97
  18   2  -1   -1.33    1.76
 -18   2  -1    0.30    1.26
  19  -2   1    5.39    1.31
  19   2   1    1.48    1.33
  19   2  -1    1.97    1.63
  19  -2  -1    2.49    1.50
 -19  -2  -1   -0.51    1.43
 -19   2  -1    7.35    1.59
  20  -2   1    1.19    0.99
 -20  -2  -1   15.10    4.19
   0  -3  -1  930.70    5.80
   0   3  -1  913.33    6.09
   0   3   1  942.66    7.47
   0  -3   1  910.98    5.99
  -1  -3   1   35.73    0.80
  -1  -3   1   39.43    1.28
   1   3  -1   36.32    1.34
  -1   3   1   36.50    1.36
   1   3   1   43.37    1.31
  -1  -3  -1   37.53    1.11
   1  -3  -1   39.03    1.39
   1  -3   1   37.82    1.31
  -1   3  -1   37.60    1.31
  -1  -3  -1   31.64    1.48
  -2  -3   1   13.35    0.64
  -2   3  -1   14.64    0.92
  -2  -3  -1   14.52    0.68
   2  -3   1   14.82    0.92
  -2  -3   1   13.23    0.93
  -2   3   1   16.82    0.89
   2  -3  -1   17.38    1.10
   2   3   1   14.26    0.85
  -2   3   1   14.06    0.84
  -2  -3   1   12.93    0.80
  -2  -3  -1   14.65    1.25
  -3  -3  -1   46.70    2.17
   3  -3  -1   54.80    1.85
  -3  -3  -1   49.10    1.03
  -3  -3   1   44.68    1.25
  -3   3   1   48.48    1.31
  -3   3   1   46.31    1.35
   3  -3   1   46.77    0.79
  -3  -3   1   47.16    1.40
   3  -3   1   45.56    1.48
  -3   3  -1   44.16    1.54
  -3  -3   1   51.22    1.80
   3   3   1   52.19    1.56
  -4   3  -1  352.07    4.28
   4   3   1  376.67    4.31
   4  -3   1  359.84    4.14
   4  -3   1  369.55    2.79
  -4   3   1  349.23    3.60
  -4   3   1  359.01    3.68
  -4  -3   1  363.38    3.72
   4  -3  -1  391.16    5.08
  -4  -3  -1  382.77    6.62
  -4  -3   1  352.22    3.85
  -4  -3   1  377.89    4.92
  -4  -3  -1  369.39    2.44
  -5  -3   1   50.18    1.67
  -5  -3   1   52.41    2.14
  -5  -3  -1   53.66    0.84
   5  -3   1   53.37    1.29
  -5  -3   1   48.46    1.46
  -5  -3  -1   65.54    3.29
   5  -3   1   51.54    1.69
   5  -3  -1   55.45    2.11
  -5   3  -1   49.93    1.79
  -5   3   1   51.11    1.54
  -5   3   1   53.05    1.57
   5   3   1   49.39    1.74
  -6  -3   1   63.04    2.58
  -6   3  -1   59.88    2.05
   6  -3   1   64.61    1.62
  -6  -3  -1   59.59    2.99
  -6  -3   1   59.10    1.95
   6  -3  -1   71.81    2.46
  -6   3   1   62.98    1.85
   6  -3   1   66.01    1.96
  -6   3   1   61.45    1.78
  -6  -3   1   61.63    1.72
  -7   3  -1   23.69    1.46
  -7  -3   1   24.23    1.45
   7  -3   1   25.86    1.19
  -7  -3   1   26.16    2.00
   7   3   1   25.88    1.51
   7  -3   1   26.66    1.36
  -7   3   1   26.84    1.38
   7  -3  -1   30.96    1.78
  -7   3   1   24.98    1.34
  -7  -3  -1   26.49    2.19
   7   3  -1   27.20    1.30
  -8  -3   1  367.80    5.47
   8   3  -1  400.83    4.92
   8  -3   1  390.32    4.66
   8   3   1  376.39    5.51
  -8  -3  -1  402.86    7.68
   8  -3  -1  419.50    6.13
   8  -3   1  377.59    4.86
  -8   3  -1  378.87    5.56
  -8   3   1  387.32    5.05
  -8   3   1  365.16    4.89
   9  -3  -1   21.06    1.70
  -9   3   1   12.86    1.23
   9  -3   1   18.19    1.25
  -9   3   1   15.46    1.31
   9   3   1   12.87    1.32
  -9  -3   1   14.05    1.36
   9   3  -1   16.06    1.32
  -9  -3  -1   15.73    1.97
  -9  -3   1   11.12    1.85
   9  -3   1   12.42    1.14
  -9   3  -1   11.08    1.34
  10  -3  -1   35.22    2.10
 -10  -3   1   48.65    2.44
 -10   3   1   35.09    1.88
  10  -3   1   42.41    1.88
  10   3   1   45.45    2.30
 -10   3  -1   43.39    2.27
  10   3  -1   44.80    2.32
 -10   3   1   48.64    2.24
 -10  -3  -1   50.67    3.21
 -10  -3   1   36.05    3.01
  10  -3   1   43.75    1.90
 -11   3  -1   56.52    2.68
  11   3  -1   48.10    2.84
  11  -3  -1   57.84    2.68
  11  -3   1   59.53    2.34
 -11   3   1   67.86    2.80
  11   3  -1   64.88    2.87
 -11  -3   1   43.06    3.40
  11  -3   1   56.17    2.18
 -11   3   1   59.02    2.50
 -11  -3  -1   55.04    3.48
  12   3   1   28.18    2.13
 -12  -3   1   19.25    2.57
  12  -3   1   28.55    1.71
  12  -3   1   28.30    1.84
 -12  -3  -1   29.14    2.84
  12  -3  -1   31.80    2.09
  12   3  -1   29.02    2.22
 -12   3   1   21.96    1.81
 -12   3  -1   30.37    2.26
 -12   3   1   33.51    2.23
  13  -3   1   28.53    1.72
  13  -3   1   24.02    1.83
  13   3  -1   27.13    2.28
 -13   3   1   23.47    1.99
 -13  -3   1   21.98    2.84
 -13  -3  -1   30.05    3.11
  13  -3  -1   20.43    1.83
 -13   3   1   25.57    2.01
  13   3   1   28.16    2.29
 -13   3  -1   23.79    2.23
 -14   3   1   83.36    3.42
 -14   3  -1   81.73    3.70
 -14  -3  -1  102.36    5.43
 -14  -3   1   57.43    4.33
  14  -3   1   80.20    3.19
 -14   3   1   93.24    3.73
  14   3  -1   77.06    3.65
  14  -3  -1   85.89    3.37
  14   3   1   79.46    3.63
  15  -3  -1    0.04    1.16
  15  -3   1    0.34    1.04
  15   3  -1    0.90    1.42
 -15   3  -1    2.02    1.38
  15   3   1    2.67    1.43
 -15  -3  -1    2.98    2.17
 -15   3   1   -0.73    1.23
 -15  -3   1    0.03    1.67
 -16  -3  -1   44.58    4.09
 -16  -3   1   23.83    3.12
 -16   3  -1   42.88    3.09
  16  -3  -1   46.94    2.87
  16   3   1   38.71    2.95
  16  -3   1   41.58    2.59
  16   3  -1   62.03    3.68
 -17  -3  -1   15.74    3.14
  17   3  -1   21.23    2.60
  17  -3   1   17.77    1.76
  17   3   1   12.62    2.21
  17  -3  -1   14.79    1.87
  18  -3  -1   25.24    2.24
  18   3  -1   21.09    2.70
 -18   3  -1   24.75    2.65
 -18  -3  -1   30.26    4.01
  18   3   1   23.39    2.69
 -19   3  -1   11.00    1.87
  19  -3  -1   16.44    2.07
   0  -4  -1    0.14    0.69
   0  -4  -1    0.20    0.52
   0  -4   1    0.56    0.58
   0   4  -1    0.22    0.20
   0   4   1   -1.19    0.86
   0   4  -1    0.31    0.63
  -1   4  -1    6.81    0.79
  -1   4   1    4.47    0.77
   1   4   1    5.48    0.69
  -1  -4  -1    6.58    0.67
  -1  -4   1    4.77    0.65
   1  -4   1    4.92    0.72
   1  -4  -1    6.71    0.84
  -1  -4  -1    7.29    1.09
   1   4  -1    6.07    0.44
  -1   4   1    5.11    0.78
   1   4  -1    3.98    0.78
  -2  -4  -1   43.13    2.03
   2   4   1   57.55    1.63
   2  -4   1   61.39    1.90
  -2  -4   1   59.33    1.71
  -2   4  -1   56.35    1.83
  -2  -4   1   59.25    1.98
   2   4  -1   59.71    1.29
  -2   4   1   63.51    1.62
  -2   4   1   55.40    1.80
   2  -4  -1   59.87    2.00
  -2  -4  -1   55.87    1.47
  -3  -4  -1   13.82    1.44
  -3  -4   1   12.57    1.13
  -3   4  -1    8.63    0.91
  -3  -4  -1   11.09    0.69
   3   4   1   10.62    0.87
   3  -4  -1   10.03    1.08
  -3   4   1   10.62    0.89
  -3  -4   1   11.41    0.85
   3  -4   1   11.08    0.96
  -3   4   1   10.13    0.73
  -4  -4   1  683.84    5.47
  -4   4  -1  691.13    6.56
   4  -4   1  701.02    6.42
  -4   4   1  677.42    5.06
   4  -4   1  694.04    3.32
  -4  -4  -1  733.33    8.72
   4   4   1  716.58    6.26
   4  -4  -1  740.60    7.35
  -4   4   1  701.65    6.04
  -4  -4  -1  701.99    4.38
  -4  -4   1  694.48    5.69
  -5  -4   1   83.90    2.80
  -5  -4  -1   72.83    1.33
  -5  -4  -1   69.35    3.08
   5  -4   1   69.47    2.14
  -5  -4   1   78.16    2.08
   5  -4  -1   82.03    2.68
  -5   4   1   79.90    2.18
  -5   4   1   71.25    1.78
  -5  -4   1   72.09    1.91
   5   4   1   75.39    2.22
   5  -4   1   76.22    1.41
  -5   4  -1   73.53    2.32
  -6   4   1  102.95    2.27
   6  -4  -1  123.23    3.38
  -6  -4  -1  102.98    1.51
   6  -4   1  111.24    1.95
   6   4   1  108.87    2.78
  -6  -4   1  115.79    3.49
   6  -4   1  116.70    2.81
  -6   4   1  116.79    2.69
  -6   4  -1  109.11    2.87
  -6  -4  -1  121.28    4.22
  -6  -4   1  109.70    2.35
  -7   4   1  349.44    4.41
   7  -4  -1  390.65    6.01
   7   4   1  366.96    5.29
  -7  -4   1  364.05    4.34
  -7   4  -1  360.53    5.42
  -7   4   1  384.94    5.04
  -7  -4  -1  383.65    8.02
  -7  -4   1  383.57    6.73
   7  -4   1  358.43    4.98
   7  -4   1  357.47    3.87
   7   4  -1  351.55    4.94
  -8   4  -1  788.74    8.33
   8   4   1  811.61    8.25
   8   4  -1  842.80    6.97
   8   4  -1  806.30    7.96
  -8  -4  -1  866.43   12.82
   8   4   1  808.32    3.90
   8  -4  -1  876.39    9.21
   8  -4   1  832.87    6.47
   8  -4   1  808.38    7.71
  -8   4   1  824.79    7.67
  -8   4   1  822.77    7.16
  -8  -4   1  795.91   10.34
   9  -4  -1  182.22    4.48
  -9  -4  -1  208.43    6.88
  -9   4  -1  182.22    4.25
   9  -4   1  183.28    3.36
  -9   4   1  192.15    3.79
   9   4  -1  200.67    3.74
   9  -4   1  189.03    3.90
   9   4   1  182.06    4.15
  -9   4   1  202.20    4.13
   9   4  -1  196.12    4.24
  10   4  -1   32.28    2.00
  10  -4  -1   26.25    2.01
 -10  -4   1   20.84    2.31
  10   4   1   21.25    1.71
  10   4  -1   31.73    1.79
 -10   4   1   28.05    1.84
 -10   4   1   22.89    1.59
 -10   4  -1   27.01    1.91
  10  -4   1   24.95    1.47
  10  -4   1   21.82    1.57
 -10  -4  -1   30.46    3.28
 -11   4  -1   11.73    1.55
 -11   4   1   11.33    1.31
  11   4   1    8.54    1.34
  11  -4   1    9.29    1.21
 -11   4   1   12.78    1.46
  11   4  -1   10.56    1.30
  11  -4   1    9.37    1.15
  11   4  -1   12.21    1.56
 -11  -4  -1   11.73    2.48
  11  -4  -1   13.83    1.67
 -11  -4   1   14.62    2.11
  12  -4   1  669.31    7.64
 -12  -4  -1  729.02   14.53
  12  -4  -1  718.81    9.35
 -12   4   1  688.84    8.32
 -12   4   1  709.17    9.07
  12  -4   1  672.33    7.81
 -12   4  -1  701.28    9.48
  12   4  -1  715.95    9.51
  12   4   1  685.55    9.24
  13  -4   1  106.08    3.30
 -13  -4   1  103.71    5.08
 -13   4  -1  100.36    3.93
  13  -4  -1  114.57    3.98
 -13   4   1  118.79    4.05
 -13   4   1   97.81    3.43
  13   4   1  118.75    4.17
  13  -4   1  101.91    3.22
 -13  -4  -1  131.31    6.70
  13   4  -1   98.84    3.90
 -14   4   1   40.41    2.48
 -14  -4  -1   52.30    4.64
 -14   4  -1   50.18    3.09
  14   4   1   46.26    2.89
  14  -4   1   43.65    2.27
  14   4  -1   45.39    2.94
 -14  -4   1   40.96    3.54
  14  -4  -1   46.19    2.70
 -14   4   1   47.15    2.82
  14  -4   1   41.40    2.27
 -15  -4  -1   54.73    4.86
  15   4  -1   54.49    3.32
 -15   4  -1   54.86    3.35
  15   4   1   61.40    3.43
 -15   4   1   55.33    2.93
  15  -4  -1   46.75    2.72
  16   4   1  218.73    6.39
  16  -4  -1  204.06    5.48
 -16  -4  -1  231.01    9.55
  16   4  -1  237.95    6.80
 -16   4  -1  219.15    6.57
  16  -4  -1  205.82    5.42
  17   4  -1   34.10    3.03
 -17   4  -1   39.77    3.11
 -17  -4  -1   40.64    4.28
  17  -4  -1   34.81    2.44
  17   4   1   41.32    3.22
 -18   4  -1    8.19    1.60
  18   4   1   10.94    2.20
  18   4  -1    8.52    2.19
 -18  -4  -1    7.40    1.90
 -19   4  -1   10.26    2.65
 -19  -4  -1   -0.54    0.86
   0  -5  -1  632.66    6.05
   0   5   1  604.36    6.99
   0  -5   1  635.51    6.26
   0   5  -1  647.49    6.83
  -1   5   1   36.20    1.82
  -1   5  -1   32.98    1.63
   1   5  -1   31.88    0.89
   1   5  -1   34.97    1.79
  -1  -5  -1   32.19    1.40
  -1  -5  -1   31.16    1.87
   1  -5  -1   33.92    1.57
  -1   5   1   32.58    1.50
   1  -5   1   29.18    1.50
  -1  -5   1   35.42    1.55
   1   5   1   33.77    1.39
   2   5  -1   14.40    0.75
  -2  -5  -1   11.73    1.38
  -2   5   1   14.45    1.21
  -2   5   1   14.81    0.98
   2  -5  -1   16.27    1.23
  -2  -5   1   14.98    1.08
  -2   5  -1   12.38    1.10
   2  -5   1   12.27    1.10
   2   5   1   13.57    0.96
  -2  -5  -1   15.50    0.98
  -2  -5   1   14.16    1.26
  -3  -5  -1   50.16    1.52
   3   5   1   51.40    1.73
  -3  -5   1   52.06    2.20
  -3   5   1   46.22    1.84
  -3  -5   1   48.56    1.72
  -3  -5  -1   46.25    2.41
  -3   5   1   52.19    1.51
   3  -5  -1   50.66    2.13
  -3   5  -1   47.72    1.93
   3  -5   1   42.67    1.80
   3   5  -1   51.74    1.45
   4  -5   1  271.98    1.58
  -4  -5   1  275.94    3.94
  -4  -5  -1  276.03    3.29
  -4   5   1  274.20    3.35
   4  -5  -1  296.96    5.06
  -4   5   1  279.36    4.32
  -4  -5  -1  277.25    5.73
   4   5   1  292.82    4.23
   4  -5   1  269.05    4.39
  -4   5  -1  266.89    4.45
   4   5  -1  265.48    3.47
  -5  -5   1   41.71    2.32
  -5  -5  -1   32.36    1.15
   5   5   1   35.32    1.68
  -5  -5   1   33.74    1.47
  -5   5   1   31.40    1.25
   5   5  -1   30.21    1.36
   5  -5   1   33.83    0.84
  -5   5   1   35.23    1.68
  -5  -5  -1   32.28    2.26
  -5   5  -1   31.15    1.71
   5  -5  -1   33.74    1.96
   5  -5   1   36.20    1.77
  -6  -5  -1   65.12    1.48
   6  -5   1   67.67    1.42
  -6  -5   1   69.86    2.04
   6   5  -1   62.64    2.04
   6  -5   1   71.22    2.45
  -6  -5   1   71.31    3.00
   6   5   1   67.33    2.31
  -6   5  -1   60.93    2.39
   6  -5  -1   82.19    2.98
  -6  -5  -1   71.43    3.30
  -6   5   1   67.61    2.31
  -7   5   1   21.57    1.24
  -7  -5   1   23.59    2.00
  -7  -5  -1   24.47    0.93
   7  -5   1   23.96    1.61
   7  -5  -1   25.57    1.88
   7  -5   1   25.38    1.04
   7   5   1   27.85    1.68
   7   5  -1   23.50    1.43
  -7   5  -1   20.73    1.56
  -7  -5  -1   27.53    2.29
  -7  -5   1   24.12    1.30
  -7   5   1   26.12    1.64
   8  -5  -1  291.17    5.79
   8   5  -1  267.68    4.68
  -8  -5   1  263.94    4.04
  -8   5   1  275.95    4.87
  -8   5   1  259.02    4.01
  -8  -5   1  268.38    6.13
   8   5   1  268.03    4.87
  -8   5  -1  272.88    5.20
   8  -5   1  260.80    3.47
   8  -5   1  259.54    4.78
   9  -5   1    8.19    0.85
   9   5   1    9.15    1.25
   9  -5   1    7.57    1.14
  -9  -5  -1   10.84    1.96
   9   5  -1    6.85    1.10
   9   5  -1   12.30    1.16
  -9   5   1    8.41    1.02
  -9   5   1   11.80    1.34
   9  -5  -1   12.83    1.61
  -9  -5   1   10.20    1.71
  -9   5  -1   12.10    1.47
  10   5  -1   58.57    2.31
  10  -5   1   52.05    2.36
 -10   5   1   54.85    2.24
  10   5  -1   49.28    2.43
  10  -5   1   49.69    1.87
 -10  -5   1   47.72    3.15
 -10  -5  -1   59.20    3.80
 -10   5   1   58.28    2.56
  10  -5  -1   50.10    2.72
  10   5   1   52.07    2.53
 -10   5  -1   51.20    2.57
 -11  -5   1   42.94    3.14
  11   5   1   39.25    2.36
 -11   5  -1   47.86    2.65
  11  -5  -1   54.57    2.87
 -11   5   1   46.72    2.13
 -11   5   1   51.27    2.56
  11   5  -1   48.67    2.56
  11  -5   1   47.32    2.35
 -11  -5  -1   52.15    3.78
 -12   5   1   22.74    1.68
 -12  -5  -1   20.11    2.81
  12  -5   1   21.19    1.81
  12  -5  -1   18.46    2.06
  12   5   1   18.48    1.86
 -12   5  -1   16.00    1.87
 -12   5   1   23.14    2.00
  12   5  -1   22.62    2.08
  13  -5  -1   18.67    2.05
 -13  -5  -1   19.93    2.92
  13   5  -1   14.67    1.89
 -13  -5   1   12.64    2.24
 -13   5  -1   14.81    1.87
 -13   5   1   17.25    1.88
 -13   5   1   11.00    1.40
  13   5   1   12.58    1.79
  13  -5   1   10.69    1.43
 -14   5   1   80.44    3.21
  14  -5  -1   83.13    3.68
 -14   5  -1   77.96    3.77
  14   5   1   78.41    3.66
 -14  -5  -1   91.71    5.46
  14  -5   1   73.34    3.05
  14   5  -1   80.80    3.78
 -14  -5   1   65.37    4.19
  15  -5  -1    1.48    1.25
 -15  -5   1   -0.03    1.24
  15   5  -1    2.15    1.58
 -15   5   1   -0.71    1.14
 -15  -5  -1   -0.44    2.09
 -15   5  -1    1.11    1.33
  15   5   1   -0.50    1.39
 -16  -5   1   22.46    2.72
 -16  -5  -1   31.90    3.66
  16  -5  -1   21.65    2.11
  16   5  -1   29.64    2.81
 -16   5  -1   28.55    2.79
  16   5   1   28.12    2.66
  17   5   1   18.46    2.48
  17   5  -1   17.13    2.47
 -17   5  -1   13.71    2.08
 -18  -5  -1   19.56    2.89
 -18   5  -1   27.21    2.57
  18   5  -1   29.57    2.98
  18   5   1   15.62    2.36
   0   6   1   -0.09    0.78
   0   6  -1    0.09    0.77
   0  -6   1    2.12    0.81
   0  -6  -1    0.06    0.70
   0   6  -1   -0.17    0.27
  -1   6   1   69.01    2.13
  -1  -6   1   72.44    2.36
  -1   6  -1   82.55    2.72
  -1  -6  -1   65.75    2.82
   1  -6  -1   79.34    2.56
   1   6  -1   75.03    2.80
   1   6   1   78.92    2.25
  -1   6   1   76.82    2.87
  -1  -6  -1   78.46    2.33
   1   6  -1   75.40    1.39
   1  -6   1   69.27    2.37
  -2   6   1  868.69    6.68
  -2   6   1  939.37    9.26
   2   6  -1  864.14    5.36
   2  -6  -1  896.78    8.65
  -2  -6  -1  854.29    7.15
   2   6   1  850.90    6.89
  -2  -6   1  849.60    7.68
   2   6  -1  975.64    9.62
   2  -6   1  844.27    8.13
  -2   6  -1  884.52    8.58
  -3  -6   1  428.18    6.50
   3  -6  -1  406.40    6.03
   3   6   1  397.44    4.89
  -3  -6   1  400.82    5.17
   3   6  -1  410.19    4.15
  -3  -6  -1  398.63    4.73
  -3   6   1  420.89    4.34
   3  -6   1  391.59    5.64
  -3   6   1  396.73    5.78
  -3   6  -1  406.73    5.90
   4   6   1   61.85    2.10
  -4   6   1   58.76    1.66
  -4  -6   1   62.56    2.73
  -4  -6  -1   61.85    1.86
  -4  -6  -1   54.23    2.87
   4  -6   1   52.62    2.21
  -4   6   1   60.47    2.34
  -4  -6   1   60.47    2.08
  -4   6  -1   55.94    2.37
   4   6  -1   58.27    1.76
   4  -6  -1   62.27    2.56
  -5  -6  -1   11.28    0.89
   5   6   1   12.21    1.18
  -5   6  -1    8.21    1.15
  -5   6   1   10.65    1.22
   5  -6  -1    9.47    1.30
  -5  -6   1    9.60    1.01
  -5  -6  -1   10.64    1.60
   5  -6   1   11.50    1.27
  -5   6   1   10.10    0.82
  -5  -6   1   10.69    1.54
   5   6  -1   10.25    0.92
  -6   6   1  558.74    5.19
   6   6  -1  576.99    6.13
  -6   6   1  621.11    7.40
  -6  -6  -1  585.60    5.07
   6   6   1  620.76    7.11
   6  -6   1  572.27    7.26
   6  -6  -1  614.35    8.24
  -6   6  -1  592.87    7.56
  -6  -6   1  609.66    6.36
  -6  -6  -1  588.86    9.33
  -6  -6   1  653.18    9.28
  -7   6   1   49.75    2.34
  -7   6   1   52.08    1.77
   7   6   1   56.31    2.35
   7  -6   1   50.30    2.37
   7   6  -1   51.97    2.07
  -7  -6  -1   52.89    3.14
  -7   6  -1   60.22    2.63
   7  -6  -1   58.28    2.80
  -7  -6   1   55.44    3.00
  -7  -6   1   53.92    2.02
  -8  -6   1  176.17    5.25
  -8   6   1  155.89    3.12
  -8   6   1  162.90    4.06
  -8   6  -1  160.61    4.26
   8   6  -1  154.46    3.65
  -8  -6  -1  172.35    5.52
   8  -6   1  158.38    4.04
   8   6   1  161.27    3.96
  -8  -6   1  165.53    3.42
   8  -6  -1  176.74    4.77
   9  -6   1   -1.21    1.10
  -9  -6  -1   -0.63    1.56
   9   6   1    1.09    1.00
   9   6  -1    1.14    0.94
  -9  -6   1    2.25    1.56
  -9   6  -1    0.26    1.15
  -9   6   1   -0.15    0.89
  -9   6   1   -0.20    0.74
   9  -6  -1    1.02    1.23
  10   6   1  114.13    3.65
 -10  -6   1  111.66    4.56
  10   6  -1  107.51    3.49
 -10   6   1  121.11    3.78
  10  -6  -1  122.28    4.20
  10  -6   1  104.49    3.50
 -10   6  -1  112.19    3.86
 -10   6   1  115.41    3.09
 -10  -6  -1  123.36    5.11
 -11   6   1  132.44    3.39
  11   6  -1  146.57    4.23
 -11  -6  -1  160.69    5.91
  11  -6   1  131.84    3.98
 -11  -6   1  126.74    5.10
 -11   6   1  140.17    4.26
  11  -6  -1  149.80    4.73
  11   6   1  142.39    4.20
 -11   6  -1  139.41    4.47
 -12  -6  -1   39.25    3.35
 -12   6   1   28.15    1.82
  12   6  -1   23.11    2.04
  12  -6   1   25.86    2.03
 -12  -6   1   22.49    2.55
  12  -6  -1   33.69    2.64
 -12   6  -1   32.25    2.45
  12   6   1   28.86    2.24
 -12   6   1   25.14    2.11
 -13   6  -1    3.79    1.47
 -13  -6  -1    7.11    2.10
 -13   6   1    4.44    1.10
  13  -6   1    7.97    1.49
  13   6  -1    4.93    1.47
 -13  -6   1    3.26    1.66
  13  -6  -1    2.27    1.47
 -13   6   1    3.45    1.25
  13   6   1    3.56    1.28
 -14   6  -1   33.52    2.83
 -14  -6   1   36.76    3.34
  14  -6   1   35.28    2.39
  14   6  -1   37.01    2.76
 -14  -6  -1   46.41    3.94
  14  -6  -1   44.42    2.95
  14   6   1   32.73    2.58
  15  -6  -1    1.49    1.48
 -15   6  -1    2.02    1.39
  15  -6   1   -0.12    1.10
 -15  -6  -1    3.70    2.05
  15   6  -1    0.29    1.45
  15   6   1   -1.57    1.54
 -15  -6   1    1.90    1.34
  16   6   1    4.05    1.74
 -16  -6   1    2.40    1.52
 -16  -6  -1    6.58    2.19
 -16   6  -1    1.74    1.50
  16   6  -1    3.37    1.62
  16  -6  -1    0.27    1.33
  17  -6  -1    4.83    0.98
 -17   6  -1    3.56    1.36
  17   6   1    2.16    1.54
 -17  -6   1    7.42    1.82
 -17  -6  -1   -0.56    1.86
  17   6  -1   -0.28    1.61
 -18  -6  -1    7.45    1.64
 -18   6  -1    8.87    2.05
   0   7   1  368.50    5.19
   0   7  -1  333.12    3.40
   0  -7   1  288.89    5.03
   0   7   1  304.38    6.14
   0   7  -1  368.23    6.26
   0  -7  -1  337.09    5.37
   1  -7  -1   14.46    1.45
   1   7  -1   11.54    1.52
  -1   7   1   11.01    1.09
   1  -7   1   11.45    1.23
   1   7   1   12.66    1.33
  -1  -7   1   13.25    1.30
   1   7  -1   12.65    0.69
  -1   7  -1   17.00    1.61
  -1  -7  -1   12.83    1.65
  -1  -7  -1   12.76    1.21
  -1   7   1   14.07    1.63
  -2  -7  -1    5.56    0.95
   2   7  -1    5.17    1.23
   2  -7  -1    3.57    1.07
  -2  -7   1    4.85    0.93
  -2   7  -1    5.15    1.13
   2   7   1    3.44    0.83
  -2   7   1    4.74    1.22
   2   7  -1    4.51    0.59
  -2  -7  -1    3.06    1.24
   2  -7   1    3.39    0.98
  -3  -7   1   22.75    1.51
   3  -7   1   20.38    1.63
  -3   7   1   22.29    1.18
   3   7  -1   23.83    1.16
  -3  -7  -1   19.45    1.96
   3   7   1   19.50    1.36
  -3  -7  -1   22.65    1.42
  -3   7   1   19.92    1.69
   3  -7  -1   20.61    1.73
  -3   7  -1   22.46    1.75
   4  -7   1  152.46    3.96
   4   7   1  166.00    3.54
  -4  -7  -1  141.03    4.80
  -4   7   1  150.07    3.98
   4  -7  -1  181.90    4.56
  -4   7  -1  164.55    4.24
  -4  -7   1  173.95    4.80
  -4  -7   1  153.48    3.54
  -4   7   1  160.80    2.75
   4   7  -1  157.79    2.95
  -4  -7  -1  168.59    3.40
  -5  -7   1   19.72    1.94
  -5   7   1   20.80    1.08
  -5   7   1   20.71    1.72
  -5  -7  -1   16.96    2.08
  -5   7  -1   18.58    1.67
   5   7   1   21.81    1.54
   5  -7  -1   20.63    1.91
   5  -7   1   21.61    1.72
  -5  -7   1   16.02    1.32
  -5  -7  -1   18.48    1.24
   5   7  -1   19.65    1.27
  -6  -7   1   29.11    2.35
  -6   7   1   22.11    1.16
  -6  -7  -1   21.90    1.24
   6  -7  -1   18.94    1.89
  -6  -7   1   20.81    1.48
   6   7   1   23.92    1.64
   6   7  -1   20.82    1.40
   6  -7   1   19.45    1.74
  -6   7   1   27.82    1.93
  -6   7  -1   21.03    1.82
  -6  -7  -1   22.59    2.25
  -7   7  -1   11.87    1.52
  -7   7   1   12.61    1.48
   7  -7  -1   11.63    1.69
  -7  -7  -1    8.51    1.77
   7   7  -1    8.89    1.08
   7  -7   1    9.09    1.42
   7   7   1    9.10    1.31
  -7  -7   1   11.48    1.19
  -7   7   1    9.75    0.91
  -7  -7   1    9.01    1.65
  -8  -7   1  178.32    3.81
  -8  -7   1  191.67    5.91
   8  -7  -1  184.02    5.19
   8  -7   1  177.77    4.60
  -8   7  -1  167.56    4.67
  -8  -7  -1  176.93    5.66
   8   7  -1  165.96    3.88
  -8   7   1  174.95    3.24
  -8   7   1  191.37    4.77
   8   7   1  175.33    4.31
   9  -7   1    3.39    1.21
  -9   7   1   10.21    0.97
   9   7  -1    6.63    1.21
  -9   7  -1    6.06    1.47
   9  -7  -1    5.66    1.63
  -9   7   1    3.06    1.20
  -9  -7   1    5.70    1.73
  -9  -7  -1    6.88    1.86
   9   7   1    5.17    1.24
  10  -7   1   21.56    1.97
 -10  -7  -1   23.65    2.65
 -10  -7   1   22.37    2.56
  10   7  -1   19.63    1.73
 -10   7  -1   21.89    2.05
 -10   7   1   26.13    2.12
  10  -7  -1   24.93    2.39
  10   7   1   17.03    1.75
 -11   7   1   37.14    2.49
 -11   7  -1   29.00    2.34
  11  -7   1   29.71    2.30
  11   7  -1   24.92    2.01
  11   7   1   30.02    2.21
  11  -7  -1   33.68    2.70
 -11  -7   1   28.53    2.84
 -11  -7  -1   32.08    2.99
 -12   7  -1   20.89    2.16
 -12  -7   1   19.78    2.54
  12  -7  -1   18.11    2.20
  12   7  -1   16.34    1.79
 -12   7   1   23.59    2.17
  12  -7   1   18.57    1.95
  12   7   1   21.76    2.06
 -12  -7  -1   26.20    2.99
  13  -7  -1    7.02    1.75
  13   7   1   10.03    1.70
  13   7  -1   12.37    1.80
  13  -7   1   12.66    1.83
 -13   7  -1   14.16    1.98
 -13  -7  -1   16.49    2.68
 -13  -7   1   12.47    2.26
 -14  -7  -1   47.46    4.01
  14  -7  -1   48.14    3.40
  14   7   1   44.50    2.95
 -14  -7   1   43.36    3.57
 -14   7  -1   45.69    3.10
  14   7  -1   39.96    2.86
  14  -7   1   45.12    2.78
  15   7  -1    3.15    1.60
  15  -7  -1    1.75    1.53
  15  -7   1    1.10    1.17
  15   7   1    0.33    1.51
 -15  -7  -1    2.53    2.10
 -15  -7   1    1.42    1.53
 -15   7  -1    0.69    1.54
 -16  -7   1   24.81    2.86
 -16   7  -1   21.92    2.50
  16  -7  -1   27.12    2.76
  16   7  -1   23.43    2.64
  16   7   1   30.70    2.78
 -16  -7  -1   33.48    3.75
 -17   7  -1   10.99    1.86
  17   7  -1    6.28    1.64
  17  -7  -1   10.32    1.85
 -17  -7   1    8.65    2.00
   0   8   1   -0.32    0.74
   0  -8   1   -0.38    0.93
   0   8  -1    1.31    1.00
   0  -8  -1    0.52    0.92
   0   8   1    1.25    1.19
   1  -8   1    0.56    0.88
  -1   8   1    2.30    0.77
  -1  -8  -1    1.69    0.94
  -1   8  -1    2.04    1.19
   1   8   1    0.05    1.26
  -1   8   1    1.77    1.28
   1  -8  -1    1.62    1.08
   1   8  -1    1.07    1.26
  -1  -8   1    0.64    0.84
   1   8   1    2.53    1.10
  -2  -8   1   42.93    2.17
  -2   8  -1   44.89    2.55
   2  -8  -1   45.01    2.48
   2   8  -1   46.50    1.43
  -2   8   1   48.29    1.87
  -2  -8  -1   38.23    2.65
   2   8   1   47.29    2.07
   2  -8   1   47.71    2.40
  -2  -8  -1   47.57    2.21
  -2   8   1   49.97    2.77
   2   8  -1   52.18    2.95
   3   8   1    2.07    0.94
   3  -8   1    2.08    1.08
   3   8  -1    2.86    0.67
  -3   8   1    2.39    1.15
   3   8  -1    3.51    1.40
   3  -8  -1    1.67    1.19
  -3  -8  -1    1.59    0.89
  -3  -8  -1    1.25    1.41
  -3   8   1    2.49    0.67
  -3  -8   1    2.45    0.89
  -3   8  -1    2.89    1.23
  -4  -8   1  237.78    4.69
   4  -8  -1  243.10    5.68
   4   8   1  235.67    4.41
  -4  -8   1  237.29    5.99
  -4  -8  -1  240.11    4.50
  -4   8  -1  249.67    5.68
   4  -8   1  233.69    5.23
   4   8  -1  235.20    3.77
  -4   8   1  226.14    5.31
  -5  -8  -1   42.64    1.91
   5   8   1   32.98    1.90
  -5  -8   1   41.19    2.82
  -5   8  -1   42.15    2.53
  -5   8   1   40.27    2.43
   5  -8   1   35.67    2.31
   5  -8  -1   47.96    2.81
   5   8  -1   43.84    1.84
  -5  -8  -1   35.30    2.81
  -5  -8   1   42.56    2.14
  -6  -8   1   65.32    2.56
   6  -8   1   68.78    3.08
  -6  -8  -1   73.79    3.99
   6  -8  -1   81.15    3.64
   6   8   1   68.04    2.68
  -6   8  -1   70.28    3.27
   6   8  -1   64.85    2.35
  -6  -8   1   72.78    3.64
  -6   8   1   73.20    3.20
   7  -8  -1  111.49    4.34
   7  -8   1  116.70    3.96
  -7  -8   1  123.54    3.42
  -7   8   1  130.81    4.31
  -7  -8  -1  127.11    5.09
  -7   8  -1  122.24    4.23
  -7  -8   1  106.73    4.39
   7   8  -1  115.50    3.18
  -8  -8   1  369.88    8.35
   8   8  -1  328.30    5.56
  -8   8   1  375.73    7.14
   8  -8   1  334.47    6.66
  -8  -8  -1  358.33    8.48
   8   8   1  340.62    6.17
   8  -8  -1  382.83    7.94
  -8   8  -1  356.77    7.18
   9   8  -1   79.91    2.99
  -9   8   1   87.84    3.69
  -9  -8   1   78.32    4.19
  -9  -8  -1   89.36    4.56
   9  -8  -1   92.13    4.22
   9   8   1   76.39    3.16
  -9   8  -1   74.37    3.53
   9  -8   1   79.96    3.50
  10  -8   1   23.04    2.17
  10   8   1   18.28    1.88
 -10   8  -1   19.38    2.16
 -10   8   1   21.61    2.12
  10  -8  -1   21.82    2.44
 -10  -8  -1   18.47    2.56
 -10  -8   1   25.78    2.81
  10   8  -1   21.23    1.79
 -11  -8   1    3.43    1.84
 -11  -8  -1    4.62    1.91
  11  -8   1    4.03    1.44
 -11   8   1    4.00    1.39
  11   8   1    4.91    1.45
  11   8  -1    5.97    1.41
  11  -8  -1    7.80    1.91
 -12   8  -1  327.25    7.64
  12   8   1  294.31    6.60
  12  -8   1  304.12    6.86
 -12  -8   1  304.24    8.71
  12  -8  -1  348.34    8.31
 -12   8   1  320.64    7.27
  12   8  -1  293.75    6.38
 -12  -8  -1  346.99    9.13
  13  -8   1   50.16    3.11
  13   8  -1   57.07    3.12
  13   8   1   54.74    3.20
  13  -8  -1   53.43    3.64
 -13   8  -1   54.02    3.47
 -13  -8   1   44.52    3.64
 -13  -8  -1   60.92    4.19
 -14   8  -1   28.69    2.73
 -14  -8   1   15.87    2.41
 -14  -8  -1   33.89    3.52
  14   8   1   20.83    2.22
  14  -8   1   23.00    2.30
  14  -8  -1   19.87    2.64
  14   8  -1   23.99    2.37
 -15   8  -1   23.38    2.51
  15   8  -1   20.85    2.33
  15   8   1   20.30    2.35
  15  -8  -1   27.25    2.85
  15  -8   1   20.16    2.21
 -15  -8   1   29.88    3.06
  16   8   1   99.84    4.66
  16   8  -1  105.67    4.76
 -16  -8   1   85.39    5.25
 -16  -8  -1  117.66    6.18
 -16   8  -1  117.25    5.39
  16  -8   1  100.01    4.27
  16  -8  -1  115.10    5.25
  17  -8  -1   16.76    2.08
 -17  -8   1   17.58    3.23
   0   9  -1  246.93    6.08
   0  -9   1  233.07    5.24
   0  -9  -1  235.00    5.28
   0   9   1  225.55    6.34
   1   9   1   11.42    1.30
   1  -9  -1   11.16    1.62
   1   9   1    9.51    1.70
  -1  -9   1    8.96    1.41
   1  -9   1    9.31    1.38
  -1   9  -1    7.86    1.54
   1   9  -1   13.28    1.85
  -1  -9  -1   12.94    1.56
  -1   9   1    8.75    1.65
  -2  -9  -1    4.11    1.15
   2  -9   1    5.64    1.29
  -2   9  -1    4.33    1.38
   2   9   1    5.18    1.59
   2   9  -1    8.11    1.76
  -2   9   1    7.78    1.56
  -2  -9   1    5.38    1.22
   2   9   1    5.96    1.31
   2  -9  -1    6.68    1.48
   3   9   1   24.10    1.70
   3   9  -1   27.89    2.57
   3  -9   1   20.12    1.91
  -3   9  -1   29.26    2.35
  -3  -9  -1   20.48    2.32
  -3  -9  -1   25.40    1.84
  -3   9   1   19.32    2.00
  -3  -9   1   24.77    1.87
   3  -9  -1   27.99    2.29
  -4   9  -1  111.42    4.20
  -4   9   1   97.41    3.88
   4   9   1  114.06    3.30
   4   9  -1  122.08    4.74
   4  -9   1  106.80    3.83
   4  -9  -1  114.99    4.34
  -4  -9   1  111.24    3.51
  -4  -9  -1  122.06    3.55
  -4  -9  -1  104.71    4.63
   5   9   1   13.25    1.44
  -5  -9   1   13.51    1.48
  -5  -9  -1   10.33    2.00
  -5   9  -1   14.76    1.91
   5  -9   1   12.27    1.73
   5  -9  -1   15.61    2.06
  -5   9   1   17.29    1.98
  -5  -9  -1   20.10    1.35
  -6  -9   1   33.71    2.06
   6   9  -1   34.16    1.83
   6  -9   1   29.94    2.37
   6   9   1   33.98    2.11
  -6   9   1   35.83    2.56
  -6  -9  -1   41.42    3.20
  -6   9  -1   31.41    2.50
   6  -9  -1   36.50    2.80
  -6  -9   1   34.42    2.83
  -7  -9   1   14.49    2.31
  -7  -9  -1   14.68    2.32
   7  -9   1   12.03    1.82
   7  -9  -1   15.74    2.17
  -7   9  -1   12.65    1.90
   7   9   1   13.17    1.52
   7   9  -1   13.84    1.39
  -7   9   1   11.79    1.84
  -8  -9   1  107.13    4.89
   8  -9   1  116.45    4.34
  -8   9  -1  126.90    4.71
   8   9  -1  105.19    3.33
   8  -9  -1  122.84    4.99
  -8   9   1  120.22    4.48
  -8  -9  -1  123.38    5.47
   8   9   1  121.40    3.92
   9  -9   1    3.67    1.45
  -9   9   1    5.86    1.66
  -9  -9   1    4.71    1.74
   9  -9  -1    3.06    1.69
  -9   9  -1    5.58    1.67
   9   9   1    3.80    1.34
   9   9  -1    4.65    1.18
  -9  -9  -1    3.64    1.86
  10  -9   1   29.04    2.52
 -10   9  -1   31.03    2.67
  10  -9  -1   29.49    2.93
  10   9  -1   28.08    2.11
 -10  -9   1   32.34    3.01
 -10  -9  -1   38.26    3.46
  10   9   1   26.11    2.17
 -10   9   1   40.29    2.86
  11  -9   1   20.71    2.41
  11   9  -1   29.10    2.19
 -11   9  -1   23.14    2.44
 -11  -9   1   17.27    2.44
 -11  -9  -1   25.44    3.05
  11   9   1   22.08    2.18
  11  -9  -1   28.29    2.93
 -11   9   1   26.80    2.47
  12  -9   1   11.13    2.05
 -12  -9   1   10.91    2.17
 -12  -9  -1   14.37    2.71
  12   9   1    8.11    1.63
  12   9  -1   10.68    1.59
 -12   9  -1   16.49    2.28
  12  -9  -1   12.17    2.34
  13   9   1    3.91    1.52
 -13  -9  -1    8.99    2.31
  13  -9   1    6.03    1.75
 -13   9  -1    7.24    1.76
 -13  -9   1    1.69    1.14
  13  -9  -1    9.31    2.31
  13   9  -1    6.07    1.50
  14  -9  -1   42.67    3.55
 -14   9  -1   47.21    3.49
 -14  -9   1   36.53    3.37
 -14  -9  -1   50.99    4.14
  14   9   1   39.03    2.91
  14   9  -1   42.98    2.92
  14  -9   1   42.67    3.07
 -15  -9   1    4.33    1.50
 -15   9  -1    7.43    1.82
  15  -9   1    2.99    1.60
  15   9  -1    3.15    1.60
  15  -9  -1   -0.48    1.65
  15   9   1    4.04    1.52
 -15  -9  -1    5.43    1.88
  16  -9   1   11.30    1.62
   0 -10   1   -0.69    1.21
   0 -10  -1   -0.23    1.20
   0  10  -1    1.42    1.44
   0  10   1   -0.30    1.35
  -1 -10  -1   18.13    1.87
   1  10  -1   18.22    2.22
   1  10   1   15.23    2.20
  -1  10   1   17.53    2.15
   1 -10   1   19.78    2.05
   1 -10  -1   15.26    1.87
  -1 -10   1   17.26    1.77
  -1  10  -1   15.13    1.99
   2  10  -1  238.76    6.84
  -2 -10   1  223.49    5.37
  -2  10  -1  236.10    6.34
   2 -10   1  224.32    5.68
  -2  10   1  222.33    6.37
  -2 -10  -1  235.54    5.47
   2 -10  -1  225.96    5.94
  -3 -10   1   97.13    3.59
  -3  10  -1  108.74    4.41
   3 -10  -1  117.57    4.53
   3  10  -1  113.19    5.02
   3  10   1   93.93    4.69
  -3 -10  -1  116.37    3.87
  -3  10   1  102.05    4.32
   3 -10   1   91.55    3.78
  -4 -10  -1   16.49    2.38
  -4 -10   1   18.16    1.78
  -4  10   1   17.63    2.15
  -4 -10  -1   17.72    1.68
   4 -10   1   16.01    1.95
   4  10  -1   23.58    2.64
  -4  10  -1   14.68    2.07
   4 -10  -1   23.21    2.48
   5  10  -1    9.02    2.01
  -5  10  -1    4.13    1.62
   5 -10   1    6.61    1.64
  -5 -10  -1    1.65    1.67
  -5  10   1    5.43    1.58
  -5 -10   1    7.44    1.35
   5 -10  -1    5.77    1.70
   6  10   1  187.90    4.78
   6 -10  -1  170.79    5.85
  -6 -10   1  171.84    4.64
   6  10  -1  194.13    6.70
  -6 -10  -1  162.12    6.09
   6 -10   1  172.16    5.38
  -6  10   1  173.44    5.59
  -6  10  -1  175.83    5.70
  -7  10   1   16.31    2.12
   7 -10  -1   19.33    2.47
  -7 -10  -1   20.49    2.61
   7  10   1   17.23    1.74
   7 -10   1   21.35    2.32
  -7  10  -1   19.77    2.29
  -7 -10   1   15.03    2.43
  -8 -10  -1   47.93    3.69
   8  10   1   57.48    2.95
   8 -10  -1   46.93    3.48
  -8  10   1   49.25    3.23
   8 -10   1   57.11    3.48
  -8  10  -1   54.19    3.47
  -8 -10   1   45.45    3.44
  -9  10  -1   -0.17    1.44
   9  10   1   -0.49    1.14
   9 -10  -1   -0.50    1.72
  -9  10   1    1.66    1.46
  -9 -10   1    3.39    1.78
   9 -10   1   -2.29    1.67
  -9 -10  -1    0.08    1.76
  10 -10   1   43.74    3.20
  10  10   1   42.86    2.75
 -10 -10  -1   57.17    4.16
 -10  10   1   46.52    3.17
  10 -10  -1   47.26    3.67
 -10 -10   1   43.16    3.64
 -10  10  -1   49.65    3.42
 -11 -10  -1   49.87    4.13
  11 -10   1   43.89    3.31
  11 -10  -1   59.94    4.12
  11  10   1   38.32    2.67
 -11 -10   1   45.51    3.72
 -11  10  -1   52.34    3.59
  12 -10   1    7.77    2.00
 -12  10  -1    7.24    1.86
 -12 -10   1    4.63    1.45
 -12 -10  -1    9.14    2.60
  12 -10  -1    3.73    2.07
  12  10   1    9.60    1.85
  13 -10   1   -0.23    1.53
  13  10  -1    1.09    0.96
 -13 -10  -1   -1.77    2.08
 -13 -10   1    4.75    1.49
  13  10   1    0.92    1.26
 -13  10  -1    2.23    1.42
  13 -10  -1    6.14    2.18
 -14  10  -1   20.44    2.56
 -14 -10   1   20.01    2.50
  14  10   1   14.66    2.08
  14 -10  -1   23.11    2.85
  14 -10   1   23.70    2.59
  15  10  -1   -0.32    0.91
   0 -11  -1  113.11    4.40
   0  11  -1  107.39    4.85
   1 -11   1    5.77    1.53
  -1 -11  -1    4.40    1.38
   1  11  -1    7.14    1.92
   1 -11  -1    3.97    1.52
  -1  11  -1    2.42    1.40
  -1 -11   1    2.02    1.21
  -1  11   1    3.16    1.55
   1  11   1    4.25    1.78
   2  11  -1    4.01    1.76
   2 -11   1    1.61    1.35
  -2 -11   1    3.28    1.46
  -2  11  -1    0.69    1.45
   2 -11  -1    0.08    1.36
   2  11   1   -0.08    1.40
  -2  11   1   -1.16    1.24
  -3 -11   1    5.17    1.38
   3 -11  -1    7.86    1.78
   3 -11   1    9.65    1.83
  -3 -11  -1   11.40    1.71
   3  11   1    4.37    1.76
   3  11  -1    6.35    1.90
  -3  11  -1    4.86    1.69
  -3  11   1    7.07    1.66
   4  11   1   48.54    3.77
  -4 -11   1   52.57    2.93
   4 -11   1   55.62    3.32
  -4  11  -1   54.30    3.61
   4 -11  -1   57.84    3.59
   4  11  -1   59.80    4.13
  -5 -11  -1    9.26    2.52
  -5 -11   1   11.05    1.68
   5 -11   1    9.91    1.91
  -5  11   1    4.45    1.60
   5 -11  -1    8.04    2.03
   5  11  -1    6.73    2.04
  -5  11  -1    8.16    1.86
   6 -11  -1    5.32    1.88
   6 -11   1    7.11    1.75
   6  11  -1    8.54    2.22
  -6 -11  -1    5.15    2.04
  -6  11   1    4.74    1.53
  -6  11  -1    9.34    1.97
  -7  11   1    7.90    1.78
   7 -11  -1    2.55    1.99
   7  11  -1    3.82    1.88
   7 -11   1    5.54    1.66
  -7 -11  -1    5.86    2.15
  -7  11  -1    5.61    1.78
  -8  11   1   71.98    4.00
   8 -11   1   67.84    3.94
  -8  11  -1   73.41    4.25
  -8 -11  -1   61.17    4.36
   9 -11  -1    1.78    1.91
  -9  11   1    2.19    1.19
  -9 -11  -1    1.32    1.96
   9 -11   1    1.71    1.61
  -9 -11   1   -1.27    2.05
  -9  11  -1    2.01    1.62
  10 -11  -1    5.36    2.14
 -10 -11  -1    9.52    2.30
 -10  11  -1    5.18    1.70
  10 -11   1    6.11    1.94
 -10 -11   1    3.07    1.69
 -10  11   1    8.71    1.39
 -11  11  -1   14.53    2.32
  11 -11   1   12.51    2.31
 -11 -11   1    7.96    1.92
 -11 -11  -1   10.20    2.20
  11 -11  -1   11.90    2.73
 -12  11  -1   16.98    2.33
  12 -11  -1   10.24    2.40
  12 -11   1    8.60    2.01
 -12 -11  -1   15.10    2.39
 -12 -11   1   12.85    2.40
 -13  11  -1    0.17    0.98
   0 -12   1    0.13    1.34
   0 -12  -1    3.52    1.59
   0  12  -1   -0.79    1.75
   0  12   1   -0.54    1.37
  -1 -12   1    0.66    1.21
   1 -12   1    2.85    1.46
   1 -12  -1    0.31    1.28
  -1  12   1    0.35    1.38
  -1 -12  -1    2.51    1.34
  -1  12  -1    0.05    1.63
   1  12  -1    2.03    1.75
   1  12   1   -0.64    1.46
  -2 -12  -1   33.42    2.69
   2  12  -1   39.91    3.41
  -2 -12   1   35.62    2.66
   2  12   1   30.61    3.23
   2 -12  -1   44.04    3.34
  -2  12   1   30.84    2.84
   2 -12   1   39.04    2.93
  -2  12  -1   41.33    3.48
   3  12  -1    2.77    1.98
   3 -12   1   -1.56    1.44
   3 -12  -1    0.37    1.64
  -3 -12   1    1.69    1.39
  -3  12  -1    2.45    1.91
  -3  12   1   -0.22    1.24
   3  12   1   -0.29    1.73
   4 -12  -1   70.20    4.21
   4 -12   1   59.93    3.77
   4  12  -1   72.05    4.60
  -4  12  -1   66.60    4.19
   4  12   1   56.14    4.18
  -4  12   1   47.76    3.43
  -4 -12   1   65.49    3.40
   5 -12   1   14.75    2.28
   5  12   1   16.99    2.79
  -5  12  -1   21.11    2.75
  -5  12   1   11.92    1.98
   5  12  -1   25.92    3.15
   5 -12  -1   21.76    2.77
  -6  12   1   29.40    2.81
   6 -12  -1   45.28    3.70
   6 -12   1   50.69    3.55
   6  12  -1   38.50    3.66
  -6  12  -1   38.34    3.36
   7  12  -1   20.61    2.85
   7 -12   1   16.91    2.39
  -7 -12  -1   26.69    3.36
   7 -12  -1   23.27    3.01
  -7  12   1   20.28    2.40
  -8 -12  -1  105.96    5.61
   8 -12  -1  106.44    5.47
   8  12  -1  105.56    5.67
   8 -12   1  114.88    5.32
  -8  12   1  100.48    4.85
   9 -12  -1   32.23    3.43
  -9 -12  -1   30.45    3.46
  -9  12   1   29.58    2.66
   9  12  -1   19.18    2.87
  -9  12  -1   30.07    3.08
   9 -12   1   29.02    3.12
 -10  12  -1   14.23    2.32
  10  12  -1   19.38    2.83
  10 -12   1   18.47    2.58
   0 -13   1   82.73    4.20
   0  13  -1   79.87    4.90
   0  13   1   70.70    4.45
   0 -13  -1   84.02    4.40
  -1  13   1    3.56    1.55
  -1 -13  -1    4.99    1.67
   1 -13  -1    3.84    1.58
   1  13  -1    4.24    2.01
   1 -13   1    5.07    1.72
  -1  13  -1    6.29    2.09
   1  13   1    2.77    1.63
  -1 -13   1    4.40    1.46
   2 -13   1    4.51    1.70
  -2 -13   1    1.00    1.34
   2 -13  -1   -2.39    1.65
   2  13  -1   -0.47    1.71
  -2  13  -1    1.32    1.75
   2  13   1    1.52    1.46
  -2  13   1    5.28    1.50
  -3 -13   1    7.67    1.53
   3 -13   1   14.71    2.33
   3 -13  -1   11.42    2.20
  -3  13   1    7.72    1.63
   3  13  -1   17.46    2.73
  -3  13  -1    8.14    2.02
   3  13   1    6.43    2.24
   4 -13  -1   47.86    3.84
  -4  13  -1   54.14    4.06
   4 -13   1   44.22    3.51
   4  13  -1   37.77    3.62
   4  13   1   52.01    4.25
  -4  13   1   29.81    2.84
   5 -13   1    4.95    1.92
   5  13   1    4.80    2.07
   5  13  -1    4.96    2.01
   5 -13  -1    7.21    2.22
  -5  13  -1    1.39    1.57
  -5  13   1    3.67    1.30
   6 -13   1   14.80    2.48
  -6  13   1    6.31    1.53
  -6  13  -1   17.28    2.72
   6 -13  -1   12.00    2.58
   6  13   1   11.16    2.55
   6  13  -1   10.08    2.28
   7 -13   1    3.21    1.68
   7 -13  -1    6.79    2.12
  -7  13  -1    6.23    1.59
   7  13  -1    6.00    2.00
   7  13   1    7.39    2.14
  -8  13   1   43.98    3.49
   0 -14   1    2.35    1.46
   0  14   1   -0.09    1.15
  -1 -14   1    4.97    1.40
   1 -14  -1    9.55    1.85
   1  14   1   10.53    2.10
   1 -14   1    2.28    1.29
  -1  14   1    6.32    1.71
  -2 -14   1   43.55    3.25
   2 -14  -1   54.36    3.84
   2  14   1   54.80    4.01
  -2  14   1   45.43    3.50
   2 -14   1   53.23    3.70
   3 -14  -1   21.53    2.56
  -3  14   1   20.84    2.45
  -4  14   1   10.46    1.85
   0   0   2  825.83    6.30
   0   0  -2  819.65    3.81
   0   0  -2  807.57    4.95
   1   0   2 1370.63    6.14
  -1   0   2 1436.21    7.31
   1   0   2 1358.45   10.11
  -1   0  -2 1382.78    5.89
   1   0  -2 1391.48    6.93
   1   0  -2 1439.50    3.84
   2   0  -2    2.74    0.59
  -2   0   2    2.32    0.54
   2   0   2    2.50    0.43
  -2   0  -2    2.70    0.54
   2   0   2    2.14    0.61
  -3   0   2 3409.35   11.93
   3   0   2 3422.04   11.70
   3   0   2 3495.81    8.99
  -3   0  -2 3423.43   11.89
   3   0  -2 3412.49   12.84
   4   0   2 3465.24    8.68
   4   0   2 3347.18   12.19
  -4   0  -2 3388.51   12.97
  -4   0   2 3495.73    8.34
  -4   0   2 3390.80   12.72
   4   0  -2 3419.12   14.02
  -5   0   2 2772.46   12.37
  -5   0  -2 2738.61   12.75
   5   0   2 2762.71   11.77
   5   0  -2 2799.63   14.24
  -6   0   2   75.62    2.26
   6   0   2   76.66    2.15
  -6   0   2   86.13    2.21
   6   0   2   74.73    1.27
  -6   0  -2   85.29    2.47
   7   0  -2  175.64    5.02
  -7   0  -2  166.21    3.64
   7   0   2  158.37    1.87
   7   0   2  174.89    3.41
  -7   0   2  168.59    3.54
  -8   0   2  159.05    3.67
   8   0   2  135.90    1.81
  -8   0  -2  144.42    3.58
   8   0  -2  151.08    4.81
   8   0   2  147.90    3.34
   9   0  -2  240.95    5.72
  -9   0  -2  223.33    4.66
  -9   0   2  249.20    4.81
   9   0   2  230.14    2.46
   9   0   2  231.36    4.42
  10   0   2    4.68    1.03
  10   0   2    5.20    0.51
 -10   0   2    5.83    1.17
 -10   0  -2    5.86    1.20
 -10   0   2    2.92    1.02
  10   0  -2    4.91    1.38
  11   0  -2   49.12    2.78
 -11   0   2   57.47    2.75
 -11   0  -2   61.10    2.89
  11   0   2   55.84    2.55
 -11   0   2   55.54    2.81
 -12   0  -2  140.95    4.53
  12   0   2  142.77    4.11
 -12   0   2  132.33    4.47
 -12   0   2  151.94    4.41
  12   0  -2  134.11    4.25
 -13   0  -2   56.48    3.21
 -13   0   2   49.21    2.85
  13   0   2   50.67    2.69
  13   0  -2   61.94    3.14
 -14   0   2   54.78    3.12
  14   0   2   47.61    2.74
  14   0  -2   50.58    2.82
 -14   0  -2   47.21    3.03
  15   0   2    2.45    1.19
 -15   0  -2    2.86    1.52
 -15   0   2    2.79    1.37
 -16   0   2    2.75    1.48
  16   0   2   -0.80    1.34
 -16   0  -2    1.69    1.55
 -17   0  -2   10.73    2.29
  17   0   2    5.34    1.56
  18   0   2    4.32    1.74
  18   0  -2    5.65    1.82
 -18   0  -2    6.52    1.72
  19   0  -2    3.24    1.69
  19   0   2    4.14    1.42
 -19   0  -2    3.18    1.70
   0  -1  -2    0.83    0.42
   0   1   2    0.33    0.67
   0  -1  -2    0.58    0.51
   0  -1   2    0.16    0.44
   0  -1   2    0.09    0.42
   0   1  -2    0.14    0.32
   1  -1  -2   67.38    1.89
   1  -1   2   71.97    1.58
   1   1   2   77.13    2.52
  -1  -1  -2   67.79    1.46
  -1  -1  -2   65.24    1.39
  -1   1  -2   72.52    1.49
   1   1  -2   67.67    1.16
  -1  -1   2   70.19    1.69
  -1   1   2   72.77    1.95
   1  -1  -2   78.61    1.35
   2  -1  -2  428.52    5.19
  -2  -1   2  401.93    4.04
  -2  -1   2  410.00    3.78
   2  -1   2  421.27    3.61
  -2   1   2  425.59    4.28
   2   1   2  416.04    4.42
   2   1  -2  414.53    2.67
  -2   1  -2  403.42    3.81
  -2  -1  -2  402.87    3.81
  -2  -1  -2  404.62    3.12
   3   1  -2  159.62    2.66
  -3  -1   2  150.88    2.53
  -3   1   2  144.49    2.55
   3  -1   2  151.52    2.14
  -3  -1  -2  153.42    2.66
  -3   1  -2  154.69    2.62
  -3  -1  -2  148.02    1.72
   3   1   2  154.51    2.67
  -3  -1   2  151.71    1.71
   3  -1   2  158.24    2.42
   3  -1  -2  159.75    3.75
  -4  -1  -2   62.61    1.91
  -4  -1   2   65.69    1.29
  -4  -1   2   68.42    1.89
  -4   1   2   67.69    1.86
   4  -1  -2   67.01    2.89
   4  -1   2   64.58    1.42
  -4   1  -2   62.95    1.84
   4  -1   2   65.88    1.65
  -4   1   2   75.18    1.07
   4   1  -2   73.10    1.98
   4   1   2   62.47    1.86
  -4  -1  -2   65.14    1.02
   5   1  -2  559.37    5.54
   5  -1   2  555.48    4.16
  -5   1   2  567.92    3.74
  -5  -1  -2  546.12    5.83
  -5  -1   2  571.41    4.62
  -5  -1   2  569.03    5.62
   5   1   2  566.03    5.57
  -5   1   2  551.27    5.47
   5  -1   2  546.05    4.96
  -5   1  -2  543.92    5.65
  -5  -1  -2  542.97    2.56
  -6   1   2  341.21    4.58
  -6  -1   2  336.09    4.71
   6   1   2  340.17    4.65
   6   1  -2  348.08    4.78
  -6  -1  -2  341.80    5.02
  -6   1  -2  317.79    4.68
  -6  -1   2  356.82    4.58
   6  -1   2  335.22    4.15
  -6   1   2  341.89    3.52
   6  -1   2  340.31    3.39
  -7  -1   2   26.79    1.57
  -7   1   2   23.95    1.43
   7  -1  -2   26.00    2.06
   7   1  -2   28.28    1.73
   7  -1   2   22.49    1.00
   7   1   2   26.22    1.51
  -7   1   2   25.30    1.24
  -7   1  -2   28.81    1.65
  -7  -1  -2   22.54    1.54
  -7  -1   2   23.29    1.70
   7  -1   2   25.38    1.35
  -8   1   2   20.70    1.48
   8   1   2   14.42    1.26
   8   1  -2   20.30    1.75
   8  -1   2   19.27    0.97
  -8  -1   2   17.58    1.40
  -8  -1   2   24.96    2.07
   8  -1   2   18.26    1.26
  -8  -1  -2   17.46    1.51
  -8   1  -2   17.74    1.47
  -8   1   2   17.73    1.20
   8  -1  -2   14.69    1.69
  -9  -1   2   41.26    2.12
   9   1  -2   39.23    2.77
   9  -1  -2   33.72    2.23
   9  -1   2   40.54    1.37
  -9   1   2   36.82    1.77
  -9   1  -2   37.05    2.10
   9   1   2   39.93    2.01
  -9  -1  -2   38.93    2.19
  -9   1   2   32.16    1.85
   9  -1   2   35.04    1.80
 -10  -1   2   52.80    2.49
 -10   1  -2   48.12    2.43
 -10   1   2   39.85    2.00
  10  -1   2   51.30    2.24
 -10  -1   2   55.30    3.22
 -10  -1  -2   45.84    2.44
  10   1  -2   61.56    3.50
 -10   1   2   51.18    2.38
  10   1   2   50.95    2.37
  10  -1   2   54.76    1.62
  10  -1  -2   43.46    2.51
  11  -1   2    1.74    0.58
  11  -1  -2    0.93    1.26
 -11   1   2    2.59    1.06
 -11  -1   2    1.76    1.10
 -11   1   2    1.23    1.02
  11   1  -2    2.07    1.35
 -11  -1  -2    1.46    1.16
 -11   1  -2    1.66    1.11
 -11  -1   2    2.57    1.39
  11   1   2    1.83    0.94
  11  -1   2    2.50    1.00
 -12  -1   2   71.26    3.21
 -12   1   2   43.06    2.43
 -12  -1   2   69.67    3.95
  12  -1  -2   79.55    3.58
  12   1   2   70.26    3.02
 -12  -1  -2   71.29    3.36
 -12   1  -2   66.56    3.09
  12   1  -2   53.09    3.00
 -12   1   2   74.86    3.18
  12  -1   2   76.60    3.00
 -13   1   2  119.97    4.10
 -13  -1   2  125.13    5.41
 -13  -1   2  103.08    4.04
 -13  -1  -2  106.70    4.29
 -13   1  -2  109.41    4.13
  13   1   2  115.89    3.99
  13  -1   2  127.02    3.95
  13   1  -2  116.56    4.09
  13  -1  -2  116.59    4.07
 -14   1   2   34.78    2.56
 -14   1  -2   33.09    2.63
  14  -1   2   29.65    2.28
  14   1   2   26.12    2.19
 -14  -1  -2   39.89    2.95
 -14  -1   2   33.37    2.56
  14  -1  -2   35.12    2.58
  14   1  -2   34.81    2.39
  15  -1  -2    5.78    1.52
 -15  -1   2    8.49    1.83
 -15  -1  -2    4.86    1.76
  15   1   2    6.84    1.50
 -15   1  -2    6.20    1.83
 -15   1   2    8.84    1.67
  15  -1   2    5.48    1.40
 -16   1   2   29.24    2.61
 -16   1  -2   26.97    2.63
 -16  -1   2   28.10    2.76
  16   1   2   25.14    2.37
 -16  -1  -2   29.12    2.97
  16  -1   2   36.17    2.54
  17   1  -2   21.57    2.45
  17   1   2   16.66    2.18
 -17   1  -2   16.99    2.20
  17  -1   2   17.43    1.96
 -17   1   2   16.52    2.26
  18  -1  -2    0.94    1.47
 -18   1  -2    6.29    1.76
  18  -1   2    5.99    1.62
 -18  -1  -2   -0.73    1.88
  18   1   2   -1.83    1.55
  18   1  -2    3.96    1.59
  19  -1   2    0.31    1.22
 -19  -1  -2    0.17    1.42
 -19   1  -2    3.26    1.66
  19  -1  -2    4.02    1.49
  19   1   2   -1.27    1.18
  19   1  -2    3.30    1.47
   0   2  -2  674.07    4.69
   0  -2  -2  758.46    6.64
   0  -2  -2  732.27    5.57
   0  -2   2  697.56    5.41
   0  -2   2  670.16    4.11
   0   2   2  741.38    7.21
  -1  -2  -2 1852.66    9.51
  -1  -2   2 1695.65    8.55
  -1  -2   2 1683.25    6.88
   1  -2   2 1690.69    8.28
  -1  -2  -2 1761.90   11.04
   1   2   2 1787.68   10.97
   1  -2  -2 1824.96   10.99
  -1   2  -2 1702.28    7.91
   2  -2   2    0.77    0.49
  -2  -2  -2    1.18    0.58
  -2  -2   2    1.33    0.54
   2   2  -2    1.04    0.43
  -2   2   2    0.68    0.32
   2   2   2    0.61    0.62
  -2  -2   2    0.89    0.41
   2  -2  -2    0.39    0.81
  -2   2   2    1.45    0.61
  -2  -2  -2    1.52    0.70
   2  -2   2    1.32    0.76
  -2   2  -2    0.63    0.53
  -3  -2  -2    6.07    0.57
  -3  -2   2    8.27    0.74
  -3   2   2    8.41    0.79
  -3  -2   2    7.64    0.60
   3  -2   2    9.94    0.76
  -3   2   2    9.08    0.48
  -3   2  -2    7.90    0.79
   3  -2   2   10.06    0.74
  -3  -2  -2    7.45    0.89
   3   2   2   10.09    0.88
   3  -2  -2    7.97    1.11
  -3  -2   2    7.65    0.76
  -4  -2   2  189.92    3.11
  -4  -2   2  205.49    3.19
  -4   2   2  195.13    3.21
   4   2   2  201.26    3.37
   4  -2   2  188.87    2.55
  -4   2  -2  189.73    3.20
  -4  -2  -2  201.25    3.71
   4  -2   2  199.88    2.91
  -4  -2   2  191.07    2.63
  -4   2   2  195.07    2.03
  -4  -2  -2  182.69    1.85
   4  -2  -2  206.91    4.42
   5  -2   2  178.46    2.67
   5  -2  -2  162.55    4.01
  -5  -2   2  189.96    3.33
   5   2   2  187.44    3.43
  -5   2   2  175.62    3.17
  -5  -2   2  183.20    2.85
   5  -2   2  186.49    2.89
  -5  -2  -2  191.63    3.82
  -5   2  -2  166.76    3.23
  -5   2   2  183.82    2.23
   5   2  -2  179.67    3.11
  -6  -2   2  119.94    2.88
  -6   2   2  117.09    2.74
  -6   2   2  130.01    2.17
  -6  -2   2  122.62    2.67
   6  -2   2  124.11    2.43
   6  -2  -2   97.26    3.23
  -6   2  -2  117.65    2.90
   6   2   2  121.86    2.96
   6  -2   2  119.20    2.38
  -6  -2  -2  118.93    3.21
   6   2  -2  120.72    2.74
   7   2   2    0.60    0.71
   7   2  -2    0.59    0.62
   7  -2   2    1.37    0.59
   7  -2  -2    0.61    0.95
  -7   2   2    1.00    0.71
  -7  -2   2   -0.07    0.71
  -7   2   2    0.83    0.53
  -7  -2   2    0.10    0.65
  -7   2  -2    0.72    0.78
  -7  -2  -2    0.63    0.81
   7  -2   2    0.92    0.58
  -8   2  -2   16.25    1.45
   8   2   2   21.47    1.53
   8  -2   2   16.22    1.17
  -8  -2  -2   16.05    1.56
  -8   2   2   19.86    1.22
   8  -2   2   18.93    1.12
  -8   2   2   19.05    1.44
   8   2  -2   19.95    1.45
   8  -2  -2   17.79    1.73
  -8  -2   2   19.41    1.50
  -8  -2   2   18.65    1.56
   9   2  -2  382.32    6.27
   9   2   2  349.62    5.70
   9  -2   2  356.95    5.06
   9  -2   2  370.23    4.52
  -9  -2   2  344.16    5.77
  -9   2   2  363.96    4.96
  -9   2  -2  342.71    5.78
  -9  -2   2  378.62    6.64
  -9   2   2  291.12    5.10
  -9  -2  -2  334.89    6.24
   9  -2  -2  316.41    6.34
  10   2   2   37.51    2.11
 -10   2   2   32.39    1.96
  10   2  -2   42.48    2.66
  10  -2   2   41.30    1.70
 -10  -2   2   38.15    2.54
 -10  -2  -2   40.56    2.48
 -10   2   2   34.12    1.79
 -10   2  -2   36.14    2.18
  10  -2   2   28.26    1.68
  10  -2  -2   34.01    2.36
 -10  -2   2   41.78    2.29
 -11   2  -2  264.34    5.68
 -11   2   2  275.08    5.47
  11  -2  -2  265.45    5.91
  11   2   2  285.53    5.65
 -11  -2   2  311.53    7.24
 -11  -2  -2  259.26    6.20
  11  -2   2  267.70    4.94
 -11   2   2  250.15    4.84
 -11  -2   2  284.88    5.86
  11   2  -2  237.15    6.89
  11  -2   2  282.74    4.26
 -12  -2  -2   99.56    4.20
 -12  -2   2  107.74    3.89
 -12   2   2   93.85    3.48
 -12  -2   2   93.75    4.41
  12   2  -2   80.95    3.97
  12  -2   2   98.95    2.65
  12   2   2   92.28    3.50
 -12   2  -2   98.67    3.74
  12  -2   2   91.11    3.12
  12  -2  -2  107.07    4.15
  13   2  -2   15.72    1.87
  13  -2   2   13.24    1.54
  13   2   2   13.23    1.76
 -13  -2   2   14.10    2.14
 -13  -2  -2   17.79    2.20
 -13   2  -2   13.53    1.84
 -13  -2   2   18.92    2.05
 -13   2   2   12.88    1.70
  13  -2  -2   17.12    2.04
 -14  -2   2  113.53    4.40
 -14   2  -2  107.22    4.22
  14   2   2  111.51    4.19
 -14  -2  -2  113.51    4.92
  14  -2   2  106.34    3.71
  14  -2  -2  117.95    4.29
 -14   2   2  109.06    4.05
 -15   2   2  141.05    4.76
 -15  -2   2  165.21    5.49
  15   2   2  138.33    4.82
 -15   2  -2  137.48    5.00
  15  -2  -2  152.41    4.90
 -15  -2  -2  155.79    6.00
  15  -2   2  139.58    4.39
 -16  -2  -2   11.12    2.27
 -16   2  -2   11.64    2.13
  16   2   2    9.47    1.91
 -16   2   2   10.38    1.90
  16   2  -2   10.42    1.94
  16  -2   2    4.91    1.36
 -17   2  -2    5.09    1.81
 -17  -2  -2    6.37    1.97
 -17   2   2    3.18    1.59
  17   2   2    4.75    1.77
  17  -2   2    4.80    1.16
  17   2  -2    4.36    1.72
  18  -2   2   18.55    2.00
  18   2   2   22.18    2.51
  18   2  -2   23.39    2.78
 -18   2  -2   22.73    2.84
 -18  -2  -2   25.46    3.17
  19  -2   2   85.21    3.89
 -19  -2  -2   80.87    5.38
 -19   2  -2   81.39    4.60
  19  -2  -2   73.18    3.99
  19   2   2   83.67    4.42
   0  -3  -2   -0.07    0.67
   0   3   2   -0.31    0.90
   0  -3   2   -0.10    0.54
   0  -3   2    0.13    0.29
   0  -3  -2    0.08    0.60
   0   3  -2   -0.24    0.49
   1  -3  -2   44.38    1.49
   1  -3   2   41.93    0.93
  -1  -3  -2   46.45    1.84
   1   3  -2   43.55    1.40
  -1   3   2   35.40    1.67
   1   3   2   50.11    2.04
   1  -3   2   43.72    1.53
  -1   3  -2   44.76    1.53
  -1  -3   2   43.85    1.14
  -1  -3  -2   38.55    1.45
   1  -3  -2   40.53    1.83
  -1  -3   2   47.07    1.59
  -2  -3   2  274.14    3.78
   2   3  -2  275.58    3.52
  -2   3   2  301.50    4.31
   2  -3   2  297.84    2.90
  -2   3   2  280.87    3.29
   2  -3   2  277.69    3.79
   2   3   2  255.48    3.84
  -2   3  -2  258.39    3.67
  -2  -3   2  268.28    3.03
  -2  -3  -2  284.54    4.84
  -2  -3  -2  293.39    3.49
  -3   3   2  103.97    2.47
   3   3   2  102.77    2.47
   3  -3   2   99.59    2.35
   3  -3   2  107.41    2.06
  -3  -3   2   96.44    2.12
  -3   3  -2  106.33    2.48
  -3  -3  -2  107.19    3.52
  -3  -3  -2  106.47    1.83
  -3   3   2   96.02    1.77
  -3  -3   2  101.36    2.07
  -3  -3   2  103.30    2.41
  -4  -3   2   51.40    1.73
  -4   3   2   43.66    1.64
  -4  -3  -2   47.09    1.00
   4  -3   2   45.76    1.66
  -4   3   2   45.62    1.26
   4   3   2   51.68    1.87
  -4  -3   2   49.10    1.62
  -4  -3   2   45.89    1.53
  -4  -3  -2   46.92    2.45
   4  -3   2   48.17    1.28
   4  -3  -2   40.22    2.14
  -4   3  -2   42.44    1.73
  -5  -3   2  373.17    4.56
  -5  -3   2  383.55    4.68
  -5   3   2  387.76    4.75
  -5   3  -2  370.58    5.01
   5   3   2  379.43    5.09
   5  -3   2  377.47    3.64
   5  -3   2  392.58    4.68
  -5  -3   2  395.84    4.75
  -5  -3  -2  370.06    6.36
  -5   3   2  378.91    3.68
  -5  -3  -2  377.30    1.95
  -6   3   2  258.07    3.29
   6  -3  -2  233.01    5.06
  -6   3   2  243.61    3.92
   6   3  -2  238.33    3.75
   6  -3   2  259.39    3.90
  -6  -3   2  266.08    4.10
   6  -3   2  247.52    3.19
  -6  -3  -2  237.56    5.23
  -6   3  -2  242.09    4.23
  -6  -3   2  265.62    4.27
   6   3   2  267.37    4.50
  -7   3   2   17.31    1.26
  -7  -3   2   19.35    1.36
   7  -3   2   22.56    1.32
  -7  -3  -2   18.89    1.77
   7  -3   2   23.07    1.16
   7   3  -2   16.69    1.25
  -7   3  -2   22.54    1.53
   7   3   2   20.45    1.48
  -7   3   2   22.57    1.17
  -7  -3   2   23.47    1.55
   7  -3  -2   22.79    1.83
  -8   3   2   16.31    1.30
   8   3   2   14.83    1.36
   8  -3   2   16.21    1.23
   8  -3   2   18.54    1.16
  -8  -3   2   14.63    1.38
  -8   3  -2   17.79    1.51
   8   3  -2   18.33    1.38
  -8  -3  -2   13.08    1.62
  -8   3   2   17.48    1.15
   8  -3  -2   12.67    1.63
  -8  -3   2   20.47    1.61
  -9  -3   2   25.07    1.77
  -9   3   2   23.13    1.59
   9  -3  -2   29.17    2.27
  -9   3  -2   29.96    1.91
   9   3   2   30.36    1.90
  -9  -3   2   32.26    2.08
  -9   3   2   29.89    1.56
  -9  -3  -2   25.36    2.15
   9  -3   2   26.99    1.47
   9   3  -2   34.87    1.90
   9  -3   2   30.61    1.61
 -10   3   2   40.99    1.99
 -10  -3   2   44.99    2.40
 -10   3   2   44.06    2.16
 -10  -3   2   49.04    2.70
  10  -3   2   42.45    1.89
  10  -3  -2   54.29    3.01
  10   3   2   41.64    2.30
 -10  -3  -2   39.03    2.72
  10  -3   2   41.48    1.88
  10   3  -2   54.55    2.60
 -10   3  -2   42.45    2.36
  11  -3   2   -0.15    0.85
 -11   3   2    2.36    0.99
 -11  -3   2    1.27    1.12
 -11  -3   2   -0.81    1.26
 -11  -3  -2    0.65    1.35
 -11   3   2    1.82    0.95
 -11   3  -2   -0.17    1.14
  11   3  -2    2.15    1.31
  11   3   2    1.81    1.11
  11  -3   2    1.07    0.80
 -12   3   2   52.73    2.68
  12   3   2   59.90    2.94
  12   3  -2   53.26    3.54
 -12  -3   2   67.57    3.21
  12  -3   2   63.20    2.41
 -12  -3  -2   60.07    3.65
  12  -3   2   61.83    2.54
 -12   3  -2   65.11    3.14
 -12  -3   2   66.71    3.51
  12  -3  -2   66.46    3.37
 -13  -3   2   96.65    3.95
 -13   3   2   97.02    3.61
 -13   3  -2   94.00    3.90
  13   3   2   97.61    3.82
 -13  -3   2  106.33    4.52
 -13  -3  -2   96.94    4.74
  13  -3   2   92.66    3.22
  13  -3  -2  101.87    4.07
 -14  -3   2   28.87    2.59
 -14   3   2   31.45    2.38
  14  -3  -2   25.86    2.39
  14  -3   2   26.18    1.96
  14   3   2   31.49    2.48
 -14  -3  -2   31.12    3.14
 -14   3  -2   31.43    2.55
  15   3  -2    6.95    1.75
 -15   3   2    4.59    1.47
  15   3   2    5.25    1.65
 -15  -3  -2   11.22    2.50
  15  -3   2    5.20    1.28
  15  -3  -2    7.00    1.70
 -15   3  -2    4.99    1.67
  16  -3  -2   34.28    2.60
 -16  -3  -2   27.93    3.35
  16   3   2   24.08    2.42
  16  -3   2   27.38    2.08
 -16   3  -2   23.42    2.52
 -16   3   2   22.33    2.21
  16   3  -2   30.40    2.85
 -17   3   2   14.13    2.08
 -17  -3  -2   15.11    2.80
  17   3   2   13.52    2.26
 -17   3  -2   12.34    2.11
  17   3  -2   15.86    2.41
  18   3  -2    2.67    1.87
 -18   3  -2    6.79    2.08
  18   3   2    5.80    1.91
 -19   3  -2    0.79    1.31
  19  -3  -2    2.30    1.03
   0  -4   2  562.13    3.24
   0  -4  -2  608.78    6.21
   0  -4   2  595.82    5.89
   0   4   2  619.14    7.05
   0   4  -2  553.27    5.41
  -1  -4   2  863.39    4.66
   1  -4   2  860.35    3.42
   1  -4   2  861.90    7.21
  -1   4   2  834.30    7.82
  -1   4  -2  846.01    6.88
   1  -4  -2  859.16    7.32
   1   4   2  886.11    8.49
  -1  -4  -2  912.46    7.00
   1   4  -2  838.19    6.73
   1  -4  -2  889.54    8.06
  -1  -4   2  872.26    7.16
  -1  -4  -2  868.90    8.07
   2  -4  -2    0.89    0.90
   2   4   2    1.32    0.72
   2  -4   2    0.76    0.70
  -2   4   2    0.51    0.74
  -2  -4  -2    0.82    0.56
   2  -4   2    0.43    0.19
   2   4  -2    0.72    0.58
  -2  -4  -2    1.45    0.93
  -2  -4   2    0.58    0.38
  -2   4  -2    0.49    0.63
  -2  -4   2    1.25    0.63
  -2   4   2    0.09    0.58
   3   4   2 1976.89   11.21
  -3  -4   2 1949.56    8.92
  -3  -4   2 2001.07   10.96
  -3   4   2 2079.90   11.21
   3  -4   2 2011.73   11.26
  -3  -4  -2 2031.77   13.70
  -3   4   2 2021.60    9.83
  -3  -4  -2 2032.62    8.65
   3   4  -2 1984.23   10.86
   3  -4   2 2007.13    6.31
   3  -4  -2 1990.69   13.64
  -3   4  -2 1938.95   11.35
  -4  -4   2 2013.28   11.23
  -4  -4  -2 2059.40   14.93
  -4   4  -2 2011.62   11.79
  -4  -4   2 2003.01    9.95
  -4   4   2 2052.34    9.73
   4  -4   2 2062.37   11.64
   4  -4   2 2067.45    7.77
  -4  -4  -2 2038.39    7.63
  -4   4   2 2056.44   10.88
  -4  -4   2 2027.14   11.11
   4   4   2 2017.67   11.64
   4  -4  -2 2050.22   14.43
  -5  -4   2 1670.36   10.18
  -5  -4  -2 1669.06    5.95
   5  -4   2 1702.26    7.18
   5   4   2 1733.32   11.16
  -5  -4  -2 1739.46   15.25
  -5   4  -2 1658.31   11.14
   5  -4   2 1736.78   10.75
   5  -4  -2 1759.87   13.93
  -5   4   2 1696.67    9.02
  -5  -4   2 1691.51    9.78
  -5  -4   2 1716.94   10.74
  -5   4   2 1686.60   10.06
  -6  -4   2   49.22    1.91
  -6  -4   2   54.45    1.95
  -6  -4  -2   57.65    3.31
  -6   4   2   57.15    2.01
  -6  -4  -2   53.80    0.82
   6  -4   2   55.93    2.11
  -6   4  -2   50.39    2.16
   6   4   2   58.83    2.31
  -6   4   2   55.97    1.79
  -6  -4   2   54.18    2.18
   6  -4  -2   64.97    2.95
  -7   4   2  126.98    3.05
   7   4   2  109.72    3.22
  -7  -4   2  128.51    3.20
  -7  -4   2  159.58    3.83
   7  -4   2  135.27    3.22
  -7   4  -2  122.71    3.33
   7  -4   2  135.86    2.44
  -7   4   2  136.91    2.89
   7  -4  -2  111.52    3.89
  -7  -4   2  132.12    3.08
  -7  -4  -2  125.55    5.05
   8  -4  -2  116.81    4.02
  -8   4   2  110.15    2.97
   8  -4   2  113.84    3.07
  -8  -4   2  112.08    3.24
   8   4   2  114.61    3.40
  -8  -4  -2  117.92    4.88
  -8   4  -2  107.43    3.26
   8   4  -2  108.98    2.90
   8  -4   2  105.04    2.36
  -8  -4   2  111.94    3.40
  -8   4   2  112.95    2.78
  -9  -4   2  155.78    4.02
  -9   4   2  149.99    3.65
   9  -4   2  160.97    3.70
   9   4   2  163.37    4.19
  -9  -4  -2  169.45    5.95
   9  -4   2  163.07    3.13
   9   4  -2  155.54    3.69
  -9   4   2  146.85    3.38
  -9   4  -2  156.51    4.13
   9  -4  -2  162.12    4.78
  -9  -4   2  172.47    4.40
  10  -4   2    6.68    0.94
 -10   4   2    6.94    1.20
  10  -4  -2    4.94    1.50
 -10  -4   2   11.66    1.59
 -10   4   2    6.27    1.10
  10   4  -2    7.01    1.22
  10  -4   2    5.80    1.07
  10   4   2    7.39    1.30
 -10  -4  -2    8.40    2.05
 -10  -4   2    5.57    1.23
 -10   4  -2    4.02    1.20
 -11  -4   2   53.90    2.78
 -11   4   2   48.81    2.38
 -11   4  -2   46.64    2.63
  11   4  -2   58.06    2.79
 -11  -4   2   66.84    3.27
  11   4   2   50.69    2.71
 -11  -4  -2   57.19    3.90
  11  -4   2   53.42    2.17
 -11   4   2   57.94    2.46
  11  -4   2   49.14    2.26
  11  -4  -2   49.75    3.07
 -12   4   2  109.77    3.63
  12   4  -2  116.72    4.37
  12  -4  -2  106.50    4.21
  12  -4   2  120.61    3.47
  12   4   2   96.41    3.71
  12  -4   2  110.40    3.15
 -12   4  -2  102.85    3.90
 -12  -4   2  105.64    4.00
 -12  -4   2  121.75    4.52
 -12  -4  -2  101.82    5.23
 -13   4   2   32.21    2.27
  13  -4   2   38.62    2.18
  13   4  -2   38.19    2.72
  13   4   2   32.44    2.40
 -13   4  -2   38.27    2.68
  13  -4  -2   39.06    2.88
 -13  -4  -2   32.50    3.50
 -13  -4   2   40.98    3.02
  13  -4   2   40.57    1.98
 -14  -4  -2   45.66    4.18
  14   4   2   42.00    2.83
 -14   4  -2   38.41    2.83
 -14  -4   2   40.41    3.01
  14   4  -2   41.36    2.90
  14  -4  -2   46.59    3.04
 -14   4   2   39.51    2.57
 -15   4  -2   -0.39    1.45
  15   4  -2    0.72    1.58
  15   4   2    2.94    1.53
 -15  -4  -2    4.88    2.43
  15  -4  -2    3.02    1.69
 -15   4   2    1.04    1.27
  16   4  -2    0.08    1.60
 -16   4  -2   -0.32    1.46
  16  -4  -2   -1.15    1.60
 -16   4   2    2.06    1.23
 -16  -4  -2    0.92    2.27
  16   4   2    2.53    1.53
 -17   4  -2    7.45    1.85
  17   4  -2    5.09    1.99
  17   4   2    7.74    1.95
 -17   4   2    6.91    1.55
  18   4  -2    3.12    1.80
 -18  -4  -2    2.11    2.08
  18   4   2    4.18    1.60
   0  -5   2    0.41    0.67
   0  -5   2   -0.25    0.24
   0   5   2    0.84    0.92
   0  -5  -2    0.31    0.77
   0  -5  -2    0.11    0.75
   0   5  -2    0.42    0.68
  -1  -5   2   66.04    1.29
  -1  -5  -2   77.03    2.89
  -1   5   2   79.19    2.60
   1  -5   2   65.83    2.29
   1   5  -2   71.92    2.31
   1  -5  -2   69.18    2.43
  -1   5  -2   67.83    2.23
  -1  -5  -2   76.41    2.31
   1  -5  -2   73.66    2.54
  -1  -5   2   66.69    2.24
   1   5   2   69.46    2.77
  -2   5   2  283.04    4.67
  -2  -5   2  265.32    4.33
  -2   5   2  235.08    4.39
  -2   5  -2  250.38    4.28
   2  -5   2  269.52    4.54
   2   5   2  253.66    4.26
  -2  -5  -2  273.29    5.22
  -2  -5   2  246.54    2.82
   2  -5  -2  279.86    5.09
   2   5  -2  282.54    4.62
  -2  -5  -2  272.75    3.82
  -3  -5   2   86.92    1.91
  -3  -5  -2   90.75    2.12
  -3  -5   2   83.36    2.46
   3  -5  -2   86.59    3.05
   3   5  -2   85.18    2.57
  -3   5   2   96.38    2.60
   3  -5   2   91.48    2.72
   3   5   2   89.17    2.59
  -3  -5  -2   90.61    3.23
  -3   5   2   95.95    2.63
  -3   5  -2   90.10    2.67
  -4  -5   2   28.33    1.56
  -4   5   2   28.92    1.54
   4  -5   2   30.55    1.72
  -4   5  -2   31.81    1.77
   4   5   2   29.58    1.67
  -4  -5   2   31.12    1.68
  -4  -5   2   33.66    1.36
   4  -5  -2   26.18    1.93
  -4   5   2   31.13    1.54
  -4  -5  -2   30.93    1.19
  -4  -5  -2   30.63    2.11
  -5  -5  -2  340.65    6.50
  -5   5   2  324.08    4.59
  -5  -5   2  310.79    4.69
   5   5   2  328.91    5.14
   5  -5  -2  351.26    6.44
   5  -5   2  338.56    3.06
   5  -5   2  321.26    5.09
  -5  -5   2  320.26    4.33
  -5   5   2  337.52    4.75
  -5  -5   2  324.40    5.20
  -5   5  -2  300.08    5.10
  -5  -5  -2  325.68    3.31
  -6  -5   2  219.73    3.88
  -6  -5   2  231.81    4.63
  -6  -5  -2  227.30    5.71
  -6   5   2  216.84    3.87
   6  -5   2  229.17    2.67
  -6  -5  -2  227.03    2.44
   6  -5   2  222.91    4.32
   6   5   2  228.76    4.54
  -6   5  -2  219.77    4.52
  -6   5   2  231.18    3.96
   6  -5  -2  224.18    5.39
  -6  -5   2  208.82    3.93
  -7  -5   2   13.40    1.24
  -7   5  -2   15.14    1.46
  -7  -5  -2   19.74    2.09
  -7   5   2   17.12    1.33
  -7   5   2   14.39    1.24
   7   5   2   18.26    1.58
  -7  -5   2   12.10    1.16
   7  -5   2   13.81    1.35
   7  -5  -2   19.83    1.96
  -7  -5   2   17.03    1.57
   7  -5   2   14.46    0.85
  -8  -5   2   19.53    1.51
   8  -5  -2   15.49    1.90
  -8  -5  -2   16.96    2.15
  -8   5   2   15.85    1.34
  -8  -5   2   16.30    1.66
  -8   5  -2   14.27    1.48
   8   5   2   17.20    1.60
   8  -5   2   14.93    1.44
  -8   5   2   15.39    1.32
  -8  -5   2   16.85    1.37
  -9  -5   2   40.91    2.19
   9   5   2   41.08    2.35
  -9   5   2   39.73    2.02
  -9   5   2   37.89    1.98
   9  -5   2   37.13    2.08
   9  -5  -2   38.84    2.69
  -9  -5   2   35.17    2.34
  -9  -5  -2   33.40    2.92
   9   5  -2   41.06    2.02
  -9   5  -2   33.98    2.17
 -10  -5   2   42.98    2.42
 -10   5   2   39.83    2.13
 -10  -5   2   48.57    2.80
 -10   5   2   39.01    2.10
  10  -5   2   39.31    2.19
 -10  -5  -2   51.59    3.67
  10   5  -2   40.25    2.16
  10   5   2   39.02    2.38
 -10   5  -2   41.62    2.46
  10  -5  -2   39.75    2.83
  11   5   2    1.56    1.16
  11   5  -2    2.06    1.02
 -11  -5   2   -1.48    1.30
  11  -5   2    0.30    0.98
  11   5  -2    1.69    1.27
 -11  -5  -2    3.49    1.89
 -11   5   2   -0.01    0.90
 -11   5  -2    0.22    1.12
 -12   5   2   49.31    2.54
  12  -5  -2   55.53    3.33
  12  -5   2   42.66    2.37
  12   5   2   47.19    2.81
 -12   5  -2   48.36    2.87
  12   5  -2   51.66    2.85
 -12  -5   2   52.08    3.14
 -12  -5  -2   61.38    4.42
 -13  -5  -2   78.81    5.00
 -13   5  -2   85.90    3.83
 -13   5   2   89.02    3.42
 -13  -5   2   94.00    4.21
  13   5   2   78.31    3.57
  13  -5   2   75.33    3.08
  13   5  -2   92.63    3.91
  13  -5  -2  101.64    4.46
 -14   5   2   17.99    1.87
  14   5  -2   18.85    2.22
  14  -5   2   19.92    1.75
 -14  -5   2   26.65    2.66
 -14  -5  -2   16.33    2.78
  14   5   2   21.19    2.27
 -14   5  -2   26.09    2.48
  14  -5  -2   21.22    2.55
  15  -5  -2    2.75    1.77
  15   5  -2    5.55    1.71
 -15  -5  -2    6.27    2.36
 -15   5  -2    1.21    1.49
  15   5   2    4.24    1.63
 -15   5   2    2.71    1.23
 -16   5   2   18.75    2.10
  16   5  -2   16.31    2.31
 -16   5  -2   23.33    2.56
  16  -5  -2   25.94    2.73
  16   5   2   21.12    2.58
  17   5   2   18.79    2.53
  17  -5  -2   15.29    2.04
 -17   5   2   21.48    2.12
 -17   5  -2   18.98    2.37
  17   5  -2   18.57    2.50
 -17  -5  -2   12.24    2.85
 -18  -5  -2   -1.39    1.41
 -18   5  -2    0.52    1.34
   0   6   2  161.81    3.81
   0   6  -2  146.79    1.38
   0  -6  -2  155.03    3.64
   0   6  -2  149.07    3.58
  -1  -6  -2  467.67    7.22
  -1  -6  -2  546.82    6.30
   1   6  -2  530.68    6.68
  -1  -6   2  526.36    6.45
  -1   6   2  571.17    6.88
   1   6   2  468.28    7.34
  -1   6  -2  509.99    6.53
   1   6  -2  522.00    3.50
   1  -6  -2  577.58    7.26
  -1   6   2  463.27    6.84
   1  -6   2  520.75    6.63
  -2  -6   2   -0.79    0.79
  -2   6   2   -1.14    0.82
   2   6  -2    0.30    0.92
  -2  -6  -2   -0.31    0.73
  -2  -6  -2    1.77    1.24
   2  -6   2    0.10    0.78
   2   6   2   -0.56    0.80
   2  -6  -2    0.03    0.98
  -2   6  -2    1.58    0.87
   2   6  -2    0.32    0.40
  -2   6   2    0.76    0.82
   3   6  -2    4.32    0.63
   3   6   2    4.65    1.01
  -3  -6   2    4.75    0.96
   3  -6   2    4.73    1.03
  -3  -6  -2    5.88    1.39
  -3  -6  -2    4.04    0.76
  -3   6   2    4.35    0.98
   3  -6  -2    5.70    1.25
   3   6  -2    4.24    1.06
  -3   6  -2    4.06    0.98
  -3   6   2    4.42    0.91
  -4   6   2   82.63    2.68
  -4  -6   2   83.01    2.65
  -4   6   2   91.39    2.62
   4  -6   2   85.71    2.91
   4   6   2   82.87    2.74
   4   6  -2   76.53    1.99
   4  -6  -2   85.17    3.32
   4   6  -2   87.27    3.04
  -4  -6  -2   88.14    2.22
  -4  -6  -2   82.43    3.36
  -5  -6   2   75.34    2.55
   5   6   2   74.73    2.68
  -5   6   2   82.89    2.67
   5   6  -2   69.10    2.05
  -5  -6   2   64.03    2.63
   5  -6  -2   78.60    3.30
  -5  -6  -2   81.33    1.99
  -5   6   2   77.92    2.46
  -5  -6  -2   82.91    3.52
  -5   6  -2   71.67    2.78
  -6  -6   2   53.94    2.22
  -6   6   2   55.36    2.12
   6  -6  -2   63.51    3.13
   6   6  -2   50.48    1.95
   6  -6   2   56.62    2.47
  -6  -6  -2   48.50    2.90
  -6   6   2   55.61    2.28
   6   6   2   47.34    2.26
  -6   6  -2   49.47    2.40
  -6  -6   2   52.46    2.50
   7  -6  -2    0.45    1.26
   7  -6   2    0.37    0.88
   7   6  -2    1.37    0.82
  -7   6   2    2.42    0.82
  -7  -6   2    2.64    1.07
  -7  -6   2    0.10    0.80
  -7  -6  -2    1.07    1.29
   7   6   2    0.11    0.96
  -7   6  -2    1.85    1.07
  -7   6   2    3.26    1.01
  -8  -6   2    5.61    1.03
  -8   6   2    6.69    1.06
  -8   6  -2    8.52    1.46
  -8   6   2    4.77    1.08
  -8  -6   2   10.44    1.52
   8  -6   2    7.61    1.27
   8   6  -2    6.04    1.08
   8   6   2    5.49    1.31
  -8  -6  -2    5.50    1.58
   8  -6  -2    5.44    1.65
   9  -6   2  164.66    4.30
   9   6  -2  173.49    4.19
  -9   6   2  172.67    4.24
  -9  -6   2  181.66    5.16
  -9  -6   2  164.18    3.90
  -9  -6  -2  173.34    5.69
  -9   6   2  174.38    3.94
  -9   6  -2  158.83    4.48
   9  -6  -2  192.86    5.72
   9   6   2  160.59    4.37
 -10   6   2   22.26    1.70
 -10  -6   2   24.77    2.27
  10  -6  -2   25.05    2.52
  10   6   2   20.48    1.92
  10   6  -2   18.72    1.75
  10  -6   2   21.10    1.87
 -10  -6  -2   18.33    2.41
 -10   6   2   25.74    1.82
  10   6  -2   22.22    1.74
 -10   6  -2   18.32    1.89
 -11   6   2  145.43    3.91
 -11  -6  -2  186.15    6.48
 -11  -6   2  180.12    5.56
  11   6   2  150.08    4.58
  11   6  -2  149.55    4.41
  11  -6  -2  165.51    5.61
 -11   6  -2  151.34    4.74
  11  -6   2  139.45    4.16
 -12   6   2   67.75    2.90
  12   6  -2   58.33    3.07
 -12  -6   2   71.72    3.82
  12  -6   2   58.84    2.83
 -12  -6  -2   56.90    3.97
 -12   6  -2   64.93    3.36
  12  -6  -2   71.28    3.93
  12   6   2   54.29    3.00
 -13   6   2    7.01    1.27
  13  -6  -2    8.48    2.15
  13   6   2    7.73    1.70
 -13  -6   2   11.93    2.00
  13   6  -2   10.90    1.86
 -13   6  -2    7.52    1.64
  13  -6   2    5.36    1.37
 -13  -6  -2    4.28    2.00
 -14   6   2   60.09    2.98
  14  -6  -2   66.78    3.93
 -14  -6   2   71.43    4.02
  14   6   2   59.29    3.40
 -14   6  -2   66.62    3.73
  14   6  -2   62.54    3.51
 -14  -6  -2   59.07    4.30
  14  -6   2   61.83    2.97
 -15   6  -2   83.93    4.25
 -15  -6  -2   83.71    5.14
  15   6  -2   77.26    4.05
  15  -6  -2   75.65    4.19
  15   6   2   86.56    4.19
 -16   6  -2    8.15    1.92
 -16  -6  -2   10.82    2.46
  16  -6  -2    2.86    1.48
  16   6  -2   10.11    2.14
  16   6   2    7.63    1.94
 -17   6  -2    4.90    1.81
  17  -6  -2   -1.43    1.42
 -17  -6  -2   -1.15    1.47
  17   6   2    2.87    1.53
  17   6  -2    2.93    1.92
   0   7  -2   -0.82    0.96
   0  -7   2    0.23    0.82
   0  -7  -2   -0.32    0.93
   0  -7  -2    0.23    1.02
   0   7   2   -0.24    0.82
   1   7  -2   19.28    0.73
   1   7  -2   20.96    1.66
   1  -7  -2   18.13    1.64
  -1   7   2   23.73    1.73
  -1  -7  -2   17.79    1.82
  -1  -7   2   20.99    1.58
   1  -7   2   24.16    1.73
   1   7   2   15.43    1.66
  -1  -7  -2   22.79    1.62
  -1   7  -2   20.72    1.67
  -1   7   2   14.74    1.64
   2  -7  -2  103.16    3.49
  -2   7   2   75.91    2.74
  -2  -7   2  102.44    3.15
   2  -7   2   94.12    3.17
   2   7   2   97.58    3.26
   2   7  -2  109.42    3.53
  -2  -7  -2  102.80    2.99
   2   7  -2   95.40    1.85
  -2   7   2   93.79    3.50
  -2   7  -2   85.86    3.07
  -2  -7  -2  103.64    3.87
   3  -7  -2   40.55    2.47
  -3   7   2   35.60    1.88
  -3  -7   2   40.71    2.08
   3  -7   2   38.27    2.14
  -3  -7  -2   43.94    2.75
   3   7   2   36.85    1.99
  -3  -7  -2   38.45    1.80
   3   7  -2   36.61    1.34
  -3   7  -2   36.67    2.14
  -3   7   2   34.31    2.09
   3   7  -2   44.38    2.40
   4  -7  -2   18.62    1.87
  -4  -7  -2   18.39    2.03
  -4   7   2   15.94    1.31
  -4  -7   2   17.40    1.49
   4  -7   2   17.93    1.65
   4   7   2   18.31    1.56
   4   7  -2   15.76    1.04
  -4  -7  -2   16.13    1.22
  -4   7  -2   17.78    1.67
  -4   7   2   20.81    1.72
   4   7  -2   12.50    1.50
  -5   7   2  134.32    3.74
  -5   7   2  149.63    3.44
  -5  -7   2  123.44    3.42
   5   7   2  134.69    3.70
   5  -7   2  126.72    3.76
  -5  -7  -2  137.03    2.91
  -5  -7  -2  131.39    4.55
   5  -7  -2  146.77    4.67
  -5   7  -2  139.54    4.10
   5   7  -2  124.29    2.82
  -6   7   2  119.47    3.09
   6  -7  -2  116.53    4.34
  -6   7  -2   97.35    3.50
   6  -7   2  104.23    3.50
   6   7   2  101.53    3.33
  -6  -7  -2  111.67    4.26
   6   7  -2  106.92    2.80
  -6  -7   2  104.12    3.16
  -6   7   2  108.94    3.45
  -6  -7   2  106.35    3.71
  -7  -7   2    8.19    1.20
  -7   7   2   10.47    1.18
   7   7  -2    8.79    1.09
   7  -7   2    8.49    1.37
  -7  -7   2   11.81    1.61
   7   7   2    9.75    1.41
  -7  -7  -2   10.41    1.88
  -7   7  -2    8.96    1.54
   7  -7  -2   12.29    1.97
  -7   7   2    6.41    1.23
  -8  -7   2   10.21    1.27
  -8   7   2   11.95    1.30
   8  -7   2   10.53    1.56
  -8  -7   2   11.88    1.70
   8   7   2   11.63    1.54
   8   7  -2    8.89    1.19
  -8   7   2    9.41    1.38
   8  -7  -2   14.31    2.09
  -8   7  -2   12.74    1.71
  -8  -7  -2    6.64    1.69
  -9  -7   2   12.52    1.31
  -9   7   2   14.66    1.37
   9  -7  -2   18.23    2.27
  -9  -7   2   18.90    2.09
   9   7   2   13.46    1.70
   9  -7   2   13.30    1.60
   9   7  -2   13.81    1.49
  -9   7  -2   11.00    1.71
  -9   7   2   13.95    1.62
  -9  -7  -2   14.24    2.19
 -10   7   2   26.59    1.77
  10   7   2   17.30    1.87
 -10   7  -2   25.15    2.21
  10   7  -2   21.68    1.85
  10  -7   2   23.43    2.01
  10  -7  -2   30.04    2.83
  10   7  -2   22.15    1.83
 -10  -7   2   25.98    2.39
 -10  -7  -2   19.43    2.49
  11  -7   2    1.93    1.26
  11   7  -2    0.07    1.07
 -11   7  -2    3.05    1.42
 -11   7   2    1.68    0.82
  11  -7  -2   -0.69    1.70
 -11  -7   2    1.54    1.46
 -11  -7  -2    2.59    1.66
  11   7   2    1.99    1.33
 -12  -7  -2   41.76    3.40
  12  -7   2   25.69    2.21
 -12  -7   2   35.48    3.02
  12   7   2   26.25    2.34
 -12   7  -2   32.53    2.64
  12   7  -2   28.68    2.33
  12  -7  -2   42.76    3.31
  13  -7  -2   52.52    3.59
  13   7   2   39.25    2.82
 -13  -7  -2   53.28    3.97
  13   7  -2   49.57    3.06
 -13   7  -2   39.35    2.91
  14   7  -2   17.00    2.20
  14  -7   2   17.22    1.91
  14   7   2   15.05    2.12
 -14   7  -2   20.52    2.46
  14  -7  -2   20.61    2.63
 -14  -7  -2   17.90    2.70
 -15   7  -2    1.10    1.46
  15  -7  -2    0.39    1.65
 -15  -7  -2    2.43    1.95
  15   7   2    1.23    1.47
  15   7  -2    5.42    1.75
  16   7  -2   23.93    2.67
  16   7   2   13.69    2.19
 -16   7  -2   17.75    2.44
  16  -7  -2   17.38    2.56
 -16  -7  -2    9.29    2.28
 -17   7  -2    8.59    1.59
  17  -7  -2   10.99    2.14
   0   8   2  259.79    4.85
   0  -8   2  248.24    5.22
   0  -8  -2  261.15    5.48
   0   8  -2  251.52    5.44
  -1   8   2  361.39    6.02
  -1  -8   2  289.70    5.51
   1  -8   2  303.46    5.79
   1   8   2  294.92    5.49
  -1  -8  -2  331.96    5.90
   1  -8  -2  325.48    6.31
  -1   8  -2  303.50    6.03
   1   8  -2  312.78    6.13
  -1   8   2  246.25    6.00
  -2  -8   2   -0.11    0.87
   2  -8   2    1.05    0.97
  -2   8   2    1.39    1.07
  -2  -8  -2    2.62    1.03
  -2   8   2    0.09    0.86
   2  -8  -2    1.03    1.16
  -2  -8  -2   -0.86    1.34
   2   8   2    0.01    1.23
  -2   8  -2   -0.96    1.10
   2   8  -2   -0.04    1.07
  -3  -8  -2  696.00    7.78
  -3  -8  -2  710.23   10.49
  -3  -8   2  639.62    8.11
  -3   8   2  633.12    7.37
   3  -8   2  649.36    8.62
   3   8   2  642.46    8.06
   3  -8  -2  705.90    9.91
  -3   8  -2  681.61    9.16
  -3   8   2  599.64    8.69
   3   8  -2  730.25    9.86
  -4  -8  -2  734.48    7.75
  -4   8   2  731.27    7.67
  -4  -8   2  670.12    8.30
  -4   8   2  663.15    9.01
   4  -8   2  658.63    8.91
  -4   8  -2  674.94    9.18
   4   8   2  690.03    8.27
   4  -8  -2  728.73   10.26
   4   8  -2  700.19    6.25
  -4  -8  -2  753.87   11.03
   4   8  -2  734.01    9.88
  -5   8   2  627.35    7.05
  -5  -8   2  585.19    7.79
  -5  -8  -2  620.08   10.22
   5  -8   2  532.44    8.06
   5   8   2  599.37    7.96
  -5   8   2  562.03    8.22
   5   8  -2  582.84    6.16
  -5   8  -2  575.18    8.74
   5  -8  -2  610.34    9.72
   5   8  -2  610.91    9.10
  -6   8   2   28.60    1.68
  -6  -8   2   27.12    1.92
   6  -8  -2   33.63    2.73
  -6   8   2   28.93    2.13
   6  -8   2   23.77    2.04
   6   8  -2   22.66    1.52
  -6  -8  -2   25.04    2.55
  -6   8  -2   22.19    2.06
   6   8   2   28.15    2.04
   7   8  -2   66.90    2.46
  -7  -8   2   68.31    2.77
   7  -8   2   61.39    3.00
   7   8   2   69.35    3.09
  -7  -8  -2   69.88    3.82
  -7  -8   2   72.96    3.50
  -7   8  -2   73.61    3.41
  -7   8   2   70.09    3.16
   7  -8  -2   73.54    3.83
  -8  -8   2   57.68    2.62
  -8  -8  -2   56.92    3.56
   8   8  -2   45.67    2.23
   8  -8   2   52.65    2.86
   8   8   2   60.59    2.97
   8  -8  -2   54.37    3.43
  -8   8  -2   51.25    2.97
  -8   8   2   59.37    2.93
  -8  -8   2   61.29    3.37
  -9  -8  -2   64.98    3.78
  -9   8   2   59.20    2.98
  -9   8  -2   49.86    3.02
   9  -8   2   51.06    2.87
   9   8   2   58.38    2.96
   9   8  -2   54.71    2.53
  -9  -8   2   53.70    3.27
   9  -8  -2   67.32    3.90
  10  -8   2    8.24    1.68
 -10  -8   2   11.50    1.94
  10   8  -2    6.30    1.29
  10  -8  -2    9.75    2.19
  10   8   2    7.31    1.48
 -10   8  -2    4.89    1.57
 -10  -8  -2    4.50    1.83
  11  -8   2   37.14    2.59
 -11  -8   2   38.17    2.97
  11   8  -2   38.38    2.44
 -11  -8  -2   30.28    3.03
  11  -8  -2   33.82    3.07
 -11   8  -2   39.23    2.89
  11   8   2   33.56    2.51
  12   8  -2   56.71    3.04
  12  -8   2   53.64    3.07
 -12  -8  -2   41.45    3.50
  12   8   2   50.37    3.16
  12  -8  -2   53.04    3.74
 -12  -8   2   64.18    3.95
 -12   8  -2   53.21    3.36
 -13  -8  -2    9.10    2.16
 -13  -8   2   18.29    2.36
  13   8   2   10.73    1.84
  13  -8   2   18.35    2.10
  13  -8  -2   10.88    2.27
 -13   8  -2   11.15    2.03
  13   8  -2   10.08    1.75
 -14   8  -2   22.61    2.54
 -14  -8   2   28.43    2.79
  14  -8   2   27.45    2.35
  14   8   2   25.00    2.49
 -14  -8  -2   27.20    3.12
  14   8  -2   26.17    2.47
  14  -8  -2   32.70    3.29
  15  -8  -2   -0.16    1.74
  15  -8   2    0.66    1.06
 -15   8  -2    0.10    1.35
 -15  -8  -2    0.28    2.00
  15   8   2    1.12    1.43
  15   8  -2    1.09    1.27
  16  -8  -2    3.70    1.85
 -16   8  -2    0.35    1.21
  16   8  -2   -0.11    1.40
   0  -9   2   -0.01    1.07
   0  -9  -2    0.40    1.11
   0   9   2   -0.89    1.02
   0   9  -2    1.10    1.09
   0   9   2    0.98    1.26
   1   9   2   38.53    2.92
  -1   9   2   46.88    2.31
  -1  -9   2   36.58    2.27
   1   9   2   38.14    2.14
   1  -9   2   32.53    2.26
   1  -9  -2   37.70    2.58
  -1  -9  -2   35.15    2.31
  -1   9   2   25.91    2.38
   1   9  -2   41.68    2.70
  -1   9  -2   41.54    2.60
  -2   9  -2  113.54    4.06
  -2  -9  -2  108.17    4.44
   2   9  -2  114.69    4.22
  -2  -9   2  102.48    3.61
   2  -9   2  107.65    3.80
  -2  -9  -2  109.63    3.62
   2  -9  -2  116.67    4.34
  -3   9  -2   34.69    2.54
  -3  -9  -2   43.04    3.11
   3  -9  -2   38.14    2.75
  -3  -9   2   38.12    2.30
   3   9   2   32.51    2.37
   3  -9   2   36.85    2.40
   3   9  -2   41.20    2.79
  -3  -9  -2   36.63    2.16
  -4  -9   2    9.52    1.50
   4  -9   2    7.17    1.50
   4   9   2    8.01    1.43
  -4  -9  -2   17.31    1.33
  -4  -9  -2   11.75    2.05
   4  -9  -2   16.59    2.15
  -4   9  -2   12.89    1.82
  -4   9   2   10.60    1.60
   4   9  -2   15.48    2.05
  -5  -9   2  127.69    3.98
   5  -9   2  120.51    4.24
  -5  -9  -2  139.58    5.23
   5  -9  -2  136.77    5.15
  -5   9  -2  122.41    4.41
  -5   9   2  115.23    4.18
   5   9  -2  124.19    4.64
  -6  -9   2   97.73    3.53
  -6   9  -2   99.32    4.10
   6   9  -2  102.66    4.30
   6  -9   2   94.59    3.84
  -6  -9  -2   96.48    4.55
  -6   9   2   89.99    3.76
   6  -9  -2  103.84    4.62
   7   9  -2    5.59    1.66
  -7  -9   2    6.88    1.35
  -7  -9  -2    5.53    1.90
   7  -9   2    8.77    1.66
   7   9   2    4.63    1.43
   7  -9  -2    6.02    1.86
  -7   9  -2    4.67    1.53
  -7   9   2    4.72    1.39
  -8   9   2    9.21    1.54
  -8  -9   2    6.32    1.66
   8   9   2   11.58    1.75
   8  -9   2   11.16    1.77
   8   9  -2    7.21    1.11
   8  -9  -2   13.45    2.21
  -8   9  -2    9.93    1.86
  -8  -9  -2    8.57    1.99
   9  -9  -2   32.53    3.17
   9  -9   2   23.84    2.26
   9   9   2   26.99    2.29
   9   9  -2   22.80    1.77
  -9   9  -2   24.86    2.43
  -9  -9  -2   28.57    2.87
  -9  -9   2   31.54    2.81
 -10  -9   2   28.57    2.71
 -10   9  -2   16.97    2.26
  10  -9   2   20.90    2.23
  10   9   2   25.06    2.30
 -10  -9  -2   22.61    2.77
  10   9  -2   20.45    1.81
  10  -9  -2   33.45    3.22
  11   9   2    2.98    1.40
  11  -9   2    0.79    1.49
  11  -9  -2   -1.31    1.86
 -11  -9  -2   -1.00    1.67
 -11   9  -2   -0.41    1.44
  11   9  -2    0.18    0.98
 -11  -9   2    4.39    1.77
  12   9   2   20.54    2.23
  12  -9   2   23.55    2.39
 -12  -9   2   19.44    2.45
  12   9  -2   21.38    2.10
  12  -9  -2   14.74    2.60
 -12  -9  -2   21.75    2.85
  13   9  -2   46.53    2.95
 -13  -9   2   46.75    3.56
 -13   9  -2   50.04    3.57
  13  -9   2   38.21    2.85
 -13  -9  -2   49.29    3.87
  13  -9  -2   41.99    3.75
  13   9   2   48.27    3.20
 -14  -9   2   14.14    1.80
 -14  -9  -2   13.45    2.44
  14  -9   2   13.67    2.01
  14   9   2   13.23    2.07
  14  -9  -2   10.44    2.38
 -14   9  -2    9.85    1.91
  14   9  -2    6.79    1.55
  15  -9   2    3.11    1.43
  15   9  -2    8.03    1.79
  15  -9  -2    2.61    1.53
  15   9   2    6.59    1.52
 -15   9  -2    6.21    1.72
   0  10  -2   33.22    2.66
   0 -10   2   25.90    2.19
   0 -10  -2   30.95    2.48
   0  10   2   29.04    2.76
   1  10  -2  129.05    4.76
  -1  10  -2  116.01    4.47
  -1 -10   2  113.86    4.01
   1 -10  -2  123.30    4.57
   1 -10   2  118.08    4.20
  -1 -10  -2  118.71    4.18
  -1  10   2  106.79    4.55
   1  10   2  126.53    5.02
   2  10   2    2.87    1.64
   2 -10   2   -0.50    1.24
  -2  10   2   -0.15    1.22
  -2 -10  -2    1.43    1.18
   2 -10  -2   -0.24    1.35
  -2  10  -2    1.39    1.31
   2  10  -2    1.11    1.42
  -2 -10   2    2.18    1.17
  -3 -10   2    2.36    1.19
   3 -10   2    1.53    1.21
  -3 -10  -2    2.84    1.08
   3 -10  -2    0.28    1.37
  -3 -10  -2    1.91    1.70
   3  10   2   -0.52    1.08
  -3  10  -2    4.49    1.60
  -3  10   2    2.21    1.15
   3  10  -2    1.14    1.45
  -4 -10   2   28.12    2.18
   4 -10   2   23.64    2.24
   4 -10  -2   32.95    2.83
   4  10   2   27.76    2.28
  -4  10  -2   28.53    2.49
  -4 -10  -2   32.98    3.02
  -4  10   2   21.74    2.15
   4  10  -2   28.45    2.72
  -5  10   2   13.84    1.85
  -5  10  -2   14.56    2.03
   5 -10  -2   20.77    2.50
  -5 -10   2   19.60    1.99
   5 -10   2   18.88    2.18
   5  10   2   20.34    1.94
  -5 -10  -2   16.31    2.31
   5  10  -2   12.66    2.10
  -6 -10   2   11.19    1.53
  -6  10  -2    8.63    1.80
   6 -10   2   11.11    1.88
   6  10   2   15.72    1.81
  -6 -10  -2   17.73    2.50
   6 -10  -2   14.35    2.27
  -6  10   2   14.49    1.88
   6  10  -2   14.88    2.23
  -7 -10   2    4.50    1.28
   7 -10   2    0.55    1.32
   7  10  -2    0.48    1.51
   7 -10  -2    0.68    1.56
  -7 -10  -2   -1.38    1.78
   7  10   2   -0.69    1.31
  -7  10  -2    0.04    1.50
  -7  10   2    2.31    1.25
   8 -10   2   -0.70    1.36
   8 -10  -2    1.59    1.86
  -8 -10  -2   -3.12    1.94
   8  10   2   -0.12    1.33
  -8  10  -2    1.72    1.51
   8  10  -2   -1.88    1.64
   9 -10   2   39.04    2.96
   9  10   2   48.52    2.97
  -9  10  -2   39.41    3.10
  -9 -10  -2   48.84    3.87
   9 -10  -2   44.33    3.60
 -10 -10  -2   10.52    2.32
  10 -10   2    5.78    1.71
  10  10   2    7.29    1.73
  10 -10  -2    7.10    2.32
 -10  10  -2    7.61    1.99
 -10 -10   2    7.89    1.93
 -11 -10  -2   58.62    4.21
 -11 -10   2   55.11    3.90
  11 -10   2   57.42    3.50
  11  10   2   61.07    3.40
  11 -10  -2   52.37    4.12
 -11  10  -2   51.76    3.55
  12 -10   2   23.65    2.61
  12  10   2   27.99    2.61
 -12 -10  -2   32.33    3.49
 -12  10  -2   33.65    3.08
  12 -10  -2   32.63    3.60
  13 -10   2    3.29    1.63
 -13 -10  -2    6.99    2.21
  13 -10  -2    0.38    1.99
  13  10   2    4.30    1.62
 -13 -10   2    2.51    1.34
 -13  10  -2    1.19    1.47
  14 -10   2   24.27    2.45
  14  10   2   25.09    2.32
 -14 -10   2   29.99    3.06
   0 -11   2    2.58    1.41
   0 -11  -2    2.87    1.35
   0  11  -2   -1.51    1.61
   0  11   2   -0.91    1.54
  -1 -11   2    5.15    1.55
   1 -11   2    7.60    1.58
   1 -11  -2    7.24    1.75
  -1 -11  -2    7.97    1.62
  -1  11  -2    9.37    1.74
   1  11  -2    8.04    1.84
   1  11   2    8.04    2.03
  -1  11   2    6.05    1.71
   2  11  -2   28.64    2.79
  -2 -11   2   41.85    2.90
  -2  11  -2   36.59    2.97
   2 -11   2   27.77    2.41
  -2  11   2   21.00    2.38
   2 -11  -2   29.30    2.71
  -2 -11  -2   29.22    2.38
   2  11   2   33.37    3.01
  -3 -11   2   14.74    1.86
   3  11   2   13.59    2.32
   3 -11   2   11.16    1.80
   3 -11  -2   20.37    2.48
  -3  11  -2    9.44    2.14
  -3  11   2    8.66    1.68
   3  11  -2   15.03    2.24
   4 -11   2    6.48    1.62
   4 -11  -2    4.78    1.75
   4  11  -2    8.53    1.99
  -4 -11  -2    5.48    2.11
  -4  11  -2    2.74    1.56
  -4  11   2    2.85    1.21
  -4 -11   2    4.59    1.56
  -5 -11   2   39.13    2.74
   5 -11   2   37.10    2.90
   5  11  -2   43.78    3.43
  -5 -11  -2   37.57    3.31
   5 -11  -2   35.86    3.24
  -5  11  -2   45.83    3.32
  -5  11   2   28.08    2.48
  -6 -11   2   37.86    2.66
  -6 -11  -2   45.12    3.63
   6 -11   2   33.27    2.84
  -6  11  -2   40.22    3.20
   6 -11  -2   38.69    3.46
   6  11  -2   36.38    3.26
   7 -11   2    4.76    1.91
   7 -11  -2    5.42    2.11
  -7 -11  -2    2.25    1.95
  -7  11   2    3.77    1.09
   7  11  -2    2.52    1.82
   8  11  -2    6.30    1.95
   8 -11   2    4.63    1.74
   8 -11  -2    3.52    2.08
  -8 -11  -2    8.79    2.36
  -8  11  -2    6.64    1.96
   9 -11  -2    5.23    2.13
   9 -11   2    5.50    1.85
   9  11  -2   10.79    2.27
  -9 -11  -2    7.49    2.21
  -9  11  -2   10.37    2.17
  10 -11   2   11.86    2.18
  10  11   2    8.66    1.72
 -10 -11  -2   13.95    2.64
 -10  11  -2   11.84    2.21
  10 -11  -2    8.46    2.47
  10  11  -2    7.59    2.21
  11  11  -2    5.51    2.06
  11  11   2    2.33    1.30
  11 -11   2    0.75    1.55
  11 -11  -2    0.78    2.17
 -11 -11  -2   -0.21    1.49
 -12 -11   2   15.99    2.55
  12 -11   2    8.63    1.89
  12  11   2   16.36    2.04
 -12  11  -2    7.68    1.62
  13  11   2   16.15    1.84
   0 -12   2   76.05    3.82
   0 -12  -2   78.64    4.13
   0  12  -2   79.28    4.32
   0  12   2   84.51    4.53
   1  12   2   99.07    5.14
  -1 -12   2   86.16    4.03
   1 -12   2   89.34    4.21
  -1 -12  -2   83.71    4.09
   1 -12  -2   81.23    4.23
   1  12  -2   93.06    4.68
  -1  12   2   77.69    4.25
  -1  12  -2   93.77    4.71
   2 -12   2    0.59    1.50
   2  12  -2   -0.36    1.53
   2 -12  -2    2.58    1.58
  -2  12  -2   -0.33    1.62
  -2  12   2    0.78    1.23
   3 -12  -2  187.91    6.62
  -3 -12   2  176.33    5.67
   3 -12   2  190.80    6.12
   3  12   2  211.06    7.19
  -3  12  -2  203.75    6.86
  -3  12   2  171.28    6.10
   3  12  -2  194.80    6.75
  -4 -12   2  197.50    5.93
   4 -12   2  183.41    6.12
   4 -12  -2  195.33    7.02
  -4  12  -2  185.37    6.59
  -4  12   2  165.33    5.94
   4  12  -2  204.70    7.03
   4  12   2  211.27    7.32
  -5 -12   2  140.16    5.01
   5 -12   2  137.98    5.50
   5 -12  -2  142.81    6.16
  -5  12  -2  146.51    5.96
   5  12  -2  150.64    6.22
   6 -12  -2    6.99    2.12
   6 -12   2   11.45    2.10
  -6  12  -2   14.47    2.41
  -6  12   2    9.38    1.39
  -6 -12  -2   15.37    2.71
   6  12  -2   19.62    2.82
   7 -12   2   30.56    3.01
   7 -12  -2   26.72    3.28
  -7  12  -2   34.27    3.26
   7  12  -2   32.75    3.45
   8  12  -2   27.48    3.25
   8 -12   2   25.83    2.88
  -8 -12  -2   29.46    3.39
   8 -12  -2   27.76    3.32
  -8  12  -2   22.82    2.84
  -9  12  -2   11.55    2.24
   9 -12   2   10.92    2.30
  -9 -12  -2   16.29    2.79
   9 -12  -2   21.98    3.07
   9  12  -2   16.88    2.64
  10  12  -2    3.21    1.19
   0  13  -2    1.05    1.63
   0 -13  -2   -0.55    1.03
   0  13   2    2.59    1.57
  -1 -13   2   11.21    1.96
   1 -13   2   16.70    2.13
  -1  13   2   18.12    2.44
  -1  13  -2   23.38    2.92
   1  13  -2   14.69    2.52
   1  13   2   12.46    2.23
   1 -13  -2   19.31    2.52
  -2  13   2   37.63    3.14
  -2 -13   2   45.09    3.18
   2 -13   2   52.04    3.55
   2 -13  -2   44.16    3.46
  -2  13  -2   40.77    3.64
   2  13  -2   43.00    3.64
   2  13   2   49.63    3.90
  -3 -13   2   14.70    2.06
   3 -13   2   13.63    2.14
  -3  13  -2   18.76    2.70
  -3  13   2   15.14    1.99
   3  13  -2   14.31    2.53
   3  13   2   18.50    2.79
   3 -13  -2   10.82    2.26
  -4 -13   2    3.60    1.27
   4 -13   2    6.02    1.90
   4 -13  -2    4.70    1.87
  -4  13  -2    4.38    1.93
  -4  13   2    4.73    1.19
   4  13  -2    3.86    1.82
   4  13   2    6.00    1.92
  -5  13  -2   39.14    3.62
   5 -13   2   50.03    3.63
   5 -13  -2   45.76    3.79
   5  13  -2   46.18    3.89
  -5  13   2   43.46    3.16
   5  13   2   38.40    3.46
   6 -13  -2   29.31    3.15
   6 -13   2   29.08    2.86
  -6  13  -2   32.68    3.28
   6  13   2   40.23    3.67
   6  13  -2   37.24    3.61
   0 -14   2    4.90    1.25
   0  14   2    7.75    1.81
  -1 -14   2   21.41    2.32
   1 -14  -2   18.80    2.27
   1  14   2   26.19    2.81
  -1  14   2   26.69    2.59
  -2 -14   2   -2.27    0.87
  -2  14   2   -0.59    0.84
   3 -14  -2    5.82    1.60
  -3  14   2    7.81    1.40
  -4  14   2   17.41    2.43
   0   0   3    1.64    0.80
   0   0  -3    0.50    0.52
   0   0  -3    0.38    0.38
  -1   0   3   76.95    2.30
   1   0   3   70.32    2.43
  -1   0  -3   79.85    1.92
   1   0  -3   81.26    2.12
  -1   0  -3   79.57    1.70
   1   0  -3   81.28    1.27
   2   0   3  593.89    4.96
  -2   0   3  591.07    5.84
   2   0   3  566.75    7.84
   2   0  -3  555.69    5.65
  -2   0  -3  575.54    4.98
   2   0  -3  584.40    2.52
   3   0  -3  200.98    3.55
   3   0   3  199.89    2.78
  -3   0   3  193.90    3.37
   3   0   3  189.89    3.66
  -3   0  -3  199.81    3.22
   4   0   3   10.08    0.75
  -4   0   3   10.97    1.03
   4   0  -3    7.93    0.97
   4   0   3   11.45    1.08
  -4   0  -3   13.45    1.11
   5   0   3  485.88    4.14
  -5   0   3  480.72    5.69
   5   0  -3  477.83    6.24
   5   0   3  480.89    5.53
  -5   0  -3  474.09    5.69
  -6   0  -3   59.09    2.24
   6   0   3   59.16    1.47
  -6   0   3   54.70    2.08
   6   0  -3   61.49    2.53
   6   0   3   54.74    2.05
  -6   0   3   49.53    0.94
  -7   0   3  309.54    5.01
   7   0   3  302.24    3.10
   7   0  -3  321.42    6.24
  -7   0  -3  310.65    5.20
  -7   0   3  298.09    2.92
   7   0   3  320.85    4.96
  -8   0   3   39.52    2.03
   8   0  -3   48.49    3.09
   8   0   3   43.13    1.19
   8   0   3   46.86    2.12
  -8   0  -3   45.62    2.28
  -8   0   3   43.22    1.50
  -9   0   3  828.96    8.99
   9   0   3  803.94    4.84
   9   0  -3  865.34   12.60
   9   0   3  841.26    8.77
  -9   0  -3  814.33    9.19
  -9   0   3  831.25    7.82
 -10   0   3   80.59    3.14
  10   0  -3   90.41    4.21
  10   0   3   84.41    3.06
 -10   0  -3   77.84    3.16
  11   0   3  313.92    5.95
 -11   0   3  297.25    6.01
  11   0  -3  324.34    7.47
 -11   0  -3  290.25    6.18
  12   0  -3    0.52    1.52
 -12   0   3   -0.64    1.18
 -12   0  -3    3.15    1.46
  12   0   3    1.09    1.05
 -13   0  -3  394.69    7.90
  13   0   3  386.27    7.16
 -13   0   3  406.08    7.74
 -14   0  -3    4.50    1.61
  14   0  -3    2.31    1.40
 -14   0   3    1.96    1.47
  14   0   3    3.21    1.33
 -15   0   3   68.40    3.67
  15   0   3   71.55    3.51
 -15   0  -3   65.48    3.70
  15   0  -3   61.96    3.70
 -16   0   3   13.76    2.19
  16   0   3   12.65    1.88
 -16   0  -3   15.45    2.32
  17   0   3  194.99    6.01
 -17   0   3  193.19    6.36
 -17   0  -3  205.65    6.97
 -18   0  -3    1.00    1.65
  18   0   3    2.48    1.56
 -18   0   3    3.54    1.99
  19   0   3   20.35    2.33
   0  -1   3   41.93    1.55
   0   1  -3   40.28    1.18
   0  -1   3   46.02    1.73
   0   1   3   41.86    2.05
   0  -1  -3   37.23    1.44
   0  -1  -3   37.48    1.06
  -1  -1   3  161.76    2.98
   1  -1   3  161.96    2.85
  -1  -1   3  171.69    3.07
  -1   1   3  164.03    3.58
   1   1   3  177.87    4.12
   1  -1  -3  155.23    2.99
  -1  -1  -3  162.56    2.72
   1  -1  -3  159.75    1.91
  -1  -1  -3  153.06    2.33
  -1   1  -3  157.27    2.47
   1   1  -3  166.08    2.07
  -2  -1  -3    6.20    0.67
  -2  -1   3    5.38    0.75
  -2   1   3    7.25    0.99
   2  -1  -3    6.46    0.94
   2   1   3    8.03    1.32
   2  -1   3    6.44    1.19
   2   1  -3    6.23    0.81
  -2  -1  -3    5.32    0.69
  -2   1  -3    7.31    0.78
   2   1  -3    6.58    0.48
   2  -1   3    7.22    0.80
  -3  -1   3  468.54    5.07
   3  -1   3  492.20    4.66
  -3   1   3  492.10    5.62
  -3  -1  -3  466.71    4.95
   3   1  -3  462.63    5.30
   3  -1  -3  484.54    6.14
   3  -1   3  501.29    6.07
   3   1   3  488.62    5.85
  -3  -1  -3  461.38    4.05
  -3   1  -3  474.96    4.99
   3   1  -3  477.33    2.96
  -4  -1   3  221.73    3.65
   4  -1   3  234.57    3.20
   4  -1  -3  231.67    4.75
   4  -1   3  243.29    3.88
   4   1   3  236.21    4.02
  -4  -1  -3  236.40    2.79
   4   1  -3  234.67    4.00
  -4   1  -3  228.04    3.74
  -4   1   3  243.75    4.09
   4   1  -3  235.31    2.15
  -4  -1  -3  232.48    3.80
  -5  -1   3   80.43    2.37
  -5   1   3   77.18    2.41
   5  -1   3   78.46    1.84
   5  -1  -3   80.17    3.27
  -5  -1   3   75.44    1.31
   5   1   3   81.84    2.49
  -5  -1  -3   80.07    1.55
  -5   1  -3   85.55    2.51
   5   1  -3   84.29    2.51
  -5  -1  -3   78.83    2.45
   5  -1   3   81.23    2.28
  -6   1  -3   24.75    1.57
  -6  -1   3   19.32    1.38
   6   1  -3   18.09    1.37
  -6   1   3   20.83    1.44
   6  -1  -3   17.65    2.01
   6  -1   3   17.46    0.93
  -6  -1  -3   18.61    0.75
  -6  -1   3   17.05    0.73
   6  -1   3   16.30    1.22
   6   1   3   17.20    1.33
  -6   1   3   19.19    0.67
  -6  -1  -3   20.54    1.48
  -7  -1   3  162.51    3.69
  -7   1   3  157.65    3.65
   7  -1  -3  175.78    5.26
   7  -1   3  159.91    2.56
   7   1  -3  175.54    4.04
  -7  -1   3  153.86    2.28
   7  -1   3  170.58    3.49
   7   1   3  155.95    3.63
  -7   1   3  193.48    2.73
  -7  -1  -3  175.54    4.06
  -7   1  -3  167.44    3.89
  -7  -1  -3  162.08    1.89
   8  -1   3   -0.14    0.45
   8  -1  -3    0.05    1.36
  -8  -1   3    0.51    0.80
  -8   1  -3   -0.51    0.95
   8   1  -3   -1.09    0.99
  -8   1   3    0.37    0.80
  -8  -1   3    0.66    0.50
  -8   1   3    1.10    0.56
  -8  -1  -3    0.83    0.89
   8  -1   3    0.80    0.74
   8   1   3    1.48    0.91
   9  -1  -3   10.67    1.78
  -9   1   3    8.36    1.32
   9  -1   3    7.94    0.73
   9   1  -3    8.62    1.58
  -9  -1   3   12.56    1.03
   9  -1   3    8.23    1.12
  -9  -1  -3    7.94    1.34
   9   1   3   11.87    1.37
  -9   1  -3   11.88    1.48
  -9  -1   3   10.32    1.36
  10   1  -3   40.85    3.13
  10  -1  -3   41.41    2.87
 -10  -1   3   36.76    2.25
  10  -1   3   36.96    1.31
  10   1   3   38.54    2.26
  10  -1   3   39.61    2.10
 -10  -1  -3   35.41    2.33
 -10   1  -3   37.91    2.32
 -10   1   3   38.56    2.26
  11   1   3  209.32    5.06
  11  -1  -3  209.31    5.85
 -11  -1   3  219.48    5.31
 -11   1   3  207.71    5.00
  11   1  -3  237.59    7.28
  11  -1   3  213.22    4.78
 -11  -1  -3  211.66    5.36
 -11   1  -3  204.33    5.18
 -12  -1   3  105.62    3.98
 -12   1   3   96.92    3.69
  12   1  -3  107.57    4.79
  12  -1  -3   83.60    3.84
  12   1   3  103.70    3.78
  12  -1   3   98.18    3.47
 -12   1  -3  100.99    3.88
 -12  -1  -3  100.12    3.97
 -13   1  -3    0.37    1.25
  13   1   3    3.00    1.31
  13  -1  -3    5.14    1.67
 -13  -1   3    0.45    1.21
  13   1  -3    4.78    1.79
 -13   1   3    0.44    1.25
 -13  -1  -3    1.53    1.49
  13  -1   3    2.26    1.21
  14  -1  -3    0.58    1.64
 -14  -1  -3    1.02    1.39
 -14   1  -3    4.46    1.60
  14   1   3    3.28    1.43
  14  -1   3    0.28    1.08
 -14   1   3    4.83    1.53
  14   1  -3   -1.46    1.40
 -14  -1   3    1.40    1.44
 -15  -1   3   41.59    3.08
 -15   1   3   36.53    2.82
  15  -1   3   39.33    2.63
  15   1   3   47.22    2.99
 -15  -1  -3   48.09    3.39
 -15   1  -3   40.80    3.13
  15  -1  -3   41.13    3.11
  15   1  -3   33.26    2.68
 -16  -1   3    8.70    1.87
  16   1   3   13.32    2.02
  16  -1   3    8.87    1.60
 -16  -1  -3   13.22    2.29
 -16   1  -3    8.74    2.02
 -16   1   3    8.57    1.79
  16  -1  -3   15.27    2.19
 -17   1  -3    2.23    1.65
  17   1   3    4.63    1.77
 -17  -1   3    0.81    1.63
 -17   1   3   -0.67    1.44
 -17  -1  -3   -0.96    1.83
  17  -1   3    2.36    1.25
 -18  -1   3   17.28    2.57
 -18   1   3   23.56    2.68
  18   1   3   24.18    2.58
  18  -1   3   22.09    2.26
 -18  -1  -3   21.12    2.96
 -18   1  -3   21.74    2.67
   0  -2  -3   -0.01    0.86
   0  -2   3    1.11    0.57
   0   2   3    0.56    0.92
   0  -2  -3    1.14    0.70
   0  -2   3    0.80    0.63
   0   2  -3    0.66    0.50
   1  -2   3  790.68    6.56
   1  -2  -3  738.77    8.61
  -1  -2   3  751.50    5.71
  -1  -2  -3  761.94    7.57
   1   2   3  828.17    9.18
   1  -2  -3  850.12    5.46
  -1  -2  -3  749.19    6.35
  -1   2  -3  774.46    5.89
   1   2  -3  768.11    5.16
  -1  -2   3  805.35    6.87
  -2   2  -3   14.97    1.02
   2  -2   3   17.82    1.11
   2  -2  -3   14.13    1.60
  -2  -2   3   15.26    1.00
  -2  -2  -3   16.98    1.23
  -2   2   3   16.00    1.32
   2  -2   3   10.84    1.02
   2   2   3   15.25    1.50
   2  -2  -3   13.12    0.63
  -2  -2  -3   15.19    1.09
   2   2  -3   17.07    0.83
  -2  -2   3   13.41    1.06
  -3  -2   3 1141.84    8.39
   3   2  -3 1114.46    5.90
  -3  -2   3 1127.88    7.68
   3  -2  -3 1204.50   11.76
   3  -2   3 1118.78    7.49
  -3  -2  -3 1103.97    8.05
  -3   2   3 1212.66    9.38
   3  -2   3 1116.01   10.40
   3   2   3 1099.39    9.03
  -3  -2  -3 1074.91    8.18
  -3   2  -3 1112.51    7.89
  -3   2   3 1133.39    3.64
  -4   2   3   -0.48    0.72
  -4  -2  -3    0.64    0.58
   4   2   3    0.19    0.70
   4   2  -3   -0.62    0.62
   4   2  -3    0.33    0.42
  -4  -2   3    0.10    0.59
  -4  -2  -3    0.08    0.69
   4  -2  -3    1.39    1.12
  -4   2  -3    0.40    0.64
   4  -2   3   -0.01    0.72
   4  -2   3    1.03    0.58
   5  -2  -3   98.49    3.53
  -5  -2   3   92.72    2.55
  -5  -2  -3  103.80    2.19
  -5   2   3   97.87    2.78
  -5  -2  -3   96.47    2.81
   5  -2   3   91.95    2.19
   5  -2   3   89.00    2.34
  -5  -2   3   84.78    1.74
  -5   2   3   93.13    1.17
  -5   2  -3   87.32    2.58
   5   2   3   95.37    2.79
   5   2  -3   92.56    2.64
   6  -2   3    1.86    0.59
  -6   2  -3    1.53    0.80
   6  -2  -3    3.63    1.17
  -6  -2   3    2.37    0.48
  -6   2   3    2.45    0.87
  -6   2   3    1.84    0.35
  -6  -2   3    2.66    0.83
   6  -2   3    2.18    0.68
   6   2  -3    1.92    0.78
   6   2   3    3.26    0.92
   7  -2  -3 1094.56   11.82
   7   2   3  944.23    9.09
  -7  -2   3 1042.82    9.33
  -7   2   3  980.22    9.05
   7  -2   3  968.98    6.98
   7  -2   3  971.43    7.85
   7   2  -3  986.92    8.95
  -7  -2  -3  969.02    9.67
  -7   2  -3  908.20    8.97
  -7  -2   3  960.78    6.58
   8  -2  -3  125.33    4.24
  -8  -2   3  117.76    3.42
  -8   2   3  112.44    3.28
   8   2  -3  121.46    3.45
   8  -2   3  114.18    2.50
  -8  -2   3  104.93    2.33
   8  -2   3  115.61    2.96
   8   2   3  117.15    3.46
  -8  -2  -3  108.73    3.51
  -8   2   3   98.22    2.12
  -8   2  -3  119.51    3.50
   9  -2  -3   10.54    1.75
  -9  -2   3   13.37    1.48
  -9   2   3    9.23    1.31
   9  -2   3   12.14    1.01
   9   2  -3   11.43    1.47
  -9  -2   3   14.24    1.06
   9   2   3   12.19    1.44
   9  -2   3   11.57    1.21
  -9  -2  -3   12.49    1.58
  -9   2  -3   13.05    1.50
 -10  -2   3   71.39    2.39
 -10  -2   3   82.21    3.25
 -10   2   3   77.66    3.03
  10   2  -3   75.94    3.38
  10  -2   3   77.27    2.20
  10  -2   3   80.48    2.74
 -10  -2  -3   74.81    3.31
 -10   2  -3   79.20    3.21
  10   2   3   71.38    2.99
  10  -2  -3   72.35    3.46
 -11  -2   3  256.62    5.79
 -11   2   3  259.17    5.61
  11   2  -3  253.17    6.82
  11  -2   3  240.69    3.83
  11  -2   3  248.97    4.99
  11   2   3  251.19    5.64
 -11  -2  -3  232.04    5.94
 -11   2  -3  235.41    5.60
 -12  -2   3    7.94    1.53
  12   2  -3    3.90    1.96
 -12   2   3    7.64    1.44
  12  -2  -3    5.87    1.75
  12   2   3   11.19    1.72
 -12  -2  -3    9.71    1.72
 -12   2  -3    7.37    1.61
  12  -2   3    4.85    1.20
 -13  -2   3    4.80    1.51
  13   2  -3    3.58    1.84
  13   2   3    9.82    1.70
  13  -2  -3    0.45    1.49
 -13   2   3    5.81    1.52
 -13  -2  -3    5.12    1.82
 -13   2  -3    4.56    1.49
  13  -2   3    1.85    0.99
 -14  -2   3    7.81    1.74
 -14  -2  -3    6.62    1.98
 -14   2  -3    7.27    1.73
  14  -2  -3    9.13    2.04
 -14   2   3    5.43    1.54
  14   2  -3    5.44    1.72
  14   2   3    5.14    1.54
  14  -2   3    5.89    1.27
 -15   2   3   46.84    3.02
  15  -2   3   56.54    2.96
  15   2   3   54.77    3.29
 -15  -2  -3   43.08    3.41
 -15  -2   3   51.04    3.35
  15  -2  -3   52.14    3.57
 -15   2  -3   46.43    3.17
 -16  -2   3   26.42    2.67
 -16   2   3   28.04    2.57
  16   2   3   23.34    2.46
 -16  -2  -3   35.30    3.41
 -16   2  -3   31.12    2.85
  16  -2   3   25.35    2.15
  16  -2  -3   22.63    2.56
  17   2   3   -0.86    1.62
 -17  -2   3    2.45    1.59
 -17  -2  -3    0.78    1.70
 -17   2  -3    1.12    1.64
  17  -2   3    2.03    1.04
 -17   2   3    4.19    1.71
 -18   2   3    8.80    1.96
  18   2  -3    8.67    2.19
 -18   2  -3    2.86    1.83
 -18  -2  -3    7.94    2.33
  18   2   3    6.53    1.85
   0  -3  -3   48.91    2.09
   0  -3  -3   48.16    1.73
   0  -3   3   39.16    1.72
   0  -3   3   37.75    1.23
   0   3   3   46.81    2.20
   0   3  -3   40.23    1.50
  -1  -3  -3  140.42    3.17
   1  -3  -3  142.07    3.54
  -1  -3   3  127.09    2.95
  -1  -3   3  131.58    2.35
   1  -3   3  128.26    2.87
   1  -3   3  134.35    2.34
  -1   3   3  126.52    3.51
   1  -3  -3  137.45    2.63
  -1  -3  -3  133.66    3.08
   1   3   3  131.69    3.96
   1   3  -3  130.26    2.47
  -1   3  -3  127.27    2.67
  -2  -3  -3    6.24    0.89
  -2   3  -3    6.63    0.87
  -2  -3   3    7.05    0.95
  -2  -3   3    7.38    0.73
   2  -3  -3    5.67    0.64
   2  -3   3    6.13    0.82
   2   3   3    7.20    1.33
  -2  -3  -3    4.44    1.10
   2  -3   3    6.15    0.90
  -2   3   3    5.36    1.05
   2   3  -3    5.89    0.68
   2  -3  -3    5.92    1.21
   3  -3  -3  394.83    6.26
  -3  -3   3  347.15    4.87
  -3  -3   3  344.91    4.26
  -3   3   3  375.60    5.54
   3  -3   3  350.60    4.62
   3   3   3  342.94    5.25
  -3  -3  -3  345.58    5.83
  -3   3   3  369.50    3.34
   3   3  -3  342.85    3.89
  -3  -3  -3  343.11    4.14
  -3   3  -3  340.33    4.67
   4  -3  -3  230.76    4.98
  -4  -3   3  210.51    3.85
  -4  -3   3  213.60    3.61
  -4   3   3  219.27    4.16
   4  -3   3  213.04    3.63
   4  -3   3  217.73    4.10
   4   3   3  212.22    4.17
  -4  -3  -3  194.48    4.40
  -4   3   3  210.43    2.35
   4   3  -3  204.31    3.11
  -4   3  -3  209.16    3.87
  -4  -3  -3  178.08    2.84
  -5  -3   3   77.40    2.48
   5  -3  -3   83.58    3.21
  -5  -3   3   78.19    2.38
  -5  -3  -3   63.19    1.48
  -5   3   3   80.31    2.65
   5  -3   3   80.40    2.30
   5  -3   3   85.57    2.28
   5   3   3   80.97    2.68
  -5  -3  -3   73.46    2.82
  -5   3  -3   80.22    2.56
  -5   3   3   83.43    1.53
   5   3  -3   79.51    2.01
   6  -3  -3   10.36    1.56
  -6  -3   3   13.83    1.24
  -6   3   3   11.88    1.24
   6  -3   3   10.39    1.00
   6  -3   3   12.92    1.03
  -6  -3  -3   15.50    0.52
  -6  -3   3   13.49    0.95
  -6  -3  -3   17.38    1.66
  -6   3  -3   11.33    1.25
   6   3  -3   14.11    1.27
  -6   3   3   12.60    0.73
  -7  -3   3  139.05    3.53
  -7   3   3  128.62    3.41
   7  -3   3  130.15    2.99
   7  -3   3  127.89    2.83
   7   3   3  139.29    3.70
  -7  -3  -3  126.38    3.95
   7   3  -3  124.28    3.27
  -7   3   3  132.74    2.31
  -7   3  -3  130.82    3.56
  -7  -3   3  132.68    2.76
   7  -3  -3  134.14    4.27
   8  -3   3    0.68    0.77
   8   3  -3    0.55    0.84
  -8  -3   3   -0.30    0.64
   8  -3  -3   -0.81    1.20
  -8  -3   3   -0.53    0.91
  -8  -3  -3   -1.55    1.13
   8  -3   3    0.23    0.63
  -8   3   3    0.35    0.86
   8   3   3   -0.27    0.89
  -8   3  -3   -0.40    0.93
  -9  -3   3   11.00    1.43
  -9   3   3   13.83    1.47
  -9  -3  -3   10.84    1.70
   9  -3   3   11.97    1.19
   9  -3   3   12.29    1.17
  -9  -3   3   12.54    1.16
   9   3  -3   10.31    1.41
   9   3   3   12.69    1.51
  -9   3  -3   10.03    1.51
   9  -3  -3    7.80    1.80
 -10  -3   3   27.51    2.09
 -10   3   3   28.53    2.00
  10  -3   3   27.34    1.61
  10   3  -3   32.49    2.12
 -10  -3   3   29.37    1.69
  10   3   3   29.52    2.12
  10  -3   3   26.06    1.62
 -10  -3  -3   25.74    2.31
 -10   3  -3   31.12    2.20
  10  -3  -3   25.03    2.49
 -11  -3   3  175.34    4.81
 -11   3   3  177.82    4.65
  11   3  -3  190.66    5.27
  11  -3   3  190.75    3.88
  11   3   3  181.10    4.89
 -11  -3  -3  158.82    5.32
  11  -3   3  166.69    3.91
 -12   3   3   83.67    3.41
  12  -3   3   93.79    3.19
  12   3  -3  103.19    4.49
  12   3   3   87.48    3.64
 -12  -3  -3   96.46    4.43
 -12  -3   3   99.31    3.94
 -12   3  -3   82.41    3.64
  12  -3  -3   68.88    3.83
 -13   3   3    4.97    1.52
  13   3  -3    1.17    1.83
  13  -3  -3    1.92    1.58
 -13  -3  -3    3.28    1.73
 -13  -3   3   -0.83    1.39
 -13   3  -3    0.02    1.30
  13   3   3    0.55    1.32
  13  -3   3    1.08    1.05
 -14  -3   3    2.02    1.49
  14  -3  -3    4.03    1.68
 -14   3   3   -0.45    1.37
 -14  -3  -3    1.43    1.58
 -14   3  -3    3.20    1.50
  14   3   3    2.03    1.48
  14  -3   3    3.85    1.17
 -15  -3   3   37.04    3.00
  15  -3  -3   32.36    3.03
 -15   3   3   34.05    2.65
  15   3   3   38.05    2.95
 -15  -3  -3   42.39    3.74
 -15   3  -3   36.60    2.93
 -16   3   3   10.47    1.91
  16   3   3    9.57    1.92
 -16   3  -3   12.85    2.16
  16  -3  -3    8.41    2.06
 -16  -3  -3    6.53    2.20
  17  -3  -3    3.33    1.44
 -17   3  -3    1.26    1.54
 -17   3   3    2.46    1.56
 -17  -3  -3   -1.30    2.06
  17   3   3    3.14    1.69
  17   3  -3    0.58    1.61
 -18   3   3   12.33    2.01
  18   3   3   22.74    2.59
 -18  -3  -3   30.54    3.61
 -18   3  -3   15.48    2.39
  18   3  -3   22.75    2.88
   0  -4   3   -0.22    0.37
   0  -4  -3   -0.34    0.68
   0  -4  -3    0.32    0.86
   0   4   3    0.59    0.92
   0   4  -3    0.08    0.60
   0  -4   3   -0.12    0.63
  -1  -4   3   68.07    1.67
  -1  -4   3   66.59    2.31
   1  -4   3   63.20    1.41
   1  -4   3   64.57    2.27
  -1   4   3   60.32    2.58
   1  -4  -3   56.71    2.00
  -1  -4  -3   74.50    2.46
  -1  -4  -3   49.09    1.99
  -1   4  -3   60.30    2.06
   1   4  -3   62.55    1.94
   1   4   3   67.53    3.01
   1  -4  -3   69.06    2.72
  -2  -4   3  371.40    4.06
  -2  -4   3  377.34    5.33
   2  -4   3  383.55    3.51
   2  -4   3  382.07    5.25
   2   4   3  369.63    6.46
  -2  -4  -3  379.22    5.60
  -2   4  -3  382.96    5.14
   2   4  -3  361.46    4.46
   2  -4  -3  380.36    6.29
  -3   4  -3  114.61    2.98
  -3  -4   3  124.11    3.19
  -3   4   3  116.74    3.38
   3  -4   3  112.97    2.92
   3  -4   3  132.86    2.39
   3   4   3  113.41    3.23
  -3  -4  -3  117.83    3.48
  -3  -4   3  117.74    2.51
   3   4  -3  109.47    2.53
  -3   4   3  120.15    2.47
   3  -4  -3  115.75    3.72
  -4  -4   3    4.49    0.91
  -4  -4   3    4.90    0.78
  -4  -4  -3    4.96    0.68
  -4   4   3    6.99    1.10
  -4   4  -3    3.84    0.93
   4  -4   3    5.50    0.97
   4  -4   3    3.52    0.75
  -4  -4  -3    4.52    1.31
  -4   4   3    4.67    0.63
   4   4  -3    5.73    0.82
   4   4   3    3.12    0.92
   4  -4  -3    5.86    1.37
  -5  -4   3  330.91    5.13
  -5  -4   3  333.39    4.82
   5   4  -3  325.88    4.38
  -5   4   3  382.03    5.73
   5  -4   3  347.84    5.15
   5  -4   3  363.52    4.95
   5   4   3  358.21    5.79
  -5  -4  -3  340.43    7.21
  -5   4  -3  330.77    5.31
  -5  -4  -3  339.00    3.35
  -5   4   3  356.84    3.88
   5  -4  -3  318.43    6.42
  -6  -4   3   41.81    1.97
  -6  -4   3   42.35    1.93
  -6   4   3   46.99    1.54
  -6   4   3   49.29    2.21
   6  -4   3   46.00    2.03
   6  -4   3   49.82    1.77
   6   4   3   50.36    2.36
  -6  -4  -3   44.96    3.02
  -6   4  -3   41.94    2.09
  -6  -4   3   39.14    1.65
   6  -4  -3   32.63    2.40
  -7  -4   3  189.75    4.20
  -7   4   3  163.68    3.93
   7  -4   3  217.41    4.21
   7  -4   3  205.25    3.44
  -7  -4   3  195.58    3.66
  -7  -4  -3  191.57    5.68
  -7   4  -3  190.82    4.41
  -7   4   3  214.93    3.25
   7   4  -3  198.01    4.10
   7  -4  -3  197.61    5.30
   7   4   3  216.80    4.77
  -8  -4   3   32.99    1.97
  -8   4   3   27.01    1.82
   8  -4   3   31.82    1.55
   8  -4  -3   22.45    2.20
   8  -4   3   25.60    1.66
   8   4   3   31.34    2.11
  -8  -4  -3   35.25    2.72
  -8  -4   3   31.97    1.68
   8   4  -3   24.85    1.68
  -8   4  -3   32.55    2.09
  -9  -4   3  648.57    8.32
  -9   4   3  604.37    7.79
  -9   4  -3  597.44    8.27
   9  -4   3  515.28    6.74
  -9  -4   3  619.60    7.12
   9   4   3  656.61    8.85
  -9  -4  -3  570.10   10.04
   9   4  -3  625.78    7.91
   9  -4  -3  514.67    9.16
   9  -4   3  596.47    6.35
 -10  -4   3   61.09    2.86
 -10   4   3   53.24    2.57
  10  -4   3   57.47    2.42
 -10  -4   3   61.43    2.51
  10  -4   3   67.28    2.38
  10   4  -3   66.15    2.85
  10   4   3   74.92    3.28
 -10  -4  -3   56.73    3.62
 -10   4  -3   60.61    2.95
  10  -4  -3   44.77    3.18
 -11  -4   3  224.28    5.51
 -11   4   3  217.34    5.12
 -11   4  -3  212.91    5.46
  11  -4   3  228.83    4.70
  11   4  -3  223.17    5.35
 -11  -4   3  223.07    4.91
 -11  -4  -3  222.90    6.91
  11   4   3  217.70    5.51
 -12   4   3   -0.38    1.11
  12  -4   3    0.62    0.92
  12   4  -3    1.34    1.23
 -12   4  -3    0.39    1.31
 -12  -4   3    0.72    1.23
  12  -4  -3   -0.56    1.68
 -12  -4  -3    1.88    1.88
  12   4   3    0.75    1.25
 -13  -4   3  330.61    7.30
 -13   4   3  307.78    6.56
  13   4  -3  346.01    8.33
  13   4   3  311.84    7.07
 -13  -4  -3  279.18    8.45
 -13   4  -3  307.63    7.02
  13  -4  -3  262.88    7.26
  14  -4  -3    1.79    1.49
 -14  -4   3    0.90    1.35
 -14   4  -3    1.99    1.51
 -14   4   3   -0.97    1.37
 -14  -4  -3    3.12    1.98
  14   4   3    0.93    1.52
 -15  -4   3   57.57    3.58
 -15   4   3   53.94    3.22
  15   4   3   42.83    3.13
 -15  -4  -3   46.97    4.27
 -15   4  -3   55.53    3.53
  15  -4  -3   55.09    3.76
 -16   4   3   10.70    1.85
 -16  -4  -3    9.08    2.72
  16   4   3   11.65    2.09
  16   4  -3   10.27    2.23
  16  -4  -3    9.10    2.14
 -16   4  -3   10.70    2.01
 -17   4   3  150.88    5.50
  17   4   3  155.66    5.90
 -17  -4  -3  159.54    8.27
 -17   4  -3  158.06    6.01
  17  -4  -3  165.21    6.26
  17   4  -3  143.06    5.83
 -18   4  -3    1.14    1.21
 -18   4   3    2.47    1.40
   0  -5   3   18.63    0.83
   0  -5  -3   17.05    1.44
   0  -5   3   18.58    1.47
   0   5   3   15.85    1.53
   0   5  -3   18.08    1.33
   0  -5  -3   11.26    1.27
  -1  -5   3   89.62    1.85
   1  -5   3   96.28    1.59
  -1  -5   3   94.23    2.87
   1  -5   3   94.25    2.85
  -1   5   3  114.22    3.50
   1  -5  -3   85.70    2.70
  -1  -5  -3  106.54    3.17
   1   5  -3   95.16    2.65
  -1  -5  -3   77.66    2.63
  -1   5  -3  101.54    2.85
   1  -5  -3   66.80    2.80
   1   5   3   97.70    3.48
  -2  -5  -3    1.23    0.78
   2  -5   3    3.55    0.95
   2   5  -3    1.73    0.72
   2  -5   3    2.37    0.35
   2  -5  -3    2.39    1.07
  -2   5   3    4.93    1.20
  -2  -5   3    2.42    0.56
  -2  -5  -3    0.94    0.93
   2   5   3    3.21    1.26
  -2  -5   3    1.32    0.78
  -2   5   3    1.11    0.68
  -2   5  -3    3.40    0.93
  -3  -5   3  284.25    3.79
  -3  -5   3  289.56    4.93
   3  -5   3  273.07    2.45
  -3   5   3  264.69    5.24
   3  -5   3  283.57    4.93
   3   5   3  274.15    5.15
  -3  -5  -3  280.51    5.38
  -3  -5  -3  268.09    4.11
   3   5  -3  275.59    4.41
  -3   5  -3  279.68    4.91
  -3   5   3  266.60    4.26
  -4  -5   3  128.04    2.80
  -4  -5   3  132.73    3.48
  -4   5   3  137.64    3.71
   4  -5   3  139.71    2.06
   4  -5   3  117.29    3.26
   4   5   3  128.69    3.60
   4  -5  -3  108.67    3.97
  -4   5  -3  125.53    3.43
  -4   5   3  125.06    2.79
  -4  -5  -3  128.08    2.61
   4   5  -3  121.96    3.05
  -5  -5   3   49.05    1.94
  -5  -5   3   40.52    2.02
  -5   5   3   44.66    2.22
   5  -5   3   48.17    2.24
  -5   5  -3   48.14    2.28
   5   5   3   49.70    2.41
  -5  -5  -3   45.54    2.56
  -5  -5  -3   49.91    1.50
  -5   5   3   52.16    1.88
   5   5  -3   48.94    2.02
   5  -5  -3   42.99    2.78
  -6  -5   3   15.20    1.32
  -6  -5   3   13.56    1.32
  -6   5   3   20.95    1.65
   6  -5   3   11.47    1.27
  -6   5   3   14.18    1.11
   6   5   3   12.83    1.49
  -6  -5  -3   11.21    1.73
  -6   5  -3   13.08    1.46
  -6  -5   3   13.07    1.25
   6  -5  -3   18.34    2.05
  -7  -5   3  122.72    3.36
  -7  -5   3  124.94    3.35
  -7   5   3  130.24    3.64
   7  -5   3  130.90    3.60
   7   5   3  135.88    3.97
  -7  -5  -3  114.98    4.54
  -7   5  -3  129.32    3.79
  -7   5   3  133.17    2.97
  -7  -5   3  121.82    3.22
   8  -5  -3    0.20    1.40
   8  -5   3   -0.88    1.02
  -8  -5   3   -0.49    0.79
  -8   5   3   -1.04    0.95
  -8  -5  -3   -0.34    1.44
   8   5   3   -0.76    1.10
  -8   5  -3    1.26    1.15
   8   5  -3   -0.06    0.90
   9   5  -3    2.70    0.94
   9  -5  -3    2.03    1.58
   9   5   3    1.74    1.15
   9  -5   3    4.15    1.18
  -9  -5   3    2.23    1.03
  -9   5   3    1.79    0.93
  -9  -5   3    3.28    0.98
  -9   5  -3    3.09    1.22
 -10  -5   3   25.97    2.05
 -10   5   3   30.33    2.09
  10  -5   3   30.17    2.06
 -10  -5   3   27.91    1.89
 -10  -5  -3   25.45    3.03
  10   5   3   33.72    2.41
 -10   5  -3   29.84    2.27
  10  -5  -3   24.34    2.43
  10   5  -3   29.68    2.04
 -11  -5   3  153.89    4.65
 -11   5   3  128.19    4.03
  11  -5   3  141.99    4.07
  11   5   3  154.82    4.86
  11   5  -3  161.88    4.58
 -11  -5  -3  160.12    6.74
 -11   5  -3  137.45    4.52
 -11  -5   3  149.69    4.27
  11  -5  -3  117.45    4.89
 -12  -5   3   64.07    3.28
 -12   5   3   61.10    3.00
  12  -5   3   65.10    2.90
  12   5  -3   64.66    3.17
  12   5   3   64.76    3.37
 -12  -5  -3   64.21    4.61
 -12   5  -3   71.14    3.51
  12  -5  -3   52.27    3.62
  13  -5  -3    0.79    1.65
  13  -5   3    2.12    0.99
 -13  -5   3    2.28    1.37
 -13   5   3    2.85    1.14
 -13  -5  -3    1.05    1.95
 -13   5  -3    2.41    1.42
  13   5   3    1.67    1.45
  14  -5  -3    0.05    1.66
 -14   5   3    0.81    1.24
 -14  -5  -3    1.94    2.11
 -14   5  -3    1.75    1.37
  14   5   3    1.35    1.45
 -15   5   3   29.82    2.49
  15   5   3   36.17    2.92
 -15   5  -3   31.42    2.85
  15   5  -3   35.77    2.99
  15  -5  -3   27.18    2.92
  16   5   3    8.40    2.01
 -16   5   3    5.09    1.55
 -16  -5  -3    6.20    2.68
 -16   5  -3    2.38    1.69
  16  -5  -3    5.43    2.06
  16   5  -3    5.29    1.86
 -17   5   3    6.24    1.71
 -17   5  -3   -1.47    1.60
  17  -5  -3    2.53    1.64
 -17  -5  -3    1.34    2.08
  17   5   3    2.46    1.35
  17   5  -3    5.15    1.93
 -18   5   3   10.56    1.43
   0  -6   3   -0.15    0.84
   0  -6  -3    0.19    0.89
   0   6   3    0.25    0.92
   0   6  -3    0.27    0.74
   0  -6  -3    0.39    0.88
  -1  -6   3  351.91    3.36
   1   6  -3  330.52    5.22
  -1  -6   3  352.59    5.78
   1  -6   3  364.44    5.89
  -1   6   3  427.97    6.78
   1   6   3  358.00    6.40
  -1  -6  -3  409.60    6.70
  -1  -6  -3  343.15    5.68
  -1   6  -3  364.25    5.65
   1  -6  -3  282.45    5.67
   1  -6  -3  323.27    5.57
  -2   6  -3    8.95    1.19
  -2  -6   3    7.62    0.69
  -2  -6   3    7.61    1.17
  -2   6   3    5.12    1.06
  -2   6   3   10.96    1.53
   2  -6   3    6.52    1.18
   2   6   3    8.62    1.74
  -2  -6  -3   10.27    1.52
  -2  -6  -3    6.95    1.06
   2   6  -3    9.16    1.17
   2  -6  -3    5.37    1.26
  -3  -6   3  503.20    6.89
  -3   6   3  395.46    6.59
   3  -6   3  506.73    6.98
   3   6   3  374.53    6.43
  -3   6   3  409.68    5.94
  -3  -6  -3  423.34    6.83
  -3  -6  -3  491.67    5.84
  -3   6  -3  495.90    6.89
  -3  -6   3  470.34    4.78
   3   6  -3  462.40    6.24
   3  -6  -3  375.14    7.07
   4  -6  -3   -1.05    1.29
   4  -6   3    0.45    0.97
  -4  -6  -3    0.08    0.66
  -4   6   3    1.21    1.11
  -4  -6  -3   -0.12    1.00
   4   6   3    0.90    1.03
  -4  -6   3    0.39    0.87
  -4   6  -3    0.99    0.97
  -4   6   3    1.40    0.85
   4   6  -3    0.61    0.84
  -5  -6   3   44.59    1.84
  -5  -6   3   49.24    2.33
  -5   6   3   43.66    2.27
   5  -6   3   46.64    2.35
  -5   6   3   39.43    1.88
   5   6   3   46.04    2.43
  -5  -6  -3   42.14    2.53
  -5   6  -3   45.33    2.38
   5   6  -3   43.23    2.10
   6  -6  -3    0.35    1.24
   6  -6   3    0.64    0.99
  -6  -6   3    0.27    0.74
  -6   6   3    1.24    1.07
  -6  -6   3    0.81    0.82
  -6  -6  -3    1.88    1.22
   6   6   3   -0.60    1.15
  -6   6  -3    1.99    1.09
  -6   6   3    1.09    0.78
   6   6  -3    0.61    0.78
  -7  -6   3  487.61    6.54
  -7  -6   3  467.83    6.74
  -7  -6  -3  483.33    8.56
  -7   6  -3  486.24    7.58
  -7  -6   3  469.05    6.74
   7   6   3  501.67    7.69
  -8  -6   3   54.67    2.43
  -8  -6   3   51.51    2.40
  -8   6   3   62.46    2.75
  -8   6  -3   57.86    2.90
   8  -6   3   50.82    2.58
  -8  -6   3   46.64    2.34
   8   6   3   53.93    2.85
  -8  -6  -3   52.89    3.26
  -9  -6   3    7.33    1.25
  -9   6   3    9.00    1.38
   9  -6   3    7.58    1.40
  -9  -6   3    7.81    1.30
   9   6   3    8.78    1.55
  -9  -6  -3    9.02    1.98
   9   6  -3    6.45    1.25
  -9   6  -3    9.42    1.58
 -10  -6   3   46.72    2.61
 -10   6   3   41.39    2.42
  10   6  -3   44.70    2.46
  10  -6   3   43.04    2.50
 -10  -6   3   38.01    2.28
  10   6   3   41.10    2.71
 -10  -6  -3   38.30    3.10
  10  -6  -3   38.99    3.09
 -10   6  -3   45.14    2.80
 -11  -6   3  128.84    4.33
 -11   6  -3  130.88    4.58
  11  -6   3  137.53    4.23
 -11  -6   3  136.54    4.26
  11   6   3  133.12    4.57
 -11  -6  -3  126.13    5.51
  11   6  -3  140.41    4.26
  12  -6   3    8.73    1.54
  12   6   3    7.47    1.77
  12   6  -3    6.24    1.60
 -12   6   3    4.92    1.36
 -12  -6  -3    4.85    1.84
 -12   6  -3    2.68    1.44
  12  -6  -3    5.48    1.85
  13  -6   3    2.74    1.22
 -13   6  -3    1.89    1.36
 -13   6   3    4.71    1.34
 -13  -6  -3    0.65    2.02
  13   6   3    1.20    1.42
  13  -6  -3    3.80    2.00
  13   6  -3    3.44    1.57
 -14   6   3    3.13    1.44
 -14   6  -3    6.39    1.85
  14   6  -3    8.27    1.99
 -14  -6  -3    5.76    2.05
  14   6   3    4.10    1.60
  14  -6  -3    4.45    2.06
 -15   6   3   26.31    2.27
  15   6   3   20.48    2.57
 -15  -6  -3   31.59    3.52
 -15   6  -3   33.71    3.07
  15   6  -3   27.33    2.65
  15  -6  -3   25.33    3.03
 -16   6   3   19.52    1.87
  16   6  -3   26.81    2.91
  16   6   3   13.85    2.22
 -16  -6  -3   21.41    3.13
 -16   6  -3   18.85    2.55
  16  -6  -3   13.76    2.42
  17  -6  -3    4.46    1.98
   0  -7   3   19.95    1.71
   0   7   3   27.61    1.97
   0  -7  -3   23.11    1.94
   0  -7  -3   20.29    1.79
   0   7  -3   23.15    1.66
   1   7  -3   51.73    2.37
  -1  -7   3   56.89    2.60
   1  -7   3   58.80    2.64
  -1   7   3   71.08    3.00
   1   7   3   54.86    2.72
  -1  -7  -3   65.38    2.95
  -1   7  -3   60.54    2.62
  -1  -7  -3   57.01    2.57
   1  -7  -3   53.24    2.77
  -1   7   3   55.37    2.70
   2  -7   3    2.44    1.10
  -2  -7  -3    1.87    0.92
  -2  -7  -3    2.79    1.23
  -2   7   3    2.50    1.22
   2   7   3    0.84    1.25
   2  -7  -3    1.97    1.14
  -2   7  -3    1.95    0.98
  -2  -7   3    1.40    0.95
   2   7  -3    0.94    0.84
  -2   7   3    1.26    0.97
  -3  -7   3  143.81    4.01
  -3   7   3   99.36    3.47
   3  -7   3  144.92    4.09
   3   7   3  143.49    4.49
  -3  -7  -3  150.91    4.57
  -3  -7  -3  146.01    3.61
   3  -7  -3  115.33    4.20
  -3   7   3  116.96    3.58
   3   7  -3  122.33    3.61
  -3   7  -3  130.84    3.87
  -4  -7   3  107.19    2.54
  -4  -7   3   96.95    3.32
  -4   7   3  105.91    3.51
  -4  -7  -3  108.03    2.95
   4  -7   3  107.33    3.64
   4   7   3   94.48    3.45
  -4  -7  -3   94.16    3.72
  -4   7  -3   92.73    3.39
   4  -7  -3   81.02    3.67
  -4   7   3   85.67    2.95
   4   7  -3  102.75    3.40
  -5   7  -3   49.70    2.63
  -5  -7   3   49.25    2.46
  -5   7   3   38.54    2.25
   5  -7   3   41.86    2.38
  -5  -7  -3   45.36    2.74
   5   7   3   40.98    2.45
  -5  -7   3   42.02    1.82
   5  -7  -3   28.10    2.41
  -5   7   3   34.01    1.99
   5   7  -3   41.76    2.34
  -6  -7   3    6.14    0.99
  -6  -7   3    5.60    1.22
  -6   7   3    4.99    1.25
   6  -7   3    4.26    1.28
  -6   7   3    5.58    1.05
   6   7   3    6.72    1.44
   6   7  -3    5.37    1.17
  -6  -7  -3    3.86    1.41
  -6   7  -3    4.60    1.22
   6  -7  -3    6.77    1.69
  -7  -7   3   62.88    2.49
  -7  -7   3   60.73    2.69
  -7   7   3   75.00    3.02
   7  -7   3   57.06    2.85
   7   7   3   73.01    3.31
  -7  -7  -3   72.18    3.60
  -7   7  -3   65.26    3.08
   7  -7  -3   48.81    3.23
   7   7  -3   63.28    2.88
   8  -7   3    1.13    1.20
  -8  -7   3   -0.85    1.03
  -8  -7  -3   -0.43    1.41
  -8   7   3    0.53    0.97
  -8  -7   3    1.03    1.16
   8   7   3    2.43    1.29
  -8   7  -3   -0.32    1.21
   8  -7  -3   -0.40    1.46
  -9  -7   3    7.19    1.35
  -9   7   3    8.42    1.39
   9  -7   3   10.60    1.61
  -9  -7   3    9.79    1.50
   9   7   3   10.85    1.75
  -9  -7  -3   10.99    1.99
   9   7  -3   10.99    1.53
  -9   7  -3    9.38    1.64
   9  -7  -3    8.56    1.97
 -10   7   3   18.47    1.78
  10  -7   3   13.40    1.82
 -10  -7   3   13.18    1.68
 -10  -7  -3   18.35    2.40
  10   7  -3   14.27    1.71
 -10   7  -3   13.74    1.83
  10  -7  -3    8.00    2.01
  10   7  -3    9.45    1.48
  10   7   3   16.70    2.01
 -11   7   3   93.09    3.56
  11  -7   3   88.50    3.68
 -11  -7   3   90.20    3.75
  11   7   3   96.21    4.08
 -11  -7  -3  100.42    4.77
  11   7  -3   99.40    3.69
  11   7  -3   90.95    3.67
 -11   7  -3   89.05    4.02
  11  -7  -3   81.04    4.48
 -12   7   3   45.97    2.69
  12  -7   3   45.02    2.78
  12   7   3   49.48    3.15
 -12  -7  -3   35.83    3.16
  12   7  -3   47.42    2.92
 -12   7  -3   44.95    3.09
  12  -7  -3   38.20    3.34
 -12  -7   3   47.66    2.86
  13  -7   3   -0.37    1.28
 -13  -7  -3   -0.37    1.70
  13  -7  -3    0.37    1.70
  13   7   3    3.06    1.59
 -13   7  -3    2.57    1.58
  13   7  -3   -0.04    1.30
  14  -7  -3   -2.50    2.05
  14  -7   3    2.67    1.04
 -14  -7  -3    1.15    1.82
  14   7   3    2.36    1.59
 -14   7  -3    2.49    1.76
  14   7  -3    3.07    1.63
  15   7   3   21.84    2.59
 -15  -7  -3   23.19    3.01
 -15   7  -3   25.91    2.91
  15  -7  -3   20.83    3.09
  16  -7  -3    6.65    2.21
  16   7  -3    4.26    1.77
   0  -8   3    2.26    1.16
   0  -8  -3   -1.14    1.18
   0  -8  -3    0.48    1.17
   0   8   3    0.27    1.09
   0   8  -3    0.10    0.94
  -1  -8   3   42.40    2.47
  -1   8   3   42.25    2.47
   1  -8   3   42.81    2.46
   1   8   3   44.03    2.42
  -1  -8  -3   54.60    3.02
  -1  -8  -3   57.25    2.74
   1  -8  -3   44.29    2.61
  -1   8  -3   48.38    2.55
   1   8  -3   43.11    2.38
  -1   8   3   51.99    2.80
  -2  -8  -3  142.10    4.02
  -2  -8   3  143.52    4.19
  -2   8   3  123.68    3.89
   2  -8   3  130.39    4.04
   2   8   3  122.57    4.24
  -2  -8  -3  148.90    4.72
   2  -8  -3  119.19    4.34
  -2   8  -3  141.81    4.27
   2   8  -3  142.54    4.13
  -2   8   3  130.96    4.33
   3   8  -3   29.37    2.04
  -3  -8   3   29.84    2.13
   3  -8   3   27.27    2.11
   3   8   3   26.62    2.56
  -3  -8  -3   28.32    2.42
  -3  -8  -3   29.34    1.93
   3  -8  -3   27.04    2.41
  -3   8  -3   26.62    2.08
   4  -8   3    0.34    1.15
  -4   8   3   -0.20    0.96
  -4  -8  -3   -1.09    1.47
   4  -8  -3    0.37    1.35
   4   8   3   -0.34    1.29
  -4  -8   3    1.36    1.18
  -4   8  -3   -1.57    1.29
  -4   8   3    1.53    0.89
   4   8  -3    2.85    1.13
  -5  -8   3  150.55    4.28
  -5   8   3  173.85    4.56
   5  -8   3  167.26    4.77
   5   8   3  162.23    4.70
  -5  -8  -3  181.67    5.51
   5  -8  -3  127.80    4.96
  -5   8   3  124.94    3.85
   5   8  -3  171.71    4.86
  -5   8  -3  164.12    4.80
  -6   8   3   22.05    1.72
  -6  -8   3   25.08    2.04
  -6   8   3   24.48    1.95
   6  -8   3   19.40    1.98
   6   8   3   20.38    2.07
   6  -8  -3   17.42    2.26
  -6  -8  -3   22.19    2.32
   6   8  -3   22.04    1.50
  -6   8  -3   26.68    2.21
   6   8  -3   21.49    1.99
  -7   8  -3   63.94    3.29
  -7  -8   3   59.55    2.82
  -7   8   3   73.74    3.10
   7  -8   3   65.75    3.25
   7   8   3   65.10    3.26
   7   8  -3   72.90    2.67
  -7  -8  -3   68.59    3.59
   7  -8  -3   49.87    3.44
   7   8  -3   75.56    3.35
  -8  -8   3   10.87    1.47
   8  -8  -3   10.31    2.04
  -8   8   3   15.21    1.65
   8   8   3   12.66    1.90
   8  -8   3   14.05    1.84
  -8  -8  -3   14.67    2.10
   8   8  -3   16.35    1.56
  -8   8  -3   15.99    2.05
   8   8  -3   16.33    1.87
  -9  -8   3  278.88    5.89
   9  -8   3  299.63    6.65
   9   8   3  303.80    6.84
  -9  -8  -3  286.68    7.49
   9   8  -3  300.11    5.85
  -9   8  -3  271.11    6.72
 -10   8  -3   28.94    2.53
  10  -8   3   26.78    2.37
 -10  -8   3   33.76    2.52
  10   8   3   37.03    2.78
 -10  -8  -3   24.35    2.72
  10   8  -3   27.73    2.15
  10  -8  -3   23.69    2.79
  11   8  -3   82.45    3.50
  11   8   3   90.13    4.08
 -11  -8  -3   94.72    4.70
 -11   8  -3   77.51    3.97
 -11  -8   3   84.93    3.85
  12  -8   3    1.50    1.40
 -12  -8   3    0.59    1.04
  12  -8  -3   -0.47    1.94
 -12  -8  -3    2.80    1.80
  12   8   3    0.86    1.44
 -12   8  -3   -0.13    1.47
  12   8  -3   -0.87    1.25
  13  -8   3  154.80    5.14
  13   8   3  170.91    5.75
 -13  -8  -3  148.18    6.22
  13   8  -3  154.78    5.22
 -13   8  -3  142.96    5.53
  13  -8  -3  128.11    6.09
  14  -8   3   -0.02    1.11
  14  -8  -3    1.70    1.86
 -14  -8  -3   -0.54    1.79
  14   8   3   -1.36    1.55
 -14   8  -3    0.80    1.35
  14   8  -3    0.20    1.44
  15   8   3   21.92    2.58
  15   8  -3   25.39    2.63
 -15   8  -3   25.63    2.73
  15  -8  -3   18.25    2.91
   0  -9   3    6.40    1.49
   0   9   3    6.31    1.39
   0  -9  -3    4.43    1.30
   0   9  -3    9.58    1.57
   0   9   3    7.64    1.55
  -1  -9   3   42.07    2.56
  -1   9   3   43.37    2.47
   1  -9   3   34.10    2.37
   1   9   3   34.69    2.22
  -1  -9  -3   44.39    2.99
  -1  -9  -3   45.07    2.67
   1  -9  -3   41.58    2.81
  -1   9  -3   39.97    2.57
   1   9  -3   41.02    2.53
  -1   9   3   42.26    2.82
   2  -9   3    2.56    1.25
   2  -9  -3    0.18    1.22
  -2  -9  -3    0.39    0.95
  -2   9   3    2.01    1.14
  -2  -9  -3   -0.31    1.41
   2   9   3    1.20    1.18
  -2   9  -3   -0.60    1.23
   2   9  -3   -1.39    1.13
  -2   9   3    0.15    1.07
  -2  -9   3    0.86    1.12
  -3  -9   3  112.26    3.94
  -3   9   3   90.91    3.37
   3  -9   3  114.33    4.10
   3   9   3  102.00    4.42
  -3  -9  -3  112.85    4.45
  -3  -9  -3  126.70    3.82
   3  -9  -3  104.32    4.33
  -3   9  -3  106.25    4.05
  -3   9   3  101.49    3.88
   3   9  -3  109.15    3.97
  -4  -9   3   44.97    2.63
  -4   9   3   42.73    2.46
   4  -9   3   47.92    2.86
   4   9   3   42.30    3.00
  -4  -9  -3   50.55    3.28
   4  -9  -3   40.75    3.04
  -4   9  -3   54.91    3.08
  -4   9   3   36.58    2.37
   4   9  -3   39.98    2.60
  -5  -9   3   15.55    1.80
   5  -9   3   22.90    2.21
   5   9   3   18.18    2.14
  -5  -9  -3   18.78    2.47
   5  -9  -3   11.68    1.97
  -5   9  -3   20.79    2.16
  -5   9   3   11.52    1.43
   5   9  -3   18.87    1.92
   6  -9   3    8.45    1.65
   6   9   3    8.83    1.73
   6  -9  -3    7.03    1.89
  -6   9  -3    5.98    1.59
   6   9  -3   10.53    1.78
  -6  -9  -3    7.95    1.88
  -6  -9   3    6.15    1.43
  -7  -9   3   68.27    3.19
   7  -9  -3   53.78    3.58
  -7  -9  -3   79.02    4.12
   7  -9   3   65.88    3.42
   7   9   3   69.86    3.48
  -7   9  -3   59.93    3.40
   7   9  -3   76.09    3.69
   8  -9   3    0.61    1.35
   8  -9  -3    2.18    1.54
   8   9   3   -0.19    1.39
  -8  -9   3    0.21    1.12
  -8  -9  -3    1.57    1.68
  -8   9  -3   -0.88    1.39
   8   9  -3    0.74    1.20
   9  -9   3   -0.80    1.34
   9  -9  -3    2.77    1.53
  -9  -9  -3   -0.76    1.62
   9   9   3    3.39    1.65
  -9   9  -3   -1.90    1.45
   9   9  -3    0.44    1.17
 -10   9  -3    8.77    1.83
  10  -9   3   12.43    2.02
  10   9  -3   12.79    1.99
  10   9   3   11.04    1.89
 -10  -9  -3   14.62    2.35
  10  -9  -3   15.37    2.62
  11  -9   3   68.24    3.67
  11   9   3   75.26    3.89
 -11  -9  -3   75.89    4.33
 -11   9  -3   65.52    3.86
  12   9   3   25.34    2.56
  12  -9   3   30.24    2.64
 -12  -9   3   26.27    2.41
 -12  -9  -3   28.74    3.01
  12   9  -3   26.53    2.16
 -12   9  -3   27.24    2.81
  13  -9   3    6.66    1.62
  13  -9  -3    2.02    1.84
 -13  -9  -3    4.23    1.88
  13   9   3    2.37    1.49
 -13   9  -3    3.63    1.89
  13   9  -3    1.20    0.76
  14  -9   3   -0.51    1.32
  14  -9  -3    0.45    1.32
  14   9   3    1.79    1.41
 -14   9  -3    3.08    1.19
  14   9  -3    3.96    1.31
  15   9  -3   24.27    2.23
   0 -10   3    1.23    1.28
   0 -10  -3   -0.37    1.13
   0  10  -3    1.07    1.28
   0  10   3    1.31    1.33
  -1 -10   3   99.29    3.96
   1 -10   3  103.24    4.06
   1  10   3  109.93    3.83
  -1 -10  -3   92.23    3.89
   1 -10  -3   91.07    4.15
  -1  10  -3  105.92    4.23
   1  10  -3   91.51    3.89
  -1  10   3  123.31    4.86
   1  10   3  115.22    4.67
   2 -10   3    3.79    1.43
  -2 -10  -3    2.25    1.36
   2 -10  -3    1.12    1.28
  -2 -10  -3    2.25    1.56
   2  10   3    2.58    1.14
  -2  10  -3    1.40    1.38
   2  10  -3    3.34    1.28
  -2  10   3    1.77    1.22
  -2 -10   3    0.86    1.26
  -3 -10   3  135.34    4.53
   3 -10   3  122.71    4.50
   3  10   3  126.69    4.43
  -3 -10  -3  150.86    5.42
   3 -10  -3  120.01    4.96
  -3  10   3  119.36    4.44
  -3  10  -3  138.97    4.93
   3  10  -3  129.35    4.63
   4 -10   3   -0.82    1.28
   4 -10  -3   -1.52    1.48
  -4 -10  -3    1.57    1.68
   4  10   3   -1.33    1.62
  -4 -10   3   -1.41    1.35
  -4  10  -3    0.07    1.27
  -4  10   3    1.21    1.16
   4  10  -3   -0.42    1.30
  -5  10   3   18.93    1.77
  -5 -10   3   14.49    1.86
   5 -10   3   12.38    1.94
   5  10   3   17.33    2.41
  -5 -10  -3   14.68    2.20
   5 -10  -3   14.09    2.22
  -5  10  -3   14.93    2.16
   5  10  -3   10.97    1.81
   6 -10   3   -0.20    1.36
  -6 -10  -3    0.56    1.53
   6 -10  -3   -1.65    1.48
   6  10   3    0.84    1.55
  -6  10  -3   -0.10    1.36
  -6 -10   3    3.20    1.40
   6  10  -3   -1.06    1.28
  -7 -10   3  145.76    4.81
   7 -10   3  152.99    5.21
   7  10   3  158.26    5.32
  -7 -10  -3  161.07    6.02
  -7  10  -3  160.79    5.60
   8 -10   3   13.98    2.12
   8  10   3   15.24    2.11
  -8 -10  -3   14.11    2.47
  -8  10  -3   14.55    2.12
   8 -10  -3   12.09    2.30
   8  10  -3   17.62    2.23
   9 -10   3    5.97    1.77
   9 -10  -3    7.94    2.05
   9  10  -3    7.13    1.75
   9  10   3    5.31    1.63
  -9 -10  -3    3.36    1.80
  -9  10  -3    5.65    1.80
  10 -10   3   20.10    2.35
  10  10   3   14.55    2.19
 -10 -10  -3   19.44    2.65
  10 -10  -3   13.66    2.49
 -10  10  -3   19.78    2.55
  10  10  -3   24.28    2.58
  11 -10   3   47.19    3.36
  11  10   3   49.08    3.36
 -11 -10  -3   50.65    3.85
  11 -10  -3   34.81    3.62
 -11  10  -3   48.09    3.50
  11  10  -3   45.85    3.37
  12 -10   3    2.91    1.63
 -12 -10  -3   -1.42    2.01
  12  10   3    3.98    1.65
  12 -10  -3    2.49    1.73
 -12  10  -3    1.16    1.44
  12  10  -3    0.35    1.19
  13  10  -3   -0.13    0.51
  13  10   3    0.71    1.37
   0 -11   3    7.61    1.64
   0 -11  -3   10.04    1.82
   0  11  -3   12.37    1.99
   0  11   3    8.89    1.89
  -1 -11   3   17.94    2.09
   1 -11   3   18.84    2.14
  -1 -11  -3   19.64    2.18
   1 -11  -3   17.06    2.10
  -1  11  -3   21.37    2.27
   1  11  -3   15.98    2.04
  -1  11   3   23.98    2.41
   1  11   3   27.50    2.64
   2 -11   3    0.44    1.35
   2 -11  -3    0.68    1.47
  -2  11  -3   -0.99    1.55
   2  11  -3    0.41    1.21
  -2  11   3   -0.87    1.18
  -2 -11   3   -0.63    1.32
   2  11   3    0.26    1.35
  -3 -11   3   37.58    2.76
   3 -11   3   44.41    3.06
  -3 -11  -3   51.57    3.62
   3 -11  -3   30.15    2.80
  -3  11  -3   46.24    3.26
  -3  11   3   36.14    2.67
   3  11  -3   43.41    3.02
  -4 -11   3   40.31    2.85
   4 -11   3   37.47    2.90
  -4 -11  -3   38.49    3.22
  -4  11  -3   35.89    2.96
  -4  11   3   35.15    2.59
   4  11  -3   32.64    2.81
  -5 -11   3   17.80    2.07
   5 -11   3   16.66    2.20
  -5 -11  -3   12.83    2.26
  -5  11  -3   20.48    2.46
   5 -11  -3   17.41    2.63
   5  11  -3   16.24    2.19
   6 -11   3    1.51    1.44
  -6 -11  -3    7.57    2.07
   6 -11  -3    1.16    1.71
  -6 -11   3    0.99    1.34
  -6  11  -3    5.65    1.83
   6  11  -3   -1.91    1.57
   7 -11   3   23.99    2.55
   7  11   3   27.03    2.66
  -7 -11  -3   26.35    2.90
   7 -11  -3   22.84    2.81
  -7  11  -3   25.01    2.70
   7  11  -3   25.22    2.61
   8 -11   3    2.42    1.78
   8 -11  -3    0.03    1.69
  -8 -11  -3    3.29    1.95
   8  11   3    2.30    1.46
  -8  11  -3    5.83    1.99
   8  11  -3    0.75    1.44
   9 -11   3    3.53    1.61
   9 -11  -3    2.42    1.83
   9  11   3    3.58    1.45
  -9 -11  -3    2.08    1.83
  -9  11  -3    5.79    1.86
   9  11  -3    3.88    1.53
  10 -11   3    2.02    1.50
  10  11   3    7.28    1.79
  10  11  -3    8.16    1.92
 -10 -11  -3    6.99    2.26
  10 -11  -3    8.40    1.93
 -10  11  -3    6.91    2.10
  11 -11   3   26.23    2.64
  11  11   3   33.98    2.94
  11  11  -3   36.78    3.18
  12  11   3   15.52    2.05
  12  11  -3   17.05    1.93
   0 -12   3    0.22    1.31
   0 -12  -3    0.29    1.12
   0  12  -3    2.36    1.72
   0  12   3   -0.35    1.33
  -1 -12   3   36.27    2.91
   1 -12   3   27.18    2.65
  -1  12  -3   30.89    2.88
   1  12  -3   27.56    2.72
  -1  12   3   26.63    2.59
   1  12   3   36.05    3.13
  -2 -12   3   48.29    3.28
   2 -12   3   46.55    3.24
  -2  12  -3   42.29    3.30
   2  12  -3   49.66    3.42
  -2  12   3   46.07    3.18
   2  12   3   45.67    3.43
   3 -12   3    0.69    1.36
   3 -12  -3    2.40    1.57
  -3  12  -3    3.83    1.90
  -3 -12   3    2.34    1.50
  -3  12   3   -0.02    0.84
   3  12  -3    4.80    1.60
   3  12   3    0.82    1.46
   4  12   3    2.99    1.76
   4 -12   3   -0.28    1.35
   4 -12  -3    2.55    1.26
  -4 -12   3    0.87    1.39
  -4  12  -3    2.19    1.77
   4  12  -3    1.38    1.50
  -5 -12   3   68.74    3.81
  -5 -12  -3   60.22    4.07
   5 -12   3   72.92    4.03
  -5  12  -3   68.39    4.29
   5  12  -3   68.54    4.11
  -6 -12   3   14.93    1.96
   6 -12   3   12.57    2.23
   6 -12  -3   10.95    2.19
  -6  12  -3    8.04    2.17
   6  12  -3   12.02    2.12
  -6 -12  -3    8.05    2.18
   7 -12   3   10.17    2.09
  -7 -12  -3   16.26    2.67
  -7  12  -3   13.53    2.48
   7 -12  -3    8.66    1.97
   7  12  -3    8.63    1.86
   8 -12   3    4.60    1.74
   8 -12  -3    5.25    1.79
   8  12  -3    9.12    2.05
  -8 -12  -3    6.86    2.11
   9  12  -3  132.48    5.85
   0 -13   3    3.51    1.49
   0  13  -3    1.03    1.77
   0  13   3    3.16    1.44
  -1 -13   3   17.31    2.32
   1 -13   3   22.88    2.56
  -1  13  -3   15.76    2.52
   1  13  -3   23.44    2.76
  -1  13   3   19.66    2.39
   1  13   3   24.01    2.68
   1 -13  -3   13.41    1.74
   2 -13   3    0.67    1.48
   2 -13  -3   -1.39    0.73
  -2  13  -3   -0.79    1.71
   2  13  -3    1.60    1.46
  -2  13   3   -0.74    0.54
  -2 -13   3   -1.43    1.50
   2  13   3   -1.20    1.43
  -3 -13   3   51.42    3.54
   3 -13   3   34.88    3.09
   3 -13  -3   41.33    3.54
  -3  13  -3   43.44    3.64
   3  13  -3   48.95    3.69
   3  13   3   44.94    3.55
  -4 -13   3   16.71    2.20
   4 -13   3   10.93    1.96
   4 -13  -3    9.22    1.76
  -4  13  -3   13.20    2.33
   4  13  -3    8.43    2.00
   4  13   3   14.54    2.22
  -5 -13   3    6.76    1.07
   5 -13  -3    6.14    1.33
   5  13   3    9.10    2.11
   5  13  -3    4.97    1.65
   0  14   3    0.88    1.38
  -1  14   3   24.57    2.60
   0   0  -4  526.68    4.38
   0   0  -4  547.06    6.00
  -1   0   4 2291.86   14.11
   1   0   4 2311.75   15.45
   1   0  -4 2240.59   12.58
   1   0  -4 2283.38    7.95
  -1   0  -4 2287.77   10.13
  -1   0  -4 2274.74   11.91
  -2   0   4  284.76    4.84
   2   0  -4  251.03    4.35
   2   0  -4  271.51    2.21
  -2   0  -4  280.80    4.10
  -2   0  -4  270.58    3.86
  -3   0   4  715.43    7.56
  -3   0  -4  710.64    6.25
   3   0  -4  691.80    7.43
  -3   0  -4  713.43    6.63
   4   0   4  222.67    3.48
  -4   0   4  222.13    4.35
   4   0   4  218.55    4.85
   4   0  -4  218.68    4.37
  -4   0  -4  220.45    3.97
   5   0   4  361.74    4.25
  -5   0   4  347.57    5.43
   5   0  -4  331.46    5.65
   5   0   4  331.65    5.51
  -5   0  -4  350.64    5.31
   6   0   4   13.74    0.96
  -6   0   4   11.89    1.30
   6   0  -4   16.96    1.64
   6   0   4   11.81    1.32
  -6   0  -4   16.96    1.50
   7   0   4  777.44    5.88
  -7   0   4  749.70    8.44
   7   0  -4  783.00    9.83
  -7   0  -4  756.69    8.58
   8   0   4   54.93    1.60
  -8   0   4   53.75    2.50
   8   0  -4   50.83    3.05
   8   0   4   53.75    2.44
  -8   0  -4   46.39    2.43
  -9   0   4  232.30    5.11
   9   0  -4  225.82    6.74
   9   0   4  227.14    4.93
  -9   0  -4  222.22    5.18
 -10   0   4  225.00    5.28
  10   0   4  206.64    4.88
 -10   0  -4  215.79    5.38
 -11   0   4  117.12    4.08
  11   0  -4  121.00    5.16
  11   0   4  114.15    3.83
 -11   0  -4  104.67    4.02
 -12   0   4    1.63    1.17
  12   0  -4    1.57    1.57
 -12   0  -4    0.85    1.36
  12   0   4    2.37    1.32
 -13   0   4    0.25    1.23
  13   0  -4    1.11    1.70
 -13   0  -4   -0.49    1.46
  13   0   4    1.81    1.28
  14   0  -4   23.87    2.64
 -14   0   4   11.64    1.93
  14   0   4   19.21    2.03
 -14   0  -4   14.09    2.13
 -15   0   4   16.43    2.16
  15   0   4   25.61    2.39
 -15   0  -4   21.58    2.49
  15   0  -4   20.02    2.51
 -16   0   4    5.79    1.92
  16   0  -4    5.97    1.88
  16   0   4    8.04    1.77
 -16   0  -4    7.84    2.08
 -17   0   4    5.77    1.93
 -17   0  -4    1.90    1.61
  17   0   4    7.51    1.65
  18   0   4   14.61    2.05
   0  -1  -4    0.58    0.67
   0  -1   4   -0.82    0.66
   0  -1   4    0.32    0.90
   0   1   4   -0.28    1.01
   0  -1  -4    0.10    0.43
   0   1  -4    0.04    0.50
   1  -1   4  568.47    6.07
  -1  -1   4  586.66    6.80
  -1   1   4  473.81    7.06
   1   1   4  558.42    7.44
   1  -1  -4  521.75    6.10
  -1  -1  -4  530.12    5.75
   1  -1  -4  511.01    3.77
  -1  -1  -4  516.82    4.72
  -1   1  -4  531.89    4.99
   1   1  -4  535.02    4.15
   1   1  -4  526.15    6.12
  -2  -1  -4    1.82    0.64
   2  -1  -4    1.94    0.40
  -2  -1  -4    2.05    0.71
   2   1  -4    1.79    0.43
   2  -1  -4    1.23    0.77
  -2  -1   4    0.27    0.74
  -2   1   4    1.34    0.94
   2  -1   4    2.19    0.73
   2  -1   4    2.20    0.97
   2   1   4    2.84    1.28
  -2   1  -4    1.53    0.68
   2   1  -4    1.77    0.75
   3  -1   4   72.76    2.17
  -3  -1   4   82.05    2.54
  -3   1   4   83.91    2.90
   3  -1  -4   71.50    2.65
   3  -1   4   83.98    3.30
   3   1   4   79.65    3.54
  -3  -1  -4   75.84    2.08
  -3  -1  -4   71.90    2.20
   3   1  -4   77.68    2.58
  -3   1  -4   79.28    2.33
   3   1  -4   77.10    1.31
  -4   1   4    2.38    0.89
   4  -1  -4    1.59    0.92
  -4  -1  -4    3.08    0.68
   4   1  -4    2.64    0.35
  -4  -1  -4    2.56    0.84
  -4  -1   4    2.75    0.83
   4   1  -4    2.74    0.89
   4  -1   4    1.66    0.65
   4  -1   4    4.49    1.31
   4   1   4    2.66    1.08
  -4   1  -4    2.09    0.88
   5   1  -4   79.28    1.15
   5  -1   4   81.35    2.19
  -5  -1   4   74.80    2.56
  -5   1   4   84.95    2.91
   5  -1  -4   78.40    3.21
   5  -1   4   82.90    2.84
   5   1   4   75.78    2.77
   5   1  -4   77.06    2.70
  -5  -1  -4   78.13    1.95
  -5  -1  -4   76.22    2.64
  -5   1  -4   76.02    2.58
   6  -1   4    4.35    0.76
  -6  -1   4    4.96    0.99
  -6   1   4    6.25    1.12
   6  -1  -4    4.44    1.44
   6  -1   4    5.01    1.06
  -6  -1  -4    5.76    0.69
  -6  -1  -4    4.21    1.08
   6   1  -4    5.94    1.12
  -6   1  -4    7.56    1.21
   6   1  -4    5.81    0.41
   6   1   4    4.12    1.03
  -7  -1   4   32.49    1.93
   7  -1   4   30.99    1.39
  -7   1   4   29.09    1.86
   7  -1  -4   29.66    2.68
   7   1  -4   33.35    2.06
   7  -1   4   36.56    2.00
   7   1   4   36.03    2.13
  -7  -1  -4   33.99    2.07
  -7   1  -4   33.76    2.04
   7   1  -4   35.97    0.96
   8  -1  -4    0.83    1.49
   8   1  -4    0.47    1.11
  -8  -1   4   -0.60    0.94
  -8   1   4   -1.44    1.07
   8  -1   4   -0.23    0.57
  -8  -1  -4   -0.93    1.09
   8  -1   4   -0.74    0.89
   8   1   4    0.06    1.02
  -8   1  -4    1.34    1.08
  -9  -1   4  406.52    6.75
  -9   1   4  427.70    7.00
   9  -1  -4  466.30    9.07
   9  -1   4  392.73    4.44
   9   1  -4  430.75    7.81
   9  -1   4  431.50    6.53
   9   1   4  431.52    6.95
  -9  -1  -4  440.77    7.37
  -9   1  -4  434.37    7.18
  10   1  -4    2.00    1.60
 -10  -1   4   -0.16    1.02
 -10   1   4    0.32    1.07
  10  -1  -4    0.08    1.46
 -10  -1  -4   -0.76    1.22
 -10   1  -4    0.43    1.29
  10  -1   4   -0.13    0.98
  10   1   4    0.21    1.11
  11   1  -4    0.23    1.65
  11   1   4   -0.60    1.11
 -11   1   4    1.14    1.24
  11  -1  -4   -0.04    1.59
 -11  -1   4   -0.29    1.17
 -11  -1  -4    1.01    1.29
 -11   1  -4    0.90    1.30
  11  -1   4   -0.69    1.03
  12  -1  -4    3.13    1.73
 -12  -1   4   -1.15    1.29
 -12   1   4    2.07    1.37
 -12  -1  -4    1.42    1.28
 -12   1  -4    1.64    1.37
  12   1   4    0.89    1.18
  12  -1   4    2.69    1.16
  12   1  -4   -0.16    1.85
  13  -1  -4   39.24    3.11
 -13  -1   4   38.52    2.75
 -13   1   4   30.10    2.52
  13   1  -4   40.10    3.38
  13  -1   4   31.44    2.30
  13   1   4   30.94    2.46
 -13  -1  -4   36.96    2.84
 -13   1  -4   30.03    2.54
 -14   1   4   -0.02    1.43
  14  -1  -4    2.88    1.68
 -14  -1   4    1.30    1.28
 -14  -1  -4   -1.94    1.57
 -14   1  -4    1.01    1.52
  14  -1   4    2.20    1.25
  14   1   4    2.89    1.46
  15  -1  -4    3.08    1.80
  15   1  -4    1.55    1.75
 -15  -1   4    1.02    1.45
 -15   1   4   -1.07    1.54
 -15  -1  -4   -1.34    1.51
 -15   1  -4   -0.38    1.69
  15  -1   4    0.48    1.15
  15   1   4    1.19    1.41
 -16   1  -4    2.22    1.78
  16  -1  -4    2.60    1.78
 -16  -1   4    1.99    1.58
 -16   1   4    1.56    1.46
 -16  -1  -4    3.21    1.89
  16  -1   4    4.92    1.46
  16   1   4   -0.60    1.29
 -17  -1   4   54.54    3.77
 -17   1   4   59.71    3.85
  17  -1   4   74.71    3.79
  17   1   4   72.52    4.01
 -17  -1  -4   71.92    4.56
 -17   1  -4   64.67    4.08
 -18   1   4    2.43    1.42
  18  -1   4   -1.39    0.79
  18   1   4    0.80    1.19
   0  -2   4  478.63    5.90
   0  -2   4  506.13    5.93
   0  -2  -4  453.44    6.31
   0   2   4  513.01    7.48
   0  -2  -4  445.89    5.21
   0   2  -4  462.01    4.68
  -1  -2   4    6.24    1.02
   1  -2   4    7.25    0.96
  -1  -2   4    5.73    0.88
   1  -2  -4    5.66    1.11
  -1  -2  -4    6.76    0.98
   1  -2   4    6.14    0.96
  -1   2   4    5.56    1.23
   1   2   4    6.31    1.24
   1  -2  -4    4.86    0.64
  -1  -2  -4    4.84    0.79
  -1   2  -4    5.79    0.79
   1   2  -4    5.93    0.68
  -2  -2   4   37.45    1.87
   2  -2   4   42.42    1.83
  -2  -2   4   37.90    1.66
   2  -2  -4   37.72    2.33
  -2   2   4   37.60    2.10
  -2  -2  -4   37.10    1.72
   2   2  -4   41.70    1.32
   2   2   4   40.04    2.49
   2  -2  -4   44.11    1.13
  -2   2  -4   39.49    1.65
  -2  -2  -4   38.17    1.64
   3  -2   4   63.37    2.13
  -3  -2   4   61.90    2.15
   3  -2  -4   52.00    2.86
  -3   2   4   68.04    2.71
  -3  -2  -4   62.42    2.05
   3  -2   4   64.00    2.58
   3   2   4   60.32    3.09
  -3  -2  -4   62.00    2.18
  -3   2  -4   58.62    2.09
   3   2  -4   64.56    1.53
   3   2  -4   59.60    2.31
   4  -2   4  398.63    5.06
  -4  -2   4  383.07    5.31
   4  -2  -4  352.21    7.30
  -4   2   4  407.49    6.32
  -4  -2  -4  377.10    4.64
   4  -2   4  372.17    7.04
   4   2   4  394.65    6.46
  -4  -2  -4  388.40    5.50
  -4   2  -4  386.99    5.39
   4   2  -4  383.38    5.72
   4   2  -4  397.63    3.60
  -5  -2   4  223.49    4.26
   5  -2   4  215.65    3.73
   5  -2  -4  224.11    5.92
  -5   2   4  169.66    4.19
  -5  -2  -4  213.88    3.45
   5  -2   4  244.13    5.01
   5   2   4  169.60    4.16
  -5  -2  -4  222.61    4.42
   5   2  -4  199.94    4.24
  -5   2  -4  212.05    4.24
   5   2  -4  230.96    2.73
  -6  -2   4  255.22    4.79
   6  -2  -4  281.43    6.61
  -6   2   4  273.95    5.28
   6  -2   4  261.55    4.03
  -6  -2  -4  247.09    3.65
   6  -2   4  270.68    4.86
   6   2   4  277.58    5.36
  -6  -2  -4  238.72    4.85
  -6   2  -4  274.06    5.08
   6   2  -4  270.33    3.05
   6   2  -4  268.05    5.05
   7  -2  -4  157.53    4.90
  -7  -2   4  148.25    3.82
  -7   2   4  144.44    3.98
   7  -2   4  139.71    2.97
   7  -2   4  146.88    3.62
   7   2   4  156.08    4.20
   7   2  -4  139.17    3.76
  -7  -2  -4  142.06    3.98
  -7   2  -4  147.18    3.92
   7   2  -4  156.41    2.45
   8  -2  -4   83.24    3.76
  -8  -2   4   63.49    2.70
  -8   2   4   67.69    2.85
   8  -2   4   71.82    2.20
   8  -2   4   75.70    2.74
   8   2  -4   65.25    2.79
   8   2   4   72.12    2.98
  -8  -2  -4   79.86    3.23
  -8   2  -4   75.56    3.01
  -9  -2   4    8.25    1.40
   9  -2   4    5.59    0.86
   9   2  -4    6.42    1.42
   9  -2   4    6.95    1.15
   9   2   4    7.65    1.37
  -9   2   4    4.71    1.18
  -9  -2  -4    5.15    1.36
  -9   2  -4    6.06    1.38
  10  -2  -4   15.53    2.11
 -10  -2   4   18.07    1.81
 -10   2   4   20.56    1.92
  10  -2   4   16.62    1.17
  10   2  -4   16.99    1.87
  10  -2   4   18.17    1.59
  10   2   4   16.28    1.81
 -10  -2  -4   18.35    2.06
 -10   2  -4   14.79    1.84
  11  -2  -4  116.92    4.61
 -11  -2   4  128.93    4.27
 -11   2   4  113.06    4.06
  11   2  -4  118.24    4.73
  11  -2   4  118.18    3.70
  11   2   4  120.99    4.24
 -11  -2  -4  128.45    4.65
 -11   2  -4  107.47    4.13
  12   2  -4    4.00    1.89
  12  -2  -4    4.37    1.74
 -12  -2   4    1.83    1.25
 -12  -2  -4    0.87    1.39
 -12   2  -4    1.52    1.33
  12  -2   4    2.19    1.09
  12   2   4    4.68    1.44
 -13  -2   4   13.18    1.84
 -13   2   4   23.08    2.25
  13   2  -4   16.59    2.87
  13  -2   4   16.88    1.83
  13   2   4   16.92    1.98
 -13  -2  -4   16.44    2.27
 -13   2  -4   10.83    1.87
  13  -2  -4   16.51    2.43
 -14  -2   4   46.39    3.09
 -14   2   4   47.87    3.07
  14   2  -4   61.01    4.33
  14  -2   4   40.11    2.53
  14   2   4   49.03    3.17
 -14  -2  -4   39.60    3.28
 -14   2  -4   40.28    2.94
  14  -2  -4   55.30    3.85
 -15  -2   4  124.69    5.01
 -15   2   4  129.82    5.06
  15   2  -4  141.44    5.96
  15  -2   4  115.47    4.20
  15   2   4  121.24    4.86
 -15  -2  -4  125.13    5.57
 -15   2  -4  106.27    4.72
  15  -2  -4  110.48    5.09
 -16   2   4    9.29    2.00
  16  -2  -4    6.22    1.90
  16  -2   4   11.60    1.58
 -16   2  -4    5.82    2.04
 -16  -2   4    7.10    1.88
 -16  -2  -4    3.82    2.00
  16   2   4    2.60    1.45
 -17  -2   4   -2.38    1.61
 -17   2   4    2.62    1.69
 -17  -2  -4   -0.34    1.72
 -17   2  -4   -0.74    1.71
  17   2   4    1.30    1.37
   0  -3   4    0.51    0.61
   0   3   4   -0.29    1.13
   0  -3  -4   -0.37    0.59
   0  -3   4    0.24    0.81
   0  -3  -4   -0.18    0.87
   0   3  -4    0.01    0.61
  -1  -3   4  384.70    5.65
   1  -3  -4  378.89    6.30
  -1  -3  -4  377.87    5.80
   1  -3   4  375.91    5.45
  -1  -3   4  360.32    4.54
   1  -3   4  401.95    4.97
  -1   3   4  396.41    6.89
   1   3   4  378.62    6.54
   1  -3  -4  384.10    4.21
  -1   3  -4  366.95    4.81
   1   3  -4  385.85    4.59
  -1  -3  -4  337.34    5.15
  -2  -3   4    1.71    0.63
  -2   3   4    1.69    1.00
   2  -3   4    1.12    0.74
  -2  -3   4    1.21    0.79
   2  -3  -4    1.53    0.47
   2  -3  -4    1.98    1.10
   2   3   4    2.49    1.33
  -2  -3  -4    1.41    0.85
  -2  -3  -4    2.77    1.07
   2  -3   4    1.97    0.82
  -2   3  -4    2.17    0.80
   2   3  -4    1.32    0.59
  -3  -3   4   55.29    2.31
  -3  -3  -4   55.10    2.07
   3  -3  -4   56.00    2.70
  -3  -3   4   44.40    1.82
   3  -3   4   47.43    2.00
  -3   3   4   43.77    2.39
   3  -3   4   39.81    1.98
   3   3   4   51.71    3.00
   3   3  -4   54.01    1.67
  -3  -3  -4   48.25    2.28
  -3   3  -4   43.13    1.93
  -3   3   4   48.56    1.22
  -4  -3  -4    3.48    0.78
   4  -3   4    4.43    0.94
  -4   3   4    3.82    1.16
  -4  -3   4    2.45    0.77
   4   3  -4    3.99    0.65
   4  -3  -4    1.19    1.05
  -4  -3   4    1.77    0.90
   4  -3   4    3.40    1.03
   4   3   4    3.40    1.18
  -4  -3  -4    1.97    0.94
  -4   3  -4    2.88    0.93
  -5  -3  -4   58.97    1.82
   5  -3  -4   59.29    2.90
   5   3  -4   53.41    2.31
  -5  -3   4   54.94    2.21
  -5   3   4   61.88    2.69
   5  -3   4   56.23    2.10
   5  -3   4   54.76    2.94
   5   3   4   57.79    2.61
  -5  -3  -4   54.68    2.55
   5   3  -4   56.05    1.69
   6  -3  -4    6.12    1.47
  -6  -3   4    6.30    1.05
  -6   3   4    5.32    1.29
   6  -3   4    5.79    0.95
   6  -3   4    6.38    1.20
   6   3   4    7.04    1.31
  -6   3  -4    5.19    1.16
   6   3  -4    6.74    1.13
   6   3  -4    5.40    0.76
  -6  -3  -4    2.56    1.03
   7  -3  -4   22.60    2.14
   7   3  -4   22.53    1.72
  -7  -3   4   24.55    1.76
  -7   3   4   28.38    2.04
   7  -3   4   23.56    1.51
   7  -3   4   24.98    1.66
   7   3   4   21.74    1.90
  -7  -3  -4   18.76    1.83
  -7   3  -4   22.83    1.81
   7   3  -4   26.46    1.31
  -8  -3   4    0.99    1.06
   8  -3  -4    2.08    1.36
   8   3  -4    2.43    1.09
  -8   3   4    0.70    1.04
  -8  -3  -4    1.10    1.17
   8  -3   4    0.05    0.94
   8   3   4    0.15    1.02
  -8   3  -4    0.98    1.08
   8  -3   4    1.37    0.84
   8   3  -4   -0.20    0.61
  -9  -3   4  347.47    6.35
  -9   3   4  355.48    6.58
   9  -3   4  341.82    5.10
   9  -3   4  344.73    5.65
   9   3   4  351.05    6.74
   9   3  -4  349.05    6.40
  -9  -3  -4  347.98    7.19
  -9   3  -4  345.84    6.54
   9  -3  -4  347.98    7.28
  10  -3   4    1.30    0.90
  10  -3   4   -0.04    0.86
  10  -3  -4    2.39    1.50
 -10  -3   4    1.67    1.14
 -10   3   4    0.72    1.23
 -10  -3  -4    0.97    1.41
  10   3   4   -1.37    1.28
  10   3  -4    1.07    1.13
 -10   3  -4    2.12    1.23
 -11  -3   4    0.18    1.11
 -11  -3  -4   -0.64    1.36
  11   3  -4   -0.32    1.29
 -11   3   4   -0.70    1.14
  11  -3  -4   -1.75    1.67
  11  -3   4   -0.49    0.94
  11   3   4    0.30    1.21
 -11   3  -4    3.16    1.42
  12  -3  -4    2.93    1.76
  12   3  -4    4.27    1.70
 -12   3   4    1.80    1.24
 -12  -3  -4    1.29    1.60
  12  -3   4    0.50    0.93
 -12   3  -4    3.40    1.48
  12   3   4   -0.27    1.34
 -13  -3   4   31.16    2.56
 -13   3   4   30.38    2.53
  13   3  -4   35.67    3.38
  13   3   4   31.71    2.66
 -13  -3  -4   31.73    2.97
 -13   3  -4   33.65    2.73
  13  -3  -4   32.16    2.96
  14   3  -4    0.52    1.92
  14  -3  -4    2.24    1.86
 -14  -3   4    0.31    1.35
 -14   3   4   -1.00    1.43
 -14  -3  -4   -0.57    1.52
 -14   3  -4   -0.08    1.36
  14   3   4    0.63    1.43
  15  -3  -4    2.10    1.85
 -15  -3   4    3.37    1.71
 -15   3   4    0.02    1.43
 -15  -3  -4   -1.85    1.77
 -15   3  -4    1.02    1.42
  15   3   4    1.03    1.46
  16  -3  -4   -1.04    1.88
 -16  -3   4    3.25    1.69
 -16   3   4    1.39    1.63
 -16  -3  -4    4.82    2.23
 -16   3  -4    5.15    1.92
  16   3   4    3.25    1.74
 -17  -3   4   65.30    4.07
 -17   3   4   66.16    4.03
  17   3   4   66.49    4.09
 -17  -3  -4   59.71    4.57
 -17   3  -4   63.64    4.08
   0  -4   4  318.29    5.31
   0  -4   4  341.05    4.15
   0  -4  -4  355.92    4.78
   0   4  -4  343.99    4.93
   0  -4  -4  349.63    5.59
   1  -4  -4 1538.30   12.07
   1  -4   4 1502.49   11.47
  -1  -4   4 1488.56    8.84
   1  -4   4 1485.40    8.48
  -1   4   4 1674.51   14.26
   1   4   4 1514.89   13.09
   1  -4  -4 1644.77   10.15
  -1  -4  -4 1485.28   10.43
   1   4  -4 1507.87    9.82
  -1   4  -4 1480.53   10.36
  -1  -4  -4 1520.80   11.08
   2  -4  -4  175.55    4.32
  -2  -4   4  167.90    3.97
  -2  -4   4  163.56    3.14
   2  -4   4  161.44    3.80
   2  -4   4  163.77    2.97
  -2   4   4  162.19    4.58
   2  -4  -4  150.45    2.88
  -2  -4  -4  157.01    3.76
  -2   4  -4  167.16    3.68
   2   4  -4  172.05    3.29
  -2  -4  -4  177.34    3.74
  -3  -4   4  496.96    6.76
  -3  -4   4  504.29    5.70
   3  -4   4  497.69    6.46
   3  -4   4  544.78    5.67
   3   4   4  482.05    8.60
  -3  -4  -4  471.26    7.12
  -3   4  -4  499.00    6.45
   3   4  -4  497.76    5.39
  -3  -4  -4  585.29    6.58
   3  -4  -4  483.28    7.25
  -4  -4   4  143.82    3.71
  -4  -4   4  145.86    3.32
   4  -4   4  131.60    3.42
  -4   4   4  139.96    4.19
   4  -4   4  136.64    3.30
   4   4   4  140.09    4.25
  -4  -4  -4  133.99    4.44
  -4   4  -4  132.33    3.51
   4   4  -4  136.67    2.83
  -4  -4  -4  145.63    3.05
   4  -4  -4  148.01    4.23
  -5  -4   4  226.08    4.67
  -5  -4   4  250.09    4.49
  -5   4   4  248.57    5.32
   5  -4   4  212.13    4.50
   5   4   4  242.89    5.31
  -5  -4  -4  241.37    6.30
  -5   4  -4  246.81    4.84
  -5  -4  -4  219.62    3.53
   5  -4  -4  249.91    5.61
  -6  -4   4    6.68    1.09
  -6   4   4   12.92    1.60
   6  -4   4    9.76    1.24
   6  -4   4   10.91    1.67
   6   4   4   11.79    1.65
  -6   4  -4   10.45    1.42
   6   4  -4   12.00    1.37
   6   4  -4   10.22    1.04
  -6  -4  -4    5.45    1.43
   6  -4  -4   12.72    1.78
  -7  -4   4  561.63    7.44
  -7   4   4  601.90    8.40
   7  -4   4  548.62    6.91
   7  -4   4  617.61    7.66
   7   4   4  565.83    8.36
  -7   4  -4  548.37    7.79
   7   4  -4  568.76    7.64
   7   4  -4  537.79    5.84
  -7  -4  -4  518.83    9.06
   7  -4  -4  589.67    9.33
  -8  -4   4   42.80    2.35
  -8   4   4   38.94    2.44
   8  -4   4   38.75    2.06
   8  -4   4   47.94    2.19
   8   4   4   34.67    2.42
  -8  -4  -4   38.68    2.91
   8   4  -4   37.39    2.21
  -8   4  -4   41.86    2.48
   8   4  -4   36.49    1.68
   8  -4  -4   43.72    3.02
  -9  -4   4  167.92    4.56
  -9   4   4  160.89    4.60
   9  -4   4  151.70    3.79
   9   4   4  147.81    4.64
  -9  -4  -4  137.94    5.18
   9   4  -4  168.90    4.48
  -9   4  -4  164.75    4.70
   9  -4  -4  183.68    5.87
 -10  -4   4  163.89    4.75
 -10   4   4  174.88    4.89
  10  -4   4  154.26    3.88
 -10  -4  -4  154.39    5.68
  10   4   4  164.85    4.98
  10   4  -4  155.24    4.51
 -10   4  -4  161.91    4.88
  10  -4  -4  164.60    5.57
 -11  -4   4   99.88    3.89
 -11   4   4   90.99    3.71
  11  -4   4   91.84    3.11
  11   4  -4   88.89    3.70
  11   4   4   87.22    3.92
 -11  -4  -4   73.87    4.24
 -11   4  -4   82.75    3.72
  11  -4  -4   88.42    4.28
  12  -4  -4    1.76    1.79
 -12  -4  -4    3.42    1.80
 -12  -4   4    2.59    1.35
  12   4  -4    1.82    1.42
 -12   4   4    0.41    1.25
  12   4   4    0.40    1.41
 -12   4  -4   -0.98    1.33
  13  -4  -4    1.54    1.87
  13   4  -4    1.61    1.48
 -13  -4   4    1.29    1.32
 -13   4   4    2.70    1.51
 -13  -4  -4    0.73    1.75
  13   4   4   -0.65    1.39
 -13   4  -4    0.56    1.34
 -14  -4   4   15.92    2.19
 -14   4   4   12.12    1.99
  14   4   4   10.48    1.97
 -14  -4  -4   10.88    2.55
 -14   4  -4    8.75    1.93
  14  -4  -4   16.60    2.58
 -15  -4   4   18.65    2.28
 -15   4   4   22.05    2.51
  15   4   4   18.13    2.40
 -15   4  -4   15.18    2.31
  15  -4  -4   22.00    2.81
  16  -4  -4    1.56    1.79
 -16  -4  -4    9.03    2.76
 -16  -4   4    3.93    1.91
 -16   4   4    6.93    1.78
 -16   4  -4    3.80    1.76
  16   4   4    6.09    1.87
  17  -4  -4    6.60    1.83
 -17  -4   4    3.07    1.47
 -17   4   4    2.69    1.62
 -17  -4  -4    5.04    1.86
 -17   4  -4    2.63    1.63
  18  -4  -4    5.68    1.85
   0  -5  -4    1.20    1.04
   0  -5   4    0.54    0.52
   0   5   4    0.93    1.19
   0  -5  -4    0.02    0.85
   0  -5   4    0.69    0.88
   0   5  -4   -0.50    0.84
  -1  -5   4  338.62    4.16
  -1  -5   4  341.97    5.83
   1  -5   4  350.37    3.86
   1  -5   4  343.58    5.81
  -1   5   4  397.98    7.10
   1   5   4  338.24    6.31
   1  -5  -4  349.98    5.11
  -1  -5  -4  338.38    5.28
  -1   5  -4  366.72    5.68
   1   5  -4  353.05    5.28
  -1  -5  -4  390.68    6.27
   1  -5  -4  352.04    6.20
  -2  -5  -4    0.74    0.94
   2  -5  -4    1.86    1.18
  -2  -5   4    0.91    0.69
   2  -5   4    0.88    0.50
  -2   5   4   -0.26    1.23
   2   5   4    3.50    1.40
  -2  -5  -4    1.56    0.99
  -2  -5   4    1.97    1.02
  -2   5  -4    2.11    0.96
   2  -5   4    0.28    0.87
  -3  -5   4   76.47    2.91
  -3  -5   4   66.92    2.13
   3  -5   4   69.56    2.72
  -3   5   4   45.70    2.58
   3   5   4   62.09    3.49
  -3  -5  -4   71.02    2.82
  -3   5  -4   71.31    2.72
   3   5  -4   71.94    2.37
  -3   5   4   47.86    1.88
  -3  -5  -4   66.46    2.40
   3  -5  -4   65.25    3.09
   4  -5   4    0.72    0.90
  -4  -5  -4    0.89    0.71
   4  -5  -4    0.31    1.23
  -4  -5   4    1.11    0.73
  -4   5   4    0.31    1.06
  -4  -5   4    2.53    1.04
  -4  -5  -4    1.10    1.15
   4   5   4    0.81    1.21
  -4   5  -4    1.31    1.02
   4   5  -4    1.94    0.73
  -5  -5   4   76.60    2.91
  -5  -5   4   73.41    2.55
  -5   5   4   74.87    3.15
   5  -5   4   72.89    2.80
   5   5   4   76.14    3.24
  -5  -5  -4   67.94    3.17
  -5   5  -4   73.99    2.96
   5   5  -4   73.40    2.39
   5  -5  -4   75.05    3.41
   6  -5   4    1.50    1.07
   6   5  -4    2.03    0.92
   6  -5  -4   -0.11    1.49
  -6  -5   4    2.27    0.83
  -6   5   4    1.68    1.14
  -6  -5   4    1.05    0.94
  -6  -5  -4    3.38    1.35
   6   5   4    3.78    1.42
  -6   5  -4    2.32    1.18
  -7  -5   4   32.69    1.99
  -7   5   4   31.34    2.29
   7  -5   4   28.99    1.96
   7   5   4   33.98    2.45
  -7  -5  -4   23.17    2.38
  -7   5  -4   27.91    2.11
   7   5  -4   27.57    1.66
   7  -5  -4   29.35    2.51
   8  -5   4    0.57    1.01
   8  -5  -4    1.12    1.53
   8   5  -4    0.16    0.99
  -8  -5   4    0.90    1.06
  -8   5   4   -0.93    1.24
  -8  -5  -4    1.55    1.74
   8   5   4   -0.66    1.36
  -8   5  -4    0.35    1.22
   8   5  -4    0.22    0.84
  -9  -5   4  298.82    6.05
  -9   5   4  319.74    6.56
   9  -5   4  308.05    5.76
   9   5   4  294.09    6.62
  -9  -5  -4  256.84    7.95
   9   5  -4  284.49    5.83
  -9   5  -4  276.31    6.18
   9   5  -4  288.24    4.97
   9  -5  -4  334.54    8.10
  10  -5   4    0.38    0.96
  10  -5  -4   -0.27    1.66
 -10  -5   4    0.45    1.12
 -10   5   4    0.26    1.14
  10   5  -4    0.82    1.04
 -10  -5  -4   -0.06    1.84
  10   5   4   -0.32    1.40
 -10   5  -4    1.57    1.27
  11  -5  -4    0.67    1.70
  11   5  -4    0.02    1.26
 -11  -5   4   -0.73    1.20
 -11   5   4    0.38    1.22
 -11  -5  -4    1.95    1.85
  11   5   4   -1.79    1.51
 -11   5  -4   -0.10    1.19
  12  -5   4    1.97    1.08
  12  -5  -4    2.51    1.87
 -12  -5   4    0.68    1.34
 -12   5   4    0.86    1.53
 -12  -5  -4   -1.54    1.94
  12   5   4    0.15    1.39
 -12   5  -4    2.38    1.53
  12   5  -4    0.27    1.18
 -13  -5   4   32.83    2.63
 -13   5   4   26.99    2.54
  13   5  -4   30.84    2.67
  13   5   4   33.04    2.78
 -13   5  -4   27.03    2.55
  13  -5  -4   33.83    3.21
  14  -5  -4    1.69    1.81
 -14   5   4    0.56    1.31
 -14  -5   4    1.92    1.58
 -14  -5  -4   -2.46    2.26
  14   5   4   -1.21    1.60
 -14   5  -4    0.32    1.44
 -15  -5   4    0.11    1.51
 -15   5   4   -1.52    1.48
 -15  -5  -4    5.26    2.71
  15   5   4    2.19    1.84
 -15   5  -4    0.39    1.61
  16  -5  -4    0.50    1.48
 -16  -5  -4   -0.17    2.12
 -16   5  -4    4.31    2.02
  16   5   4   -1.25    1.58
 -17   5   4   53.63    3.59
  17  -5  -4   33.98    3.12
   0  -6   4  225.89    5.04
   0   6   4  244.77    5.57
   0  -6  -4  229.06    4.77
  -1  -6  -4    3.63    1.09
   1  -6  -4    3.87    1.29
   1  -6   4    5.37    1.23
  -1  -6  -4    5.02    1.21
  -1   6  -4    6.16    1.19
  -1   6   4    3.79    1.40
   1  -6  -4    4.91    1.03
   1   6   4    4.64    1.29
  -1  -6   4    2.01    1.03
   1   6  -4    4.08    0.96
  -2  -6   4   16.26    1.10
  -2  -6   4   16.42    1.65
   2  -6   4   18.13    1.68
  -2   6   4   15.08    1.90
   2   6   4   14.67    1.90
  -2  -6  -4   12.29    1.47
  -2   6  -4   17.76    1.59
   2   6  -4   13.64    1.30
  -2  -6  -4   14.17    1.45
  -2   6   4   14.43    1.35
  -3  -6   4   19.43    1.24
  -3  -6   4   24.76    1.91
   3  -6   4   25.24    1.96
  -3   6   4   19.97    1.98
   3   6   4   23.45    2.52
  -3  -6  -4   22.15    1.80
  -3   6  -4   22.29    1.81
  -3  -6  -4   15.20    1.36
   3   6  -4   24.31    1.59
  -3   6   4   18.35    1.39
   3  -6  -4   25.91    2.27
  -4  -6   4  195.54    3.76
  -4  -6   4  198.30    4.76
   4  -6   4  186.61    4.62
   4   6   4  186.55    5.50
  -4  -6  -4  177.47    4.63
  -4   6  -4  185.87    4.61
   4   6  -4  174.68    3.87
   4  -6  -4  206.94    5.74
  -5  -6   4  101.22    2.94
  -5  -6   4   93.00    3.34
  -5   6   4  103.41    3.78
   5  -6   4   97.24    3.47
   5   6   4   98.22    3.82
  -5  -6  -4   89.17    3.54
  -5   6  -4  102.55    3.55
   5   6  -4  100.38    2.98
   5  -6  -4  113.74    4.51
  -6  -6   4  130.53    3.93
  -6  -6   4  136.25    3.59
  -6   6   4  138.85    4.46
   6  -6   4  132.61    4.01
   6   6   4  131.17    4.36
  -6  -6  -4  124.39    4.31
  -6   6  -4  119.62    3.96
   6   6  -4  129.47    3.44
   6  -6  -4  139.31    5.04
  -7  -6   4   78.42    3.13
  -7  -6   4   79.39    2.92
  -7   6   4   87.96    3.64
   7  -6   4   82.07    3.25
   7   6   4   80.60    3.61
  -7  -6  -4   76.26    3.67
  -7   6  -4   79.84    3.38
   7   6  -4   80.60    2.86
   7  -6  -4   82.10    4.10
  -8  -6   4   42.02    2.32
  -8   6   4   47.95    2.84
   8  -6   4   41.39    2.46
   8   6   4   40.92    2.77
  -8  -6  -4   32.55    2.72
  -8   6  -4   39.81    2.59
   8   6  -4   33.26    1.93
   8  -6  -4   41.85    3.15
   9  -6   4    2.46    1.26
  -9   6   4    5.70    1.47
   9  -6  -4    0.73    1.56
   9   6  -4    3.11    1.32
  -9  -6   4    3.28    1.25
  -9  -6  -4    1.41    1.49
   9   6   4    4.37    1.58
  -9   6  -4    3.87    1.41
   9   6  -4    2.37    0.86
 -10   6   4   13.59    1.95
  10  -6  -4    5.26    1.85
  10  -6   4   12.07    1.67
  10   6   4    8.00    1.79
 -10  -6  -4   10.12    2.08
  10   6  -4    9.51    1.49
 -10   6  -4    9.47    1.76
  10   6  -4    8.51    1.29
 -11  -6   4   82.78    3.64
 -11   6   4   81.33    3.69
 -11   6  -4   73.30    3.63
  11  -6   4   65.54    3.17
  11   6   4   72.42    3.72
 -11  -6  -4   74.15    4.51
  11   6  -4   68.51    3.27
  11  -6  -4   64.49    4.03
  12  -6  -4    1.92    1.74
  12  -6   4    0.90    1.20
  12   6  -4   -0.55    1.19
 -12  -6   4   -0.18    1.24
 -12   6   4    1.09    1.37
 -12  -6  -4    4.92    1.95
  12   6   4    2.26    1.53
 -12   6  -4    1.32    1.49
 -13  -6   4    9.02    1.68
 -13   6   4   10.35    1.90
  13   6   4    9.02    1.98
 -13   6  -4   14.62    2.15
  13  -6  -4    6.80    2.32
 -13  -6  -4    8.61    2.15
 -14  -6   4   25.96    2.51
 -14   6   4   22.72    2.34
  14   6   4   21.11    2.59
 -14  -6  -4   26.70    3.41
 -14   6  -4   24.82    2.72
  14  -6  -4   23.75    2.92
 -15   6   4   89.12    4.45
  15   6   4   77.94    4.39
 -15  -6  -4   80.94    5.38
 -15   6  -4   83.91    4.45
  15   6  -4   81.71    4.34
 -16   6   4    4.47    1.36
  16  -6  -4    0.71    1.53
  16   6  -4   -0.07    1.47
   0   7   4    1.28    1.26
   0  -7  -4   -0.48    1.02
   0   7  -4   -0.07    0.94
   0  -7   4    1.24    1.07
   0  -7  -4   -0.78    1.13
  -1  -7   4  154.47    4.45
   1  -7   4  139.61    4.25
  -1   7   4  176.00    4.94
   1   7   4  137.38    4.11
  -1  -7  -4  139.78    4.13
  -1   7  -4  149.23    4.10
  -1  -7  -4  112.81    3.79
   1   7  -4  139.43    3.85
   1  -7  -4  133.20    4.39
   2  -7  -4    4.78    1.48
  -2   7   4    1.66    1.41
  -2  -7  -4    0.08    1.17
   2   7   4    1.78    1.35
  -2  -7  -4    0.02    0.88
  -2  -7   4    2.10    1.17
  -2   7  -4    2.42    1.14
   2   7  -4    1.16    0.80
  -2   7   4    1.45    1.01
   2  -7   4    0.57    1.15
  -3  -7   4   16.88    1.75
  -3   7   4   18.00    1.97
   3  -7   4   17.85    1.83
   3   7   4   22.40    2.50
  -3  -7  -4   20.56    1.96
  -3  -7  -4   14.31    1.44
  -3   7  -4   18.26    1.81
   3   7  -4   16.97    1.48
   3  -7  -4   17.68    2.05
  -3   7   4   19.56    1.60
   4  -7   4    1.16    1.14
   4  -7  -4    5.23    1.69
  -4  -7   4    2.83    1.26
   4   7  -4    3.35    1.02
  -4   7   4    2.03    1.16
  -4  -7  -4    4.05    1.25
  -4   7  -4    3.57    1.29
  -5  -7   4   25.49    2.06
  -5   7   4   21.35    2.00
   5  -7   4   23.11    2.04
   5   7   4   24.07    2.39
  -5  -7  -4   30.06    2.32
  -5   7  -4   24.39    2.10
   5   7  -4   23.52    1.73
  -6  -7   4    7.26    0.91
   6  -7   4    3.58    1.35
   6  -7  -4    0.69    1.51
  -6   7   4    3.60    1.35
  -6  -7   4    2.72    1.22
  -6  -7  -4    1.33    1.28
   6   7   4    1.22    1.52
  -6   7  -4    2.90    1.24
   6   7  -4    2.89    0.97
  -7  -7   4   10.95    1.33
  -7  -7   4   10.99    1.58
  -7   7   4   10.51    1.74
   7  -7   4    8.91    1.61
   7   7   4   14.65    1.97
  -7  -7  -4   12.14    1.85
  -7   7  -4    8.60    1.68
   7  -7  -4    9.86    2.07
   7   7  -4   15.78    1.59
   8  -7  -4   -1.26    1.69
   8  -7   4    0.98    1.24
  -8  -7   4    0.60    1.01
  -8   7   4   -0.26    1.35
  -8  -7   4    0.43    1.03
  -8  -7  -4    0.02    1.34
   8   7   4   -0.88    1.57
  -8   7  -4    0.32    1.24
   8   7  -4    1.45    0.95
  -9  -7   4  183.98    4.82
  -9   7   4  184.47    5.39
   9  -7   4  183.32    5.12
   9   7   4  168.55    5.45
  -9  -7  -4  167.91    5.67
  -9   7  -4  178.92    5.44
   9   7  -4  168.87    4.81
   9  -7  -4  176.13    6.19
   9   7  -4  166.63    4.41
  10  -7  -4    0.24    1.79
  10  -7   4    1.05    1.32
 -10  -7   4   -0.44    1.05
 -10   7   4    1.49    1.36
  10   7  -4    0.59    1.10
 -10  -7  -4    1.16    1.54
  10   7   4    1.91    1.70
 -10   7  -4    0.56    1.35
  10   7  -4   -0.65    0.83
  11  -7  -4    1.39    1.90
  11  -7   4    0.40    1.16
  11   7  -4   -0.05    0.98
 -11  -7   4    0.33    1.11
 -11   7   4   -1.70    1.26
 -11  -7  -4   -0.26    1.66
  11   7   4   -0.42    1.64
 -11   7  -4   -0.75    1.40
  12  -7   4    2.33    1.38
 -12   7   4    0.50    1.24
 -12  -7  -4   -0.33    1.53
  12   7   4    5.31    1.85
 -12   7  -4   -0.31    1.34
  12  -7  -4    0.87    1.72
 -13   7   4   24.86    2.38
  13  -7   4   23.14    2.21
  13   7   4   24.23    2.65
 -13  -7  -4   29.73    3.20
 -13   7  -4   26.30    2.60
  13   7  -4   32.33    2.73
  13  -7  -4   17.98    2.79
 -14  -7  -4   -0.73    1.82
  14   7   4    1.16    1.66
 -14   7  -4    0.19    1.43
  14   7  -4    0.67    1.55
 -15  -7  -4   -0.56    1.56
  15   7   4    0.02    1.59
  15  -7  -4    3.27    1.99
  15   7  -4    1.21    1.49
   0  -8   4  121.06    4.19
   0  -8  -4  128.97    4.19
   0   8  -4  115.26    3.85
  -1  -8   4  557.14    8.64
   1  -8   4  577.68    8.90
  -1   8   4  595.60    8.70
   1   8   4  579.85    8.46
  -1   8  -4  566.35    8.34
   1   8  -4  543.77    7.90
  -1   8   4  622.78    8.70
  -1  -8  -4  611.58    8.96
  -2  -8   4   60.20    3.06
   2  -8   4   57.39    3.09
  -2   8   4   58.97    3.04
   2   8   4   56.98    3.05
  -2  -8  -4   63.95    3.16
   2  -8  -4   56.51    3.27
  -2   8  -4   58.58    2.90
   2   8  -4   56.78    2.68
  -2   8   4   61.72    2.93
  -3  -8   4  226.31    5.58
  -3   8   4  228.47    5.73
   3  -8   4  240.70    5.81
   3   8   4  220.88    6.12
  -3  -8  -4  245.90    6.04
  -3   8  -4  228.24    5.58
   3  -8  -4  221.71    6.26
   3   8  -4  226.43    5.06
  -4  -8   4   47.84    2.78
  -4   8   4   38.66    2.59
   4  -8   4   49.66    2.89
   4   8   4   60.40    3.94
  -4  -8  -4   55.24    3.10
  -4   8  -4   57.39    3.03
   4  -8  -4   59.47    3.57
   4   8  -4   48.11    2.50
  -5  -8   4   91.77    3.70
  -5   8   4   74.30    3.41
   5  -8   4  101.56    3.96
   5   8   4   90.96    4.37
  -5  -8  -4   98.17    3.97
  -5   8  -4   88.59    3.74
   5  -8  -4   83.54    4.19
   5   8  -4   87.03    3.28
   6  -8   4    3.34    1.41
  -6  -8  -4    7.77    1.78
  -6   8   4    4.04    1.44
   6   8  -4    5.99    1.25
  -6  -8   4    3.62    1.33
   6   8   4    2.94    1.59
  -6   8  -4    3.89    1.49
   6  -8  -4    2.45    1.61
  -7  -8   4  257.25    5.95
   7  -8   4  282.99    6.50
   7   8   4  266.33    6.78
  -7  -8  -4  262.38    6.60
  -7   8  -4  248.47    6.29
   7  -8  -4  271.74    7.60
   7   8  -4  268.71    5.81
  -8  -8   4   17.56    1.94
  -8   8   4   17.32    2.02
   8  -8   4   12.25    1.85
   8   8   4   17.26    2.25
  -8  -8  -4   13.81    2.12
  -8   8  -4   10.91    1.84
   8  -8  -4   15.34    2.40
   8   8  -4   17.42    1.83
  -9  -8   4   58.84    3.07
  -9   8   4   66.00    3.48
   9  -8   4   61.57    3.31
   9   8   4   57.91    3.51
  -9  -8  -4   52.22    3.43
   9   8  -4   59.32    2.88
  -9   8  -4   51.88    3.17
   9  -8  -4   59.36    4.05
   9   8  -4   59.83    3.00
 -10   8   4   68.54    3.50
  10  -8   4   56.88    3.24
  10   8   4   76.35    4.00
 -10  -8  -4   63.43    3.84
  10   8  -4   75.94    3.40
 -10   8  -4   61.63    3.61
  10   8  -4   69.97    3.46
  10   8  -4   62.65    3.09
  10  -8  -4   67.08    4.34
  11  -8  -4   50.54    4.01
  11  -8   4   55.24    3.24
  11   8   4   59.87    3.69
 -11  -8  -4   53.16    3.64
  11   8  -4   57.88    3.16
  11   8  -4   53.03    3.08
 -11   8  -4   53.95    3.47
  12  -8   4    0.94    1.51
 -12  -8  -4   -2.46    1.81
  12   8   4    1.18    1.67
  12  -8  -4    0.73    1.89
 -12   8  -4   -1.12    1.62
  12   8  -4    0.36    1.39
 -13  -8  -4    0.79    1.70
  13  -8  -4   -0.37    1.94
  13   8   4    1.60    1.61
 -13   8  -4    2.19    1.53
  13   8  -4   -1.99    1.53
 -14  -8  -4    7.88    2.07
  14  -8  -4    0.90    1.75
  14   8   4    6.49    1.89
 -14   8  -4    4.05    1.70
  14   8  -4    6.36    1.49
  15   8  -4   18.84    2.24
   0  -9  -4    1.56    1.18
   0   9   4    0.07    1.31
   0   9  -4    0.57    1.14
   0  -9   4    0.28    1.30
   0   9   4   -0.60    1.25
  -1  -9   4  138.31    4.66
   1  -9   4  149.87    4.88
  -1   9   4  167.77    5.01
   1   9   4  143.71    4.54
  -1  -9  -4  155.08    4.87
  -1  -9  -4   87.02    3.68
   1  -9  -4  105.62    4.24
  -1   9  -4  139.97    4.55
   1   9  -4  141.05    4.40
  -1   9   4  166.16    5.01
   2  -9   4    1.14    1.16
  -2   9   4    3.16    1.35
  -2  -9  -4   -1.40    1.46
   2  -9  -4   -0.87    1.26
   2   9   4    2.63    1.30
  -2  -9   4   -0.19    1.25
  -2   9  -4   -0.17    1.16
   2   9  -4    0.41    0.97
  -2   9   4   -0.06    0.95
  -3  -9   4   40.53    2.71
  -3   9   4   36.67    2.54
   3  -9   4   32.25    2.53
   3   9   4   32.54    2.57
  -3  -9  -4   33.94    2.64
   3  -9  -4   34.33    2.91
  -3   9  -4   37.95    2.70
   3   9  -4   35.41    2.32
   4  -9   4   -0.47    1.29
  -4  -9   4   -1.65    1.31
  -4   9   4    0.11    1.21
  -4  -9  -4    0.85    1.50
   4   9   4    0.22    1.52
   4  -9  -4    0.77    1.40
  -4   9  -4    0.19    1.22
   4   9  -4    0.83    0.97
  -5  -9   4   50.90    3.00
  -5   9   4   40.06    2.64
   5  -9   4   52.36    3.12
   5   9   4   51.54    3.89
  -5  -9  -4   47.50    3.19
   5  -9  -4   55.88    3.74
  -5   9  -4   45.92    2.96
   5   9  -4   47.06    2.65
   6  -9   4    3.00    1.53
  -6   9   4    0.57    1.19
  -6  -9  -4    0.71    1.50
  -6  -9   4   -0.67    1.22
   6   9   4    3.63    1.90
   6  -9  -4    0.96    1.73
  -6   9  -4   -1.26    1.44
   6   9  -4    0.28    1.13
  -7  -9   4   20.21    2.11
   7  -9   4   17.30    2.11
   7   9   4   14.47    2.34
  -7  -9  -4   15.21    2.14
  -7   9  -4    8.75    1.80
   7  -9  -4   15.85    2.50
   7   9  -4   15.12    1.78
   8  -9   4   -1.18    1.42
  -8  -9   4    0.84    1.18
  -8  -9  -4    0.85    1.55
   8   9   4   -0.58    1.81
   8  -9  -4    0.45    1.74
   8   9  -4    0.33    0.98
  -9  -9   4  124.06    4.40
   9  -9   4  125.96    4.82
   9   9   4  132.07    5.24
  -9  -9  -4  131.71    5.21
   9  -9  -4  129.03    5.92
   9   9  -4  137.74    4.78
  10  -9   4   -0.51    1.44
 -10  -9  -4    0.69    1.46
  10  -9  -4    0.91    1.74
  10   9   4    1.33    1.70
 -10   9  -4   -0.28    1.62
  10   9  -4   -0.36    0.93
  10   9  -4    0.71    1.49
  11  -9   4    3.61    1.55
 -11  -9  -4    1.79    1.69
  11  -9  -4    0.21    1.77
  11   9   4    4.29    1.72
 -11   9  -4    1.14    1.52
  12  -9   4    2.24    1.56
  12  -9  -4   -0.19    1.88
 -12  -9  -4    0.83    1.70
  12   9   4   -0.14    1.70
 -12   9  -4    1.85    1.71
  13  -9   4   22.97    2.32
  13   9   4   18.32    2.54
   0 -10   4   63.80    3.44
   0  10   4   72.17    3.36
   0  10  -4   62.83    3.34
   0  10   4   74.45    3.67
  -1 -10  -4    1.50    0.89
   1 -10  -4    3.69    1.51
  -1  10   4    1.50    1.26
   1  10   4    1.15    1.28
  -1  10  -4    3.06    1.50
   1  10  -4    3.34    1.34
  -1 -10   4    3.01    1.44
  -1  10   4    3.31    1.27
   1 -10   4    2.79    1.51
   1  10   4    4.85    1.58
  -2 -10   4    7.15    1.77
   2 -10   4    7.78    1.67
   2 -10  -4    2.03    1.46
  -2 -10  -4    4.70    1.61
   2  10   4    4.42    1.44
  -2  10  -4    4.38    1.57
   2  10  -4    2.96    1.26
   3 -10   4    4.91    1.60
   3 -10  -4    4.81    1.59
  -3 -10  -4    4.96    1.67
   3  10   4    3.74    1.48
  -3 -10   4    2.45    1.43
  -3  10  -4    1.65    1.43
   3  10  -4    4.36    1.35
  -4 -10   4   59.01    3.33
   4 -10   4   57.52    3.38
   4  10   4   61.95    3.62
  -4 -10  -4   60.11    3.48
   4 -10  -4   48.30    3.51
   4  10  -4   57.18    3.05
  -5 -10   4   24.30    2.33
   5 -10   4   23.06    2.47
   5  10   4   18.99    2.56
  -5 -10  -4   26.42    2.67
   5 -10  -4   15.74    2.26
  -5  10  -4   25.80    2.54
   5  10  -4   20.11    2.01
  -6 -10   4   37.94    2.72
   6 -10   4   39.39    2.92
   6  10   4   45.07    3.71
  -6 -10  -4   42.80    3.27
   6 -10  -4   39.03    3.35
  -6  10  -4   36.15    2.95
  -7 -10   4   32.30    2.56
   7 -10   4   32.43    2.85
   7  10   4   34.42    3.32
  -7 -10  -4   31.42    3.01
  -7  10  -4   27.35    2.67
   7  10  -4   36.66    2.63
   7 -10  -4   29.23    3.06
  -8 -10   4   12.99    1.80
   8 -10   4   13.79    2.14
   8  10   4   13.60    2.31
  -8  10  -4   11.58    2.04
   8  10  -4    7.97    1.56
  -8 -10  -4    6.79    1.90
   9 -10   4   -1.24    1.59
   9 -10  -4    1.34    1.74
  -9 -10  -4   -1.01    1.68
   9  10   4    0.56    1.71
  -9  10  -4    0.41    1.58
   9  10  -4    0.55    1.04
  10 -10   4    1.08    1.60
  10 -10  -4    1.35    1.72
 -10 -10  -4    1.25    1.87
  10  10   4    4.99    1.95
 -10  10  -4    3.81    1.74
  10  10  -4    5.80    1.27
  11 -10   4   29.30    2.70
  11  10   4   36.70    3.21
 -11 -10  -4   30.54    3.08
  11 -10  -4   31.35    3.30
 -11  10  -4   39.48    3.29
  12 -10   4   -0.13    1.38
  12  10   4   -0.17    1.33
   0 -11  -4    3.84    1.01
   0  11  -4   -1.16    1.42
   0 -11   4   -1.23    1.60
   0  11   4    0.12    1.22
  -1 -11   4   43.46    3.11
   1 -11   4   43.65    3.16
  -1  11  -4   42.77    3.07
   1  11  -4   45.62    3.03
   1  11   4   52.14    3.31
   2 -11   4    0.34    1.41
   2 -11  -4   -0.28    1.17
  -2 -11   4    4.45    1.77
  -2  11  -4    5.53    1.69
   2  11  -4    3.62    1.45
   2  11   4   -0.88    1.38
   3 -11   4    4.19    1.56
   3 -11  -4    8.62    1.87
   3  11  -4    5.66    1.62
  -3 -11  -4    4.93    1.75
  -3 -11   4    4.55    1.58
  -3  11  -4    3.37    1.58
   4 -11   4    1.59    1.56
   4 -11  -4    1.63    1.52
  -4 -11  -4    4.37    1.82
  -4 -11   4    0.61    1.24
  -4  11  -4    1.02    1.47
   4  11  -4   -0.95    1.45
  -5 -11   4   14.07    2.03
   5  11   4   12.03    2.03
  -5 -11  -4   12.04    2.15
   5 -11  -4   15.17    2.50
  -5  11  -4   11.78    2.13
   5  11  -4   15.10    1.98
   6 -11   4   -0.53    1.52
   6 -11  -4    0.79    1.72
   6  11   4    4.17    1.82
  -6 -11   4   -1.13    1.53
  -6  11  -4    0.11    1.48
   6  11  -4    2.79    1.25
   7 -11   4    4.54    1.83
  -7 -11  -4    8.08    2.02
   7 -11  -4    5.93    2.02
  -7 -11   4    4.96    1.49
   7  11   4    1.01    1.59
  -7  11  -4    7.02    2.10
   7  11  -4    5.61    1.36
   8 -11   4    2.90    1.80
   8 -11  -4    0.64    1.79
  -8 -11  -4    1.89    1.64
   8  11   4    4.61    1.87
  -8  11  -4    0.85    1.79
   8  11  -4    1.69    1.25
   9 -11   4   56.82    3.79
   9  11   4   63.95    4.25
  -9 -11  -4   60.81    4.14
   9 -11  -4   60.15    4.34
  -9  11  -4   64.94    4.14
   9  11  -4   67.05    3.74
  10 -11   4    0.46    1.43
  10  11   4    3.84    1.68
  10  11  -4    2.84    0.78
   0 -12   4   28.79    2.90
   0  12  -4   26.52    2.67
  -1 -12   4  155.37    5.70
   1 -12   4  154.76    5.75
   1 -12  -4  149.08    5.79
  -1  12  -4  147.80    5.60
   1  12  -4  148.60    5.48
  -2 -12   4   12.43    2.20
   2 -12   4    9.84    2.10
   2 -12  -4   13.05    1.88
  -2  12  -4   18.21    2.44
   2  12  -4   13.96    1.99
   2  12   4   15.27    2.17
  -3 -12   4   79.04    4.20
   3 -12   4   86.03    4.39
   3 -12  -4   78.63    4.56
  -3  12  -4   95.36    4.86
   3  12  -4   92.73    4.35
   3  12   4   87.13    4.37
  -4 -12   4   12.06    1.94
   4 -12   4    9.92    2.03
   4 -12  -4   11.76    2.01
  -4  12  -4   15.29    2.37
   4  12  -4   10.42    1.80
  -5 -12   4   26.23    2.60
   5 -12   4   25.78    2.78
  -5 -12  -4   31.21    3.01
   5 -12  -4   33.06    3.30
  -5  12  -4   28.35    2.89
   5  12  -4   36.22    2.86
   6 -12   4    2.77    1.68
   6 -12  -4    1.02    1.53
  -6 -12  -4    1.36    1.71
  -6 -12   4    0.29    1.43
  -6  12  -4   -1.12    1.75
   6  12  -4    1.56    1.20
   7 -12  -4  103.68    5.52
   7  12  -4   96.94    4.54
   8  12  -4    4.67    1.40
   0  13  -4    1.17    1.27
   0 -13   4    0.58    1.29
  -1 -13   4   53.56    3.64
   1  13  -4   55.99    3.69
  -2 -13   4    1.35    1.12
   2  13  -4    0.94    1.35
   2  13   4    5.03    1.37
  -3 -13   4   14.55    2.00
   3 -13  -4   17.42    2.21
   3  13   4   16.81    2.07
   4 -13  -4    0.34    1.30
  -5 -13   4   29.36    2.61
   0   0   5    0.45    0.99
   0   0  -5   -0.29    0.76
   0   0  -5    0.58    0.56
   1   0   5  243.26    5.61
   1   0  -5  221.86    4.57
   1   0  -5  237.22    2.88
  -1   0  -5  236.50    3.61
  -1   0  -5  239.62    4.53
  -2   0   5   94.90    3.31
   2   0   5  116.67    3.92
   2   0  -5  103.93    3.21
   2   0  -5   99.36    1.61
  -2   0  -5  107.05    2.68
  -2   0  -5  107.86    3.01
  -3   0   5   28.37    1.96
   3   0   5   29.29    2.23
   3   0  -5   27.96    1.85
   3   0  -5   26.64    0.58
  -3   0  -5   28.73    1.63
  -3   0  -5   30.86    1.69
  -4   0   5  124.48    3.77
   4   0   5  109.31    4.22
  -4   0  -5  118.64    3.19
  -4   0  -5  124.62    3.06
  -5   0   5  469.95    7.17
   5   0   5  399.80    8.17
   5   0  -5  394.81    6.73
  -5   0  -5  404.90    6.07
  -5   0  -5  450.17    5.59
  -6   0   5   60.21    2.76
   6   0  -5   48.50    2.67
   6   0   5   58.46    3.00
  -6   0  -5   52.18    2.48
  -6   0  -5   57.04    2.03
  -7   0   5   10.25    1.53
   7   0  -5   10.51    1.64
   7   0   5    8.97    1.47
  -7   0  -5   11.45    1.52
  -8   0   5  332.62    6.40
   8   0  -5  309.12    7.16
   8   0   5  330.10    6.36
  -9   0   5  134.75    4.28
   9   0  -5  137.56    5.46
   9   0   5  129.89    4.19
  -9   0  -5  126.94    4.24
  10   0  -5    1.03    1.78
 -10   0   5    5.11    1.46
  10   0   5    3.85    1.40
 -10   0  -5    4.44    1.49
 -11   0   5   40.36    2.69
  11   0  -5   40.76    3.50
  11   0   5   41.63    2.70
 -11   0  -5   39.98    2.89
 -12   0   5  144.50    4.98
  12   0  -5  153.23    6.01
  12   0   5  150.82    4.86
 -12   0  -5  145.45    5.22
 -13   0   5  123.75    4.75
  13   0  -5  127.54    5.49
  13   0   5  142.01    4.87
 -13   0  -5  123.04    5.04
  14   0  -5    6.13    1.99
 -14   0   5    5.34    1.64
 -14   0  -5    7.67    1.92
  14   0   5    1.72    1.20
  15   0  -5   19.88    2.79
 -15   0   5   19.22    2.44
  15   0   5   14.47    1.98
 -15   0  -5   13.86    2.33
 -16   0   5   71.89    4.23
  16   0   5   69.37    3.84
 -16   0  -5   69.22    4.29
  16   0  -5   74.87    4.46
  17   0   5   39.71    3.07
   0  -1   5   14.91    1.57
   0   1   5   13.46    1.74
   0  -1  -5   16.00    1.42
   0  -1  -5   13.34    0.92
   0   1  -5   15.43    1.02
   0   1  -5   14.99    1.42
  -1  -1   5  154.06    4.07
  -1   1   5   96.37    3.65
   1  -1   5   95.22    3.46
   1   1   5  149.14    4.48
   1  -1  -5  133.92    3.58
  -1  -1  -5  143.62    3.50
   1  -1  -5  131.80    2.21
  -1  -1  -5  138.09    2.73
  -1   1  -5  144.47    2.94
   1   1  -5  137.93    2.44
   1   1  -5  118.07    3.38
  -1   1  -5  138.33    3.50
   2  -1   5   29.78    1.75
  -2  -1   5   38.49    2.14
  -2   1   5   28.17    2.15
   2   1   5   30.72    2.19
   2  -1  -5   25.35    1.82
  -2  -1  -5   31.04    1.71
   2  -1  -5   28.18    1.05
  -2  -1  -5   27.73    1.46
   2   1  -5   30.37    1.90
  -2   1  -5   28.07    1.53
   2   1  -5   29.77    1.06
   3  -1   5  136.59    3.34
  -3  -1   5  131.32    3.62
  -3   1   5  132.80    4.09
   3  -1   5  138.22    4.07
   3  -1  -5  116.79    3.68
   3   1   5  144.31    4.57
  -3  -1  -5  126.71    3.12
  -3  -1  -5  127.62    3.15
   3   1  -5  129.59    3.68
  -3   1  -5  126.31    3.13
   3   1  -5  125.14    1.80
   4  -1   5   39.80    1.88
  -4  -1   5   44.82    2.26
  -4   1   5   39.92    2.33
   4  -1  -5   40.26    2.39
   4  -1   5   30.40    2.35
   4   1   5   35.34    2.85
  -4  -1  -5   39.41    1.97
  -4  -1  -5   40.03    1.79
   4   1  -5   29.22    1.95
  -4   1  -5   39.21    1.99
   5  -1   5   23.27    1.46
  -5  -1   5   25.62    1.82
  -5   1   5   25.42    2.01
   5  -1  -5   23.00    2.07
   5  -1   5   19.42    2.28
   5   1   5   22.56    2.35
  -5  -1  -5   24.36    1.74
   5   1  -5   20.30    1.73
  -5  -1  -5   21.47    1.34
  -5   1  -5   23.62    1.75
   6  -1   5   27.58    1.54
  -6  -1   5   28.80    1.93
  -6   1   5   33.43    2.25
   6  -1  -5   25.80    2.32
   6  -1   5   28.58    2.44
   6   1   5   26.83    2.18
   6   1  -5   28.85    2.05
  -6  -1  -5   27.83    1.43
  -6  -1  -5   34.21    2.11
  -6   1  -5   27.53    1.97
   7  -1   5  279.54    4.38
  -7  -1   5  280.26    5.63
  -7   1   5  309.03    6.18
   7  -1  -5  263.42    7.15
   7   1  -5  271.33    5.84
   7  -1   5  286.54    6.00
   7   1   5  292.62    6.11
  -7  -1  -5  288.78    5.80
  -7   1  -5  302.87    5.91
   8  -1  -5    0.80    1.59
   8   1  -5    0.28    1.16
  -8  -1   5    0.49    1.05
  -8   1   5    1.90    1.24
   8  -1   5   -0.18    0.69
   8  -1   5    2.73    1.25
   8   1   5   -0.71    1.28
  -8  -1  -5    2.49    1.31
  -8   1  -5    1.18    1.24
  -9  -1   5   19.37    1.85
  -9   1   5   23.38    2.12
   9  -1  -5   14.14    2.31
   9   1  -5   22.49    2.25
   9  -1   5   19.35    1.87
   9   1   5   20.62    1.97
  -9  -1  -5   23.45    2.16
  -9   1  -5   18.81    1.95
  10   1  -5   -0.78    1.51
 -10  -1   5   -0.85    1.20
 -10   1   5    0.74    1.24
  10  -1   5   -0.34    1.13
  10   1   5   -0.19    1.26
 -10  -1  -5    1.80    1.46
  10  -1  -5    3.68    1.90
 -10   1  -5    0.81    1.31
 -11  -1   5   31.46    2.44
  11  -1  -5   32.21    2.88
 -11   1   5   28.49    2.38
  11   1  -5   30.42    3.10
  11  -1   5   21.95    2.05
  11   1   5   29.80    2.47
 -11  -1  -5   25.36    2.40
 -11   1  -5   33.64    2.58
  12  -1  -5   20.88    2.46
 -12  -1   5   24.73    2.34
 -12   1   5   18.45    2.14
  12   1  -5   19.38    2.79
  12  -1   5   25.14    2.21
  12   1   5   27.33    2.45
 -12  -1  -5   25.85    2.52
 -12   1  -5   18.71    2.26
  13  -1  -5    9.67    2.35
 -13  -1   5   10.28    1.79
 -13   1   5    9.45    1.99
  13   1  -5   13.86    2.55
  13  -1   5   12.50    1.79
  13   1   5   14.02    1.99
 -13  -1  -5   12.54    2.17
 -13   1  -5    9.53    1.94
 -14   1   5    5.55    1.76
  14  -1   5    6.41    1.54
  14  -1  -5    5.55    1.93
 -14  -1   5    4.55    1.70
  14   1  -5    5.12    2.26
 -14  -1  -5    3.25    1.84
 -14   1  -5    4.95    1.81
  14   1   5    3.24    1.47
 -15  -1   5  113.14    4.98
 -15   1   5  117.75    5.12
  15   1  -5  127.60    5.78
  15  -1   5  102.15    4.33
  15   1   5  108.55    4.76
 -15  -1  -5  120.35    5.44
 -15   1  -5  112.58    5.22
  15  -1  -5  132.42    5.64
  16  -1  -5    2.99    2.00
  16   1  -5    0.19    1.37
 -16  -1   5   -0.48    1.45
 -16   1   5    2.03    1.74
 -16   1  -5    2.39    1.88
  16  -1   5    3.58    1.21
  16   1   5    0.75    1.56
  17  -1  -5   -0.52    1.38
  17   1   5   -1.15    1.49
   0  -2  -5   -0.21    0.84
   0  -2   5    1.50    1.02
   0  -2   5    2.50    0.92
   0   2   5   -0.70    1.28
   0  -2  -5    0.06    0.68
   0   2  -5   -0.86    0.63
  -1  -2   5   88.08    3.03
   1  -2   5   79.19    2.76
  -1  -2   5   92.23    3.03
   1  -2  -5   83.11    3.21
   1  -2   5   88.21    3.19
  -1   2   5   85.10    3.60
  -1  -2  -5   85.39    2.95
   1   2   5   95.38    3.74
   1  -2  -5   81.37    1.96
  -1  -2  -5   80.55    2.37
  -1   2  -5   87.19    2.41
   1   2  -5   85.32    2.06
   2  -2   5  429.03    6.06
  -2  -2   5  445.93    6.26
   2  -2  -5  406.43    7.25
  -2  -2  -5  428.23    6.13
   2   2   5  412.97    7.11
   2  -2  -5  427.04    3.29
  -2  -2  -5  422.31    5.52
  -2   2  -5  426.95    5.48
   2   2  -5  427.17    4.26
   2   2  -5  449.10    6.59
   3  -2   5   52.53    2.22
  -3  -2   5   52.33    2.28
   3  -2  -5   50.74    2.98
  -3   2   5   48.01    2.62
  -3  -2  -5   54.28    2.22
   3  -2   5   57.82    2.85
   3   2   5   58.32    3.14
  -3   2  -5   51.65    2.14
  -3  -2  -5   57.61    2.28
   3   2  -5   54.09    1.48
   3   2  -5   56.99    2.56
   4  -2   5  123.59    3.18
  -4  -2   5  118.55    3.38
   4  -2  -5  109.82    4.40
  -4   2   5  128.75    4.08
  -4  -2  -5  124.14    3.14
   4  -2   5  131.34    4.05
   4   2   5  123.92    4.95
  -4  -2  -5  130.75    3.51
   4   2  -5  135.30    3.87
  -4   2  -5  123.15    3.33
   4   2  -5  124.57    2.05
   5  -2   5  133.70    3.31
  -5  -2   5  142.62    3.77
   5  -2  -5  124.75    4.93
  -5   2   5  137.86    4.24
  -5  -2  -5  138.87    3.22
   5  -2   5  149.33    4.75
   5   2   5  134.06    4.77
  -5  -2  -5  118.25    3.51
   5   2  -5  139.54    4.01
  -5   2  -5  146.12    3.85
   6  -2   5  123.44    3.13
  -6  -2   5  125.74    3.67
   6  -2  -5  124.40    4.87
  -6   2   5  140.74    4.38
   6  -2   5  119.70    4.74
   6   2   5  126.79    4.26
   6   2  -5  137.87    4.06
  -6  -2  -5  124.67    3.81
  -6   2  -5  128.82    3.79
   7  -2   5  128.36    3.16
  -7  -2   5  123.31    3.77
   7  -2  -5  121.62    4.82
  -7   2   5  135.69    4.36
   7  -2   5  123.01    4.24
   7   2   5  124.33    4.15
   7   2  -5  126.19    4.02
  -7  -2  -5  129.00    4.06
  -7   2  -5  131.03    3.96
   8  -2  -5  129.92    4.83
  -8  -2   5  121.30    3.88
   8  -2   5  127.81    3.18
  -8   2   5  129.62    4.32
   8  -2   5  119.64    3.91
   8   2   5  124.92    4.27
   8   2  -5  117.34    3.97
  -8  -2  -5  125.33    4.22
  -8   2  -5  130.94    4.20
   9  -2  -5   24.32    2.52
  -9  -2   5   25.05    2.07
   9  -2   5   28.53    1.60
  -9   2   5   31.21    2.37
   9   2  -5   27.14    2.27
   9  -2   5   31.51    2.20
   9   2   5   31.12    2.44
  -9  -2  -5   32.39    2.49
  -9   2  -5   32.77    2.42
  10  -2  -5   48.49    3.22
 -10  -2   5   41.35    2.60
 -10   2   5   46.47    2.87
  10   2  -5   38.97    2.76
  10  -2   5   41.77    2.51
  10   2   5   45.18    2.91
 -10  -2  -5   43.60    2.99
 -10   2  -5   44.58    2.86
  11  -2  -5    7.91    1.95
 -11  -2   5    9.79    1.69
 -11   2   5   12.46    1.89
  11   2  -5    8.31    2.00
  11  -2   5    8.03    1.49
  11   2   5    9.58    1.86
 -11  -2  -5    9.39    1.83
 -11   2  -5    9.99    1.78
  12  -2  -5  128.64    5.16
 -12  -2   5  128.16    4.65
 -12   2   5  134.09    4.87
  12   2  -5  132.40    5.76
  12  -2   5  119.75    4.22
  12   2   5  122.99    4.70
 -12  -2  -5  122.37    5.04
 -12   2  -5  116.37    4.61
 -13  -2   5   67.61    3.67
 -13   2   5   83.61    4.06
  13   2  -5   74.16    5.00
  13  -2   5   66.97    3.32
  13   2   5   68.25    3.71
 -13  -2  -5   68.55    4.12
 -13   2  -5   73.30    3.91
  13  -2  -5   73.09    4.10
  14  -2  -5    0.66    1.76
 -14  -2   5    0.08    1.36
 -14   2   5    3.37    1.61
 -14  -2  -5   -0.31    1.68
  14  -2   5    5.43    1.13
  14   2   5    0.56    1.58
 -14   2  -5   -0.78    1.53
  14   2  -5    1.29    1.89
  15  -2  -5    9.66    2.43
  15   2   5   12.52    2.17
 -15  -2   5    7.37    1.88
 -15   2   5    7.58    1.79
  15   2  -5    8.75    2.21
 -15  -2  -5    7.96    2.13
 -15   2  -5    5.09    1.81
 -16  -2   5   19.77    2.49
 -16   2   5   16.40    2.63
  16   2   5   25.32    2.74
 -16  -2  -5   22.93    3.09
 -16   2  -5   20.81    2.79
  16  -2  -5   22.14    2.88
  17   2   5   23.89    2.54
  17  -2  -5   18.61    2.73
   0  -3   5    9.11    1.32
   0  -3  -5    8.96    1.46
   0  -3   5    7.81    1.10
   0   3   5    7.80    1.63
   0  -3  -5   10.56    1.00
   0   3  -5    9.65    1.04
  -1  -3   5  141.94    3.82
   1  -3   5  131.53    3.59
   1  -3  -5  107.34    3.94
  -1  -3  -5  126.99    4.04
  -1  -3   5  134.21    3.29
   1  -3   5  139.58    3.57
  -1   3   5  155.87    4.68
   1   3   5  148.40    4.55
   1  -3  -5  136.81    2.58
  -1  -3  -5  128.59    3.40
  -1   3  -5  133.94    3.13
   1   3  -5  137.00    2.90
  -2  -3   5   24.77    1.80
   2  -3   5   22.59    1.66
   2  -3  -5   28.85    2.28
  -2  -3  -5   27.12    1.97
  -2  -3   5   28.42    1.69
  -2   3   5   24.61    2.12
   2  -3   5   34.73    2.03
   2   3   5   28.39    2.16
   2  -3  -5   27.34    1.09
  -2  -3  -5   21.95    1.84
  -2   3  -5   28.07    1.68
   2   3  -5   30.55    1.41
  -3  -3   5  113.73    3.58
   3  -3   5  109.26    3.22
   3  -3  -5  101.10    3.87
  -3  -3  -5  115.38    3.58
  -3  -3   5  112.69    3.15
   3  -3   5   92.91    3.24
   3   3   5  110.55    4.23
  -3  -3  -5  103.51    3.40
  -3   3  -5  106.93    3.08
   3   3  -5  106.53    2.40
   4  -3  -5   27.51    2.25
   4  -3   5   30.09    1.78
  -4  -3  -5   32.60    1.90
  -4  -3   5   26.78    1.72
  -4   3   5   26.62    2.19
   4  -3   5   29.04    2.06
   4   3   5   30.66    2.88
  -4  -3  -5   36.29    2.22
  -4   3  -5   34.94    2.00
   4   3  -5   30.97    1.35
   4   3  -5   30.06    2.03
   5  -3  -5   33.48    2.45
   5  -3   5   28.23    1.75
  -5  -3   5   28.01    1.79
  -5   3   5   24.92    2.11
   5  -3   5   31.56    2.22
   5   3   5   23.46    2.36
  -5  -3  -5   27.50    2.01
  -5   3  -5   26.57    1.89
   5   3  -5   24.95    1.95
   5   3  -5   32.55    1.33
   6  -3  -5   20.28    2.16
  -6  -3   5   19.44    1.62
   6  -3   5   22.24    1.59
  -6   3   5   22.85    2.11
   6  -3   5   24.82    2.37
   6   3   5   25.14    2.24
  -6  -3  -5   19.03    1.88
   6   3  -5   21.21    1.89
   7  -3  -5  240.43    6.13
  -7  -3   5  224.17    4.99
   7  -3   5  231.95    4.48
  -7   3   5  246.30    5.94
   7  -3   5  247.01    6.60
   7   3   5  233.15    5.81
  -7  -3  -5  244.85    5.86
   7   3  -5  238.69    5.43
  -7   3  -5  240.01    5.39
   8   3  -5    0.69    1.13
   8  -3  -5    3.54    1.55
  -8  -3   5    1.10    1.05
  -8   3   5    0.78    1.32
   8  -3   5    1.96    1.34
  -8  -3  -5    0.31    1.24
   8   3   5    1.51    1.40
  -8   3  -5   -0.77    1.24
   8  -3   5    0.78    0.88
   9  -3  -5   25.93    2.42
  -9  -3   5   20.83    1.95
  -9   3   5   21.73    2.23
   9  -3   5   21.77    1.61
   9  -3   5   27.48    2.10
   9   3   5   21.76    2.18
   9   3  -5   23.99    2.16
  -9  -3  -5   24.74    2.45
  -9   3  -5   22.06    2.16
  10  -3  -5    2.74    1.62
 -10  -3   5    2.31    1.32
 -10   3   5   -0.64    1.38
 -10  -3  -5    0.16    1.51
  10  -3   5    0.53    1.03
  10   3   5   -1.40    1.52
  10   3  -5   -0.99    1.25
 -10   3  -5    0.97    1.40
 -11  -3   5   18.87    2.04
 -11   3   5   28.95    2.55
  11   3  -5   27.61    2.46
  11   3   5   28.41    2.65
 -11  -3  -5   27.34    2.71
 -11   3  -5   19.17    2.25
  11  -3  -5   27.04    2.69
 -12  -3   5   23.41    2.30
 -12   3   5   17.73    2.18
  12   3  -5   24.01    2.62
  12   3   5   25.63    2.58
 -12  -3  -5   23.98    2.71
 -12   3  -5   23.45    2.51
  12  -3  -5   23.07    2.63
 -13  -3   5   11.61    1.90
 -13   3   5    8.03    1.87
  13   3  -5    3.02    1.78
  13   3   5    9.23    1.88
 -13   3  -5    5.97    1.92
 -13  -3  -5    6.53    2.01
  13  -3  -5   12.40    2.51
  14  -3  -5    6.24    2.17
 -14   3   5    5.13    1.80
 -14  -3   5    2.67    1.42
 -14  -3  -5    2.57    1.85
  14   3   5    1.64    1.59
 -14   3  -5    6.13    1.82
 -15  -3   5  105.43    4.81
 -15   3   5   97.58    4.69
  15   3  -5  114.45    5.95
  15   3   5  105.38    4.96
 -15  -3  -5   81.96    5.07
 -15   3  -5   93.51    4.70
  15  -3  -5   91.49    4.95
  16  -3  -5   -0.06    1.80
 -16  -3   5    2.20    1.69
 -16   3   5    2.16    1.68
 -16  -3  -5    1.88    2.08
 -16   3  -5   -0.91    1.57
  16   3   5    2.06    1.66
  17  -3  -5    0.13    1.45
   0  -4  -5    1.15    1.05
   0  -4   5    0.84    0.76
   0   4   5    0.74    1.30
   0  -4  -5    0.11    0.70
   0   4  -5    0.98    0.84
  -1  -4  -5  177.29    4.21
   1  -4  -5  180.70    4.54
  -1  -4   5  176.86    4.40
   1  -4   5  180.57    4.41
  -1  -4   5  175.45    3.59
   1  -4   5  187.42    3.73
  -1   4   5  189.90    5.14
   1   4   5  192.27    5.13
   1  -4  -5  193.83    3.43
  -1  -4  -5  160.61    3.56
  -1   4  -5  174.09    3.83
   1   4  -5  182.30    3.68
  -2  -4  -5   63.00    2.51
   2  -4  -5   63.66    2.94
  -2  -4   5   66.55    2.84
   2  -4   5   66.30    2.77
  -2  -4   5   62.88    2.30
   2  -4   5   68.68    2.43
  -2   4   5   63.20    3.21
   2   4   5   67.02    3.20
   2  -4  -5   71.10    1.98
  -2  -4  -5   59.39    2.46
  -2   4  -5   58.02    2.39
   2   4  -5   67.62    2.26
  -3  -4  -5   28.81    1.73
  -3  -4   5   23.81    1.91
   3  -4  -5   20.10    1.94
   3  -4   5   22.76    1.75
  -3  -4   5   23.48    1.54
  -3   4   5   20.28    2.09
   3  -4   5   26.14    1.71
   3   4   5   24.91    2.41
  -3  -4  -5   22.99    1.89
  -3   4  -5   27.65    1.78
   3   4  -5   25.44    1.45
  -4  -4   5   82.83    3.21
   4  -4  -5   81.55    3.38
  -4  -4   5   85.56    2.78
   4  -4   5   80.36    2.94
  -4   4   5   67.87    3.31
   4  -4   5   80.27    2.94
   4   4   5   84.17    4.39
  -4  -4  -5   66.89    3.37
  -4   4  -5   87.21    3.08
   4   4  -5   82.44    2.39
  -4  -4  -5   81.60    2.53
   5  -4  -5  311.91    6.56
  -5  -4   5  306.64    5.33
   5  -4   5  312.17    5.56
  -5   4   5  291.50    6.51
   5   4   5  315.54    7.51
  -5  -4  -5  314.10    7.37
  -5   4  -5  324.18    5.88
   5   4  -5  330.04    4.50
   5   4  -5  314.75    6.00
   6  -4  -5   33.25    2.46
   6  -4   5   33.32    2.03
  -6   4   5   40.49    2.71
   6   4   5   37.33    2.71
  -6  -4  -5   36.50    2.81
  -6   4  -5   44.03    2.51
   6   4  -5   33.72    2.23
   6   4  -5   38.94    1.65
  -7  -4   5   10.64    1.46
   7  -4   5    9.66    1.39
  -7  -4  -5   10.62    1.97
   7   4  -5    9.80    1.53
  -7   4  -5    9.72    1.58
  -7   4   5    7.84    1.64
   7   4   5    6.37    1.65
   7  -4  -5   10.20    1.78
  -8  -4   5  250.10    5.54
  -8   4   5  262.32    6.39
   8  -4   5  240.62    4.92
   8   4   5  252.20    6.32
  -8  -4  -5  241.63    6.75
   8   4  -5  254.14    5.82
  -8   4  -5  258.55    5.89
   8  -4  -5  253.29    6.41
  -9  -4   5  116.94    4.01
  -9   4   5  124.21    4.56
   9  -4   5  118.83    3.53
   9   4   5  130.91    4.77
   9   4  -5  107.79    3.96
  -9  -4  -5  102.92    4.78
  -9   4  -5  112.77    4.19
   9  -4  -5  135.66    5.01
  10   4  -5    2.83    1.46
  10  -4  -5    2.79    1.80
 -10  -4   5    1.63    1.16
 -10   4   5    2.48    1.56
 -10  -4  -5    3.96    1.80
  10   4   5    1.78    1.46
 -10   4  -5    3.02    1.50
  10  -4   5    2.28    1.00
 -11  -4   5   32.96    2.60
 -11   4   5   35.81    2.86
  11   4  -5   32.30    2.53
  11   4   5   35.19    2.90
 -11  -4  -5   35.35    3.24
 -11   4  -5   32.99    2.70
  11  -4  -5   37.40    3.25
 -12  -4   5  113.25    4.51
 -12   4   5  115.66    4.69
  12   4  -5  115.07    4.77
  12   4   5  119.69    4.98
 -12  -4  -5  124.35    5.84
 -12   4  -5  120.26    4.83
  12  -4  -5  126.04    5.34
 -13  -4   5  107.49    4.48
 -13   4   5  104.87    4.74
  13   4  -5  110.32    5.00
  13   4   5  118.89    5.09
 -13  -4  -5  106.53    5.68
 -13   4  -5  112.85    4.87
  13  -4  -5  100.62    4.92
 -14  -4   5    6.79    1.80
  14   4  -5    7.80    2.01
  14  -4  -5    3.33    1.93
  14   4   5    8.11    2.19
 -14   4   5    5.46    1.94
 -14  -4  -5    2.71    1.84
 -14   4  -5    5.92    1.89
 -15  -4   5   12.72    2.05
 -15   4   5   10.51    2.09
 -15  -4  -5   19.64    3.30
 -15   4  -5   11.90    2.26
  15  -4  -5   22.57    2.97
  15   4   5    8.62    2.10
 -16   4   5   63.74    4.17
  16   4   5   55.41    3.86
  16  -4  -5   64.20    4.54
   0  -5   5    8.20    1.40
   0  -5   5   11.26    1.04
   0   5   5    8.63    1.69
   0  -5  -5    7.35    1.07
   0   5  -5   11.38    1.31
   0  -5  -5    6.86    1.40
  -1  -5   5   80.83    3.22
   1  -5   5   91.27    3.39
  -1  -5   5   84.07    2.48
   1  -5   5   85.10    2.32
  -1   5   5   88.84    3.71
   1   5   5   88.89    3.66
   1  -5  -5   89.78    2.63
  -1  -5  -5   74.05    2.55
  -1   5  -5   84.97    2.93
   1   5  -5   86.65    2.85
  -1  -5  -5   73.92    2.99
   1  -5  -5   96.00    3.48
  -2  -5   5   10.99    1.56
  -2  -5   5   15.55    1.27
   2  -5   5   16.87    1.67
  -2   5   5   17.19    1.98
   2   5   5   16.48    1.88
   2  -5  -5   15.21    1.23
  -2  -5  -5   13.67    1.46
  -2   5  -5   13.99    1.50
   2   5  -5   19.04    1.50
  -2  -5  -5   17.42    1.69
   2  -5  -5   19.45    1.94
  -3  -5   5   70.20    3.06
  -3  -5   5   84.67    2.68
   3  -5   5   77.99    3.11
  -3   5   5   75.17    3.55
   3   5   5   77.66    3.80
  -3  -5  -5   79.81    2.99
  -3   5  -5   84.84    3.13
   3   5  -5   81.94    2.68
  -3  -5  -5   85.98    2.88
   3  -5  -5   86.82    3.51
  -4  -5   5   29.44    2.09
  -4  -5   5   23.94    1.61
   4  -5   5   28.90    2.04
  -4   5   5   17.81    2.04
   4   5   5   23.05    2.87
  -4  -5  -5   23.27    1.90
  -4   5  -5   28.74    2.05
   4   5  -5   28.66    1.65
   4  -5  -5   30.58    2.44
  -5  -5   5    9.63    1.49
  -5  -5   5   11.53    1.34
   5  -5   5   13.11    1.59
  -5   5   5   10.85    1.69
   5   5   5    9.35    2.12
  -5  -5  -5    7.43    1.56
  -5   5  -5    9.66    1.50
   5   5  -5   10.26    1.16
   5  -5  -5   13.03    1.99
  -6  -5   5   21.38    1.70
  -6   5   5   23.60    2.35
   6  -5   5   17.50    1.74
   6   5   5   18.12    2.29
  -6  -5  -5   21.92    2.27
  -6   5  -5   24.20    2.08
   6   5  -5   20.52    1.43
   6  -5  -5   28.90    2.61
  -7  -5   5  204.91    4.85
  -7   5   5  216.38    5.95
   7  -5   5  188.89    4.70
   7   5   5  198.00    5.82
  -7  -5  -5  180.15    6.07
  -7   5  -5  200.43    5.24
   7   5  -5  202.09    5.21
   7  -5  -5  221.69    6.33
   8   5  -5    0.59    1.11
  -8  -5   5    0.52    1.03
  -8   5   5   -0.80    1.37
  -8  -5  -5    0.02    1.50
   8   5   5    0.47    1.47
  -8   5  -5    1.99    1.36
   8  -5   5    1.84    1.11
  -9  -5   5   10.88    1.60
   9  -5   5   12.09    1.56
   9   5  -5    6.72    1.45
  -9   5  -5    8.23    1.80
  -9   5   5    5.41    1.59
  -9  -5  -5    6.36    2.09
   9   5   5    5.98    1.84
   9  -5  -5    9.23    1.92
  10  -5  -5    3.06    1.74
  10   5  -5   -0.10    1.19
 -10  -5   5   -0.86    1.25
 -10   5   5   -0.34    1.45
 -10  -5  -5    2.07    1.97
 -10   5  -5   -0.17    1.45
  10  -5   5    0.67    1.04
 -11  -5   5   31.05    2.50
 -11   5   5   20.09    2.45
  11  -5   5   26.48    2.04
  11   5   5   33.12    2.93
  11   5  -5   30.45    2.50
 -11  -5  -5   30.58    3.45
 -11   5  -5   27.90    2.62
  11  -5  -5   29.45    3.06
 -12  -5   5   16.53    2.00
 -12   5   5   20.53    2.39
  12   5  -5   14.72    2.05
  12   5   5   18.27    2.41
 -12  -5  -5   20.56    3.26
 -12   5  -5   16.14    2.25
  12  -5  -5   15.92    2.72
 -13  -5   5    6.98    1.69
  13  -5  -5    9.07    2.39
  13   5  -5   10.71    1.90
 -13   5   5    9.16    1.92
 -13  -5  -5    8.90    2.66
 -13   5  -5    7.11    1.92
 -14  -5   5    6.46    1.74
 -14   5   5    8.49    2.08
  14  -5  -5    8.54    2.22
 -14  -5  -5   11.87    2.90
  14   5   5    9.96    2.14
 -14   5  -5    4.79    1.82
 -15  -5   5   93.59    4.61
 -15   5   5   90.59    4.72
  15   5   5   92.48    4.87
 -15  -5  -5   75.04    5.76
 -15   5  -5   72.15    4.38
  15  -5  -5   84.56    5.09
  16  -5  -5    2.38    1.41
 -16   5   5    1.13    1.15
   0  -6  -5   -1.38    1.26
   0   6   5    1.31    1.40
   0  -6  -5   -0.19    0.97
   0  -6   5   -0.48    1.19
   0   6  -5   -0.86    0.92
  -1  -6   5   44.52    2.60
   1  -6   5   45.53    2.62
  -1   6   5   50.80    2.89
   1   6   5   45.24    2.81
   1  -6  -5   52.00    2.28
  -1  -6  -5   48.73    2.36
  -1   6  -5   44.55    2.35
   1   6  -5   47.91    2.32
  -1  -6  -5   56.27    2.82
   1  -6  -5   48.50    2.84
  -2  -6   5  211.55    5.31
   2  -6   5  210.73    5.24
  -2   6   5  252.25    6.21
   2   6   5  197.94    5.24
  -2  -6  -5  203.42    4.55
  -2   6  -5  206.69    4.87
   2   6  -5  213.12    4.53
  -2  -6  -5  234.95    5.18
   2  -6  -5  243.54    5.94
  -3  -6   5   25.85    2.11
   3  -6   5   32.45    2.29
  -3   6   5   35.14    2.67
   3   6   5   28.36    2.50
  -3  -6  -5   26.25    1.97
  -3   6  -5   35.38    2.28
   3   6  -5   32.13    1.91
  -3  -6  -5   40.40    2.19
   3  -6  -5   38.20    2.64
  -4  -6   5   58.98    2.97
  -4  -6   5   51.44    2.21
   4  -6   5   63.67    3.03
  -4   6   5   55.54    3.17
   4   6   5   65.05    3.98
  -4  -6  -5   55.12    2.73
  -4   6  -5   61.70    2.91
   4   6  -5   57.65    2.36
  -5  -6   5   73.14    3.23
  -5  -6   5   77.35    2.81
   5  -6   5   78.23    3.33
  -5   6   5   54.20    3.12
   5   6   5   83.19    4.58
  -5  -6  -5   63.56    3.05
  -5   6  -5   63.96    3.12
   5   6  -5   74.00    2.63
   5  -6  -5   80.76    3.91
  -6  -6   5   62.59    3.06
  -6  -6   5   67.74    2.77
  -6   6   5   60.22    3.34
   6  -6   5   62.96    3.07
   6   6   5   57.80    3.71
  -6  -6  -5   63.73    3.23
  -6   6  -5   61.62    3.07
   6   6  -5   63.02    2.43
   6  -6  -5   74.58    3.86
  -7  -6   5   67.66    2.93
  -7   6   5   66.39    3.54
   7  -6   5   76.93    3.32
   7   6   5   66.63    3.73
  -7  -6  -5   61.21    3.40
  -7   6  -5   68.08    3.35
   7   6  -5   68.67    2.53
   7  -6  -5   79.08    4.14
  -8  -6   5   71.67    3.12
  -8   6   5   85.83    4.10
   8  -6   5   74.90    3.35
   8   6   5   81.65    4.05
  -8  -6  -5   74.50    3.86
  -8   6  -5   72.86    3.52
   8   6  -5   68.71    3.33
   8  -6  -5   72.79    4.13
  -9  -6   5   18.96    1.91
  -9   6   5   17.34    2.26
   9  -6   5   18.84    1.99
   9   6   5   15.69    2.24
   9   6  -5   19.76    2.02
   9  -6  -5   20.40    2.70
 -10  -6   5   28.91    2.31
 -10   6   5   26.53    2.59
  10  -6   5   25.31    2.21
  10   6   5   28.39    2.81
 -10  -6  -5   17.80    2.56
  10   6  -5   22.02    2.09
 -10   6  -5   26.80    2.51
  10  -6  -5   23.21    2.87
 -11  -6   5    8.72    1.57
  11  -6  -5    5.69    2.13
  11  -6   5    6.58    1.47
  11   6  -5    4.68    1.38
 -11   6   5    3.54    1.65
 -11  -6  -5    6.19    1.94
  11   6   5    5.62    1.94
 -11   6  -5    6.45    1.76
 -12  -6   5   83.26    4.00
 -12   6   5   59.45    3.73
  12   6   5   71.80    4.24
  12   6  -5   61.85    3.44
 -12  -6  -5   72.15    4.72
 -12   6  -5   60.96    3.67
  12  -6  -5   80.49    4.63
 -13  -6   5   50.97    3.27
 -13   6   5   44.92    3.36
  13   6  -5   46.58    3.15
  13   6   5   51.49    3.77
 -13  -6  -5   42.57    3.85
 -13   6  -5   51.79    3.65
  13  -6  -5   51.06    3.92
  14  -6  -5   -1.42    2.01
 -14  -6   5    0.04    1.11
 -14   6   5    1.57    1.58
 -14  -6  -5    0.45    1.96
  14   6   5   -0.49    1.74
 -14   6  -5   -0.66    1.67
  15  -6  -5    5.97    2.08
 -15  -6   5    3.40    1.25
 -15   6   5    1.31    1.46
 -16   6   5   19.86    2.38
   0  -7  -5    5.59    1.51
   0   7  -5    4.83    1.31
   0   7   5    3.85    1.46
   0  -7  -5    3.70    1.14
   0  -7   5    3.91    1.39
  -1  -7   5   80.47    3.54
   1  -7   5   77.07    3.53
  -1   7   5   90.11    3.82
   1   7   5   76.82    3.60
   1  -7  -5   82.35    3.04
  -1  -7  -5   77.24    3.05
  -1   7  -5   78.63    3.24
   1   7  -5   73.96    3.00
  -1  -7  -5   82.99    3.41
   1  -7  -5   91.38    3.79
  -2  -7   5    9.90    1.69
   2  -7   5   10.27    1.78
  -2   7   5   13.01    1.87
   2   7   5   12.69    1.78
  -2   7  -5   10.20    1.52
   2   7  -5   13.08    1.50
  -2  -7  -5   16.13    1.74
   2  -7  -5   12.85    1.91
  -3  -7   5   67.66    3.26
   3  -7   5   52.80    2.99
  -3   7   5   60.24    3.38
   3   7   5   51.97    3.22
  -3  -7  -5   55.95    2.76
  -3   7  -5   66.19    3.11
   3   7  -5   50.32    2.42
   3  -7  -5   61.22    3.35
  -4  -7   5   16.82    1.98
   4  -7   5   19.35    2.07
  -4   7   5   20.90    2.32
   4   7   5   12.41    2.24
  -4  -7  -5   15.03    1.70
  -4   7  -5   15.69    1.84
   4   7  -5   14.46    1.41
   4  -7  -5   15.49    2.14
  -5  -7   5   24.63    2.17
  -5   7   5   14.65    1.97
   5  -7   5   18.75    2.11
   5   7   5   24.49    3.02
  -5  -7  -5   15.78    1.92
  -5   7  -5   20.79    2.06
   5   7  -5   18.75    1.59
   5  -7  -5   21.88    2.43
  -6  -7   5    7.75    1.52
  -6   7   5    6.16    1.64
  -6  -7  -5    7.09    1.57
  -6   7  -5    6.66    1.70
   6   7  -5    8.48    1.17
   6  -7  -5   11.01    2.10
   6   7   5    5.82    2.09
   6  -7   5    5.94    1.57
  -7  -7   5  105.80    4.04
  -7   7   5  127.91    4.89
   7  -7   5  132.55    4.62
   7   7   5  138.31    5.50
  -7  -7  -5  121.31    4.58
  -7   7  -5  124.04    4.49
   7   7  -5  114.73    3.43
   7  -7  -5  138.13    5.30
   8  -7   5    1.71    1.34
   8  -7  -5    2.56    1.57
   8   7  -5    1.56    1.43
  -8   7   5    0.58    1.36
  -8  -7  -5    0.23    1.43
   8   7   5   -1.77    1.66
  -8   7  -5    1.30    1.45
  -9  -7   5   25.50    1.85
  -9   7   5   18.81    2.31
   9  -7   5   18.59    2.07
   9   7   5   18.77    2.50
  -9  -7  -5   16.68    2.22
  -9   7  -5   17.30    2.24
   9   7  -5   18.62    2.04
   9  -7  -5   22.29    2.68
  10  -7   5    0.56    1.43
  10  -7  -5   -1.42    1.90
  10   7  -5    1.66    1.28
 -10  -7   5    3.40    1.19
 -10   7   5    4.59    1.78
 -10  -7  -5    3.70    1.73
  10   7   5    2.42    1.87
 -10   7  -5    1.47    1.60
 -11  -7   5   17.93    1.88
 -11   7   5   13.50    2.19
  11  -7   5   23.18    2.34
  11   7   5   18.33    2.54
 -11  -7  -5   19.73    2.63
 -11   7  -5   16.25    2.28
  11   7  -5   14.88    1.92
  11  -7  -5   21.52    2.96
 -12  -7   5   12.07    1.72
 -12   7   5   11.64    2.06
  12   7   5   10.01    2.23
 -12  -7  -5   10.03    2.26
  12   7  -5   15.01    2.05
 -12   7  -5   13.30    2.14
  12  -7  -5   12.43    2.65
  13  -7  -5    1.44    2.01
 -13  -7   5    3.57    1.31
 -13   7   5    0.92    1.40
 -13  -7  -5    2.19    2.15
  13   7   5    5.28    2.18
 -13   7  -5   -0.12    1.72
 -14  -7   5    1.65    1.21
 -14   7   5    1.35    1.37
  14  -7  -5    0.21    1.71
   0   8   5    3.28    1.62
   0  -8  -5    1.44    1.15
   0  -8   5   -0.02    1.36
   0   8  -5   -0.79    1.09
   0  -8  -5    0.45    1.29
  -1  -8   5   90.11    3.86
   1  -8   5   98.77    4.13
  -1   8   5   99.82    4.19
   1   8   5   86.34    3.77
  -1  -8  -5   90.98    3.49
  -1   8  -5   99.54    3.83
  -1  -8  -5  100.93    3.93
   1   8  -5   91.86    3.50
   1  -8  -5   92.11    3.94
  -2  -8   5   17.52    2.05
   2  -8   5   17.20    2.13
  -2   8   5   19.64    2.10
   2   8   5   15.36    2.02
  -2  -8  -5   20.67    1.99
  -2   8  -5   22.71    2.09
   2   8  -5   13.57    1.56
   2  -8  -5   22.31    2.36
  -3  -8   5   18.39    2.07
   3  -8   5   15.92    2.06
  -3   8   5   23.22    2.27
   3   8   5   16.88    2.19
  -3  -8  -5   19.10    2.03
  -3   8  -5   12.08    1.73
   3   8  -5   17.68    1.70
   3  -8  -5   18.30    2.31
  -4  -8   5   34.09    2.59
   4  -8   5   37.42    2.77
  -4   8   5   37.59    2.85
   4   8   5   34.62    2.97
  -4  -8  -5   31.98    2.45
  -4   8  -5   38.88    2.76
   4   8  -5   29.05    2.01
   4  -8  -5   45.52    3.19
  -5  -8   5  159.69    5.06
  -5   8   5  144.12    5.06
   5  -8   5  161.91    5.23
   5   8   5  137.03    5.97
  -5  -8  -5  153.85    4.93
  -5   8  -5  159.96    5.07
   5   8  -5  157.12    4.29
  -6   8   5   11.52    1.85
   6  -8   5   12.00    1.96
  -6  -8  -5    7.35    1.69
  -6   8  -5    8.62    1.81
   6   8  -5    9.09    1.30
   6  -8  -5   13.70    2.15
  -6  -8   5    6.35    1.46
   6   8   5    5.59    2.19
   7  -8   5    5.61    1.67
  -7  -8   5    6.42    1.56
   7  -8  -5    5.56    2.03
  -7   8   5    2.86    1.40
   7   8  -5    5.73    1.09
  -7  -8  -5    4.03    1.54
   7   8   5    1.83    2.07
  -7   8  -5    5.72    1.68
  -8  -8   5  102.75    4.21
  -8   8   5  104.19    4.67
   8  -8   5  115.49    4.53
   8   8   5  104.93    5.03
  -8  -8  -5  105.79    4.57
  -8   8  -5  104.16    4.43
   8  -8  -5  113.94    5.19
  -9   8   5   87.14    4.35
   9  -8   5   78.95    3.91
   9   8   5   75.32    4.29
  -9  -8  -5   63.45    3.71
  -9   8  -5   73.60    4.05
   9   8  -5   64.06    3.49
   9  -8  -5   76.00    4.44
  10  -8   5    1.39    1.49
 -10   8   5   -0.81    1.44
  10   8  -5    0.54    1.26
 -10  -8  -5    2.01    1.59
  10   8   5    4.34    1.95
 -10   8  -5   -0.49    1.57
 -11   8   5   17.50    2.23
  11  -8   5   12.91    1.96
  11   8   5   15.70    2.52
 -11  -8  -5    9.73    2.04
  11   8  -5   13.60    1.93
  11  -8  -5   19.33    2.87
 -11   8  -5    9.21    2.05
  12   8   5   54.84    3.97
 -12  -8  -5   48.33    3.72
  12  -8  -5   47.65    3.92
  13   8  -5   74.14    3.80
  14   8  -5    9.38    1.63
   0   9   5    7.02    1.76
   0  -9   5    3.41    1.52
   0   9  -5    4.80    1.39
  -1  -9   5   35.45    2.73
   1  -9   5   44.87    3.08
  -1   9   5   52.39    3.22
   1   9   5   41.90    2.86
  -1  -9  -5   37.86    2.53
   1  -9  -5   45.88    3.08
  -1   9  -5   36.67    2.60
   1   9  -5   29.88    2.31
   2   9   5    6.90    1.77
  -2   9  -5    9.55    1.71
  -2   9   5    1.38    1.32
  -2  -9  -5    5.63    1.46
   2  -9  -5    6.37    1.66
  -2  -9   5    2.66    1.41
   2  -9   5    4.45    1.58
   2   9  -5    1.05    1.06
  -3  -9   5   37.16    2.72
   3  -9   5   34.86    2.78
  -3   9   5   37.81    2.76
   3   9   5   39.04    2.83
  -3  -9  -5   40.36    2.69
  -3   9  -5   36.95    2.69
   3  -9  -5   48.66    3.40
   3   9  -5   34.37    2.33
  -4  -9   5   13.14    2.02
  -4   9   5   11.89    1.95
   4  -9   5   17.89    2.30
   4   9   5   15.25    2.19
  -4  -9  -5   16.30    2.12
  -4   9  -5   11.78    1.87
   4  -9  -5   20.95    2.60
   4   9  -5   11.67    1.55
   5  -9   5    7.32    1.85
  -5   9  -5    6.42    1.70
  -5   9   5    1.68    1.29
  -5  -9  -5    5.01    1.63
   5   9   5    1.75    1.73
  -5  -9   5   -1.00    1.51
   5  -9  -5    4.27    1.90
   5   9  -5    4.33    1.18
  -6  -9   5    9.02    1.78
  -6   9   5    6.79    1.65
   6   9  -5    7.48    1.30
  -6  -9  -5    8.76    1.72
   6   9   5    7.88    2.38
  -6   9  -5    7.41    1.74
   6  -9  -5   10.37    2.17
   6  -9   5    6.21    1.78
  -7  -9   5   80.90    3.81
  -7   9   5   67.80    3.72
   7  -9   5   90.20    4.26
   7   9   5   86.74    5.29
  -7  -9  -5   90.65    4.27
  -7   9  -5  107.37    4.63
   7  -9  -5   94.66    4.97
   7   9  -5   89.85    3.44
   8  -9   5    1.98    1.55
  -8  -9   5    2.30    1.41
  -8  -9  -5    1.35    1.56
   8   9   5   -1.23    2.21
   8  -9  -5   -0.16    1.82
  -8   9  -5    2.09    1.63
   9  -9   5   -0.81    1.62
  -9  -9  -5    1.45    1.54
   9   9   5    3.20    2.08
   9  -9  -5   -0.16    2.03
  -9   9  -5    2.85    1.59
  10  -9   5    0.72    1.50
  10   9  -5   -1.44    1.53
 -10  -9  -5    2.92    1.65
  10   9   5    0.78    1.79
  10  -9  -5    4.23    2.22
 -10   9  -5   -2.02    1.72
  11  -9   5   15.91    2.22
  11   9   5   17.13    2.64
 -11  -9  -5   22.26    2.68
  11   9  -5   20.03    2.07
 -11   9  -5   14.86    2.43
  11  -9  -5   26.22    3.10
  12  -9   5    3.67    1.33
   0 -10   5   -1.71    1.46
   0  10  -5    0.07    1.24
  -1 -10   5   14.99    2.08
   1 -10   5   18.69    2.33
  -1  10   5   19.10    2.12
   1  10   5   16.72    2.17
   1 -10  -5   15.27    2.04
  -1  10  -5   17.42    2.06
   1  10  -5   18.23    2.00
  -2 -10   5   55.71    3.41
  -2  10   5   65.13    3.47
   2  10   5   52.14    3.16
  -2 -10  -5   60.03    3.32
   2 -10  -5   64.45    3.68
  -2  10  -5   59.46    3.38
   2  10  -5   50.98    3.01
  -3 -10   5   14.80    2.12
   3 -10   5   11.55    2.06
  -3  10   5   11.57    1.77
   3  10   5   13.02    1.91
  -3 -10  -5   10.47    1.80
   3 -10  -5   15.75    2.26
  -3  10  -5   12.69    2.00
   3  10  -5   12.94    1.65
  -4 -10   5   15.96    2.15
   4 -10   5   19.61    2.41
   4  10   5   15.63    2.17
  -4 -10  -5   16.69    2.15
   4 -10  -5   19.13    2.59
  -4  10  -5   21.38    2.38
   4  10  -5   21.24    1.99
  -5 -10   5   32.72    2.79
   5 -10   5   30.41    2.90
   5  10   5   25.12    2.65
  -5 -10  -5   31.73    2.73
   5 -10  -5   30.02    3.05
  -5  10  -5   28.48    2.73
   5  10  -5   20.93    1.88
  -6 -10   5   22.11    2.36
   6 -10   5   23.42    2.65
   6  10   5   22.32    2.86
  -6 -10  -5   23.78    2.59
  -6  10  -5   21.87    2.46
   6 -10  -5   30.55    3.06
   6  10  -5   19.84    1.92
  -7 -10   5   24.16    2.39
   7 -10   5   25.38    2.67
   7  10   5   22.17    3.15
  -7 -10  -5   19.45    2.48
  -7  10  -5   23.73    2.67
   7 -10  -5   25.28    3.01
   7  10  -5   24.40    2.06
  -8 -10   5   27.43    2.50
   8 -10   5   26.35    2.76
   8  10   5   17.97    3.09
  -8 -10  -5   29.70    2.92
  -8  10  -5   24.93    2.78
   8 -10  -5   24.64    3.02
  -9 -10   5   15.87    1.97
   9 -10   5   10.70    2.12
   9  10   5   12.74    2.63
  -9 -10  -5   13.75    2.19
   9 -10  -5   18.78    2.70
  -9  10  -5    8.37    2.12
  10 -10   5   10.52    2.04
  10  10   5   12.15    2.49
  10  10  -5   10.33    2.08
 -10 -10  -5    7.77    1.85
  11 -10   5    1.83    1.09
   0 -11   5   -0.31    1.58
   0  11  -5    3.97    1.52
  -1 -11   5   29.83    2.93
   1 -11   5   37.68    3.10
  -1  11  -5   29.24    2.69
   1  11  -5   31.91    2.58
   2 -11  -5    3.16    1.29
  -2 -11   5    4.15    1.72
  -2  11  -5    1.21    1.40
   2  11  -5    2.62    1.32
   2 -11   5    7.51    1.94
  -3 -11   5   25.12    2.75
   3 -11   5   23.63    2.62
   3  11   5   27.02    2.39
  -3 -11  -5   26.05    2.46
   3 -11  -5   36.24    3.13
  -3  11  -5   25.88    2.57
   3  11  -5   13.95    1.89
  -4 -11   5    7.66    1.84
   4  11   5    8.17    1.79
   4 -11  -5    5.13    1.64
  -4 -11  -5    4.55    1.76
  -4  11  -5    4.11    1.67
   4  11  -5    4.47    1.28
   4 -11   5    7.63    1.96
   5 -11   5   10.53    2.21
   5  11   5   13.67    2.08
  -5 -11  -5    8.87    1.92
   5 -11  -5   13.07    2.24
   5  11  -5    7.05    1.42
  -5 -11   5    3.88    1.36
  -5  11  -5    6.90    1.93
   6 -11  -5    2.03    1.48
  -6 -11  -5    0.28    1.57
  -6 -11   5    1.80    1.47
   6  11   5    2.60    1.60
  -6  11  -5    6.56    1.89
   6  11  -5    1.81    0.95
   6 -11   5   -0.59    1.87
  -7 -11   5   52.20    3.49
   7 -11   5   39.42    3.40
   7  11   5   45.33    3.85
  -7 -11  -5   53.97    3.68
   7 -11  -5   59.53    4.17
  -7  11  -5   41.01    3.28
   7  11  -5   45.00    2.80
   8 -11   5   -0.62    1.42
  -8 -11   5    1.75    1.12
  -8 -11  -5   -1.64    1.20
   8  11   5   -0.80    1.89
   0  12  -5   -0.11    1.44
  -1 -12   5   31.04    3.07
   1 -12   5   41.69    3.35
  -1  12  -5   38.42    3.16
   1  12  -5   39.18    3.00
   2 -12  -5    3.55    1.45
   2  12  -5    6.33    1.72
  -2 -12   5    1.92    1.48
  -2  12  -5    2.85    1.65
   2 -12   5    2.46    1.53
  -3 -12   5    9.80    2.08
   3 -12  -5    8.09    1.41
  -3  12  -5    8.14    2.04
   3  12  -5   10.35    1.84
  -4 -12   5   11.17    2.08
  -4 -12  -5   12.83    2.13
   4  12  -5   12.46    1.72
  -5 -12   5   59.61    3.74
  -5 -12  -5   63.39    3.85
   5 -12  -5   69.69    4.41
   5  12  -5   63.96    3.57
  -6 -12  -5    1.95    1.09
   6  12  -5   -1.50    0.53
   7  12  -5    6.69    1.62
   0   0  -6  574.24    7.86
   0   0  -6  545.43    5.41
  -1   0   6   15.93    1.89
   1   0   6   25.58    2.25
   1   0  -6   21.14    1.78
  -1   0  -6   23.42    1.79
  -1   0  -6   22.39    1.42
  -2   0   6   46.41    2.75
   2   0   6   43.15    2.81
   2   0  -6   48.93    2.62
  -2   0  -6   50.03    2.40
  -2   0  -6   43.05    1.95
  -3   0   6   75.42    3.34
   3   0   6   90.71    3.86
   3   0  -6   80.99    3.31
  -3   0  -6   85.41    3.00
  -3   0  -6   68.86    2.54
  -4   0   6  964.10   11.31
   4   0   6 1002.05   11.69
   4   0  -6  969.37   11.16
  -4   0  -6  968.89    9.43
  -5   0   6    6.19    1.49
  -5   0  -6    4.56    1.22
  -5   0  -6    5.59    1.10
   5   0  -6    5.66    1.45
   5   0   6    3.04    1.49
  -6   0   6   58.56    3.05
   6   0  -6   48.29    2.97
   6   0   6   45.09    3.37
  -6   0  -6   57.90    2.77
  -7   0   6  185.17    5.25
   7   0  -6  170.77    5.45
   7   0   6  181.62    6.31
  -7   0  -6  190.83    4.99
  -8   0   6  116.66    4.31
   8   0  -6  125.65    4.97
   8   0   6  126.00    4.97
  -8   0  -6  137.88    4.49
  -9   0   6   13.37    1.83
   9   0  -6   10.92    2.16
   9   0   6   10.37    1.82
  -9   0  -6   15.89    1.95
  10   0  -6    1.95    1.92
 -10   0   6   -1.46    1.41
  10   0   6    1.58    1.36
 -10   0  -6   -1.15    1.44
 -11   0   6   85.66    3.99
  11   0  -6   77.45    4.69
 -11   0  -6   86.01    4.14
  12   0  -6   34.50    3.47
  12   0   6   32.19    2.68
 -12   0  -6   31.82    2.87
 -13   0   6   11.95    2.07
  13   0  -6   12.23    2.32
  13   0   6   13.00    2.08
 -13   0  -6   14.05    2.29
 -14   0   6    1.20    1.51
  14   0  -6    4.90    1.99
  14   0   6    3.64    1.55
 -14   0  -6    0.79    1.81
  15   0  -6   72.51    4.39
 -15   0   6   63.15    3.95
  15   0   6   66.95    3.92
 -15   0  -6   71.95    4.40
  16   0  -6   -1.87    1.75
  16   0   6   -0.31    1.10
   0   1  -6   -0.75    1.02
   0  -1   6   -0.66    1.16
   0   1   6    1.13    1.43
   0  -1  -6    1.39    1.02
   0  -1  -6    0.62    0.64
   0   1  -6    0.02    0.69
  -1  -1   6   19.63    1.92
  -1   1   6   15.83    1.88
   1  -1   6   17.55    1.94
   1   1   6   29.73    2.50
   1  -1  -6   22.99    1.94
  -1  -1  -6   25.31    1.88
  -1  -1  -6   21.70    1.37
   1   1  -6   21.79    1.87
   1   1  -6   24.38    1.22
  -1   1  -6   24.90    1.52
  -1   1  -6   24.74    1.89
  -2  -1   6   53.11    2.78
  -2   1   6   43.85    2.78
   2  -1   6   64.95    3.34
   2   1   6   62.42    3.26
   2  -1  -6   59.94    2.92
  -2  -1  -6   57.03    2.53
   2   1  -6   62.25    2.85
  -2  -1  -6   56.43    2.16
  -2   1  -6   60.62    2.28
  -2   1  -6   51.14    2.44
  -3  -1   6   86.32    3.39
  -3   1   6   74.87    3.55
   3  -1   6   84.75    3.66
   3   1   6   81.64    3.56
   3  -1  -6   81.19    3.48
  -3  -1  -6   79.07    2.86
   3   1  -6   89.53    3.43
  -3  -1  -6   81.07    2.72
  -3   1  -6   75.42    2.72
  -3   1  -6   83.56    2.99
  -4  -1   6   18.74    1.89
  -4   1   6   11.62    1.75
   4  -1  -6   18.22    2.03
   4  -1   6   17.36    1.92
   4   1   6   15.13    1.98
  -4  -1  -6   14.87    1.45
   4   1  -6   17.85    1.84
  -4  -1  -6   17.89    1.57
  -4   1  -6   17.27    1.59
  -4   1  -6   17.03    1.47
  -5  -1   6  183.21    4.90
  -5   1   6  182.71    5.30
   5  -1  -6  157.02    5.15
   5  -1   6  188.47    5.43
   5   1   6  170.95    5.57
  -5  -1  -6  192.74    4.15
   5   1  -6  169.71    4.86
  -5  -1  -6  176.55    4.41
  -5   1  -6  181.80    4.44
  -5   1  -6  172.85    3.98
  -6  -1   6   98.62    3.73
  -6   1   6  105.31    4.16
   6  -1  -6   91.20    4.30
   6  -1   6   90.50    4.09
   6   1   6   76.79    4.38
   6   1  -6   83.78    3.57
  -6  -1  -6   93.25    3.43
  -6   1  -6   91.36    3.38
   7  -1  -6    0.56    1.66
  -7  -1   6    1.17    1.18
  -7   1   6    2.43    1.47
   7   1  -6    0.83    1.28
   7  -1   6    1.52    1.65
   7   1   6   -0.50    1.74
  -7  -1  -6    1.78    1.16
  -7   1  -6   -0.10    1.17
   8  -1  -6    0.18    1.66
   8   1  -6   -1.56    1.39
  -8  -1   6   -0.95    1.15
  -8   1   6    0.29    1.36
   8  -1   6    3.03    1.69
   8   1   6   -0.02    1.50
  -8  -1  -6    1.42    1.34
  -8   1  -6    0.09    1.19
  -9  -1   6   17.47    2.01
  -9   1   6   20.21    2.24
   9  -1  -6   23.22    2.87
   9   1  -6   17.98    2.20
   9  -1   6   14.56    2.12
   9   1   6   20.57    2.32
  -9  -1  -6   21.61    2.18
  -9   1  -6   23.35    2.24
 -10  -1   6    7.22    1.63
 -10   1   6    9.30    1.88
  10   1  -6    8.01    2.06
  10  -1   6    7.40    1.71
  10   1   6    9.65    1.86
 -10  -1  -6    7.89    1.79
 -10   1  -6   11.95    1.88
  10  -1  -6    9.06    2.13
  11   1  -6    0.97    1.82
 -11  -1   6    1.50    1.40
 -11   1   6    0.94    1.41
  11  -1  -6    4.47    2.00
  11  -1   6    2.20    1.42
  11   1   6    1.77    1.56
 -11  -1  -6    2.54    1.61
 -11   1  -6    1.89    1.56
  12  -1  -6   29.46    3.01
 -12  -1   6   19.65    2.28
 -12   1   6   25.02    2.59
  12   1  -6   19.45    2.98
  12  -1   6   24.22    2.45
  12   1   6   34.51    2.83
 -12  -1  -6   22.55    2.62
 -12   1  -6   24.45    2.57
  13  -1  -6   77.13    4.42
 -13  -1   6   75.23    4.00
 -13   1   6   80.18    4.25
  13   1  -6   86.47    5.12
  13  -1   6   89.25    4.19
  13   1   6   76.79    4.11
 -13  -1  -6   71.68    4.22
 -13   1  -6   73.26    4.14
  14  -1  -6   16.52    2.52
 -14   1   6   11.36    2.19
  14  -1   6   14.06    2.10
  14   1   6    7.62    1.89
 -14  -1  -6   14.99    2.55
 -14   1  -6   13.72    2.37
 -14  -1   6    8.96    1.94
  14   1  -6    6.32    1.91
  15  -1  -6    6.62    2.04
 -15  -1   6    3.53    1.77
 -15   1   6    2.20    1.79
  15   1  -6    5.50    2.00
 -15  -1  -6   -0.31    1.92
  15   1   6    2.57    1.48
 -15   1  -6    2.78    1.87
  16   1   6   10.10    1.93
  16   1  -6    5.50    1.88
  16  -1  -6   10.71    2.21
   0  -2   6  343.22    6.46
   0  -2  -6  323.43    6.56
   0   2   6  365.53    7.42
   0  -2  -6  315.56    5.18
   0   2  -6  333.92    4.59
   0   2  -6  350.60    6.22
  -1  -2   6  143.12    4.24
   1  -2  -6  135.68    4.52
   1  -2   6  112.02    3.78
  -1   2   6  130.43    4.61
  -1  -2  -6  132.12    4.12
   1   2   6  147.47    4.92
  -1  -2  -6  125.86    3.22
  -1   2  -6  128.69    3.09
   1   2  -6  126.86    2.70
   1   2  -6  140.29    4.10
   2  -2   6  113.22    3.57
  -2  -2   6  114.09    3.70
   2  -2  -6  111.26    4.27
  -2   2   6   97.75    4.16
  -2  -2  -6  104.84    3.57
   2   2   6  125.82    4.54
  -2  -2  -6  102.66    3.08
  -2   2  -6  104.61    3.01
   2   2  -6  103.80    2.24
   2   2  -6  114.97    3.85
   3  -2   6   44.87    2.28
  -3  -2   6   49.95    2.57
   3  -2  -6   56.74    3.36
   3  -2   6   48.69    2.84
  -3  -2  -6   47.55    2.41
   3   2   6   46.44    2.80
  -3  -2  -6   51.31    2.36
   3   2  -6   51.88    2.73
  -3   2  -6   55.99    2.37
   4  -2   6    9.53    1.36
  -4  -2   6   14.63    1.59
   4  -2  -6    7.18    1.88
  -4   2   6   10.00    1.70
  -4  -2  -6   16.11    1.54
   4  -2   6   12.31    1.73
   4   2   6   17.26    2.21
  -4  -2  -6   11.43    1.47
   4   2  -6   14.06    1.71
  -4   2  -6    8.84    1.35
   5  -2   6   86.00    2.95
  -5  -2   6   96.20    3.53
  -5   2   6  105.93    4.25
   5  -2   6   96.22    3.79
   5   2   6   88.89    4.36
   5   2  -6   90.50    3.59
  -5  -2  -6   96.74    3.50
  -5   2  -6   98.05    3.37
  -6  -2   6    7.09    1.39
   6  -2  -6    7.91    2.14
   6   2  -6    8.03    1.61
  -6  -2  -6    7.69    1.53
  -6   2  -6    7.89    1.45
  -6   2   6    6.30    1.61
   6  -2   6    4.05    1.05
   6   2   6    3.77    1.92
   7  -2   6   38.51    2.02
  -7  -2   6   50.02    2.75
   7  -2  -6   46.80    3.40
  -7   2   6   36.31    2.74
   7  -2   6   37.04    2.81
   7   2   6   43.92    3.40
   7   2  -6   44.66    2.80
  -7  -2  -6   46.05    2.81
  -7   2  -6   49.58    2.78
   8  -2   6   26.74    1.78
  -8  -2   6   32.73    2.36
   8  -2  -6   22.08    2.59
  -8   2   6   25.42    2.42
   8  -2   6   31.60    2.98
   8   2   6   28.36    2.70
   8   2  -6   26.85    2.32
  -8  -2  -6   30.36    2.50
  -8   2  -6   23.89    2.21
   9  -2  -6   33.11    2.85
  -9  -2   6   46.04    2.80
  -9   2   6   38.70    2.92
   9   2  -6   39.74    2.93
   9  -2   6   51.24    3.45
   9   2   6   40.36    3.00
  -9  -2  -6   46.44    3.08
  -9   2  -6   37.94    2.70
  10  -2  -6   97.78    4.57
 -10  -2   6   93.80    3.98
 -10   2   6  109.51    4.60
  10   2  -6   97.16    4.33
  10  -2   6  105.36    4.46
  10   2   6  110.83    4.67
 -10  -2  -6  112.73    4.68
 -10   2  -6   96.32    4.13
  11   2   6    7.02    1.94
  11   2  -6    7.14    1.90
  11  -2  -6    3.89    1.77
 -11  -2   6    5.64    1.58
 -11   2   6    4.89    1.84
  11  -2   6    6.72    1.59
 -11  -2  -6    4.64    1.84
 -11   2  -6    3.92    1.54
 -12  -2   6   15.06    2.15
 -12   2   6   12.87    2.20
  12   2  -6    7.46    2.12
  12   2   6    9.13    2.03
 -12  -2  -6    9.49    2.18
  12  -2  -6    5.79    1.96
 -12   2  -6    6.67    1.89
  13   2  -6    4.23    1.98
  13  -2  -6    3.72    1.85
 -13  -2   6    3.71    1.68
 -13   2   6    2.10    1.63
 -13  -2  -6    6.80    2.13
  13   2   6    2.95    1.85
 -13   2  -6    0.52    1.51
 -14  -2   6   42.19    3.25
 -14   2   6   32.48    3.14
  14   2  -6   31.32    3.38
  14   2   6   29.94    2.97
 -14  -2  -6   39.48    3.60
 -14   2  -6   30.54    3.04
  14  -2  -6   39.17    3.36
 -15  -2   6   13.44    2.19
 -15   2   6   17.68    2.55
  15   2  -6   17.64    2.77
  15   2   6   22.46    2.73
 -15  -2  -6   18.43    2.87
 -15   2  -6   17.14    2.57
  15  -2  -6   19.16    2.78
  16   2  -6   18.86    2.46
  16  -2  -6    7.28    1.88
   0  -3  -6   -0.43    1.38
   0  -3   6   -0.66    0.96
   0  -3   6   -1.36    1.16
   0   3   6   -0.40    1.41
   0   3  -6   -0.35    0.78
  -1  -3   6   18.32    1.80
   1  -3   6   15.11    1.63
   1  -3  -6   11.33    1.81
  -1  -3  -6   15.89    1.97
  -1  -3   6   18.24    1.64
   1  -3   6   17.64    1.74
  -1   3   6   18.47    2.24
   1   3   6   18.68    2.19
  -1  -3  -6   12.87    1.32
  -1   3  -6   18.50    1.47
   1   3  -6   18.59    1.32
   2  -3   6   31.08    2.06
   2  -3  -6   29.10    2.56
  -2  -3  -6   35.12    2.60
  -2  -3   6   37.03    2.17
  -2   3   6   29.50    2.59
   2  -3   6   32.69    2.16
   2   3   6   35.79    2.67
  -2  -3  -6   33.03    2.34
  -2   3  -6   33.44    1.88
   2   3  -6   32.45    1.50
   2   3  -6   29.96    2.18
   3  -3   6   60.53    2.68
   3  -3  -6   66.98    3.56
  -3  -3  -6   61.19    3.04
  -3  -3   6   67.53    2.81
  -3   3   6   48.09    3.02
   3  -3   6   54.04    2.81
   3   3   6   64.34    3.23
  -3  -3  -6   58.70    2.83
  -3   3  -6   57.59    2.49
   3   3  -6   62.95    3.05
   4  -3   6   12.74    1.46
   4  -3  -6   16.34    2.13
  -4  -3  -6   21.90    1.66
  -4  -3   6   16.46    1.59
  -4   3   6   11.81    1.85
   4  -3   6   13.17    1.69
   4   3   6   12.90    2.01
  -4  -3  -6   10.24    1.48
  -4   3  -6   18.83    1.67
   4   3  -6   12.73    1.74
   5  -3   6  137.64    3.79
   5  -3  -6  141.38    4.89
  -5  -3   6  143.32    4.12
  -5   3   6  131.46    4.77
   5  -3   6  156.72    4.77
   5   3   6  137.04    5.51
  -5  -3  -6  144.22    4.52
   5   3  -6  149.94    4.61
  -5   3  -6  153.79    4.28
   6  -3   6   57.66    2.60
   6  -3  -6   71.11    3.64
  -6  -3   6   65.43    2.94
  -6   3   6   76.85    3.88
   6  -3   6   69.74    3.26
   6   3   6   68.66    4.33
  -6  -3  -6   62.32    3.19
   6   3  -6   64.72    3.20
  -6   3  -6   67.03    3.07
   7   3  -6    1.21    1.36
  -7  -3   6    3.13    1.22
  -7   3   6    1.20    1.52
   7  -3  -6    0.47    1.50
   7  -3   6    0.21    1.27
   7  -3   6   -1.20    0.96
   7   3   6    3.53    2.01
  -7  -3  -6   -1.20    1.38
  -7   3  -6    1.21    1.29
   8   3  -6    0.80    1.34
   8  -3  -6    3.41    1.58
  -8  -3   6    0.28    1.12
  -8   3   6    1.02    1.53
   8  -3   6    0.87    0.86
   8   3   6    4.14    1.91
  -8  -3  -6    0.71    1.42
  -8   3  -6    0.77    1.26
   9  -3  -6   15.34    2.09
  -9  -3   6   22.13    2.09
  -9   3   6   12.84    2.05
   9   3   6   16.72    2.27
   9   3  -6   23.35    2.28
  -9  -3  -6   18.60    2.36
  -9   3  -6   21.44    2.30
 -10  -3   6    9.12    1.73
  10   3   6   12.00    2.26
  10  -3  -6    3.49    1.67
 -10   3   6    7.20    1.84
  10   3  -6    5.73    1.61
 -10  -3  -6    7.86    1.93
  11  -3  -6    1.33    1.56
  11   3  -6   -0.02    1.55
 -11  -3   6   -0.07    1.29
 -11   3   6    2.27    1.74
 -11  -3  -6   -0.17    1.53
 -11   3  -6    3.15    1.71
 -12  -3   6   20.82    2.29
 -12   3   6   20.38    2.51
  12   3  -6   23.05    2.53
  12   3   6   25.65    2.83
 -12  -3  -6   20.05    2.67
  12  -3  -6   26.66    2.84
 -13  -3   6   64.33    3.75
  13   3  -6   67.24    4.42
  13   3   6   71.35    4.27
 -13   3  -6   71.86    4.06
  13  -3  -6   73.27    4.35
 -14  -3   6   15.02    2.22
 -14   3   6   15.78    2.34
  14   3  -6    6.45    2.07
  14   3   6   17.56    2.63
 -14  -3  -6   13.71    2.64
 -14   3  -6   12.28    2.34
  14  -3  -6   14.81    2.77
 -15  -3   6    2.99    1.60
 -15   3   6    3.51    1.95
 -15  -3  -6   10.34    2.38
  15   3   6    2.17    1.73
 -15   3  -6    4.46    1.81
  15  -3  -6    7.95    2.40
  15   3  -6    2.67    1.01
   0  -4   6  390.43    6.95
   0  -4  -6  384.80    6.84
   0  -4   6  395.80    6.00
  -1  -4   6   15.81    1.83
   1  -4   6   19.54    1.85
  -1  -4  -6   18.79    1.78
   1  -4  -6   14.85    1.76
  -1  -4   6   21.02    1.64
   1  -4   6   17.43    1.54
   1   4   6   19.30    2.23
  -1  -4  -6   16.17    1.37
  -1   4  -6   16.94    1.49
   1   4  -6   21.00    1.52
  -2  -4   6   27.53    2.18
  -2  -4  -6   35.29    2.21
   2  -4  -6   32.55    2.42
   2  -4   6   27.92    2.08
  -2  -4   6   34.63    1.99
   2  -4   6   31.54    1.94
  -2   4   6   26.95    2.44
   2   4   6   33.40    2.60
  -2  -4  -6   34.18    2.03
  -2   4  -6   28.02    1.86
   2   4  -6   30.53    1.66
  -3  -4   6   59.51    3.08
  -3  -4  -6   51.46    2.44
   3  -4  -6   57.96    3.08
   3  -4   6   62.58    2.88
  -3  -4   6   65.96    2.67
  -3   4   6   60.66    3.45
   3  -4   6   66.52    2.75
  -3  -4  -6   48.06    2.59
  -3   4  -6   54.48    2.55
   3   4  -6   57.95    2.11
   4  -4  -6  687.97   10.01
   4  -4   6  686.14    8.85
  -4  -4   6  712.82    8.59
   4   4   6  673.64   10.82
  -4   4  -6  729.73    9.04
   4   4  -6  688.74    9.60
   5  -4   6    5.51    1.28
   5   4  -6    1.85    1.18
   5  -4  -6    4.68    1.51
  -5  -4   6    1.80    1.06
  -5   4   6    1.17    1.39
   5   4   6    3.05    1.74
  -5  -4  -6    4.20    1.77
  -5   4  -6    3.39    1.28
   6  -4  -6   37.34    2.72
   6  -4   6   38.82    2.32
  -6  -4   6   39.78    2.32
  -6   4   6   32.32    2.76
   6   4   6   39.88    3.59
  -6  -4  -6   34.16    2.88
   6   4  -6   41.80    2.72
  -6   4  -6   38.48    2.51
   7  -4  -6  133.20    4.78
  -7  -4   6  147.55    4.36
   7  -4   6  140.86    4.00
  -7   4   6  138.43    5.26
  -7  -4  -6  146.16    5.43
   7   4  -6  138.05    4.68
  -7   4  -6  138.83    4.50
   8  -4  -6  100.80    4.23
  -8  -4   6  112.36    4.02
   8  -4   6  102.15    3.50
  -8   4   6  108.16    4.78
   8   4   6  106.58    4.93
  -8  -4  -6  114.02    5.05
   8   4  -6  109.32    4.26
  -8   4  -6  103.48    4.08
   9  -4   6    6.91    1.32
  -9   4   6    8.65    1.99
   9   4   6   11.94    2.17
   9   4  -6   14.30    1.99
  -9  -4  -6   12.51    2.38
  -9   4  -6   11.86    1.95
  -9  -4   6    6.73    1.41
   9  -4  -6   12.75    2.02
  10   4  -6    0.33    1.32
  10  -4  -6    2.40    1.65
 -10  -4   6   -0.60    1.25
 -10   4   6    1.28    1.62
 -10  -4  -6    2.50    1.67
  10   4   6    4.68    1.96
 -10   4  -6    5.09    1.76
 -11  -4   6   66.87    3.46
 -11   4   6   71.75    4.12
  11   4  -6   63.32    3.59
  11   4   6   67.14    4.06
 -11  -4  -6   71.79    4.63
 -11   4  -6   64.07    3.74
  11  -4  -6   75.83    4.21
 -12  -4   6   34.54    2.81
 -12   4   6   34.47    3.17
  12   4  -6   27.83    2.72
  12   4   6   32.39    3.18
 -12  -4  -6   36.11    3.59
 -12   4  -6   32.76    2.99
  12  -4  -6   34.23    3.25
 -13  -4   6    9.47    1.84
  13   4  -6   12.78    2.17
  13   4   6   14.96    2.58
 -13   4  -6   10.12    2.05
 -13   4   6    7.54    2.11
 -13  -4  -6    5.50    2.07
  13  -4  -6   16.41    2.55
  14  -4  -6    0.62    1.69
  14   4  -6    3.32    1.61
 -14  -4   6    0.99    1.39
 -14   4   6    2.90    1.91
 -14  -4  -6    3.64    2.39
  14   4   6    4.09    2.14
 -14   4  -6   -2.02    1.72
 -15   4   6   55.20    3.96
  15   4  -6   47.56    4.19
   0  -5  -6   -0.41    1.15
   0   5   6    0.81    1.54
   0  -5   6    0.32    1.26
   0   5  -6    0.23    0.92
  -1  -5   6   16.34    1.91
   1  -5   6   24.68    2.15
  -1   5   6   25.93    2.61
   1   5   6   22.93    2.34
  -1  -5  -6   17.34    1.38
  -1   5  -6   21.94    1.82
   1   5  -6   19.92    1.63
  -1  -5  -6   22.16    1.87
   1  -5  -6   21.82    1.92
  -2  -5   6   54.47    2.97
   2  -5   6   46.08    2.70
  -2  -5   6   56.32    2.37
  -2   5   6   62.54    3.40
   2   5   6   54.76    3.18
  -2  -5  -6   50.03    2.29
  -2   5  -6   56.57    2.67
   2   5  -6   58.84    2.41
  -2  -5  -6   64.20    2.80
  -3  -5   6   52.98    2.91
   3  -5   6   55.14    2.97
  -3  -5   6   60.39    2.51
  -3   5   6   58.81    3.47
   3   5   6   58.82    3.22
  -3  -5  -6   50.28    2.49
  -3   5  -6   64.62    2.90
   3   5  -6   53.54    2.24
  -4  -5   6    9.96    1.69
  -4  -5   6   14.48    1.46
   4  -5   6    7.84    1.53
  -4   5   6    8.81    1.96
   4   5   6   12.32    2.08
  -4  -5  -6    7.79    1.39
  -4   5  -6   10.26    1.60
   4  -5  -6   15.26    1.97
  -5  -5   6  126.53    3.81
   5  -5   6  112.83    3.90
  -5   5   6   94.18    4.29
   5   5   6   96.04    4.80
  -5  -5  -6  110.28    4.19
  -5   5  -6  123.11    4.16
   5   5  -6  119.83    4.30
   5  -5  -6  118.56    4.35
  -6  -5   6   78.15    3.13
   6  -5   6   72.63    3.20
  -6   5   6   58.44    3.53
   6   5   6   58.99    4.35
  -6  -5  -6   68.93    3.67
  -6   5  -6   78.37    3.54
   6   5  -6   72.19    3.44
   6  -5  -6   74.90    3.66
   7  -5  -6    2.31    1.65
   7   5  -6   -0.39    1.28
  -7  -5   6    2.60    1.09
  -7   5   6    1.08    1.67
  -7  -5  -6   -1.85    1.33
   7  -5   6    0.33    1.11
  -7   5  -6    1.73    1.38
   8  -5  -6   -0.81    1.75
  -8  -5   6   -1.09    1.12
  -8   5   6    0.89    1.63
  -8  -5  -6    5.79    1.93
   8   5   6    1.77    1.96
   8  -5   6   -0.11    1.14
  -8   5  -6    1.50    1.40
   8   5  -6   -0.42    1.28
  -9  -5   6   17.34    1.89
  -9   5   6   13.74    2.34
   9  -5   6   12.77    1.63
   9   5   6   17.22    2.57
  -9  -5  -6   15.43    2.48
   9   5  -6   11.25    1.79
  -9   5  -6   18.39    2.23
   9  -5  -6   16.47    2.42
 -10  -5   6    6.59    1.47
 -10   5   6   10.10    2.11
  10  -5   6    8.47    1.30
  10  -5  -6    9.74    2.12
  10   5   6    9.77    2.15
  10   5  -6   11.69    1.85
 -10  -5  -6    7.40    2.14
 -10   5  -6    5.90    1.73
  11   5  -6    2.98    1.63
  11  -5  -6    1.34    1.76
 -11  -5   6   -0.13    1.27
 -11   5   6    2.32    1.74
 -11  -5  -6    3.66    2.29
  11   5   6    0.93    1.81
 -11   5  -6    2.31    1.64
 -12  -5   6   13.26    1.98
 -12   5   6   16.90    2.58
  12   5  -6   17.49    2.26
  12   5   6   19.01    2.71
 -12  -5  -6   24.95    3.63
 -12   5  -6   20.77    2.62
  12  -5  -6   16.67    2.62
 -13  -5   6   55.18    3.42
 -13   5   6   65.81    4.23
  13   5  -6   61.58    3.92
  13   5   6   57.46    4.19
 -13  -5  -6   54.10    4.71
 -13   5  -6   54.80    3.76
  13  -5  -6   60.88    4.35
 -14  -5   6   13.20    1.99
 -14   5   6   14.78    2.39
  14  -5  -6    7.39    2.26
  14   5  -6   14.09    2.11
 -14   5  -6    8.94    2.07
 -14  -5  -6    5.81    2.30
   0  -6   6  157.31    4.96
   0  -6  -6  158.72    4.58
  -1  -6   6   74.81    3.49
   1  -6   6   72.67    3.50
  -1   6   6   85.60    4.15
   1   6   6   67.19    3.58
  -1   6  -6   72.19    3.08
   1   6  -6   85.93    3.17
  -1  -6  -6   87.91    3.46
   1  -6  -6   77.25    3.38
  -2  -6   6   61.27    3.26
   2  -6   6   55.93    3.15
  -2   6   6   67.60    3.58
   2   6   6   61.73    3.48
  -2  -6  -6   48.48    2.35
  -2   6  -6   59.80    2.93
   2   6  -6   63.68    2.70
  -2  -6  -6   67.75    2.96
   2  -6  -6   60.48    3.17
  -3  -6   6   27.22    2.34
   3  -6   6   25.40    2.23
  -3   6   6   30.68    2.68
   3   6   6   24.13    2.37
  -3  -6  -6   29.25    2.09
  -3   6  -6   28.98    2.26
   3   6  -6   28.52    1.94
   3  -6  -6   35.06    2.64
  -4  -6   6    8.39    1.67
  -4   6   6    5.85    1.88
   4  -6  -6    5.48    1.70
  -4  -6  -6    5.90    1.27
  -4   6  -6    5.63    1.54
   4   6   6    7.74    1.91
   4  -6   6    3.22    1.38
  -5  -6   6   49.39    3.00
   5  -6   6   52.67    2.98
  -5   6   6   53.28    3.41
   5   6   6   51.30    3.64
  -5  -6  -6   54.02    2.96
  -5   6  -6   59.26    3.12
   5  -6  -6   53.69    3.20
   6  -6  -6    6.50    1.71
  -6   6   6    1.40    1.38
   6   6  -6    5.80    1.67
   6   6   6    5.88    2.13
  -6  -6  -6    4.90    1.57
   6  -6   6    4.30    1.43
  -6   6  -6    3.84    1.51
  -7  -6   6   23.75    1.94
   7  -6   6   33.46    2.50
  -7   6   6   18.76    2.33
   7   6   6   27.61    3.39
  -7  -6  -6   28.33    2.58
  -7   6  -6   29.29    2.51
   7   6  -6   28.05    2.50
   7  -6  -6   26.09    2.56
  -8  -6   6   11.13    1.55
  -8   6   6   13.39    2.20
   8  -6   6   15.19    1.94
  -8   6  -6   12.76    2.06
   8   6  -6   13.56    1.96
   8   6   6    9.22    2.43
   8  -6  -6   12.56    2.22
  -9  -6   6   26.76    2.27
  -9   6   6   30.85    3.04
   9  -6   6   31.90    2.38
   9   6   6   30.51    3.27
  -9  -6  -6   34.43    3.08
   9   6  -6   28.47    2.58
  -9   6  -6   26.04    2.53
   9  -6  -6   28.35    2.89
 -10  -6   6   65.47    3.42
 -10   6   6   62.57    3.98
  10  -6   6   60.43    3.17
  10   6   6   62.65    4.27
 -10  -6  -6   58.48    3.98
  10   6  -6   62.40    3.52
 -10   6  -6   57.42    3.55
  10  -6  -6   71.50    4.35
  11  -6  -6    7.10    2.38
  11   6  -6    5.95    1.62
 -11  -6   6    0.86    1.12
 -11   6   6    4.50    1.90
 -11  -6  -6    7.38    2.08
  11   6   6    3.73    1.90
 -11   6  -6    4.85    1.86
 -12  -6   6   15.65    2.02
 -12   6   6   13.55    2.31
  12  -6  -6    7.19    2.40
  12   6  -6   11.16    2.01
 -12  -6  -6   13.94    2.64
 -12   6  -6   14.35    2.38
  13  -6  -6    0.53    1.84
 -13  -6   6    1.93    1.13
 -13   6   6   -1.28    1.95
  13   6  -6   -0.42    1.58
 -13  -6  -6    2.70    2.24
  13   6   6    2.93    1.93
 -13   6  -6    0.68    1.58
 -14  -6   6   19.29    2.12
 -14   6   6   23.84    2.65
   0  -7  -6   -0.47    1.25
   0   7   6    0.75    1.58
   0  -7   6    0.87    1.41
   0   7  -6    0.22    1.14
  -1  -7   6    9.25    1.72
   1  -7   6   11.73    1.88
  -1  -7  -6    5.77    1.40
  -1   7   6   14.38    2.18
   1   7   6   10.85    1.90
  -1   7  -6   11.97    1.70
   1   7  -6   12.01    1.62
   1  -7  -6   15.42    2.10
  -2  -7   6    9.26    1.83
   2  -7   6   16.13    2.06
  -2   7   6    9.18    1.86
   2   7   6   14.41    2.12
  -2  -7  -6   16.02    1.60
  -2   7  -6   12.61    1.75
   2   7  -6   16.72    1.67
   2  -7  -6   17.71    2.15
  -3  -7   6   31.25    2.58
   3  -7   6   35.09    2.72
  -3   7   6   28.37    2.66
   3   7   6   29.93    2.56
  -3  -7  -6   29.52    2.12
  -3   7  -6   31.40    2.44
   3   7  -6   26.25    2.01
   3  -7  -6   37.54    2.93
  -4  -7   6    7.73    1.70
   4  -7   6    9.08    1.81
  -4   7   6    8.60    1.97
  -4  -7  -6    9.67    1.51
  -4   7  -6    7.99    1.71
   4   7  -6    6.72    1.12
   4   7   6    5.57    1.81
   4  -7  -6   10.83    2.06
  -5  -7   6   76.31    3.72
   5  -7   6   84.43    3.92
  -5   7   6   78.34    4.07
  -5  -7  -6   83.08    3.62
  -5   7  -6   76.57    3.65
   5  -7  -6   78.95    4.07
  -6  -7   6   24.23    2.39
   6  -7   6   29.61    2.62
  -6   7   6   20.90    2.41
   6   7   6   28.31    3.24
  -6  -7  -6   31.49    2.45
  -6   7  -6   27.98    2.53
   6  -7  -6   28.85    2.73
   7   7  -6    1.98    1.67
  -7   7   6    0.57    1.40
  -7  -7  -6    0.99    1.32
   7   7   6    2.76    2.42
  -7   7  -6    2.87    1.78
   7  -7   6   -0.48    1.29
   8  -7  -6    0.26    1.81
   8   7  -6    0.47    1.37
  -8   7   6    1.38    1.60
  -8  -7  -6    0.72    1.47
   8   7   6    1.20    2.03
  -8   7  -6    2.18    1.52
   8  -7   6    1.17    1.37
  -9   7   6   14.22    2.32
   9  -7   6   17.07    2.15
  -9  -7  -6   11.08    2.01
   9   7  -6   18.03    2.25
  -9   7  -6   14.01    2.24
   9  -7  -6   18.83    2.55
   9   7   6    8.02    2.32
 -10   7   6    3.11    1.66
  10  -7  -6    7.57    2.19
 -10  -7  -6    6.18    2.01
  10   7  -6    5.78    1.47
  10   7   6    4.07    2.13
 -10   7  -6    3.78    1.61
  10  -7   6    3.93    1.57
  11  -7  -6   -0.42    1.89
  11   7  -6    3.48    1.58
 -11   7   6    1.82    1.91
 -11  -7  -6    3.24    1.89
  11   7   6    3.14    2.26
 -11   7  -6   -1.57    1.69
 -12   7   6   19.58    2.62
  12   7   6   12.80    2.58
  12   7  -6   14.00    2.07
 -12  -7  -6   14.77    2.52
 -12   7  -6   11.72    2.19
  12  -7  -6   12.04    2.49
 -13   7   6   51.58    3.98
  13   7  -6   44.10    3.13
   0  -8   6  176.41    5.65
   0   8   6  175.85    5.49
   0   8  -6  190.60    5.26
  -1  -8   6   11.02    1.90
   1  -8   6   12.18    1.99
  -1   8   6   11.95    2.12
   1   8   6   11.05    1.95
  -1   8  -6   13.71    1.81
   1   8  -6   14.75    1.77
   1  -8  -6   12.59    1.91
  -2  -8   6   13.67    2.02
   2  -8   6   17.00    2.23
  -2   8   6   13.06    2.03
   2   8   6   13.75    2.12
  -2   8  -6   15.85    1.96
   2   8  -6   14.66    1.74
   2  -8  -6   16.94    2.17
  -3  -8   6   29.57    2.67
   3  -8   6   36.85    2.93
   3   8   6   31.22    2.75
  -3  -8  -6   36.52    2.50
  -3   8  -6   32.33    2.53
   3   8  -6   29.76    2.15
   3  -8  -6   35.58    2.91
  -4  -8   6  294.54    7.25
  -4   8   6  292.54    7.49
   4   8   6  284.48    7.17
  -4  -8  -6  287.57    6.53
  -4   8  -6  304.47    7.08
   4   8  -6  301.55    6.16
   5  -8  -6   -0.09    1.55
  -5   8   6   -0.29    1.46
  -5  -8   6    2.18    1.54
  -5  -8  -6    0.15    1.24
   5   8   6    0.68    1.79
   5  -8   6    2.91    1.79
  -5   8  -6    0.54    1.58
  -6  -8   6   13.54    2.05
   6  -8   6   11.53    2.08
  -6   8   6   18.43    2.43
   6   8   6   11.08    2.47
  -6  -8  -6   11.82    1.76
  -6   8  -6   15.93    2.16
   6  -8  -6   13.28    2.26
  -7  -8   6   91.16    4.28
  -7   8   6   74.36    4.22
   7  -8   6   81.49    4.15
   7   8   6   87.03    5.51
  -7  -8  -6   73.28    3.78
  -7   8  -6   79.75    4.07
   7  -8  -6   75.64    4.34
  -8   8   6   37.99    3.22
   8  -8   6   57.00    3.47
   8   8   6   42.40    4.39
  -8  -8  -6   52.62    3.38
  -8   8  -6   47.43    3.39
   8   8  -6   47.96    3.34
   8  -8  -6   64.96    4.16
   9   8  -6    2.05    1.60
   9  -8  -6    3.31    2.01
  -9  -8  -6    8.44    1.86
  -9   8   6    5.24    1.68
   9   8   6    0.50    2.10
  -9   8  -6    2.68    1.87
   9  -8   6    6.19    1.84
  10  -8  -6   -1.53    1.90
  10   8  -6    1.23    1.11
 -10   8   6   -0.62    1.29
 -10  -8  -6    3.69    1.66
  10   8   6    4.98    2.56
 -10   8  -6    2.18    1.77
  10  -8   6    1.79    1.46
 -11   8   6   39.65    3.23
  11  -8   6   42.15    3.05
  11   8   6   33.98    3.47
 -11  -8  -6   42.04    3.42
  11   8  -6   38.38    3.02
 -11   8  -6   37.47    3.20
 -12   8   6   20.64    2.33
  12   8  -6   11.69    1.80
   0   9   6    0.38    1.45
   0  -9   6    1.29    1.73
   0   9  -6   -0.15    1.23
  -1  -9   6   15.22    2.34
   1  -9   6   17.72    2.33
  -1   9   6   17.11    2.19
   1   9   6   12.20    2.14
  -1   9  -6   15.34    1.99
   1   9  -6   17.27    1.99
   1  -9  -6   13.17    2.07
  -2  -9   6   36.27    2.99
   2  -9   6   28.54    2.71
  -2   9   6   40.49    3.03
   2   9   6   44.47    3.14
  -2   9  -6   41.30    2.89
   2   9  -6   34.06    2.51
   2  -9  -6   46.27    3.18
  -3  -9   6   31.50    2.81
   3  -9   6   29.00    2.78
  -3   9   6   30.00    2.71
   3   9   6   40.98    3.18
  -3   9  -6   31.32    2.67
   3   9  -6   30.08    2.25
   3  -9  -6   35.28    2.90
   4  -9   6    7.15    2.00
  -4   9   6    5.49    1.77
   4   9   6    5.71    1.81
  -4  -9   6    1.68    1.43
  -4  -9  -6    5.24    1.41
  -4   9  -6    5.09    1.61
   4   9  -6    3.02    1.12
   4  -9  -6    6.37    1.83
  -5  -9   6   54.22    3.50
   5  -9   6   55.90    3.61
  -5   9   6   68.07    3.79
   5   9   6   47.64    3.55
  -5  -9  -6   56.74    3.31
  -5   9  -6   54.06    3.45
   5  -9  -6   70.07    4.07
  -6  -9   6   38.50    3.02
  -6   9   6   46.29    3.38
   6  -9   6   41.08    3.30
   6   9   6   43.61    3.63
  -6  -9  -6   42.25    2.99
  -6   9  -6   39.45    3.12
   6  -9  -6   45.96    3.50
  -7   9   6    3.22    1.50
  -7  -9   6   -1.19    1.31
   7   9   6    2.16    1.97
  -7   9  -6    0.60    1.50
   7  -9   6    0.79    1.56
   7  -9  -6   -1.18    1.61
  -8   9   6    3.61    1.32
  -8  -9  -6    2.44    1.57
   8   9   6    4.86    2.17
  -8   9  -6   -1.56    1.82
   8  -9   6   -0.71    1.47
   8  -9  -6    3.98    1.77
   9   9  -6    9.97    1.96
  -9   9  -6   13.72    2.32
  -9  -9  -6    4.46    1.62
   9   9   6   12.39    3.04
   9  -9   6    9.37    1.74
  10  -9   6    8.08    1.99
  10   9  -6    8.99    1.75
 -10  -9  -6    6.22    1.69
  10   9   6    8.19    2.08
  11   9  -6    6.49    1.33
  11  -9   6    3.33    1.05
   0 -10   6   49.38    3.56
   0  10   6   49.53    3.35
  -1 -10   6   20.43    2.56
   1 -10   6   22.91    2.65
  -1  10   6   30.15    2.66
   1  10   6   31.14    2.70
  -1  10  -6   31.61    2.65
   1  10  -6   26.63    2.45
  -2 -10   6   19.68    2.61
   2 -10   6   22.81    2.65
  -2  10   6   21.74    2.36
   2  10   6   17.34    2.30
   2 -10  -6   19.66    2.38
  -2  10  -6   18.17    2.29
   2  10  -6   14.20    1.89
  -3 -10   6   16.88    2.41
   3 -10   6   11.85    2.17
  -3  10   6   19.96    2.32
   3  10   6   17.03    2.28
  -3  10  -6   17.15    2.21
   3 -10  -6   20.00    2.47
   3  10  -6   10.07    1.65
  -4  10   6    0.58    1.15
   4  10   6    0.30    1.52
  -4 -10   6    1.52    1.73
   4 -10  -6    1.87    1.44
   4 -10   6    1.40    1.63
  -4  10  -6    4.21    1.81
   4  10  -6   -0.27    0.83
  -5 -10   6   23.26    2.63
   5 -10   6   22.18    2.74
   5  10   6   19.30    2.41
  -5  10  -6   24.21    2.64
   5 -10  -6   27.64    2.87
  -6 -10   6    3.92    1.53
  -6 -10  -6    0.57    1.29
   6  10   6   -0.15    1.63
   6 -10  -6    5.62    1.91
  -6  10  -6    3.25    1.81
   6 -10   6    0.26    1.75
  -7 -10   6   11.71    1.88
   7 -10   6   14.61    2.34
   7  10   6   13.54    2.55
  -7 -10  -6   14.46    2.21
  -7  10  -6   13.10    2.29
   7 -10  -6   14.41    2.37
  -8 -10  -6    4.69    1.72
   8  10   6    0.69    1.67
   8 -10   6    1.26    1.36
   9  10  -6    7.84    2.13
  -9 -10  -6   17.57    2.00
   0 -11   6   -1.21    1.50
   0  11  -6    0.73    1.29
   1  11   6    7.00    1.39
  -1 -11   6    7.75    1.87
   1 -11   6    1.81    1.49
  -1  11  -6    3.33    1.44
   1  11  -6    4.46    1.28
   2  11   6    1.79    1.25
  -2 -11   6    4.16    1.81
   2 -11   6    6.14    1.95
   2  11  -6    0.93    1.11
   3 -11   6   11.27    2.24
   3 -11  -6   13.26    1.88
  -3  11  -6    9.53    1.84
   3  11  -6   11.41    1.73
   3  11   6    7.83    1.76
  -3 -11   6    7.37    1.80
   4 -11  -6    2.70    1.18
   4  11   6    2.39    1.56
  -4 -11   6   -0.24    1.57
  -4  11  -6   -0.29    1.55
   4  11  -6    5.09    1.05
   5  11   6   29.27    2.80
   5 -11  -6   39.72    3.15
   6  11   6    9.35    1.92
  -6 -11  -6   10.13    1.53
  -7 -11  -6    4.79    1.16
   0   0  -7   -1.59    1.30
   0   0   7    2.68    1.47
   1   0   7  113.33    4.70
  -1   0  -7  112.94    3.93
   2   0   7   63.43    3.55
   2   0  -7   73.55    3.44
  -2   0  -7   69.48    3.10
  -2   0  -7   77.49    2.72
  -3   0   7  221.14    6.13
   3   0  -7  209.28    5.73
  -3   0  -7  223.72    5.17
  -3   0  -7  223.47    4.75
  -4   0   7   28.94    2.54
   4   0   7   37.93    2.83
   4   0  -7   33.68    2.64
  -4   0  -7   41.12    2.31
  -4   0  -7   38.15    2.26
  -5   0   7   28.65    2.61
   5   0   7   30.73    2.50
   5   0  -7   33.76    2.76
  -5   0  -7   36.13    2.32
  -6   0   7   28.53    2.58
   6   0   7   25.06    2.38
  -6   0  -7   25.56    2.14
  -7   0   7   33.66    2.74
   7   0  -7   29.49    2.82
   7   0   7   35.78    2.96
  -7   0  -7   29.97    2.43
  -8   0   7  119.21    4.80
   8   0   7  115.54    5.28
  -8   0  -7  123.90    4.54
  -9   0   7    8.46    1.90
   9   0  -7    2.88    1.96
  -9   0  -7    7.43    1.76
 -10   0   7   32.05    2.87
  10   0  -7   25.14    3.13
 -10   0  -7   28.94    2.69
 -11   0   7   39.27    3.18
  11   0  -7   43.61    3.86
 -11   0  -7   43.67    3.29
 -12   0   7   81.05    4.40
  12   0   7   90.28    4.88
 -12   0  -7   88.38    4.54
 -13   0   7    5.10    1.98
  13   0  -7   -0.19    1.89
  13   0   7    3.33    1.48
 -13   0  -7    1.40    1.67
  14   0  -7   -0.06    1.67
  14   0   7    6.14    1.85
 -14   0  -7    3.20    1.87
  15   0   7    0.45    1.49
   0   1   7  108.69    4.51
   0  -1  -7  110.62    4.14
   0   1  -7  107.61    3.92
  -1  -1   7   30.37    2.48
  -1   1   7   33.81    2.86
   1  -1   7   26.56    2.36
   1   1   7   33.91    2.85
   1  -1  -7   33.90    2.60
  -1  -1  -7   28.71    2.24
   1   1  -7   34.44    2.43
  -1   1  -7   31.38    2.29
  -2  -1   7   28.56    2.37
  -2   1   7   22.39    2.35
   2  -1   7   30.90    2.67
   2   1   7   37.31    3.02
   2  -1  -7   28.11    2.42
  -2  -1  -7   31.51    2.25
   2   1  -7   29.06    2.31
  -2   1  -7   28.15    1.74
  -2   1  -7   31.73    2.24
  -3  -1   7   12.63    1.84
  -3   1   7   13.37    1.85
   3  -1   7   17.52    2.23
   3   1   7   17.15    2.14
   3  -1  -7   11.43    1.90
  -3  -1  -7   17.93    1.78
   3   1  -7   18.30    2.03
  -3  -1  -7   17.09    1.55
  -3   1  -7   15.19    1.47
  -3   1  -7   17.58    1.80
  -4  -1   7   86.22    3.88
   4  -1  -7   72.78    3.85
   4  -1   7   87.50    4.03
   4   1   7   85.61    4.06
  -4  -1  -7   82.45    3.22
   4   1  -7   81.49    3.72
  -4  -1  -7   82.47    3.13
  -4   1  -7   75.15    2.96
  -4   1  -7   80.38    3.14
   5  -1  -7    1.72    1.50
  -5   1  -7    0.41    1.01
  -5  -1   7    2.01    1.45
  -5   1   7    3.35    1.61
   5  -1   7    4.36    1.55
   5   1   7    3.60    1.56
  -5  -1  -7    1.68    1.24
  -5   1  -7    3.11    1.21
   5   1  -7    0.96    1.35
   6  -1  -7    2.86    1.84
  -6  -1   7    2.57    1.40
  -6   1   7    3.46    1.68
   6   1  -7    1.30    1.46
   6  -1   7    1.29    1.29
   6   1   7    1.18    1.48
  -6  -1  -7    0.36    1.16
  -6   1  -7    3.57    1.33
  -7  -1   7   21.99    2.29
  -7   1   7   12.70    2.07
   7  -1  -7   15.90    2.62
   7  -1   7   15.66    2.11
   7   1   7   14.29    2.36
   7   1  -7   14.95    2.20
  -7  -1  -7   13.58    1.88
  -7   1  -7   15.40    1.82
  -8  -1   7   36.09    2.73
  -8   1   7   32.53    2.90
   8  -1  -7   30.00    3.29
   8   1  -7   39.14    3.03
   8  -1   7   33.72    2.99
   8   1   7   39.08    3.43
  -8  -1  -7   35.03    2.72
  -8   1  -7   34.63    2.53
   9   1  -7    0.40    1.58
  -9  -1   7    1.14    1.52
  -9   1   7    3.49    1.64
   9  -1   7    0.69    1.70
   9   1   7    1.23    1.70
  -9  -1  -7    1.66    1.52
  -9   1  -7   -0.50    1.46
 -10  -1   7   63.70    3.65
 -10   1   7   58.12    3.74
  10  -1  -7   58.23    4.22
  10   1  -7   53.10    3.94
  10  -1   7   61.73    4.37
  10   1   7   61.61    4.33
 -10  -1  -7   63.16    3.76
 -10   1  -7   54.48    3.39
 -11  -1   7   34.83    2.92
  11  -1  -7   33.91    3.18
 -11   1   7   43.91    3.47
  11   1  -7   33.81    3.50
  11  -1   7   34.35    3.38
  11   1   7   31.04    3.19
 -11  -1  -7   37.64    3.11
 -11   1  -7   37.59    3.05
  12  -1  -7   31.74    3.20
 -12  -1   7   27.01    2.76
 -12   1   7   22.14    2.66
  12   1  -7   24.13    3.28
  12  -1   7   32.11    3.15
  12   1   7   34.45    3.21
 -12  -1  -7   28.25    2.98
 -12   1  -7   28.94    2.96
 -13  -1   7    2.58    1.52
  13  -1  -7    0.67    1.93
 -13   1   7    1.88    1.66
  13   1   7    1.18    1.51
 -13  -1  -7    2.07    2.02
 -13   1  -7    1.30    1.66
  13   1  -7    3.08    2.08
  14  -1  -7    0.44    1.58
  14   1   7    1.73    1.38
  14   1  -7   -0.72    1.61
 -14  -1  -7    3.16    2.06
 -14   1  -7    2.01    1.56
   0  -2  -7    0.52    1.39
   0   2  -7   -0.71    1.23
   0  -2   7    0.66    1.21
   0   2   7    0.32    1.57
  -1  -2   7   10.81    1.73
  -1   2   7   12.19    2.04
  -1  -2  -7    9.67    1.81
   1  -2  -7    6.17    1.75
  -1   2  -7   11.48    1.18
   1   2  -7    8.30    1.51
  -1   2  -7    6.40    1.50
   1  -2   7    7.29    1.54
   1   2   7    5.13    1.67
  -2  -2   7  141.72    4.57
   2  -2  -7  150.81    5.63
  -2   2   7  138.82    5.10
  -2  -2  -7  157.36    4.98
   2   2   7  158.43    5.42
   2   2  -7  153.34    4.82
  -2   2  -7  143.58    3.65
  -2   2  -7  153.72    4.44
  -3  -2   7   11.09    1.69
   3  -2  -7   10.70    2.23
  -3   2   7    8.62    1.93
  -3  -2  -7   10.03    1.67
   3  -2   7   16.65    2.09
   3   2   7   12.23    2.00
  -3  -2  -7   11.79    1.44
   3   2  -7   10.85    1.76
  -3   2  -7   13.43    1.45
  -3   2  -7   10.53    1.63
   4  -2  -7   10.46    2.20
  -4  -2   7   12.13    1.79
  -4   2   7    5.05    1.80
   4  -2   7   11.46    1.96
   4   2  -7    9.57    1.82
  -4  -2  -7    9.79    1.51
  -4   2  -7   12.28    1.52
  -4   2  -7    7.84    1.37
   4   2   7    8.31    1.69
   5  -2  -7    7.65    2.23
  -5  -2   7   10.81    1.79
   5   2  -7    7.44    1.60
   5  -2   7   11.13    1.92
  -5  -2  -7    6.96    1.44
  -5   2  -7    9.78    1.57
  -5   2   7    6.33    1.76
  -5   2  -7    6.86    1.33
   5   2   7    5.49    1.70
  -6  -2   7   71.24    3.48
   6  -2  -7   71.53    4.48
  -6   2   7   63.56    3.80
   6  -2   7   79.47    3.93
   6   2   7   75.03    4.01
   6   2  -7   62.82    3.45
  -6  -2  -7   74.29    3.57
  -6   2  -7   78.72    3.39
  -7  -2   7   74.54    3.55
   7  -2  -7   67.28    4.21
  -7   2   7   88.29    4.41
   7  -2   7   83.78    3.85
   7   2   7   70.93    4.18
   7   2  -7   75.63    3.81
  -7  -2  -7   82.94    3.92
  -7   2  -7   82.03    3.60
   8   2  -7    6.18    1.86
  -8  -2   7    4.61    1.56
  -8   2   7    5.01    1.83
   8  -2   7    2.39    1.46
   8   2   7    4.06    1.91
  -8  -2  -7    5.55    1.71
   8  -2  -7    4.16    1.86
  -8   2  -7    5.82    1.54
   9  -2  -7   59.44    3.79
  -9  -2   7   77.96    3.84
  -9   2   7   72.06    4.10
   9   2  -7   74.65    4.03
   9  -2   7   68.82    3.91
   9   2   7   60.07    4.44
  -9  -2  -7   68.97    3.94
  -9   2  -7   64.20    3.49
  10  -2  -7   57.02    3.84
 -10  -2   7   63.30    3.57
 -10   2   7   75.63    4.34
  10   2  -7   67.73    4.06
  10   2   7   70.24    4.84
 -10  -2  -7   73.74    4.17
 -10   2  -7   58.61    3.48
  11  -2  -7    6.59    2.06
  11   2  -7    5.21    2.05
 -11  -2   7    0.59    1.45
 -11   2   7    2.02    1.71
  11   2   7    5.34    1.95
 -11  -2  -7    3.80    1.86
 -11   2  -7    1.55    1.44
 -12  -2   7    6.11    1.76
  12   2  -7    2.31    1.88
  12  -2  -7    5.44    1.95
 -12   2   7    0.66    1.78
  12   2   7    5.01    1.95
 -12  -2  -7    0.16    1.80
 -12   2  -7    5.49    1.98
  13  -2  -7   46.25    3.59
 -13  -2   7   46.74    3.37
 -13   2   7   53.28    3.98
  13   2  -7   45.28    4.21
  13   2   7   57.65    4.11
 -13  -2  -7   51.00    3.97
 -13   2  -7   48.09    3.71
 -14  -2  -7   17.70    2.58
  14   2  -7   12.72    2.22
  14  -2  -7   10.23    1.99
   0  -3  -7  100.87    4.52
   0  -3   7  105.52    3.88
   0   3  -7  103.32    3.91
   1  -3  -7   24.96    2.60
  -1  -3  -7   29.47    2.71
   1  -3   7   24.40    2.10
  -1   3   7   23.20    2.43
   1   3   7   35.48    2.95
  -1   3  -7   24.42    1.63
   1   3  -7   31.02    2.41
   2  -3   7   22.56    2.05
   2  -3  -7   25.90    2.66
  -2  -3  -7   26.21    2.49
  -2  -3   7   28.19    2.25
  -2   3   7   20.77    2.45
   2  -3   7   24.06    2.20
   2   3   7   26.35    2.68
  -2   3  -7   22.44    1.70
   2   3  -7   28.79    2.42
   3  -3   7   17.67    1.84
   3  -3  -7   11.80    2.08
  -3  -3  -7   23.39    1.90
  -3  -3   7   19.38    1.90
  -3   3   7   17.52    2.31
   3  -3   7   12.86    1.75
   3   3   7   14.96    2.17
  -3   3  -7   14.50    1.54
   3   3  -7   18.24    2.07
   4  -3   7   69.18    3.04
   4  -3  -7   80.72    4.23
  -4  -3   7   85.34    3.56
  -4   3   7   62.01    3.67
   4  -3   7   71.93    3.53
   4   3   7   68.80    3.60
  -4  -3  -7   74.02    3.50
   4   3  -7   86.80    3.91
  -4   3  -7   76.09    3.14
  -5  -3   7    2.64    1.38
   5   3  -7    2.39    1.42
  -5   3   7    1.17    1.37
   5  -3   7    1.17    1.08
   5  -3   7    0.56    1.35
   5   3   7    3.91    1.69
   5  -3  -7    3.74    1.64
  -5  -3  -7    0.37    1.20
  -5   3  -7    1.94    1.21
   6   3  -7    5.28    1.62
  -6  -3   7    2.92    1.32
  -6   3   7   -0.22    1.41
   6  -3  -7    3.36    1.72
   6  -3   7    4.29    1.19
   6   3   7    0.55    1.55
  -6  -3  -7    1.60    1.38
  -6   3  -7    1.57    1.24
   7  -3   7   15.99    1.68
   7  -3  -7   14.54    2.17
  -7  -3   7   14.28    1.87
  -7   3   7   10.81    2.09
   7   3   7   14.87    2.50
   7   3  -7    9.08    1.84
  -7  -3  -7   16.67    2.28
  -7   3  -7   12.62    1.87
   8  -3  -7   34.82    2.96
  -8  -3   7   33.15    2.57
  -8   3   7   33.83    3.11
   8   3   7   25.63    3.24
   8   3  -7   35.49    2.90
  -8  -3  -7   32.56    2.89
  -8   3  -7   33.32    2.62
   9  -3  -7   -0.31    1.60
  -9  -3   7    0.85    1.33
  -9   3   7    1.77    1.84
   9   3   7   -0.26    1.95
  -9  -3  -7   -0.74    1.70
   9   3  -7   -2.02    1.55
  -9   3  -7   -1.06    1.56
 -10  -3   7   49.88    3.23
 -10   3   7   55.44    3.86
  10   3  -7   51.63    3.49
  10   3   7   50.32    4.22
 -10  -3  -7   47.03    3.65
 -10   3  -7   53.44    3.43
  11  -3  -7   25.03    2.67
 -11  -3   7   32.91    2.71
 -11   3   7   37.24    3.31
  11   3  -7   25.34    2.71
  11   3   7   29.63    3.36
 -11  -3  -7   23.60    2.99
 -11   3  -7   29.27    2.83
 -12  -3   7   26.80    2.69
 -12   3   7   31.95    3.21
  12   3  -7   29.39    3.08
  12   3   7   24.29    3.05
 -12  -3  -7   30.16    3.39
 -12   3  -7   24.34    2.70
  12  -3  -7   24.75    2.73
  13   3  -7    3.28    2.02
  13  -3  -7   -1.55    1.66
 -13  -3   7    0.21    1.26
 -13   3   7    2.59    1.78
  13   3   7    2.59    1.77
 -13  -3  -7   -0.29    1.93
 -13   3  -7   -2.24    1.65
  14   3  -7   16.37    2.45
   0  -4  -7    1.65    1.35
   0  -4   7    0.50    1.04
   0  -4   7   -0.54    1.29
   0   4   7    2.05    1.67
   1  -4   7   84.07    3.56
  -1  -4  -7   85.32    3.57
   1  -4  -7   78.37    3.65
  -1  -4   7   81.39    3.26
   1  -4   7   92.34    3.38
  -1   4   7   86.19    4.16
   1   4   7   93.80    4.37
  -1   4  -7   87.40    3.03
   2  -4   7   54.66    2.99
  -2  -4  -7   55.28    2.83
   2  -4  -7   61.74    3.34
  -2  -4   7   57.55    2.80
  -2   4   7   69.36    4.00
   2   4   7   60.18    3.53
  -2   4  -7   58.51    2.61
   2   4  -7   60.40    3.25
   3  -4   7  144.07    4.48
   3  -4  -7  156.82    5.12
  -3  -4   7  163.63    4.56
  -3   4   7  155.86    5.62
   3   4   7  158.44    5.57
  -3   4  -7  164.59    4.42
   3   4  -7  165.92    5.21
   4  -4   7   26.36    2.19
   4  -4  -7   28.15    2.51
  -4  -4   7   32.01    2.23
  -4   4   7   27.30    2.77
   4   4   7   28.82    2.59
  -4  -4  -7   23.78    2.14
  -4   4  -7   29.49    2.23
   4   4  -7   29.84    2.56
   5  -4  -7   25.45    2.49
   5  -4   7   25.74    2.09
  -5  -4   7   25.59    2.07
  -5   4   7   18.89    2.41
   5   4   7   31.10    2.76
  -5  -4  -7   23.88    2.52
   5   4  -7   21.81    2.25
  -5   4  -7   24.00    2.19
   6  -4  -7   22.93    2.39
   6  -4   7   18.18    1.85
  -6  -4   7   21.21    1.98
  -6   4   7   12.33    2.12
   6   4   7   23.43    2.74
  -6  -4  -7   20.37    2.72
   6   4  -7   20.50    2.30
  -6   4  -7   22.69    2.16
   7  -4  -7   25.68    2.55
   7  -4   7   18.33    1.88
  -7  -4   7   26.51    2.22
  -7   4   7   22.99    2.72
   7   4   7   23.52    2.99
  -7  -4  -7   23.05    2.79
   7   4  -7   19.29    2.25
  -7   4  -7   29.86    2.51
   8  -4  -7   73.98    3.94
   8  -4   7   87.04    3.44
  -8  -4   7   91.11    3.85
  -8   4   7   87.17    4.74
   8   4   7   90.93    5.43
   8   4  -7   83.28    4.06
  -8  -4  -7   91.62    4.98
  -8   4  -7   94.26    4.10
   9   4  -7    7.75    1.88
  -9  -4   7    8.13    1.58
   9  -4  -7    5.33    1.88
  -9   4  -7   10.73    2.02
  -9   4   7    5.76    2.08
   9   4   7    3.12    2.21
  -9  -4  -7    4.81    2.13
 -10  -4   7   26.02    2.29
 -10   4   7   26.83    2.95
  10   4   7   25.54    3.47
  10   4  -7   22.39    2.52
 -10  -4  -7   23.80    3.01
 -10   4  -7   28.45    2.77
  10  -4  -7   20.96    2.55
 -11  -4   7   29.47    2.61
 -11   4   7   22.71    2.82
  11   4  -7   31.95    3.02
  11   4   7   31.39    3.58
 -11  -4  -7   26.85    3.23
 -11   4  -7   39.22    3.27
  11  -4  -7   31.68    3.05
 -12  -4   7   64.28    3.69
 -12   4   7   61.24    4.40
  12   4  -7   60.94    3.98
  12   4   7   72.44    4.93
 -12  -4  -7   69.83    5.06
 -12   4  -7   63.28    3.94
  12  -4  -7   62.90    4.17
 -13  -4   7    2.40    1.14
 -13   4   7    2.92    1.67
 -13  -4  -7   -0.26    2.01
 -13   4  -7    2.54    1.63
  14   4  -7    4.35    1.97
   0  -5   7   65.00    3.36
   0   5   7   70.17    3.92
   0   5  -7   59.75    2.65
   0  -5  -7   71.78    3.23
  -1  -5   7   14.98    2.00
   1  -5   7   16.12    2.06
  -1   5   7   18.09    2.32
   1   5   7   20.70    2.47
  -1   5  -7   16.97    1.77
  -1  -5  -7   20.60    1.94
   1  -5  -7   19.47    2.01
  -2  -5   7   18.64    2.23
   2  -5   7   26.43    2.34
  -2   5   7   20.83    2.57
   2   5   7   25.29    2.62
  -2   5  -7   22.18    1.90
   2  -5  -7   22.19    2.09
   3  -5   7   10.76    1.74
   3   5   7   13.58    2.23
  -3   5  -7   12.70    1.68
   3   5  -7   16.26    2.13
   3  -5  -7    9.73    1.68
   4  -5   7   50.91    2.95
  -4  -5   7   56.10    2.60
  -4   5   7   57.13    3.69
   4   5   7   51.27    3.31
  -4   5  -7   46.90    2.72
   4   5  -7   47.25    3.13
   4  -5  -7   50.58    3.05
   5   5  -7    3.18    1.51
   5  -5  -7   -0.94    1.32
  -5  -5   7    1.66    1.02
  -5   5   7    0.16    1.50
   5   5   7   -0.02    1.56
   5  -5   7    0.03    1.19
  -5  -5  -7    1.19    1.15
  -5   5  -7   -2.04    1.31
   6   5  -7   -0.10    1.24
   6  -5  -7    0.96    1.43
  -6  -5   7   -0.85    1.17
  -6   5   7    0.79    1.52
   6   5   7    1.07    1.65
   6  -5   7   -1.18    1.28
  -6  -5  -7    2.15    1.52
  -6   5  -7   -0.37    1.33
   7  -5   7    9.44    1.65
  -7  -5   7   10.56    1.62
  -7   5   7    8.00    2.00
   7   5   7   10.82    2.39
  -7  -5  -7    9.59    2.03
   7   5  -7    8.50    1.74
  -7   5  -7   13.46    1.96
   7  -5  -7    9.97    2.02
  -8  -5   7   24.61    2.16
   8  -5   7   20.90    2.08
  -8   5   7   17.73    2.47
   8   5   7   20.33    3.00
  -8  -5  -7   20.86    2.62
   8   5  -7   24.33    2.47
   8  -5  -7   22.12    2.59
   9   5  -7    0.88    1.52
   9  -5  -7    0.69    1.71
  -9  -5   7   -0.80    1.22
  -9   5   7   -0.29    1.69
   9   5   7    5.43    2.74
  -9  -5  -7    0.12    1.62
  -9   5  -7    2.70    1.65
 -10  -5   7   50.74    3.13
 -10   5   7   62.35    4.19
  10   5   7   51.48    4.64
  10   5  -7   42.64    3.21
 -10  -5  -7   58.57    4.53
 -10   5  -7   59.72    3.75
  10  -5  -7   58.17    4.02
 -11  -5   7   31.63    2.62
 -11   5   7   22.25    2.90
  11   5   7   27.40    3.55
  11   5  -7   25.14    2.66
 -11  -5  -7   28.00    3.38
 -11   5  -7   25.23    2.87
  11  -5  -7   25.22    2.87
 -12  -5   7   24.32    2.49
 -12   5   7   21.92    2.87
  12   5  -7   20.28    2.61
  12   5   7   18.69    2.84
 -12  -5  -7   19.17    3.02
 -12   5  -7   20.37    2.64
  12  -5  -7   20.56    2.62
 -13  -5   7    6.57    1.16
  13   5  -7   -0.40    0.92
   0  -6  -7    1.92    1.29
   0   6   7    1.14    1.67
   0  -6   7    0.83    1.31
   0   6  -7    1.08    1.09
   1  -6  -7    2.17    1.46
  -1   6   7    2.10    1.49
  -1  -6   7    3.08    1.51
   1   6   7    4.96    1.75
   1  -6   7    1.80    1.42
  -1   6  -7    4.50    1.28
  -2  -6   7   83.82    4.00
   2  -6   7   78.74    3.76
  -2   6   7   84.25    4.28
   2   6   7   86.79    4.23
  -2   6  -7   80.86    3.45
  -3  -6   7    9.04    1.86
   3  -6  -7    5.08    1.55
  -3   6   7    5.77    1.74
   3   6   7    4.26    1.76
   3  -6   7    4.14    1.60
  -3   6  -7    6.99    1.55
   4  -6   7    6.72    1.72
  -4   6   7    7.20    2.07
   4   6   7    5.18    1.78
   4  -6  -7    8.19    1.85
  -4   6  -7    4.31    1.43
   5  -6   7    8.90    1.81
   5  -6  -7    6.53    1.84
  -5  -6  -7    4.72    1.27
   5   6  -7    7.31    1.85
  -5   6   7    3.66    1.80
   5   6   7    5.90    1.94
  -5   6  -7    3.36    1.38
   6  -6   7   36.70    2.75
  -6   6   7   44.17    3.48
   6   6   7   41.57    3.47
  -6  -6  -7   38.04    2.70
  -6   6  -7   39.83    2.91
   6   6  -7   44.91    3.17
   6  -6  -7   40.10    3.13
   7  -6   7   41.56    2.83
  -7   6   7   38.89    3.31
   7   6   7   38.53    3.62
  -7  -6  -7   39.64    3.03
   7   6  -7   35.28    2.86
  -7   6  -7   36.22    2.88
   7  -6  -7   40.00    3.14
   8  -6  -7    0.63    1.56
  -8   6   7    0.16    1.48
   8   6   7   -0.27    2.26
  -8  -6  -7    2.45    1.47
   8  -6   7    2.85    1.53
   8   6  -7    5.41    1.67
  -8   6  -7    2.98    1.59
   9  -6   7   37.92    2.71
  -9   6   7   32.38    3.26
   9   6   7   34.40    4.08
  -9  -6  -7   37.15    3.11
   9   6  -7   43.21    3.22
  -9   6  -7   37.27    3.08
   9  -6  -7   44.99    3.39
 -10   6   7   33.02    3.31
  10   6   7   42.05    4.39
  10   6  -7   36.74    3.06
 -10  -6  -7   38.75    3.35
 -10   6  -7   38.20    3.18
  10  -6  -7   46.74    3.68
  11   6  -7    1.31    1.41
  11  -6  -7    0.35    1.70
 -11   6   7   -1.08    1.84
 -11  -6  -7    0.39    1.52
  11   6   7    5.77    2.34
 -11   6  -7   -0.57    1.53
 -12   6   7   -1.38    1.13
 -12  -6  -7    2.55    1.26
  12   6  -7    0.53    1.15
   0  -7   7   55.85    3.47
   0   7   7   61.66    3.84
   0   7  -7   67.42    3.19
   0  -7  -7   70.44    3.40
  -1  -7   7   14.28    2.13
   1  -7   7   18.02    2.29
  -1   7   7   14.88    2.24
   1   7   7   21.14    2.51
  -1   7  -7   18.73    2.06
   1  -7  -7   17.35    2.19
  -2  -7   7    9.50    2.04
   2  -7   7   11.39    2.07
  -2   7   7   11.37    2.20
   2   7   7   14.17    2.25
  -2   7  -7   14.53    1.87
   2  -7  -7   11.04    1.97
  -3  -7   7    9.39    1.95
   3  -7   7   11.19    2.03
  -3   7   7   18.82    2.43
   3   7   7    9.50    2.07
  -3   7  -7   12.15    1.80
   3  -7  -7   15.61    2.22
   4  -7   7   56.36    3.47
  -4   7   7   53.63    3.69
   4   7   7   46.14    3.38
  -4   7  -7   54.64    3.22
   4  -7  -7   54.83    3.47
   5  -7  -7    4.89    1.95
  -5   7   7    2.47    1.80
   5   7   7    2.05    1.57
   5  -7   7    3.53    1.69
  -5   7  -7    2.89    1.57
   6   7  -7    0.79    1.65
  -6  -7  -7    5.05    1.47
  -6   7   7    1.91    1.67
   6   7   7   -0.13    1.76
   6  -7   7    3.40    1.58
  -6   7  -7    3.74    1.60
   7  -7   7    9.96    1.93
  -7   7   7   10.70    2.25
   7   7   7   13.62    2.64
  -7  -7  -7   17.01    2.03
  -7   7  -7   14.86    2.25
   7   7  -7   13.03    2.13
   7  -7  -7   16.16    2.54
   8  -7   7   27.30    2.51
  -8   7   7   19.73    2.65
   8   7   7   27.57    3.66
   8   7  -7   24.36    2.49
  -8   7  -7   27.55    2.70
   8  -7  -7   24.62    2.87
  -9   7   7    0.28    1.45
   9   7   7   -3.25    2.84
  -9  -7  -7    3.62    1.51
   9  -7   7   -1.80    1.33
   9   7  -7   -0.05    1.46
  -9   7  -7   -1.59    1.63
 -10   7   7   15.46    2.37
  10   7   7   15.68    3.20
 -10  -7  -7   17.70    2.34
  10   7  -7   20.96    2.41
 -10   7  -7   24.87    2.76
  10  -7  -7   28.91    3.05
 -11   7   7   17.02    2.23
 -11  -7  -7   22.05    2.66
   0   8   7   -0.63    1.66
   0  -8   7   -1.61    1.58
   0   8  -7   -0.87    1.27
  -1  -8   7   44.76    3.30
   1  -8   7   35.21    3.03
  -1   8   7   36.95    2.99
   1   8   7   36.43    3.00
  -1   8  -7   37.41    2.66
   1  -8  -7   38.79    2.74
  -2  -8   7   44.58    3.34
   2  -8   7   48.62    3.39
  -2   8   7   46.49    3.33
   2   8   7   40.52    3.29
  -2   8  -7   42.67    2.90
   2  -8  -7   40.60    2.91
  -3  -8   7   77.75    4.19
   3  -8   7   75.20    4.19
  -3   8   7   75.48    4.15
   3   8   7   74.41    4.17
  -3   8  -7   72.33    3.72
   3  -8  -7   72.29    3.82
  -4  -8   7   17.68    2.31
   4  -8   7   10.98    2.23
  -4   8   7   17.61    2.45
   4   8   7   13.90    2.43
  -4   8  -7   14.06    2.06
   4  -8  -7   18.24    2.29
  -5  -8   7   13.33    2.22
   5  -8   7   12.46    2.13
  -5   8   7   21.13    2.61
   5   8   7   14.89    2.29
  -5   8  -7   11.30    2.02
   5  -8  -7   18.90    2.44
   6  -8   7   20.32    2.46
  -6   8   7   19.55    2.61
   6   8   7   19.14    2.70
  -6   8  -7   20.11    2.37
   6   8  -7   20.39    2.61
   6  -8  -7   20.44    2.44
   7  -8  -7    6.41    1.92
   7  -8   7   14.51    2.24
  -7   8   7   13.56    2.42
   7   8   7   13.47    2.77
  -7  -8  -7   14.80    1.85
  -7   8  -7   13.74    2.17
   7   8  -7   11.82    2.33
   8  -8   7   54.93    3.57
  -8   8   7   48.50    3.67
   8   8   7   37.92    3.79
  -8  -8  -7   50.31    3.30
  -8   8  -7   40.38    3.30
   8   8  -7   42.99    3.39
   8  -8  -7   55.98    3.78
  -9   8   7   10.87    2.12
  -9   8  -7    9.29    1.94
  -9  -8  -7    5.09    1.57
   9  -8   7    6.26    1.72
 -10   8   7    9.75    1.64
 -10  -8  -7   11.88    1.68
   0  -9   7   34.72    3.16
   0   9   7   29.79    2.86
   0   9  -7   37.02    2.75
  -1  -9   7    7.57    2.06
   1  -9   7    7.74    2.10
  -1   9   7    6.11    1.77
   1   9   7    7.72    1.86
  -1   9  -7    4.10    1.47
   2  -9   7   13.80    2.36
  -2   9   7   12.33    2.24
   2   9   7    9.80    2.18
  -2   9  -7   11.86    1.93
   2  -9  -7    9.95    1.64
  -2  -9   7    6.31    1.99
   3  -9  -7    7.58    1.73
  -3   9   7    4.30    1.61
  -3  -9   7    3.41    1.60
   3   9   7    5.64    2.00
   3  -9   7    4.54    1.99
  -3   9  -7    6.02    1.74
  -4  -9   7   29.94    2.90
   4  -9   7   29.02    3.04
  -4   9   7   29.10    2.81
   4   9   7   28.40    2.95
  -4   9  -7   23.38    2.49
   5  -9  -7    0.52    1.45
  -5   9   7   -0.32    1.60
  -5  -9   7    1.45    1.44
   5   9   7    2.62    1.97
   5  -9   7    3.48    1.88
  -5   9  -7   -0.28    1.49
   6  -9  -7    2.13    1.61
  -6   9   7    1.42    1.37
  -6  -9   7    3.47    1.74
   6   9   7    2.67    1.75
   6  -9   7   -1.61    1.69
  -6   9  -7    3.89    1.71
  -7   9  -7    6.54    1.89
  -7   9   7    6.89    1.94
   7   9  -7    6.26    2.02
   7  -9  -7    8.70    1.86
   7   9   7    7.12    2.08
   7  -9   7    4.02    1.60
   8  -9   7   18.38    2.18
  -8   9   7   15.07    2.26
  -9   9   7   -2.38    1.43
  -9  -9  -7    3.87    1.18
   0  10   7    0.23    1.34
   0 -10   7    3.11    1.87
   0  10  -7    2.48    1.40
  -1  10   7    1.60    1.54
   1  10   7    0.84    1.55
   1 -10   7    1.19    1.73
  -1  10  -7    0.88    1.25
   2 -10   7   29.47    3.05
  -2  10   7   29.91    2.68
   2  10   7   27.69    2.75
  -2  10  -7   32.86    2.69
  -3  10   7    4.58    1.58
   3  10   7    2.04    1.88
  -3  10  -7    1.00    1.42
  -4  10   7    2.35    1.36
   4  10   7    0.68    1.39
  -4  10  -7   -1.20    1.33
  -5  10   7    9.45    1.61
   5  10   7    9.01    1.96
  -5  10  -7    7.22    1.45
   5 -10  -7    7.07    1.37
   0  11   7   31.88    2.53
   0  11  -7   26.01    2.21
   1  11   7   11.35    1.51
  -1  11  -7    8.73    1.52
   2  11   7    3.47    1.26
   0   0   8  189.66    6.25
   0   0  -8  206.52    5.86
   1   0   8  122.34    4.94
   1   0  -8  128.41    4.78
  -1   0  -8  130.82    4.61
   2   0  -8    2.26    1.51
  -2   0   8    1.62    1.28
   2   0   8    4.11    1.84
  -2   0  -8    2.93    1.30
  -3   0  -8    3.54    1.28
   3   0  -8    0.38    1.55
  -3   0   8    2.84    1.53
   3   0   8   -0.73    1.67
   4   0   8   83.00    4.24
   4   0  -8   78.14    4.14
  -5   0   8   25.63    2.66
   5   0   8   27.80    2.72
   5   0  -8   21.65    2.60
  -6   0   8   30.76    2.91
   6   0  -8   34.32    3.26
   6   0   8   41.02    3.12
  -6   0  -8   35.07    2.41
  -7   0   8   10.41    2.01
   7   0   8   10.10    2.02
   7   0  -8    1.91    2.00
  -7   0  -8    5.11    1.58
  -8   0   8   80.43    4.43
   8   0   8   73.46    3.94
  -8   0  -8   73.45    3.70
  -9   0   8   53.02    3.76
   9   0   8   51.19    3.57
 -10   0   8   43.70    3.51
  10   0  -8   41.59    4.12
  10   0   8   47.38    3.66
 -10   0  -8   45.52    3.24
 -11   0   8   19.84    2.54
  11   0  -8   22.94    3.15
  11   0   8   19.78    2.43
  12   0   8   21.47    2.50
 -12   0  -8   22.61    2.79
  13   0   8   13.51    2.95
   0  -1  -8    0.23    1.41
   0  -1   8   -0.96    1.37
   0   1   8   -0.80    1.55
  -1  -1   8    7.23    1.77
  -1  -1  -8    7.64    1.75
   1   1  -8    7.74    1.70
  -1   1  -8    9.08    1.63
   1  -1  -8    6.15    1.71
  -1   1   8    4.34    1.74
   1  -1   8    6.38    1.77
   1   1   8    4.82    1.88
  -2  -1   8   86.36    4.22
  -2   1   8   81.86    4.35
   2  -1   8   94.60    4.33
   2   1   8  106.04    4.83
   2  -1  -8   90.41    4.41
  -2  -1  -8   91.42    4.06
   2   1  -8  102.05    4.39
  -2   1  -8  101.34    3.98
   3  -1  -8    5.84    1.88
  -3   1  -8    2.83    1.07
  -3  -1  -8    3.50    1.32
  -3  -1   8    4.64    1.76
  -3   1   8    5.07    1.70
   3  -1   8    4.50    1.71
   3   1   8    4.71    1.87
   3   1  -8    3.49    1.63
   4  -1  -8   -0.33    1.63
  -4   1  -8    2.19    1.14
  -4  -1   8    1.73    1.48
  -4   1   8    0.66    1.37
   4  -1   8    3.29    1.57
   4   1   8    4.00    1.78
   4   1  -8    0.02    1.46
   5  -1  -8    7.01    2.33
  -5   1  -8    9.43    1.10
  -5  -1   8    0.17    1.41
  -5   1   8   -2.03    1.65
   5   1  -8    1.45    1.46
   5  -1   8    4.16    1.62
   5   1   8    2.17    1.44
  -6  -1   8   39.25    3.04
  -6   1   8   31.03    2.98
   6  -1   8   35.17    2.80
   6   1   8   35.51    2.98
   6   1  -8   34.18    3.08
  -6  -1  -8   36.90    2.60
  -6   1  -8   34.80    2.38
   7  -1  -8   -0.56    2.11
  -7  -1   8   10.42    2.19
   7   1   8   11.37    2.10
  -7  -1  -8   10.02    1.81
   7   1  -8    3.76    1.76
  -7   1   8    2.89    1.57
   7  -1   8    7.29    1.68
  -7   1  -8    3.61    1.36
  -8  -1   8   31.55    2.97
  -8   1   8   33.01    3.15
   8  -1  -8   23.01    3.18
   8   1  -8   25.44    2.92
   8  -1   8   25.80    2.53
   8   1   8   28.24    2.77
  -8  -1  -8   32.93    2.82
  -8   1  -8   25.54    2.37
   9   1  -8    5.33    2.20
  -9  -1   8    4.67    1.98
  -9   1   8    1.64    1.75
   9  -1   8    2.45    1.37
   9   1   8    3.42    1.42
  -9  -1  -8    1.24    1.40
  -9   1  -8    5.20    1.69
   9  -1  -8    5.27    2.47
 -10  -1   8   48.92    3.56
 -10   1   8   44.76    3.80
  10  -1  -8   42.06    3.84
  10   1  -8   47.82    4.09
  10  -1   8   47.38    3.44
  10   1   8   48.95    3.81
 -10  -1  -8   56.17    3.77
 -10   1  -8   50.23    3.41
 -11  -1   8    0.85    1.60
 -11   1   8    5.88    2.12
  11  -1  -8    4.14    2.02
  11   1   8    5.82    1.82
 -11  -1  -8    4.15    1.74
 -11   1  -8    5.22    1.77
  12   1   8    3.00    1.44
 -12   1  -8    3.11    1.48
   0  -2   8   59.11    3.49
   0  -2  -8   70.35    4.16
   0   2   8   72.58    4.00
   0   2  -8   73.06    3.58
  -1  -2   8   23.65    2.46
   1  -2  -8   27.82    3.02
   1  -2   8   15.81    1.95
  -1  -2  -8   22.75    2.64
  -1   2   8   22.97    2.70
   1   2   8   26.34    2.86
   1   2  -8   20.88    2.18
  -1   2  -8   19.78    2.09
  -2   2  -8    1.37    1.26
   2  -2  -8    0.33    1.72
  -2  -2  -8    1.17    1.48
   2   2  -8    2.22    1.46
  -2  -2   8    3.44    1.53
  -2   2   8    1.33    1.77
   2  -2   8    1.38    1.46
   2   2   8    3.27    1.76
  -3  -2   8   99.01    4.38
   3  -2  -8   70.60    4.63
  -3   2   8  103.82    4.82
   3  -2   8   82.02    4.01
   3   2   8   96.03    4.62
   3   2  -8   88.09    4.09
  -3   2  -8   85.28    3.59
  -4  -2   8   16.20    2.15
   4  -2  -8   18.63    2.77
  -4   2   8   12.62    2.15
   4  -2   8   21.76    2.53
   4   2   8   19.46    2.47
   4   2  -8   15.09    2.18
  -4   2  -8   14.86    1.85
  -5  -2   8  112.81    4.68
   5  -2  -8  112.45    5.80
   5  -2   8  139.62    5.27
   5   2   8  134.89    5.35
   5   2  -8  130.31    5.12
  -5   2  -8  124.89    4.14
  -5   2  -8  129.53    4.21
  -6  -2   8    3.40    1.44
  -6   2   8    0.74    1.42
   6  -2   8    0.84    1.48
   6   2   8    4.54    1.73
  -6   2  -8    0.49    1.21
   6   2  -8    1.37    1.50
   6  -2  -8    0.87    2.03
   7  -2   8    7.47    1.25
  -7  -2   8    4.86    1.62
  -7   2   8    1.40    1.72
   7   2  -8   -0.21    1.68
  -7  -2  -8   -0.91    1.17
  -7   2  -8    0.48    1.22
   7  -2  -8   -1.28    2.00
   8  -2  -8   33.17    3.31
  -8  -2   8   35.16    2.92
  -8   2   8   38.73    3.42
   8   2   8   24.56    2.75
   8   2  -8   30.28    3.00
  -8  -2  -8   31.37    2.74
  -8   2  -8   35.19    2.69
   9  -2  -8   22.29    2.91
  -9  -2   8   19.83    2.40
  -9   2   8   16.18    2.55
   9   2  -8   16.09    2.57
   9   2   8   22.07    2.74
  -9  -2  -8   23.13    2.73
  -9   2  -8   23.39    2.36
 -10  -2   8    7.64    1.87
  10   2  -8    4.25    1.89
 -10   2   8    2.75    1.88
  10  -2  -8    5.97    1.97
  10   2   8    5.87    1.76
 -10  -2  -8    3.32    1.70
 -10   2  -8    3.75    1.60
 -11  -2   8    6.69    1.94
  11   2  -8    1.81    1.82
  11  -2  -8    2.72    1.81
 -11   2   8    1.49    1.72
  11   2   8    2.55    1.62
 -11  -2  -8    2.12    1.33
 -11   2  -8    1.30    1.46
 -12   2  -8    8.72    1.91
  12   2   8   10.12    2.01
 -12  -2  -8    6.45    1.73
   0   3  -8    1.00    1.37
   0  -3   8    0.70    1.18
   0   3   8    0.04    1.53
   0  -3  -8   -2.01    1.78
   1  -3  -8   10.27    2.27
  -1  -3   8   10.31    1.89
   1  -3   8   11.72    1.82
  -1   3   8   10.31    2.22
   1   3  -8    9.34    1.82
  -1   3  -8    9.24    1.69
   1   3   8    9.23    2.12
  -1  -3  -8    8.11    1.92
   2  -3  -8   64.64    4.04
  -2  -3   8   79.91    3.80
   2  -3   8   54.66    3.19
  -2   3   8   87.46    4.51
   2   3   8   73.14    4.03
   2   3  -8   79.62    3.91
  -2   3  -8   75.58    3.55
  -3  -3   8    0.80    1.31
  -3   3  -8   -0.67    1.39
  -3   3   8    5.18    1.95
   3   3  -8    2.65    1.43
   3   3   8    4.06    1.86
   3  -3  -8    2.81    1.71
   4   3  -8   -1.50    1.55
  -4  -3   8    3.24    1.41
  -4   3   8    0.68    1.59
   4   3   8    0.02    1.55
   4  -3  -8   -0.94    1.51
  -4   3  -8   -0.08    1.24
   5   3  -8   -0.41    1.38
  -5   3  -8    2.54    1.46
  -5  -3   8   -0.02    1.20
  -5   3   8    5.06    1.85
   5   3   8    0.71    1.62
   5  -3  -8    0.73    1.55
  -5   3  -8    2.11    1.26
   6  -3  -8   27.20    2.82
  -6  -3   8   29.41    2.50
  -6   3   8   21.23    2.59
   6   3   8   21.44    2.47
   6   3  -8   30.17    2.80
  -6   3  -8   29.39    2.46
   7  -3  -8   11.63    2.31
  -7  -3   8    7.91    1.71
  -7   3   8    6.23    1.88
   7   3   8    6.79    1.94
  -7   3  -8    4.45    1.45
   7   3  -8    7.28    1.94
   8  -3  -8   23.59    2.83
  -8  -3   8   29.48    2.59
  -8   3   8   21.32    2.80
   8   3   8   30.53    3.14
   8   3  -8   24.61    2.69
  -8  -3  -8   24.73    2.50
  -8   3  -8   25.96    2.44
   9  -3  -8    0.80    1.77
  -9  -3   8    3.65    1.53
   9   3  -8    3.21    1.85
  -9   3   8    5.91    2.15
   9   3   8   -0.09    1.64
  -9  -3  -8    1.72    1.57
  -9   3  -8    5.47    1.79
  10  -3  -8   41.66    3.47
 -10  -3   8   45.89    3.27
 -10   3   8   40.33    3.64
  10   3  -8   38.61    3.34
  10   3   8   30.54    3.36
 -10  -3  -8   44.26    3.69
 -10   3  -8   37.02    2.99
 -11  -3   8    6.71    1.64
  11   3  -8    4.98    1.81
  11  -3  -8   -0.17    1.57
 -11   3   8    3.54    1.69
  11   3   8    2.72    1.82
 -11  -3  -8    5.32    1.77
 -11   3  -8    6.67    1.79
 -12  -3  -8    6.40    1.50
   0  -4  -8  155.79    5.29
   0   4  -8  159.94    5.33
  -1  -4  -8   84.91    3.84
   1  -4  -8   95.06    4.29
  -1   4   8  109.35    5.02
   1   4   8   98.09    4.83
   1   4  -8   95.96    4.29
  -1   4  -8   76.55    3.77
  -2   4  -8    2.62    1.44
   2   4  -8    0.86    1.53
   2  -4  -8    2.03    1.66
  -2   4   8   -0.14    1.70
   2   4   8    5.12    1.96
   3   4  -8    1.80    1.43
   3  -4  -8    1.65    1.48
  -3  -4   8    2.94    1.12
   3  -4   8    1.27    1.44
  -3   4   8    0.92    1.98
   3   4   8    2.68    1.54
   4  -4   8   54.10    3.12
   4  -4  -8   65.72    3.80
  -4  -4   8   62.49    3.29
  -4   4   8   64.39    4.08
   4   4   8   60.55    3.76
   4   4  -8   65.46    3.81
  -4   4  -8   58.72    2.90
   5  -4   8   20.80    2.14
   5  -4  -8   19.85    2.50
  -5  -4   8   18.98    1.97
   5   4   8   21.41    2.68
   5   4  -8   20.29    2.39
  -5   4  -8   19.36    2.01
   6  -4   8   29.70    2.37
   6  -4  -8   33.57    3.01
  -6  -4   8   25.73    2.34
  -6   4   8   22.17    2.75
   6   4   8   26.67    2.79
   6   4  -8   28.94    2.82
  -6   4  -8   26.28    2.33
   7   4  -8    4.68    1.90
   7  -4  -8    1.87    1.68
  -7  -4   8    3.09    1.36
  -7   4   8    1.40    1.70
   7  -4   8    2.62    1.16
   7   4   8    1.82    1.67
  -7   4  -8    4.61    1.58
   8  -4  -8   59.69    3.81
  -8  -4   8   68.44    3.70
  -8   4   8   47.49    3.82
   8   4   8   61.70    4.27
   8   4  -8   65.70    4.04
  -8  -4  -8   78.56    4.85
  -8   4  -8   68.12    3.74
  -9  -4   8   44.23    3.10
  -9   4   8   29.14    3.30
   9   4   8   33.98    3.74
   9   4  -8   38.78    3.23
  -9   4  -8   35.62    3.01
   9  -4  -8   38.45    3.18
 -10  -4   8   41.85    3.16
 -10   4   8   35.86    3.49
  10   4   8   32.05    3.61
  10   4  -8   27.78    3.00
 -10  -4  -8   23.81    3.13
 -10   4  -8   39.49    3.12
  10  -4  -8   42.07    3.39
 -11  -4   8   19.68    2.26
 -11  -4  -8   19.98    3.12
 -11   4  -8   14.50    2.20
   0  -5  -8    0.53    1.05
   0   5   8   -1.44    1.54
   1  -5  -8    3.39    1.42
   1   5  -8   -0.21    1.66
   1  -5   8    5.26    1.76
  -1   5   8    4.04    1.84
   1   5   8    3.93    1.93
   2  -5   8   78.74    3.86
  -2   5   8   93.98    4.66
   2   5   8   85.43    4.47
   2   5  -8   91.72    4.38
   2  -5  -8   74.96    3.72
   3  -5  -8    5.89    1.56
  -3   5   8    8.09    2.16
   3  -5   8    2.72    1.50
   3   5   8    4.43    1.81
   3   5  -8    3.68    1.71
   4   5  -8    2.57    1.74
  -4   5   8    1.98    1.75
   4  -5   8    1.57    1.41
   4   5   8    0.07    1.67
  -4   5  -8    0.97    1.18
   5   5  -8    0.75    1.52
   5  -5  -8    2.18    1.46
  -5   5   8    2.59    1.91
   5  -5   8    0.67    1.44
   5   5   8   -0.94    1.73
  -5   5  -8    1.59    1.25
   6  -5   8   29.93    2.49
  -6   5   8   32.23    3.41
   6   5   8   33.17    3.08
   6   5  -8   31.21    2.95
  -6   5  -8   32.24    2.67
   6  -5  -8   28.81    2.76
   7  -5  -8    4.55    1.71
   7   5  -8    4.04    1.84
  -7   5   8    2.79    2.03
   7  -5   8    3.18    1.35
   7   5   8    7.18    2.12
  -7   5  -8    5.97    1.60
  -8   5   8   21.89    2.87
   8   5   8   15.34    2.76
   8   5  -8   18.86    2.55
  -8   5  -8   20.65    2.40
   8  -5  -8   18.50    2.65
   9   5  -8    2.97    1.72
   9  -5  -8    4.42    1.79
  -9  -5   8    1.27    0.94
  -9   5   8   -0.03    1.54
   9   5   8    7.11    2.14
  -9  -5  -8   -1.28    0.59
  -9   5  -8    4.99    1.95
 -10  -5   8   33.46    2.56
  10   5  -8   29.97    2.84
 -10  -5  -8   42.84    3.60
 -10   5  -8   41.75    3.31
 -11  -5   8   -1.78    1.15
 -11  -5  -8    6.07    1.81
   0  -6   8   47.71    3.33
   0   6   8   35.30    3.14
  -1  -6   8   12.44    2.16
   1  -6   8   10.68    2.05
  -1   6   8   13.66    2.26
   1   6   8   13.08    2.45
   1  -6  -8   16.32    2.12
   2   6  -8   -0.40    1.76
   2  -6  -8    1.52    1.60
  -2   6   8    1.59    1.77
   2  -6   8    2.66    1.56
   2   6   8    1.23    1.70
  -3   6   8   56.86    3.87
   3   6   8   51.31    3.72
   3   6  -8   60.05    3.83
   3  -6  -8   64.74    3.78
   4  -6   8   12.84    1.98
  -4   6   8   18.34    2.48
   4   6   8   13.33    2.35
  -4   6  -8   12.12    1.67
   4   6  -8   10.07    2.22
   4  -6  -8    8.58    2.04
   5  -6   8   67.18    3.65
  -5   6   8   82.03    4.54
   5   6   8   70.34    4.38
  -5   6  -8   78.15    3.78
   5   6  -8   68.96    4.12
   5  -6  -8   79.52    4.31
   6  -6  -8    1.40    1.63
  -6   6   8   -1.19    1.81
   6  -6   8    1.59    1.51
   6   6   8    2.16    1.74
  -6   6  -8   -0.84    1.34
   7  -6  -8    1.03    1.71
  -7   6   8    2.24    1.81
   7  -6   8    0.59    1.24
   7   6  -8   -0.96    1.52
   7   6   8    2.39    1.92
   8  -6   8   29.04    2.32
  -8   6   8   22.37    2.92
   8   6   8   19.61    2.84
   8   6  -8   22.57    2.70
  -8   6  -8   24.50    2.69
   8  -6  -8   22.45    2.63
  -9   6   8    9.74    1.93
  -9   6  -8   10.27    2.02
 -10  -6  -8    3.97    1.37
   0   7   8   -0.47    1.75
   0  -7   8    2.70    1.68
  -1   7   8    5.80    1.88
  -1  -7   8    5.48    1.93
   1   7   8    3.89    1.89
   1  -7   8    5.45    1.89
  -2  -7   8   36.71    3.18
   2  -7   8   39.21    3.12
  -2   7   8   43.13    3.43
   2   7   8   37.69    3.19
   2  -7  -8   43.98    3.18
   3  -7  -8    2.25    1.74
  -3   7   8    3.98    1.89
   3   7   8   -0.77    1.88
   3  -7   8    1.84    1.62
   4   7  -8    2.90    2.01
   4  -7  -8    3.05    1.71
  -4   7   8   -0.29    1.64
   4   7   8    0.74    1.63
   4  -7   8    2.89    1.64
  -4   7  -8   -0.10    1.35
   5   7  -8   -0.67    1.75
   5  -7  -8   -1.34    1.57
  -5   7   8   -1.45    1.73
   5   7   8    1.87    1.88
   5  -7   8    0.21    1.50
  -5   7  -8    3.31    1.67
   6  -7   8   21.44    2.40
  -6   7   8   16.86    2.56
   6   7   8   17.88    2.65
  -6   7  -8   17.82    2.21
   6   7  -8   14.88    2.33
   7  -7  -8    2.12    1.66
  -7   7   8    8.17    2.17
   7  -7   8    2.98    1.49
  -7   7  -8    5.71    1.68
   8  -7   8   16.45    1.99
  -8   7  -8   18.41    2.23
   0  -8   8   88.96    4.65
   0   8   8   86.41    4.48
  -1  -8   8   33.18    3.14
   1  -8   8   37.48    3.31
  -1   8   8   41.86    3.43
   1   8   8   38.40    3.41
  -2   8   8    3.10    1.73
  -2  -8   8    2.08    1.75
   2   8   8    2.34    2.00
   2  -8   8    1.72    1.90
   3  -8  -8    2.80    1.22
  -3   8   8    1.68    1.76
  -3  -8   8    1.76    1.57
   3   8   8   -0.39    2.06
   3  -8   8    2.90    1.69
   4  -8   8   42.92    3.38
  -4   8   8   35.41    3.20
   4   8   8   37.96    3.45
  -4   8  -8   37.98    2.94
   4  -8  -8   38.68    3.05
   5  -8   8    9.37    1.92
   5  -8  -8    7.61    1.57
  -5   8  -8   10.01    2.02
  -5   8   8    6.91    1.82
   6  -8   8   15.29    2.22
  -6   8  -8   11.10    2.10
   0   9   8    1.55    1.24
   1   9   8   -1.35    1.23
  -2   9   8   37.01    3.06
  -3   9   8    5.26    1.23
  -4   9  -8    0.02    1.01
   0   0  -9   -0.20    1.34
   0   0   9    0.79    1.66
   1   0   9    8.34    2.14
   1   0  -9    7.31    2.01
  -1   0  -9    4.35    1.62
  -1   0   9    4.03    1.75
   2   0   9  135.06    5.52
   2   0  -9  126.17    5.40
  -2   0  -9  145.63    5.18
   3   0  -9    3.08    1.97
  -3   0   9    4.42    1.55
   3   0   9    5.62    2.09
   4   0  -9    7.94    2.22
   4   0   9    7.62    1.93
   5   0  -9    5.18    2.05
  -5   0   9    2.22    1.69
   5   0   9    7.96    1.88
  -6   0   9   93.26    5.07
   6   0  -9   99.46    5.62
  -7   0   9   24.51    2.80
   7   0  -9   22.36    3.31
   7   0   9   24.83    2.72
   8   0  -9    1.68    1.94
   8   0   9   -0.39    1.25
   9   0   9    3.69    1.50
  10   0   9    5.95    1.19
 -11   0  -9    8.81    1.89
   0  -1   9   27.15    2.80
   0  -1  -9   29.89    2.98
   0   1  -9   34.58    2.78
   1  -1   9    8.58    2.00
   1   1   9   11.01    2.19
   1  -1  -9    5.76    1.91
   1   1  -9    9.07    1.95
  -1   1  -9    7.36    1.63
  -1  -1  -9    7.50    1.88
  -1  -1   9    6.36    1.63
  -1   1   9    7.95    2.15
  -2   1  -9    1.61    1.11
   2  -1  -9    0.30    1.65
  -2  -1   9   -1.31    1.31
  -2   1   9    2.02    1.81
   2   1   9    1.96    1.68
   2   1  -9    3.84    1.70
  -3   1  -9    2.97    1.08
   3  -1  -9    5.36    2.10
  -3  -1   9    1.72    1.44
  -3   1   9   -0.05    1.53
   3   1  -9    2.16    1.74
   3  -1   9    1.70    1.66
   3   1   9    1.89    1.94
  -4  -1   9   62.73    4.08
  -4   1   9   55.83    3.97
   4  -1  -9   47.40    4.21
   4  -1   9   58.25    3.90
   4   1   9   55.54    3.71
   4   1  -9   54.24    3.77
   5  -1  -9   -0.78    2.13
   5   1  -9    2.82    1.90
  -5  -1   9    4.04    1.79
   5  -1   9    3.01    1.61
   5   1   9    1.45    1.74
  -6  -1   9   15.27    2.30
   6  -1  -9   14.41    2.99
   6  -1   9   22.33    2.58
   6   1   9   17.97    2.41
   6   1  -9   13.10    2.57
  -6   1   9    7.14    1.80
   7  -1  -9   11.74    2.59
   7  -1   9    9.00    1.77
   7   1  -9    1.22    1.87
  -7  -1   9    6.25    1.79
  -7   1   9    4.23    1.69
   7   1   9    5.81    1.80
  -8  -1   9   30.77    3.03
  -8   1   9   24.15    2.87
   8  -1  -9   27.62    3.56
   8   1  -9   24.74    3.16
  -9  -1   9    6.54    1.78
   9   1   9    6.86    1.73
 -10   1  -9    9.97    1.62
   0  -2  -9    1.65    1.62
   0   2  -9    0.40    1.24
   0  -2   9    0.32    1.07
   0   2   9    1.21    1.88
   1  -2  -9    5.75    2.37
  -1  -2  -9    4.18    1.56
   1   2  -9    6.08    1.73
  -1   2  -9    2.52    1.33
  -1  -2   9   -0.29    1.28
   1  -2   9    2.21    1.30
  -1   2   9    2.52    1.77
   1   2   9    6.78    2.08
   2  -2  -9    1.56    2.07
   2   2  -9    1.41    1.53
  -2   2  -9    1.04    1.25
  -2  -2   9    4.37    1.54
  -2   2   9    3.24    1.90
   2  -2   9    0.61    1.35
   2   2   9    2.46    1.88
  -3  -2   9   33.00    2.97
   3  -2  -9   25.99    3.22
  -3   2   9   35.61    3.34
   3  -2   9   36.70    3.03
   3   2   9   39.74    3.45
   3   2  -9   35.75    3.06
  -3   2  -9   34.96    2.58
  -4  -2   9   15.70    2.21
  -4   2   9   19.12    2.81
   4  -2   9   26.91    2.44
   4   2   9   19.03    2.62
   4   2  -9   18.79    2.53
   4  -2  -9    8.26    2.24
  -5   2   9    1.30    1.63
   5   2   9    1.81    1.74
   5   2  -9    5.35    1.91
   5  -2  -9    5.26    2.28
   6  -2  -9   22.52    3.14
  -6  -2   9   21.42    2.36
  -6   2   9   20.38    2.90
   6   2   9   24.43    2.88
   6   2  -9   29.40    3.15
   7  -2  -9   15.42    2.86
   7   2   9   14.35    2.26
   7   2  -9   14.19    2.51
  -7  -2   9   10.25    1.82
   8   2   9   10.32    2.19
   8   2  -9    8.31    2.10
  -8   2   9    3.65    1.34
   8  -2  -9    8.55    2.07
  -9  -2   9    2.64    1.10
   9   2   9    1.44    1.17
 -10   2  -9    5.34    1.12
   0  -3  -9   28.90    2.84
   0   3  -9   29.39    2.63
   1  -3  -9   14.08    2.35
  -1  -3   9   10.15    1.62
   1   3  -9    9.71    1.85
  -1   3  -9   12.61    1.94
  -1   3   9    8.66    2.09
   1   3   9    5.86    1.87
   2   3  -9   -0.20    1.47
  -2  -3   9    2.30    1.29
  -2   3   9    1.78    2.08
   2   3   9   -0.86    1.81
   2  -3  -9    1.34    1.42
  -2   3  -9    0.25    1.15
  -3   3  -9    0.18    1.07
   3   3  -9    2.30    1.68
  -3  -3   9   -0.33    1.25
  -3   3   9    1.06    1.82
   3   3   9   -0.39    1.71
   3  -3  -9    1.14    1.63
   4  -3  -9   54.07    3.83
  -4  -3   9   64.14    3.73
  -4   3   9   58.21    4.09
   4   3   9   55.08    3.86
   4   3  -9   47.33    3.54
  -4   3  -9   47.19    2.86
   5   3  -9    0.22    1.64
  -5  -3   9    2.33    1.47
  -5   3   9   -0.23    2.03
   5  -3  -9    0.03    1.87
   5   3   9   -2.42    1.88
   6  -3  -9   10.25    2.38
  -6  -3   9    8.65    1.71
  -6   3   9   16.64    2.68
   6   3   9   12.66    2.24
   6   3  -9   13.28    2.43
  -7  -3   9   10.33    1.87
   7  -3  -9    3.32    1.83
  -7   3   9    0.33    1.48
   7   3   9    7.55    2.04
   7   3  -9    6.23    1.83
  -8  -3   9   29.67    2.78
   8   3   9   28.52    2.79
  -9  -3   9   -0.28    0.44
  -9   3  -9    0.81    0.64
 -10   3  -9    3.25    1.22
   0   4  -9   -0.17    1.42
   0   4   9    3.42    1.99
   1   4  -9    5.11    1.83
  -1   4  -9    3.44    1.64
   1  -4  -9    6.82    1.74
  -1   4   9    0.12    1.79
   1   4   9    4.57    2.09
   2  -4  -9   98.50    4.71
  -2   4   9  111.67    5.38
   2   4   9   97.83    5.10
   2   4  -9  105.22    4.80
  -2   4  -9  106.71    4.55
   3  -4  -9    3.51    1.77
   3   4  -9    3.77    1.62
  -3   4   9    4.26    1.93
   3   4   9    1.26    1.75
  -3   4  -9    5.21    1.65
  -4   4  -9    4.50    1.49
   4   4  -9    4.66    1.72
   4  -4  -9    5.21    1.85
  -4   4   9    3.74    2.08
   4   4   9    3.43    1.98
   5  -4  -9   11.53    2.21
  -5   4   9    9.15    2.53
   5   4  -9    1.57    1.65
   5   4   9    0.44    1.87
   6  -4  -9   84.00    4.50
  -6   4   9   76.57    4.95
   6   4   9   91.24    4.84
   6   4  -9   82.97    4.67
  -7  -4   9   32.85    2.76
  -8  -4   9    4.30    1.12
  -9   4  -9    1.47    0.96
   0   5   9   22.65    2.86
   0   5  -9   24.35    2.66
  -1   5  -9    3.85    1.67
   1   5  -9    6.18    2.04
  -1   5   9    5.49    2.08
   1   5   9    7.52    2.08
   2   5  -9    0.79    1.54
   2  -5  -9    1.15    1.30
  -2   5  -9   -0.19    1.75
   3   5  -9    0.07    1.41
  -3   5  -9    1.95    1.68
   3  -5  -9    0.81    1.33
  -3   5   9    3.08    1.79
   3   5   9   -0.51    1.59
  -4   5   9   26.73    2.99
   4   5   9   37.44    3.49
   4   5  -9   37.72    3.35
  -4   5  -9   32.68    2.83
   4  -5  -9   38.72    3.10
   5  -5  -9    4.83    1.87
   5   5  -9    1.94    1.36
  -5   5   9    5.33    2.26
   5   5   9    1.29    1.42
   6  -5  -9    7.68    1.63
   0   6   9    0.56    1.74
   0   6  -9   -2.56    1.82
  -1   6  -9    3.44    1.92
   1   6  -9    3.50    1.81
  -1   6   9    3.99    1.90
   1   6   9    0.79    1.59
   2   6  -9    2.79    1.71
  -2   6   9    3.67    1.83
   2   6   9    1.27    1.60
   3  -6   9   16.37    2.33
   3  -6  -9   20.47    2.51
   4  -6   9    4.84    1.64
   4  -6  -9   10.42    1.91
   5  -6  -9    1.51    1.22
   5  -6   9   -0.41    1.22
   6  -6   9   14.43    1.91
   0   0 -10    7.05    1.86
   0   0  10    4.62    1.65
  -1   0 -10   10.15    1.89
   1   0 -10    6.46    1.95
  -1   0  10    5.51    1.90
   1   0  10    4.65    1.69
   2   0 -10   -1.78    1.44
  -2   0  10    3.05    1.53
   2   0  10   -1.38    1.70
  -3   0  10   33.65    3.10
   3   0 -10   38.38    3.51
  -4   0  10   10.78    1.74
   4   0  10    0.94    1.34
   5   0  10   18.10    2.45
   0  -1 -10    2.10    0.92
   0   1 -10    0.68    1.39
   0  -1  10   -0.30    1.57
   0   1  10    1.91    1.70
   1  -1 -10    9.62    2.00
   1   1  10   10.11    2.12
   1   1 -10    8.36    1.93
  -1  -1  10    7.34    1.76
  -1   1  10    6.23    1.83
   1  -1  10    7.89    1.83
  -1   1 -10    5.19    1.32
  -2  -1  10   26.36    2.80
  -2   1  10   28.68    3.01
   2  -1 -10   29.77    3.38
   2  -1  10   29.13    2.81
   2   1 -10   24.15    2.76
   3  -1 -10    1.60    1.64
   3   1 -10   -1.36    1.24
  -3  -1  10    4.02    1.01
  -3   1  10   -0.26    1.08
   3  -1  10    1.65    1.38
   3   1  10    0.73    1.54
   4  -1  10    0.66    0.64
   4   1  10    2.50    1.55
   0   2  10   81.98    4.68
   0   2 -10   90.33    4.53
  -1   2 -10    1.80    1.21
  -1  -2  10    4.64    1.28
   1   2 -10    5.79    1.65
   1  -2 -10    1.61    1.39
   2   2  10   10.88    2.06
   2   2 -10    9.47    1.89
  -2   2 -10    8.25    1.36
  -2  -2  10    5.18    1.25
   2  -2 -10    9.97    2.08
  -3  -2  10    1.65    0.65
   3  -2 -10    2.55    1.36
  -4  -2  10   50.77    3.55
   0   3 -10    0.58    1.08
  -1   3 -10    5.33    1.28
   1   3 -10    7.54    1.38
   2  -3 -10   29.21    2.82
  -2   3 -10   19.19    1.97
   2  -4 -10    1.38    1.45
   0   0   0    0.00    0.00


TITL DP085 in Pnma
REM Pnma (#62, found as Pcmn in -cba setting)
CELL 0.71073  14.033218  10.109077   7.229161  90.0000  90.0000  90.0000
ZERR    1.00   0.000590   0.000416   0.000301   0.0000   0.0000   0.0000
LATT  1
SYMM -x+1/2,-y, z+1/2
SYMM -x, y+1/2,-z
SYMM  x+1/2,-y+1/2,-z+1/2
SFAC Cl Rb In Sb
UNIT 12.00 4.00 1.00 1.00
TREF
HKLF 4
END
_computing_structure_solution     'SHELXT 2018/2 (Sheldrick, 2018)'
;
_shelx_hkl_checksum              12554
_olex2_exptl_crystal_mounting_method 'Tip mounted'
_olex2_submission_special_instructions 'No special instructions were received'
_oxdiff_exptl_absorpt_empirical_details
;
Empirical correction (ABSPACK) includes:
- Absorption correction using spherical harmonics
- Frame scaling
- Detector area scaling
;
_oxdiff_exptl_absorpt_empirical_full_max 2.374
_oxdiff_exptl_absorpt_empirical_full_min 0.727
loop_
_space_group_symop_operation_xyz
'x, y, z'
'-x+1/2, -y, z+1/2'
'-x, y+1/2, -z'
'x+1/2, -y+1/2, -z+1/2'
'-x, -y, -z'
'x-1/2, y, -z-1/2'
'x, -y-1/2, z'
'-x-1/2, y-1/2, z-1/2'
loop_
_atom_site_label
_atom_site_type_symbol
_atom_site_fract_x
_atom_site_fract_y
_atom_site_fract_z
_atom_site_U_iso_or_equiv
_atom_site_adp_type
_atom_site_occupancy
_atom_site_site_symmetry_order
_atom_site_calc_flag
_atom_site_refinement_flags_posn
_atom_site_refinement_flags_adp
_atom_site_refinement_flags_occupancy
_atom_site_disorder_assembly
_atom_site_disorder_group
Sb01 Sb 0.61461(3) 0.750000 0.69107(6) 0.02295(12) Uani 1 2 d S T P . .
Rb02 Rb 0.64445(4) 0.50075(5) 0.15566(7) 0.03701(15) Uani 1 1 d . . . . .
Cl03 Cl 0.75246(11) 0.750000 0.9041(2) 0.0285(3) Uani 1 2 d S T P . .
Cl04 Cl 0.72270(13) 0.750000 0.4226(2) 0.0362(4) Uani 1 2 d S T P . .
Cl05 Cl 0.60371(9) 0.50373(10) 0.67947(18) 0.0344(3) Uani 1 1 d . . . . .
Cl06 Cl 0.50255(11) 0.750000 0.9570(2) 0.0338(3) Uani 1 2 d S T P . .
O07 O 0.4905(4) 0.750000 0.4928(8) 0.0405(13) Uani 1 2 d S T P . .
loop_
_atom_site_aniso_label
_atom_site_aniso_U_11
_atom_site_aniso_U_22
_atom_site_aniso_U_33
_atom_site_aniso_U_23
_atom_site_aniso_U_13
_atom_site_aniso_U_12
Sb01 0.0232(2) 0.02016(19) 0.0255(2) 0.000 -0.00194(15) 0.000
Rb02 0.0359(3) 0.0348(3) 0.0403(3) 0.00443(19) -0.00506(19) -0.00139(18)
Cl03 0.0256(7) 0.0328(7) 0.0270(7) 0.000 -0.0065(5) 0.000
Cl04 0.0401(9) 0.0433(9) 0.0250(7) 0.000 0.0080(6) 0.000
Cl05 0.0398(6) 0.0185(5) 0.0450(7) -0.0034(4) -0.0094(5) -0.0002(4)
Cl06 0.0293(7) 0.0338(8) 0.0384(8) 0.000 0.0101(7) 0.000
O07 0.036(3) 0.028(2) 0.057(3) 0.000 -0.026(3) 0.000
loop_
_atom_type_symbol
_atom_type_description
_atom_type_scat_dispersion_real
_atom_type_scat_dispersion_imag
_atom_type_scat_source
Cl Cl 0.1484 0.1585 'International Tables Vol C Tables 4.2.6.8 and 6.1.1.4'
O O 0.0106 0.0060 'International Tables Vol C Tables 4.2.6.8 and 6.1.1.4'
Rb Rb -0.9393 2.9676 'International Tables Vol C Tables 4.2.6.8 and 6.1.1.4'
Sb Sb -0.5866 1.5461 'International Tables Vol C Tables 4.2.6.8 and 6.1.1.4'
loop_
_geom_angle_atom_site_label_1
_geom_angle_atom_site_label_2
_geom_angle_atom_site_label_3
_geom_angle
_geom_angle_site_symmetry_1
_geom_angle_site_symmetry_3
_geom_angle_publ_flag
Rb02 Sb01 Rb02 73.558(15) 8_766 2_665 ?
Rb02 Sb01 Rb02 73.334(16) 7_576 1_556 ?
Rb02 Sb01 Rb02 67.129(9) 7_576 8_766 ?
Rb02 Sb01 Rb02 67.129(9) 1_556 2_665 ?
Rb02 Sb01 Rb02 109.052(12) 7_576 2_665 ?
Rb02 Sb01 Rb02 109.052(12) 1_556 8_766 ?
Cl03 Sb01 Rb02 55.01(3) . 1_556 ?
Cl03 Sb01 Rb02 54.04(3) . 2_665 ?
Cl03 Sb01 Rb02 55.01(3) . 7_576 ?
Cl03 Sb01 Rb02 54.04(3) . 8_766 ?
Cl03 Sb01 Cl05 93.95(3) . 7_575 ?
Cl03 Sb01 Cl05 93.95(3) . . ?
Cl03 Sb01 Cl06 90.76(6) . . ?
Cl04 Sb01 Rb02 124.47(3) . 1_556 ?
Cl04 Sb01 Rb02 57.35(3) . 8_766 ?
Cl04 Sb01 Rb02 124.47(3) . 7_576 ?
Cl04 Sb01 Rb02 57.35(3) . 2_665 ?
Cl04 Sb01 Cl03 90.51(6) . . ?
Cl04 Sb01 Cl05 90.65(3) . 7_575 ?
Cl04 Sb01 Cl05 90.65(3) . . ?
Cl04 Sb01 Cl06 178.73(6) . . ?
Cl05 Sb01 Rb02 56.61(3) 7_575 8_766 ?
Cl05 Sb01 Rb02 56.61(3) . 2_665 ?
Cl05 Sb01 Rb02 128.94(3) 7_575 1_556 ?
Cl05 Sb01 Rb02 130.10(3) 7_575 2_665 ?
Cl05 Sb01 Rb02 130.10(3) . 8_766 ?
Cl05 Sb01 Rb02 55.74(3) 7_575 7_576 ?
Cl05 Sb01 Rb02 128.94(3) . 7_576 ?
Cl05 Sb01 Rb02 55.74(3) . 1_556 ?
Cl05 Sb01 Cl05 171.99(6) 7_575 . ?
Cl06 Sb01 Rb02 123.54(3) . 2_665 ?
Cl06 Sb01 Rb02 56.41(3) . 7_576 ?
Cl06 Sb01 Rb02 123.54(3) . 8_766 ?
Cl06 Sb01 Rb02 56.41(3) . 1_556 ?
Cl06 Sb01 Cl05 89.27(3) . 7_575 ?
Cl06 Sb01 Cl05 89.27(3) . . ?
O07 Sb01 Rb02 125.63(10) . 7_576 ?
O07 Sb01 Rb02 125.32(10) . 2_665 ?
O07 Sb01 Rb02 125.32(11) . 8_766 ?
O07 Sb01 Rb02 125.63(10) . 1_556 ?
O07 Sb01 Cl03 179.06(16) . . ?
O07 Sb01 Cl04 88.55(16) . . ?
O07 Sb01 Cl05 86.06(3) . . ?
O07 Sb01 Cl05 86.06(3) . 7_575 ?
O07 Sb01 Cl06 90.18(16) . . ?
Sb01 Rb02 Sb01 119.008(15) 1_554 2_664 ?
Cl03 Rb02 Sb01 35.87(2) 1_554 1_554 ?
Cl03 Rb02 Sb01 154.26(3) 2_664 1_554 ?
Cl03 Rb02 Sb01 96.78(2) 1_554 2_664 ?
Cl03 Rb02 Sb01 35.74(2) 2_664 2_664 ?
Cl03 Rb02 Cl03 129.025(16) 2_664 1_554 ?
Cl03 Rb02 Cl04 60.10(3) 2_664 2_664 ?
Cl03 Rb02 Cl04 92.31(3) 1_554 2_664 ?
Cl03 Rb02 Cl05 125.43(3) 1_554 . ?
Cl03 Rb02 Cl05 63.04(3) 1_554 1_554 ?
Cl03 Rb02 Cl05 62.83(3) 2_664 2_664 ?
Cl03 Rb02 Cl05 66.24(3) 1_554 2_664 ?
Cl03 Rb02 Cl05 63.30(3) 2_664 . ?
Cl03 Rb02 Cl05 102.74(3) 2_664 5_666 ?
Cl03 Rb02 Cl05 126.34(3) 2_664 1_554 ?
Cl03 Rb02 Cl05 126.44(3) 1_554 5_666 ?
Cl03 Rb02 Cl06 169.32(4) 2_664 1_554 ?
Cl03 Rb02 Cl06 60.75(3) 1_554 1_554 ?
Cl04 Rb02 Sb01 95.75(3) 2_664 1_554 ?
Cl04 Rb02 Sb01 98.82(3) . 2_664 ?
Cl04 Rb02 Sb01 35.53(3) 2_664 2_664 ?
Cl04 Rb02 Sb01 92.40(2) . 1_554 ?
Cl04 Rb02 Cl03 96.65(3) . 2_664 ?
Cl04 Rb02 Cl03 67.18(3) . 1_554 ?
Cl04 Rb02 Cl04 129.292(17) . 2_664 ?
Cl04 Rb02 Cl05 127.87(3) . 1_554 ?
Cl04 Rb02 Cl05 129.66(3) 2_664 5_666 ?
Cl04 Rb02 Cl05 69.82(4) . 2_664 ?
Cl04 Rb02 Cl05 58.31(3) . . ?
Cl04 Rb02 Cl05 97.61(4) . 5_666 ?
Cl04 Rb02 Cl05 123.39(3) 2_664 . ?
Cl04 Rb02 Cl06 154.67(4) . 5_666 ?
Cl04 Rb02 Cl06 83.24(3) . 1_554 ?
Cl05 Rb02 Sb01 140.13(2) . 1_554 ?
Cl05 Rb02 Sb01 101.28(2) 1_554 2_664 ?
Cl05 Rb02 Sb01 93.68(2) . 2_664 ?
Cl05 Rb02 Sb01 99.86(2) 5_666 1_554 ?
Cl05 Rb02 Sb01 36.235(18) 1_554 1_554 ?
Cl05 Rb02 Sb01 36.074(18) 2_664 2_664 ?
Cl05 Rb02 Sb01 136.77(2) 5_666 2_664 ?
Cl05 Rb02 Sb01 98.37(2) 2_664 1_554 ?
Cl05 Rb02 Cl04 68.04(3) 1_554 2_664 ?
Cl05 Rb02 Cl04 59.48(3) 2_664 2_664 ?
Cl05 Rb02 Cl05 161.96(4) 1_554 . ?
Cl05 Rb02 Cl05 95.80(3) 2_664 . ?
Cl05 Rb02 Cl05 99.47(3) 1_554 5_666 ?
Cl05 Rb02 Cl05 62.53(3) 5_666 . ?
Cl05 Rb02 Cl05 158.270(17) 2_664 5_666 ?
Cl05 Rb02 Cl05 102.22(4) 1_554 2_664 ?
Cl05 Rb02 Cl06 59.89(3) 1_554 1_554 ?
Cl06 Rb02 Sb01 93.05(2) 5_666 2_664 ?
Cl06 Rb02 Sb01 101.31(3) 5_666 1_554 ?
Cl06 Rb02 Sb01 36.02(3) 1_554 1_554 ?
Cl06 Rb02 Sb01 154.90(3) 1_554 2_664 ?
Cl06 Rb02 Cl03 133.62(4) 5_666 1_554 ?
Cl06 Rb02 Cl03 80.13(3) 5_666 2_664 ?
Cl06 Rb02 Cl04 70.81(3) 5_666 2_664 ?
Cl06 Rb02 Cl04 127.71(4) 1_554 2_664 ?
Cl06 Rb02 Cl05 108.27(3) 1_554 . ?
Cl06 Rb02 Cl05 59.31(3) 5_666 5_666 ?
Cl06 Rb02 Cl05 126.47(3) 1_554 2_664 ?
Cl06 Rb02 Cl05 98.83(4) 5_666 . ?
Cl06 Rb02 Cl05 127.87(3) 5_666 2_664 ?
Cl06 Rb02 Cl05 70.59(4) 5_666 1_554 ?
Cl06 Rb02 Cl05 66.77(3) 1_554 5_666 ?
Cl06 Rb02 Cl06 95.374(14) 5_666 1_554 ?
Sb01 Cl03 Rb02 90.22(4) . 2_665 ?
Sb01 Cl03 Rb02 90.22(4) . 8_766 ?
Sb01 Cl03 Rb02 89.12(4) . 1_556 ?
Sb01 Cl03 Rb02 89.12(4) . 7_576 ?
Rb02 Cl03 Rb02 85.508(8) 8_766 7_576 ?
Rb02 Cl03 Rb02 93.57(4) 7_576 1_556 ?
Rb02 Cl03 Rb02 95.41(4) 2_665 8_766 ?
Rb02 Cl03 Rb02 178.87(4) 2_665 7_576 ?
Rb02 Cl03 Rb02 178.87(4) 8_766 1_556 ?
Rb02 Cl03 Rb02 85.508(9) 2_665 1_556 ?
Sb01 Cl04 Rb02 104.56(4) . 7_575 ?
Sb01 Cl04 Rb02 87.12(4) . 2_665 ?
Sb01 Cl04 Rb02 104.56(4) . . ?
Sb01 Cl04 Rb02 87.12(4) . 8_766 ?
Rb02 Cl04 Rb02 167.12(6) . 8_766 ?
Rb02 Cl04 Rb02 167.12(6) 7_575 2_665 ?
Rb02 Cl04 Rb02 84.791(10) 7_575 8_766 ?
Rb02 Cl04 Rb02 90.50(4) 8_766 2_665 ?
Rb02 Cl04 Rb02 84.790(10) . 2_665 ?
Rb02 Cl04 Rb02 97.22(5) . 7_575 ?
Sb01 Cl05 Rb02 88.02(4) . 1_556 ?
Sb01 Cl05 Rb02 91.83(4) . . ?
Sb01 Cl05 Rb02 87.32(4) . 2_665 ?
Sb01 Cl05 Rb02 93.40(4) . 5_666 ?
Rb02 Cl05 Rb02 80.53(3) 1_556 5_666 ?
Rb02 Cl05 Rb02 117.47(3) 5_666 . ?
Rb02 Cl05 Rb02 163.83(4) 2_665 5_666 ?
Rb02 Cl05 Rb02 83.36(3) 1_556 2_665 ?
Rb02 Cl05 Rb02 78.62(3) 2_665 . ?
Rb02 Cl05 Rb02 161.96(4) 1_556 . ?
Sb01 Cl06 Rb02 87.57(4) . 1_556 ?
Sb01 Cl06 Rb02 101.58(4) . 3_656 ?
Sb01 Cl06 Rb02 87.57(4) . 7_576 ?
Sb01 Cl06 Rb02 101.58(4) . 5_666 ?
Rb02 Cl06 Rb02 169.87(5) 5_666 7_576 ?
Rb02 Cl06 Rb02 91.49(4) 7_576 1_556 ?
Rb02 Cl06 Rb02 84.625(13) 3_656 7_576 ?
Rb02 Cl06 Rb02 169.87(5) 3_656 1_556 ?
Rb02 Cl06 Rb02 97.63(5) 5_666 3_656 ?
Rb02 Cl06 Rb02 84.625(13) 5_666 1_556 ?
loop_
_geom_bond_atom_site_label_1
_geom_bond_atom_site_label_2
_geom_bond_distance
_geom_bond_site_symmetry_2
_geom_bond_publ_flag
Sb01 Rb02 4.2336(6) 2_665 ?
Sb01 Rb02 4.2195(6) 1_556 ?
Sb01 Rb02 4.2195(6) 7_576 ?
Sb01 Rb02 4.2336(6) 8_766 ?
Sb01 Cl03 2.4727(15) . ?
Sb01 Cl04 2.4632(17) . ?
Sb01 Cl05 2.4956(11) . ?
Sb01 Cl05 2.4956(11) 7_575 ?
Sb01 Cl06 2.4836(16) . ?
Sb01 O07 2.255(5) . ?
Rb02 Cl03 3.4270(12) 2_664 ?
Rb02 Cl03 3.4574(12) 1_554 ?
Rb02 Cl04 3.3585(13) . ?
Rb02 Cl04 3.5692(14) 2_664 ?
Rb02 Cl05 3.8298(14) . ?
Rb02 Cl05 3.5386(14) 2_664 ?
Rb02 Cl05 3.4897(14) 1_554 ?
Rb02 Cl05 3.6811(14) 5_666 ?
Rb02 Cl06 3.3680(12) 5_666 ?
Rb02 Cl06 3.5181(13) 1_554 ?
